MODEL 1
REMARK VINA RESULT: -7.042326273      0.000      0.000
REMARK  12 active torsions:
REMARK  status: ('A' for Active; 'I' for Inactive)
REMARK    1  A    between atoms: C2_2  and  C3_3 
REMARK    2  A    between atoms: C6_6  and  C7_7 
REMARK    3  A    between atoms: C7_7  and  C8_8 
REMARK    4  A    between atoms: C8_8  and  C9_9 
REMARK    5  A    between atoms: C9_9  and  C10_10 
REMARK    6  A    between atoms: C10_10  and  C11_11 
REMARK    7  A    between atoms: C11_11  and  N1_12 
REMARK    8  A    between atoms: C13_20  and  C14_21 
REMARK    9  A    between atoms: C16_27  and  C17_28 
REMARK   10  A    between atoms: C17_28  and  C18_29 
REMARK   11  A    between atoms: C18_29  and  C19_30 
REMARK   12  A    between atoms: C19_30  and  N4_31 
REMARK       I    between atoms: N4_31  and  C20_33 
ROOT
HETATM    1  C3  UNL     1      15.934  41.320 -11.317  1.00  0.00     0.099 C 
HETATM    2  C4  UNL     1      15.763  40.577 -10.034  1.00  0.00     0.020 C 
HETATM    3  C5  UNL     1      14.394  40.752  -9.432  1.00  0.00     0.026 C 
HETATM    4  C6  UNL     1      13.508  39.512  -9.633  1.00  0.00     0.084 C 
HETATM    5  N2  UNL     1      14.290  38.314  -9.482  1.00  0.00    -0.354 N 
ATOM      6  H2  UNL     1      14.972  38.321  -8.723  1.00  0.00     0.162 HD
HETATM    7  C12 UNL     1      14.235  37.135 -10.246  1.00  0.00     0.247 C 
HETATM    8  O1  UNL     1      14.931  36.120  -9.873  1.00  0.00    -0.271 OA
HETATM    9  C13 UNL     1      13.445  36.905 -11.477  1.00  0.00     0.238 C 
HETATM   10  N3  UNL     1      13.539  37.897 -12.481  1.00  0.00    -0.340 N 
ATOM     11  H3  UNL     1      12.714  38.486 -12.595  1.00  0.00     0.163 HD
HETATM   12  C15 UNL     1      14.618  38.188 -13.351  1.00  0.00     0.241 C 
HETATM   13  O3  UNL     1      14.362  38.396 -14.592  1.00  0.00    -0.271 OA
HETATM   14  C16 UNL     1      16.047  38.281 -12.978  1.00  0.00     0.176 C 
HETATM   15  N7  UNL     1      16.570  39.618 -13.176  1.00  0.00    -0.347 N 
ATOM     16  H7  UNL     1      16.764  39.857 -14.149  1.00  0.00     0.163 HD
HETATM   17  C21 UNL     1      16.853  40.626 -12.268  1.00  0.00     0.226 C 
HETATM   18  O4  UNL     1      18.079  41.042 -12.222  1.00  0.00    -0.273 OA
ENDROOT
BRANCH  14  19
HETATM   19  C17 UNL     1      16.918  37.241 -13.637  1.00  0.00     0.036 C 
BRANCH  19  20
HETATM   20  C18 UNL     1      17.665  37.635 -14.840  1.00  0.00     0.022 C 
BRANCH  20  21
HETATM   21  C19 UNL     1      17.031  36.866 -16.017  1.00  0.00     0.122 C 
BRANCH  21  22
HETATM   22  N4  UNL     1      16.232  35.775 -15.544  1.00  0.00    -0.365 N 
HETATM   23  C20 UNL     1      15.031  35.381 -16.207  1.00  0.00     0.181 C 
HETATM   24  N5  UNL     1      13.942  35.420 -15.535  1.00  0.00    -0.374 N 
HETATM   25  N6  UNL     1      14.991  34.959 -17.548  1.00  0.00    -0.064 NA
ATOM     26  H52 UNL     1      13.971  35.726 -14.563  1.00  0.00     0.158 HD
ATOM     27  H51 UNL     1      13.084  35.138 -16.009  1.00  0.00     0.158 HD
ATOM     28  H4  UNL     1      16.529  35.267 -14.711  1.00  0.00     0.162 HD
ENDBRANCH  21  22
ENDBRANCH  20  21
ENDBRANCH  19  20
ENDBRANCH  14  19
BRANCH   9  29
HETATM   29  C14 UNL     1      13.643  35.519 -12.004  1.00  0.00     0.266 C 
HETATM   30  O2  UNL     1      12.776  34.836 -12.494  1.00  0.00    -0.304 OA
ENDBRANCH   9  29
BRANCH   1  31
HETATM   31  C2  UNL     1      14.660  41.754 -11.951  1.00  0.00    -0.023 C 
HETATM   32  C1  UNL     1      14.604  42.684 -12.929  1.00  0.00     0.008 C 
ENDBRANCH   1  31
BRANCH   4  33
HETATM   33  C7  UNL     1      12.481  39.519  -8.501  1.00  0.00     0.025 C 
BRANCH  33  34
HETATM   34  C8  UNL     1      12.531  40.803  -7.715  1.00  0.00     0.002 C 
BRANCH  34  35
HETATM   35  C9  UNL     1      11.717  40.642  -6.452  1.00  0.00     0.002 C 
BRANCH  35  36
HETATM   36  C10 UNL     1      11.336  39.196  -6.217  1.00  0.00     0.027 C 
BRANCH  36  37
HETATM   37  C11 UNL     1      10.468  39.034  -4.997  1.00  0.00     0.229 C 
BRANCH  37  38
HETATM   38  N1  UNL     1      11.224  39.056  -3.761  1.00  0.00    -0.079 N 
ATOM     39  H13 UNL     1      10.712  39.548  -3.029  1.00  0.00     0.274 HD
ATOM     40  H12 UNL     1      11.263  38.127  -3.340  1.00  0.00     0.274 HD
ATOM     41  H11 UNL     1      12.161  39.443  -3.875  1.00  0.00     0.274 HD
ENDBRANCH  37  38
ENDBRANCH  36  37
ENDBRANCH  35  36
ENDBRANCH  34  35
ENDBRANCH  33  34
ENDBRANCH   4  33
TORSDOF 12
ENDMDL
MODEL 2
REMARK VINA RESULT: -6.778943626      1.746      2.204
REMARK  12 active torsions:
REMARK  status: ('A' for Active; 'I' for Inactive)
REMARK    1  A    between atoms: C2_2  and  C3_3 
REMARK    2  A    between atoms: C6_6  and  C7_7 
REMARK    3  A    between atoms: C7_7  and  C8_8 
REMARK    4  A    between atoms: C8_8  and  C9_9 
REMARK    5  A    between atoms: C9_9  and  C10_10 
REMARK    6  A    between atoms: C10_10  and  C11_11 
REMARK    7  A    between atoms: C11_11  and  N1_12 
REMARK    8  A    between atoms: C13_20  and  C14_21 
REMARK    9  A    between atoms: C16_27  and  C17_28 
REMARK   10  A    between atoms: C17_28  and  C18_29 
REMARK   11  A    between atoms: C18_29  and  C19_30 
REMARK   12  A    between atoms: C19_30  and  N4_31 
REMARK       I    between atoms: N4_31  and  C20_33 
ROOT
HETATM    1  C3  UNL     1      16.274  41.489 -11.324  1.00  0.00     0.099 C 
HETATM    2  C4  UNL     1      15.980  40.867 -10.000  1.00  0.00     0.020 C 
HETATM    3  C5  UNL     1      14.607  41.207  -9.482  1.00  0.00     0.026 C 
HETATM    4  C6  UNL     1      13.622  40.037  -9.635  1.00  0.00     0.084 C 
HETATM    5  N2  UNL     1      14.285  38.790  -9.356  1.00  0.00    -0.354 N 
ATOM      6  H2  UNL     1      14.931  38.797  -8.567  1.00  0.00     0.162 HD
HETATM    7  C12 UNL     1      14.157  37.565 -10.032  1.00  0.00     0.247 C 
HETATM    8  O1  UNL     1      14.740  36.525  -9.551  1.00  0.00    -0.271 OA
HETATM    9  C13 UNL     1      13.403  37.309 -11.281  1.00  0.00     0.238 C 
HETATM   10  N3  UNL     1      13.631  38.207 -12.350  1.00  0.00    -0.340 N 
ATOM     11  H3  UNL     1      12.868  38.855 -12.549  1.00  0.00     0.163 HD
HETATM   12  C15 UNL     1      14.769  38.333 -13.184  1.00  0.00     0.241 C 
HETATM   13  O3  UNL     1      14.587  38.466 -14.448  1.00  0.00    -0.271 OA
HETATM   14  C16 UNL     1      16.182  38.331 -12.747  1.00  0.00     0.176 C 
HETATM   15  N7  UNL     1      16.833  39.597 -13.017  1.00  0.00    -0.347 N 
ATOM     16  H7  UNL     1      17.090  39.742 -13.994  1.00  0.00     0.163 HD
HETATM   17  C21 UNL     1      17.166  40.646 -12.173  1.00  0.00     0.226 C 
HETATM   18  O4  UNL     1      18.422  40.955 -12.097  1.00  0.00    -0.273 OA
ENDROOT
BRANCH  14  19
HETATM   19  C17 UNL     1      16.984  37.170 -13.282  1.00  0.00     0.036 C 
BRANCH  19  20
HETATM   20  C18 UNL     1      17.921  37.435 -14.382  1.00  0.00     0.022 C 
BRANCH  20  21
HETATM   21  C19 UNL     1      17.269  36.863 -15.658  1.00  0.00     0.122 C 
BRANCH  21  22
HETATM   22  N4  UNL     1      16.403  35.766 -15.340  1.00  0.00    -0.365 N 
HETATM   23  C20 UNL     1      15.162  35.569 -16.018  1.00  0.00     0.181 C 
HETATM   24  N5  UNL     1      14.094  35.571 -15.313  1.00  0.00    -0.374 N 
HETATM   25  N6  UNL     1      15.063  35.375 -17.407  1.00  0.00    -0.064 NA
ATOM     26  H52 UNL     1      14.166  35.712 -14.306  1.00  0.00     0.158 HD
ATOM     27  H51 UNL     1      13.207  35.430 -15.798  1.00  0.00     0.158 HD
ATOM     28  H4  UNL     1      16.680  35.110 -14.611  1.00  0.00     0.162 HD
ENDBRANCH  21  22
ENDBRANCH  20  21
ENDBRANCH  19  20
ENDBRANCH  14  19
BRANCH   9  29
HETATM   29  C14 UNL     1      13.498  35.874 -11.693  1.00  0.00     0.266 C 
HETATM   30  O2  UNL     1      12.715  35.311 -12.420  1.00  0.00    -0.304 OA
ENDBRANCH   9  29
BRANCH   1  31
HETATM   31  C2  UNL     1      15.073  41.981 -12.051  1.00  0.00    -0.023 C 
HETATM   32  C1  UNL     1      15.140  42.871 -13.065  1.00  0.00     0.008 C 
ENDBRANCH   1  31
BRANCH   4  33
HETATM   33  C7  UNL     1      12.552  40.222  -8.560  1.00  0.00     0.025 C 
BRANCH  33  34
HETATM   34  C8  UNL     1      12.390  41.671  -8.183  1.00  0.00     0.002 C 
BRANCH  34  35
HETATM   35  C9  UNL     1      10.970  42.102  -8.471  1.00  0.00     0.002 C 
BRANCH  35  36
HETATM   36  C10 UNL     1      10.850  42.745  -9.836  1.00  0.00     0.027 C 
BRANCH  36  37
HETATM   37  C11 UNL     1       9.634  43.627  -9.937  1.00  0.00     0.229 C 
BRANCH  37  38
HETATM   38  N1  UNL     1       8.545  43.005 -10.664  1.00  0.00    -0.079 N 
ATOM     39  H13 UNL     1       8.282  43.565 -11.475  1.00  0.00     0.274 HD
ATOM     40  H12 UNL     1       8.861  42.160 -11.141  1.00  0.00     0.274 HD
ATOM     41  H11 UNL     1       7.735  42.810 -10.076  1.00  0.00     0.274 HD
ENDBRANCH  37  38
ENDBRANCH  36  37
ENDBRANCH  35  36
ENDBRANCH  34  35
ENDBRANCH  33  34
ENDBRANCH   4  33
TORSDOF 12
ENDMDL
MODEL 3
REMARK VINA RESULT: -6.642829539      4.350      8.426
REMARK  12 active torsions:
REMARK  status: ('A' for Active; 'I' for Inactive)
REMARK    1  A    between atoms: C2_2  and  C3_3 
REMARK    2  A    between atoms: C6_6  and  C7_7 
REMARK    3  A    between atoms: C7_7  and  C8_8 
REMARK    4  A    between atoms: C8_8  and  C9_9 
REMARK    5  A    between atoms: C9_9  and  C10_10 
REMARK    6  A    between atoms: C10_10  and  C11_11 
REMARK    7  A    between atoms: C11_11  and  N1_12 
REMARK    8  A    between atoms: C13_20  and  C14_21 
REMARK    9  A    between atoms: C16_27  and  C17_28 
REMARK   10  A    between atoms: C17_28  and  C18_29 
REMARK   11  A    between atoms: C18_29  and  C19_30 
REMARK   12  A    between atoms: C19_30  and  N4_31 
REMARK       I    between atoms: N4_31  and  C20_33 
ROOT
HETATM    1  C3  UNL     1      14.894  40.259 -10.783  1.00  0.00     0.099 C 
HETATM    2  C4  UNL     1      15.873  40.895  -9.853  1.00  0.00     0.020 C 
HETATM    3  C5  UNL     1      16.588  42.070 -10.467  1.00  0.00     0.026 C 
HETATM    4  C6  UNL     1      16.052  43.413  -9.946  1.00  0.00     0.084 C 
HETATM    5  N2  UNL     1      15.752  43.317  -8.542  1.00  0.00    -0.354 N 
ATOM      6  H2  UNL     1      16.425  42.797  -7.978  1.00  0.00     0.162 HD
HETATM    7  C12 UNL     1      14.651  43.847  -7.848  1.00  0.00     0.247 C 
HETATM    8  O1  UNL     1      14.626  43.762  -6.565  1.00  0.00    -0.271 OA
HETATM    9  C13 UNL     1      13.467  44.519  -8.431  1.00  0.00     0.238 C 
HETATM   10  N3  UNL     1      12.838  43.860  -9.513  1.00  0.00    -0.340 N 
ATOM     11  H3  UNL     1      12.977  44.288 -10.429  1.00  0.00     0.163 HD
HETATM   12  C15 UNL     1      12.041  42.689  -9.504  1.00  0.00     0.241 C 
HETATM   13  O3  UNL     1      10.956  42.685 -10.191  1.00  0.00    -0.271 OA
HETATM   14  C16 UNL     1      12.329  41.436  -8.772  1.00  0.00     0.176 C 
HETATM   15  N7  UNL     1      12.544  40.321  -9.673  1.00  0.00    -0.347 N 
ATOM     16  H7  UNL     1      11.692  39.937 -10.082  1.00  0.00     0.163 HD
HETATM   17  C21 UNL     1      13.711  39.689 -10.073  1.00  0.00     0.226 C 
HETATM   18  O4  UNL     1      13.808  38.425  -9.805  1.00  0.00    -0.273 OA
ENDROOT
BRANCH  14  19
HETATM   19  C17 UNL     1      11.311  41.102  -7.710  1.00  0.00     0.036 C 
BRANCH  19  20
HETATM   20  C18 UNL     1      11.799  40.518  -6.453  1.00  0.00     0.022 C 
BRANCH  20  21
HETATM   21  C19 UNL     1      11.870  38.994  -6.679  1.00  0.00     0.122 C 
BRANCH  21  22
HETATM   22  N4  UNL     1      11.793  38.289  -5.434  1.00  0.00    -0.365 N 
HETATM   23  C20 UNL     1      10.682  38.442  -4.551  1.00  0.00     0.181 C 
HETATM   24  N5  UNL     1      10.919  38.875  -3.370  1.00  0.00    -0.374 N 
HETATM   25  N6  UNL     1       9.358  38.143  -4.916  1.00  0.00    -0.064 NA
ATOM     26  H52 UNL     1      11.879  39.091  -3.105  1.00  0.00     0.158 HD
ATOM     27  H51 UNL     1      10.125  38.984  -2.738  1.00  0.00     0.158 HD
ATOM     28  H4  UNL     1      12.553  37.660  -5.173  1.00  0.00     0.162 HD
ENDBRANCH  21  22
ENDBRANCH  20  21
ENDBRANCH  19  20
ENDBRANCH  14  19
BRANCH   9  29
HETATM   29  C14 UNL     1      12.505  44.951  -7.370  1.00  0.00     0.266 C 
HETATM   30  O2  UNL     1      11.484  45.564  -7.572  1.00  0.00    -0.304 OA
ENDBRANCH   9  29
BRANCH   1  31
HETATM   31  C2  UNL     1      14.522  41.099 -11.953  1.00  0.00    -0.023 C 
HETATM   32  C1  UNL     1      14.147  40.579 -13.142  1.00  0.00     0.008 C 
ENDBRANCH   1  31
BRANCH   4  33
HETATM   33  C7  UNL     1      17.190  44.424 -10.090  1.00  0.00     0.025 C 
BRANCH  33  34
HETATM   34  C8  UNL     1      18.477  43.896  -9.513  1.00  0.00     0.002 C 
BRANCH  34  35
HETATM   35  C9  UNL     1      19.193  45.017  -8.794  1.00  0.00     0.002 C 
BRANCH  35  36
HETATM   36  C10 UNL     1      18.340  45.604  -7.690  1.00  0.00     0.027 C 
BRANCH  36  37
HETATM   37  C11 UNL     1      18.585  47.079  -7.514  1.00  0.00     0.229 C 
BRANCH  37  38
HETATM   38  N1  UNL     1      18.603  47.485  -6.123  1.00  0.00    -0.079 N 
ATOM     39  H13 UNL     1      19.184  46.857  -5.567  1.00  0.00     0.274 HD
ATOM     40  H12 UNL     1      19.131  48.350  -6.003  1.00  0.00     0.274 HD
ATOM     41  H11 UNL     1      17.669  47.570  -5.721  1.00  0.00     0.274 HD
ENDBRANCH  37  38
ENDBRANCH  36  37
ENDBRANCH  35  36
ENDBRANCH  34  35
ENDBRANCH  33  34
ENDBRANCH   4  33
TORSDOF 12
ENDMDL
MODEL 4
REMARK VINA RESULT: -6.629253420      4.224      8.488
REMARK  12 active torsions:
REMARK  status: ('A' for Active; 'I' for Inactive)
REMARK    1  A    between atoms: C2_2  and  C3_3 
REMARK    2  A    between atoms: C6_6  and  C7_7 
REMARK    3  A    between atoms: C7_7  and  C8_8 
REMARK    4  A    between atoms: C8_8  and  C9_9 
REMARK    5  A    between atoms: C9_9  and  C10_10 
REMARK    6  A    between atoms: C10_10  and  C11_11 
REMARK    7  A    between atoms: C11_11  and  N1_12 
REMARK    8  A    between atoms: C13_20  and  C14_21 
REMARK    9  A    between atoms: C16_27  and  C17_28 
REMARK   10  A    between atoms: C17_28  and  C18_29 
REMARK   11  A    between atoms: C18_29  and  C19_30 
REMARK   12  A    between atoms: C19_30  and  N4_31 
REMARK       I    between atoms: N4_31  and  C20_33 
ROOT
HETATM    1  C3  UNL     1      15.315  40.526 -10.910  1.00  0.00     0.099 C 
HETATM    2  C4  UNL     1      16.233  41.132  -9.902  1.00  0.00     0.020 C 
HETATM    3  C5  UNL     1      16.938  42.361 -10.413  1.00  0.00     0.026 C 
HETATM    4  C6  UNL     1      16.341  43.655  -9.838  1.00  0.00     0.084 C 
HETATM    5  N2  UNL     1      15.985  43.466  -8.456  1.00  0.00    -0.354 N 
ATOM      6  H2  UNL     1      16.649  42.931  -7.895  1.00  0.00     0.162 HD
HETATM    7  C12 UNL     1      14.840  43.922  -7.781  1.00  0.00     0.247 C 
HETATM    8  O1  UNL     1      14.763  43.759  -6.508  1.00  0.00    -0.271 OA
HETATM    9  C13 UNL     1      13.662  44.595  -8.374  1.00  0.00     0.238 C 
HETATM   10  N3  UNL     1      13.099  43.985  -9.520  1.00  0.00    -0.340 N 
ATOM     11  H3  UNL     1      13.264  44.472 -10.401  1.00  0.00     0.163 HD
HETATM   12  C15 UNL     1      12.338  42.795  -9.616  1.00  0.00     0.241 C 
HETATM   13  O3  UNL     1      11.283  42.802 -10.348  1.00  0.00    -0.271 OA
HETATM   14  C16 UNL     1      12.633  41.508  -8.947  1.00  0.00     0.176 C 
HETATM   15  N7  UNL     1      12.918  40.457  -9.903  1.00  0.00    -0.347 N 
ATOM     16  H7  UNL     1      12.097  40.075 -10.371  1.00  0.00     0.163 HD
HETATM   17  C21 UNL     1      14.120  39.882 -10.288  1.00  0.00     0.226 C 
HETATM   18  O4  UNL     1      14.244  38.607 -10.092  1.00  0.00    -0.273 OA
ENDROOT
BRANCH  14  19
HETATM   19  C17 UNL     1      11.582  41.083  -7.953  1.00  0.00     0.036 C 
BRANCH  19  20
HETATM   20  C18 UNL     1      12.037  40.522  -6.673  1.00  0.00     0.022 C 
BRANCH  20  21
HETATM   21  C19 UNL     1      12.107  38.994  -6.867  1.00  0.00     0.122 C 
BRANCH  21  22
HETATM   22  N4  UNL     1      11.966  38.312  -5.614  1.00  0.00    -0.365 N 
HETATM   23  C20 UNL     1      10.806  38.474  -4.797  1.00  0.00     0.181 C 
HETATM   24  N5  UNL     1      10.973  38.932  -3.614  1.00  0.00    -0.374 N 
HETATM   25  N6  UNL     1       9.506  38.156  -5.230  1.00  0.00    -0.064 NA
ATOM     26  H52 UNL     1      11.916  39.162  -3.301  1.00  0.00     0.158 HD
ATOM     27  H51 UNL     1      10.144  39.047  -3.030  1.00  0.00     0.158 HD
ATOM     28  H4  UNL     1      12.714  37.696  -5.298  1.00  0.00     0.162 HD
ENDBRANCH  21  22
ENDBRANCH  20  21
ENDBRANCH  19  20
ENDBRANCH  14  19
BRANCH   9  29
HETATM   29  C14 UNL     1      12.644  44.935  -7.333  1.00  0.00     0.266 C 
HETATM   30  O2  UNL     1      11.589  45.482  -7.551  1.00  0.00    -0.304 OA
ENDBRANCH   9  29
BRANCH   1  31
HETATM   31  C2  UNL     1      14.967  41.425 -12.043  1.00  0.00    -0.023 C 
HETATM   32  C1  UNL     1      14.402  40.982 -13.188  1.00  0.00     0.008 C 
ENDBRANCH   1  31
BRANCH   4  33
HETATM   33  C7  UNL     1      17.452  44.703  -9.871  1.00  0.00     0.025 C 
BRANCH  33  34
HETATM   34  C8  UNL     1      18.161  44.802  -8.546  1.00  0.00     0.002 C 
BRANCH  34  35
HETATM   35  C9  UNL     1      19.622  45.106  -8.788  1.00  0.00     0.002 C 
BRANCH  35  36
HETATM   36  C10 UNL     1      20.291  44.014  -9.596  1.00  0.00     0.027 C 
BRANCH  36  37
HETATM   37  C11 UNL     1      21.671  43.699  -9.084  1.00  0.00     0.229 C 
BRANCH  37  38
HETATM   38  N1  UNL     1      21.968  44.356  -7.827  1.00  0.00    -0.079 N 
ATOM     39  H13 UNL     1      21.114  44.680  -7.373  1.00  0.00     0.274 HD
ATOM     40  H12 UNL     1      22.282  43.682  -7.128  1.00  0.00     0.274 HD
ATOM     41  H11 UNL     1      22.641  45.117  -7.926  1.00  0.00     0.274 HD
ENDBRANCH  37  38
ENDBRANCH  36  37
ENDBRANCH  35  36
ENDBRANCH  34  35
ENDBRANCH  33  34
ENDBRANCH   4  33
TORSDOF 12
ENDMDL
MODEL 5
REMARK VINA RESULT: -6.579310561      1.238      1.474
REMARK  12 active torsions:
REMARK  status: ('A' for Active; 'I' for Inactive)
REMARK    1  A    between atoms: C2_2  and  C3_3 
REMARK    2  A    between atoms: C6_6  and  C7_7 
REMARK    3  A    between atoms: C7_7  and  C8_8 
REMARK    4  A    between atoms: C8_8  and  C9_9 
REMARK    5  A    between atoms: C9_9  and  C10_10 
REMARK    6  A    between atoms: C10_10  and  C11_11 
REMARK    7  A    between atoms: C11_11  and  N1_12 
REMARK    8  A    between atoms: C13_20  and  C14_21 
REMARK    9  A    between atoms: C16_27  and  C17_28 
REMARK   10  A    between atoms: C17_28  and  C18_29 
REMARK   11  A    between atoms: C18_29  and  C19_30 
REMARK   12  A    between atoms: C19_30  and  N4_31 
REMARK       I    between atoms: N4_31  and  C20_33 
ROOT
HETATM    1  C3  UNL     1      16.028  41.357 -11.182  1.00  0.00     0.099 C 
HETATM    2  C4  UNL     1      15.773  40.606  -9.918  1.00  0.00     0.020 C 
HETATM    3  C5  UNL     1      14.377  40.804  -9.388  1.00  0.00     0.026 C 
HETATM    4  C6  UNL     1      13.478  39.585  -9.649  1.00  0.00     0.084 C 
HETATM    5  N2  UNL     1      14.226  38.369  -9.469  1.00  0.00    -0.354 N 
ATOM      6  H2  UNL     1      14.867  38.355  -8.675  1.00  0.00     0.162 HD
HETATM    7  C12 UNL     1      14.188  37.199 -10.246  1.00  0.00     0.247 C 
HETATM    8  O1  UNL     1      14.842  36.166  -9.847  1.00  0.00    -0.271 OA
HETATM    9  C13 UNL     1      13.461  36.997 -11.520  1.00  0.00     0.238 C 
HETATM   10  N3  UNL     1      13.630  37.996 -12.508  1.00  0.00    -0.340 N 
ATOM     11  H3  UNL     1      12.824  38.603 -12.660  1.00  0.00     0.163 HD
HETATM   12  C15 UNL     1      14.759  38.272 -13.316  1.00  0.00     0.241 C 
HETATM   13  O3  UNL     1      14.575  38.497 -14.566  1.00  0.00    -0.271 OA
HETATM   14  C16 UNL     1      16.168  38.331 -12.865  1.00  0.00     0.176 C 
HETATM   15  N7  UNL     1      16.728  39.659 -13.022  1.00  0.00    -0.347 N 
ATOM     16  H7  UNL     1      16.979  39.903 -13.980  1.00  0.00     0.163 HD
HETATM   17  C21 UNL     1      16.982  40.653 -12.089  1.00  0.00     0.226 C 
HETATM   18  O4  UNL     1      18.213  41.042 -11.974  1.00  0.00    -0.273 OA
ENDROOT
BRANCH  14  19
HETATM   19  C17 UNL     1      17.052  37.279 -13.487  1.00  0.00     0.036 C 
BRANCH  19  20
HETATM   20  C18 UNL     1      18.102  37.727 -14.412  1.00  0.00     0.022 C 
BRANCH  20  21
HETATM   21  C19 UNL     1      18.011  36.813 -15.651  1.00  0.00     0.122 C 
BRANCH  21  22
HETATM   22  N4  UNL     1      19.075  35.853 -15.657  1.00  0.00    -0.365 N 
HETATM   23  C20 UNL     1      18.820  34.448 -15.654  1.00  0.00     0.181 C 
HETATM   24  N5  UNL     1      19.285  33.763 -14.678  1.00  0.00    -0.374 N 
HETATM   25  N6  UNL     1      18.090  33.793 -16.661  1.00  0.00    -0.064 NA
ATOM     26  H52 UNL     1      19.815  34.239 -13.948  1.00  0.00     0.158 HD
ATOM     27  H51 UNL     1      19.103  32.759 -14.676  1.00  0.00     0.158 HD
ATOM     28  H4  UNL     1      20.040  36.182 -15.664  1.00  0.00     0.162 HD
ENDBRANCH  21  22
ENDBRANCH  20  21
ENDBRANCH  19  20
ENDBRANCH  14  19
BRANCH   9  29
HETATM   29  C14 UNL     1      13.659  35.612 -12.050  1.00  0.00     0.266 C 
HETATM   30  O2  UNL     1      12.774  34.888 -12.439  1.00  0.00    -0.304 OA
ENDBRANCH   9  29
BRANCH   1  31
HETATM   31  C2  UNL     1      14.799  41.823 -11.879  1.00  0.00    -0.023 C 
HETATM   32  C1  UNL     1      14.818  42.741 -12.870  1.00  0.00     0.008 C 
ENDBRANCH   1  31
BRANCH   4  33
HETATM   33  C7  UNL     1      12.392  39.603  -8.574  1.00  0.00     0.025 C 
BRANCH  33  34
HETATM   34  C8  UNL     1      12.581  40.750  -7.615  1.00  0.00     0.002 C 
BRANCH  34  35
HETATM   35  C9  UNL     1      11.608  40.600  -6.468  1.00  0.00     0.002 C 
BRANCH  35  36
HETATM   36  C10 UNL     1      11.233  39.151  -6.242  1.00  0.00     0.027 C 
BRANCH  36  37
HETATM   37  C11 UNL     1      10.402  38.972  -4.999  1.00  0.00     0.229 C 
BRANCH  37  38
HETATM   38  N1  UNL     1      11.186  39.038  -3.782  1.00  0.00    -0.079 N 
ATOM     39  H13 UNL     1      10.668  38.652  -2.993  1.00  0.00     0.274 HD
ATOM     40  H12 UNL     1      11.962  38.377  -3.812  1.00  0.00     0.274 HD
ATOM     41  H11 UNL     1      11.518  39.980  -3.575  1.00  0.00     0.274 HD
ENDBRANCH  37  38
ENDBRANCH  36  37
ENDBRANCH  35  36
ENDBRANCH  34  35
ENDBRANCH  33  34
ENDBRANCH   4  33
TORSDOF 12
ENDMDL
