MODEL 1
REMARK VINA RESULT: -7.546420507      0.000      0.000
REMARK  14 active torsions:
REMARK  status: ('A' for Active; 'I' for Inactive)
REMARK       I    between atoms: C1_4  and  N3_6 
REMARK    1  A    between atoms: N3_6  and  C2_8 
REMARK    2  A    between atoms: C2_8  and  C3_9 
REMARK    3  A    between atoms: C3_9  and  C4_10 
REMARK    4  A    between atoms: C4_10  and  C5_11 
REMARK    5  A    between atoms: C5_11  and  C6_12 
REMARK    6  A    between atoms: C6_12  and  C7_13 
REMARK       I    between atoms: C7_13  and  N4_15 
REMARK    7  A    between atoms: N4_15  and  C8_16 
REMARK    8  A    between atoms: N4_15  and  C15_27 
REMARK    9  A    between atoms: C8_16  and  C9_17 
REMARK   10  A    between atoms: C9_17  and  C10_18 
REMARK   11  A    between atoms: C10_18  and  C11_19 
REMARK   12  A    between atoms: C11_19  and  C12_20 
REMARK   13  A    between atoms: C18_33  and  O2_34 
REMARK   14  A    between atoms: C21_39  and  O4_40 
ROOT
HETATM    1  C7  UNL     1      13.680  36.517 -11.850  1.00  0.00     0.220 C 
HETATM    2  O1  UNL     1      13.840  35.282 -11.717  1.00  0.00    -0.273 OA
HETATM    3  N4  UNL     1      14.040  37.079 -13.119  1.00  0.00    -0.343 N 
ENDROOT
BRANCH   3   4
HETATM    4  C8  UNL     1      13.899  38.495 -13.291  1.00  0.00     0.126 C 
BRANCH   4   5
HETATM    5  C9  UNL     1      15.040  39.331 -12.816  1.00  0.00     0.020 C 
BRANCH   5   6
HETATM    6  C10 UNL     1      14.616  40.786 -12.657  1.00  0.00     0.008 C 
BRANCH   6   7
HETATM    7  C11 UNL     1      14.385  41.223 -11.265  1.00  0.00     0.058 C 
BRANCH   7   8
HETATM    8  C12 UNL     1      13.147  42.004 -11.072  1.00  0.00     0.025 A 
HETATM    9  C13 UNL     1      12.538  42.676 -12.132  1.00  0.00     0.113 A 
HETATM   10  N5  UNL     1      11.439  43.269 -11.653  1.00  0.00    -0.360 N 
HETATM   11  C14 UNL     1      11.368  42.980 -10.349  1.00  0.00     0.180 A 
ATOM     12  H5  UNL     1      10.779  43.837 -12.183  1.00  0.00     0.166 HD
HETATM   13  N6  UNL     1      12.405  42.211  -9.994  1.00  0.00    -0.355 N 
ATOM     14  H6  UNL     1      12.591  41.848  -9.060  1.00  0.00     0.166 HD
ENDBRANCH   7   8
ENDBRANCH   6   7
ENDBRANCH   5   6
ENDBRANCH   4   5
ENDBRANCH   3   4
BRANCH   3  15
HETATM   15  C15 UNL     1      14.449  36.155 -14.159  1.00  0.00     0.144 C 
HETATM   16  C16 UNL     1      13.230  35.725 -14.930  1.00  0.00     0.261 C 
HETATM   17  N7  UNL     1      13.696  34.894 -16.024  1.00  0.00    -0.064 N 
HETATM   18  C17 UNL     1      14.400  35.655 -17.027  1.00  0.00     0.247 C 
ATOM     19  H72 UNL     1      14.266  34.120 -15.682  1.00  0.00     0.277 HD
ATOM     20  H71 UNL     1      12.930  34.362 -16.435  1.00  0.00     0.277 HD
HETATM   21  C18 UNL     1      13.415  36.333 -17.920  1.00  0.00     0.175 C 
HETATM   22  C20 UNL     1      15.191  36.798 -16.463  1.00  0.00     0.185 C 
HETATM   23  C19 UNL     1      13.629  37.806 -17.706  1.00  0.00     0.202 C 
HETATM   24  O3  UNL     1      14.500  37.953 -16.648  1.00  0.00    -0.378 OA
HETATM   25  C21 UNL     1      15.568  36.603 -15.018  1.00  0.00     0.173 C 
BRANCH  21  26
HETATM   26  O2  UNL     1      13.548  35.975 -19.267  1.00  0.00    -0.391 OA
ATOM     27  H2  UNL     1      13.046  35.205 -19.503  1.00  0.00     0.210 HD
ENDBRANCH  21  26
BRANCH  25  28
HETATM   28  O4  UNL     1      16.655  35.676 -14.951  1.00  0.00    -0.391 OA
ATOM     29  H4  UNL     1      16.345  34.787 -15.075  1.00  0.00     0.210 HD
ENDBRANCH  25  28
ENDBRANCH   3  15
BRANCH   1  30
HETATM   30  C6  UNL     1      13.154  37.369 -10.785  1.00  0.00     0.103 C 
BRANCH  30  31
HETATM   31  C5  UNL     1      13.953  37.339  -9.516  1.00  0.00     0.009 C 
BRANCH  31  32
HETATM   32  C4  UNL     1      14.059  38.674  -8.877  1.00  0.00     0.002 C 
BRANCH  32  33
HETATM   33  C3  UNL     1      12.781  39.066  -8.153  1.00  0.00     0.020 C 
BRANCH  33  34
HETATM   34  C2  UNL     1      12.459  38.006  -7.113  1.00  0.00     0.122 C 
BRANCH  34  35
HETATM   35  N3  UNL     1      12.295  38.542  -5.799  1.00  0.00    -0.365 N 
HETATM   36  C1  UNL     1      11.074  38.630  -5.111  1.00  0.00     0.181 C 
HETATM   37  N1  UNL     1      11.005  39.065  -3.900  1.00  0.00    -0.374 N 
HETATM   38  N2  UNL     1       9.859  38.237  -5.735  1.00  0.00    -0.064 NA
ATOM     39  H12 UNL     1      10.118  39.129  -3.400  1.00  0.00     0.158 HD
ATOM     40  H11 UNL     1      11.877  39.346  -3.452  1.00  0.00     0.158 HD
ATOM     41  H3  UNL     1      13.129  38.887  -5.324  1.00  0.00     0.162 HD
ENDBRANCH  34  35
ENDBRANCH  33  34
ENDBRANCH  32  33
ENDBRANCH  31  32
ENDBRANCH  30  31
ENDBRANCH   1  30
TORSDOF 14
ENDMDL
MODEL 2
REMARK VINA RESULT: -7.426990221      1.901      2.364
REMARK  14 active torsions:
REMARK  status: ('A' for Active; 'I' for Inactive)
REMARK       I    between atoms: C1_4  and  N3_6 
REMARK    1  A    between atoms: N3_6  and  C2_8 
REMARK    2  A    between atoms: C2_8  and  C3_9 
REMARK    3  A    between atoms: C3_9  and  C4_10 
REMARK    4  A    between atoms: C4_10  and  C5_11 
REMARK    5  A    between atoms: C5_11  and  C6_12 
REMARK    6  A    between atoms: C6_12  and  C7_13 
REMARK       I    between atoms: C7_13  and  N4_15 
REMARK    7  A    between atoms: N4_15  and  C8_16 
REMARK    8  A    between atoms: N4_15  and  C15_27 
REMARK    9  A    between atoms: C8_16  and  C9_17 
REMARK   10  A    between atoms: C9_17  and  C10_18 
REMARK   11  A    between atoms: C10_18  and  C11_19 
REMARK   12  A    between atoms: C11_19  and  C12_20 
REMARK   13  A    between atoms: C18_33  and  O2_34 
REMARK   14  A    between atoms: C21_39  and  O4_40 
ROOT
HETATM    1  C7  UNL     1      14.134  36.943 -10.880  1.00  0.00     0.220 C 
HETATM    2  O1  UNL     1      14.714  35.866 -10.612  1.00  0.00    -0.273 OA
HETATM    3  N4  UNL     1      14.357  37.484 -12.189  1.00  0.00    -0.343 N 
ENDROOT
BRANCH   3   4
HETATM    4  C8  UNL     1      13.733  38.733 -12.516  1.00  0.00     0.126 C 
BRANCH   4   5
HETATM    5  C9  UNL     1      14.612  39.938 -12.467  1.00  0.00     0.020 C 
BRANCH   5   6
HETATM    6  C10 UNL     1      14.371  40.732 -11.188  1.00  0.00     0.008 C 
BRANCH   6   7
HETATM    7  C11 UNL     1      15.461  40.664 -10.193  1.00  0.00     0.058 C 
BRANCH   7   8
HETATM    8  C12 UNL     1      15.711  41.933  -9.482  1.00  0.00     0.025 A 
HETATM    9  C13 UNL     1      16.837  42.711  -9.754  1.00  0.00     0.113 A 
HETATM   10  N5  UNL     1      16.775  43.794  -8.971  1.00  0.00    -0.360 N 
HETATM   11  C14 UNL     1      15.658  43.695  -8.242  1.00  0.00     0.180 A 
ATOM     12  H5  UNL     1      17.453  44.555  -8.938  1.00  0.00     0.166 HD
HETATM   13  N6  UNL     1      15.010  42.564  -8.551  1.00  0.00    -0.355 N 
ATOM     14  H6  UNL     1      14.132  42.245  -8.143  1.00  0.00     0.166 HD
ENDBRANCH   7   8
ENDBRANCH   6   7
ENDBRANCH   5   6
ENDBRANCH   4   5
ENDBRANCH   3   4
BRANCH   3  15
HETATM   15  C15 UNL     1      15.139  36.683 -13.111  1.00  0.00     0.144 C 
HETATM   16  C16 UNL     1      14.284  36.343 -14.302  1.00  0.00     0.261 C 
HETATM   17  N7  UNL     1      15.135  35.641 -15.243  1.00  0.00    -0.064 N 
HETATM   18  C17 UNL     1      16.114  36.510 -15.849  1.00  0.00     0.247 C 
ATOM     19  H72 UNL     1      15.580  34.833 -14.807  1.00  0.00     0.277 HD
ATOM     20  H71 UNL     1      14.582  35.158 -15.951  1.00  0.00     0.277 HD
HETATM   21  C18 UNL     1      15.476  37.284 -16.954  1.00  0.00     0.175 C 
HETATM   22  C20 UNL     1      16.612  37.582 -14.926  1.00  0.00     0.185 C 
HETATM   23  C19 UNL     1      15.543  38.724 -16.524  1.00  0.00     0.202 C 
HETATM   24  O3  UNL     1      15.984  38.750 -15.218  1.00  0.00    -0.378 OA
HETATM   25  C21 UNL     1      16.469  37.225 -13.470  1.00  0.00     0.173 C 
BRANCH  21  26
HETATM   26  O2  UNL     1      16.084  37.080 -18.198  1.00  0.00    -0.391 OA
ATOM     27  H2  UNL     1      15.906  37.773 -18.823  1.00  0.00     0.210 HD
ENDBRANCH  21  26
BRANCH  25  28
HETATM   28  O4  UNL     1      17.501  36.296 -13.124  1.00  0.00    -0.391 OA
ATOM     29  H4  UNL     1      18.167  36.720 -12.596  1.00  0.00     0.210 HD
ENDBRANCH  25  28
ENDBRANCH   3  15
BRANCH   1  30
HETATM   30  C6  UNL     1      13.267  37.637  -9.929  1.00  0.00     0.103 C 
BRANCH  30  31
HETATM   31  C5  UNL     1      13.884  37.870  -8.583  1.00  0.00     0.009 C 
BRANCH  31  32
HETATM   32  C4  UNL     1      12.905  38.364  -7.583  1.00  0.00     0.002 C 
BRANCH  32  33
HETATM   33  C3  UNL     1      12.621  39.849  -7.746  1.00  0.00     0.020 C 
BRANCH  33  34
HETATM   34  C2  UNL     1      11.341  40.190  -7.002  1.00  0.00     0.122 C 
BRANCH  34  35
HETATM   35  N3  UNL     1      11.459  40.038  -5.586  1.00  0.00    -0.365 N 
HETATM   36  C1  UNL     1      10.768  39.089  -4.816  1.00  0.00     0.181 C 
HETATM   37  N1  UNL     1      10.969  38.961  -3.550  1.00  0.00    -0.374 N 
HETATM   38  N2  UNL     1       9.810  38.226  -5.416  1.00  0.00    -0.064 NA
ATOM     39  H12 UNL     1      10.467  38.271  -2.991  1.00  0.00     0.158 HD
ATOM     40  H11 UNL     1      11.656  39.579  -3.119  1.00  0.00     0.158 HD
ATOM     41  H3  UNL     1      12.095  40.668  -5.096  1.00  0.00     0.162 HD
ENDBRANCH  34  35
ENDBRANCH  33  34
ENDBRANCH  32  33
ENDBRANCH  31  32
ENDBRANCH  30  31
ENDBRANCH   1  30
TORSDOF 14
ENDMDL
MODEL 3
REMARK VINA RESULT: -7.383396511      2.564      3.251
REMARK  14 active torsions:
REMARK  status: ('A' for Active; 'I' for Inactive)
REMARK       I    between atoms: C1_4  and  N3_6 
REMARK    1  A    between atoms: N3_6  and  C2_8 
REMARK    2  A    between atoms: C2_8  and  C3_9 
REMARK    3  A    between atoms: C3_9  and  C4_10 
REMARK    4  A    between atoms: C4_10  and  C5_11 
REMARK    5  A    between atoms: C5_11  and  C6_12 
REMARK    6  A    between atoms: C6_12  and  C7_13 
REMARK       I    between atoms: C7_13  and  N4_15 
REMARK    7  A    between atoms: N4_15  and  C8_16 
REMARK    8  A    between atoms: N4_15  and  C15_27 
REMARK    9  A    between atoms: C8_16  and  C9_17 
REMARK   10  A    between atoms: C9_17  and  C10_18 
REMARK   11  A    between atoms: C10_18  and  C11_19 
REMARK   12  A    between atoms: C11_19  and  C12_20 
REMARK   13  A    between atoms: C18_33  and  O2_34 
REMARK   14  A    between atoms: C21_39  and  O4_40 
ROOT
HETATM    1  C7  UNL     1      13.185  37.841 -10.733  1.00  0.00     0.220 C 
HETATM    2  O1  UNL     1      12.943  36.625 -10.909  1.00  0.00    -0.273 OA
HETATM    3  N4  UNL     1      13.828  38.530 -11.814  1.00  0.00    -0.343 N 
ENDROOT
BRANCH   3   4
HETATM    4  C8  UNL     1      14.149  39.915 -11.631  1.00  0.00     0.126 C 
BRANCH   4   5
HETATM    5  C9  UNL     1      15.588  40.229 -11.392  1.00  0.00     0.020 C 
BRANCH   5   6
HETATM    6  C10 UNL     1      15.809  40.698  -9.958  1.00  0.00     0.008 C 
BRANCH   6   7
HETATM    7  C11 UNL     1      14.812  41.666  -9.456  1.00  0.00     0.058 C 
BRANCH   7   8
HETATM    8  C12 UNL     1      15.392  42.798  -8.705  1.00  0.00     0.025 A 
HETATM    9  C13 UNL     1      14.717  43.384  -7.635  1.00  0.00     0.113 A 
HETATM   10  N5  UNL     1      15.497  44.360  -7.154  1.00  0.00    -0.360 N 
HETATM   11  C14 UNL     1      16.610  44.380  -7.895  1.00  0.00     0.180 A 
ATOM     12  H5  UNL     1      15.282  44.973  -6.369  1.00  0.00     0.166 HD
HETATM   13  N6  UNL     1      16.548  43.431  -8.838  1.00  0.00    -0.355 N 
ATOM     14  H6  UNL     1      17.265  43.231  -9.536  1.00  0.00     0.166 HD
ENDBRANCH   7   8
ENDBRANCH   6   7
ENDBRANCH   5   6
ENDBRANCH   4   5
ENDBRANCH   3   4
BRANCH   3  15
HETATM   15  C15 UNL     1      14.036  37.787 -13.041  1.00  0.00     0.144 C 
HETATM   16  C16 UNL     1      14.295  38.761 -14.159  1.00  0.00     0.261 C 
HETATM   17  N7  UNL     1      14.607  37.976 -15.337  1.00  0.00    -0.064 N 
HETATM   18  C17 UNL     1      15.891  37.327 -15.238  1.00  0.00     0.247 C 
ATOM     19  H72 UNL     1      13.868  37.302 -15.537  1.00  0.00     0.277 HD
ATOM     20  H71 UNL     1      14.544  38.541 -16.184  1.00  0.00     0.277 HD
HETATM   21  C18 UNL     1      16.970  38.304 -15.565  1.00  0.00     0.175 C 
HETATM   22  C20 UNL     1      16.235  36.894 -13.843  1.00  0.00     0.185 C 
HETATM   23  C19 UNL     1      17.771  38.453 -14.301  1.00  0.00     0.202 C 
HETATM   24  O3  UNL     1      17.096  37.791 -13.298  1.00  0.00    -0.378 OA
HETATM   25  C21 UNL     1      15.024  36.687 -12.971  1.00  0.00     0.173 C 
BRANCH  21  26
HETATM   26  O2  UNL     1      17.767  37.910 -16.646  1.00  0.00    -0.391 OA
ATOM     27  H2  UNL     1      17.736  36.977 -16.817  1.00  0.00     0.210 HD
ENDBRANCH  21  26
BRANCH  25  28
HETATM   28  O4  UNL     1      14.416  35.441 -13.323  1.00  0.00    -0.391 OA
ATOM     29  H4  UNL     1      13.481  35.550 -13.453  1.00  0.00     0.210 HD
ENDBRANCH  25  28
ENDBRANCH   3  15
BRANCH   1  30
HETATM   30  C6  UNL     1      12.842  38.550  -9.502  1.00  0.00     0.103 C 
BRANCH  30  31
HETATM   31  C5  UNL     1      13.492  37.999  -8.268  1.00  0.00     0.009 C 
BRANCH  31  32
HETATM   32  C4  UNL     1      12.814  38.436  -7.022  1.00  0.00     0.002 C 
BRANCH  32  33
HETATM   33  C3  UNL     1      12.509  39.925  -7.028  1.00  0.00     0.020 C 
BRANCH  33  34
HETATM   34  C2  UNL     1      11.186  40.160  -6.317  1.00  0.00     0.122 C 
BRANCH  34  35
HETATM   35  N3  UNL     1      11.218  39.788  -4.938  1.00  0.00    -0.365 N 
HETATM   36  C1  UNL     1      10.424  38.788  -4.354  1.00  0.00     0.181 C 
HETATM   37  N1  UNL     1      10.548  38.456  -3.115  1.00  0.00    -0.374 N 
HETATM   38  N2  UNL     1       9.443  38.101  -5.120  1.00  0.00    -0.064 NA
ATOM     39  H12 UNL     1       9.972  37.730  -2.691  1.00  0.00     0.158 HD
ATOM     40  H11 UNL     1      11.252  38.949  -2.566  1.00  0.00     0.158 HD
ATOM     41  H3  UNL     1      11.869  40.287  -4.331  1.00  0.00     0.162 HD
ENDBRANCH  34  35
ENDBRANCH  33  34
ENDBRANCH  32  33
ENDBRANCH  31  32
ENDBRANCH  30  31
ENDBRANCH   1  30
TORSDOF 14
ENDMDL
MODEL 4
REMARK VINA RESULT: -7.379764280      2.095      2.628
REMARK  14 active torsions:
REMARK  status: ('A' for Active; 'I' for Inactive)
REMARK       I    between atoms: C1_4  and  N3_6 
REMARK    1  A    between atoms: N3_6  and  C2_8 
REMARK    2  A    between atoms: C2_8  and  C3_9 
REMARK    3  A    between atoms: C3_9  and  C4_10 
REMARK    4  A    between atoms: C4_10  and  C5_11 
REMARK    5  A    between atoms: C5_11  and  C6_12 
REMARK    6  A    between atoms: C6_12  and  C7_13 
REMARK       I    between atoms: C7_13  and  N4_15 
REMARK    7  A    between atoms: N4_15  and  C8_16 
REMARK    8  A    between atoms: N4_15  and  C15_27 
REMARK    9  A    between atoms: C8_16  and  C9_17 
REMARK   10  A    between atoms: C9_17  and  C10_18 
REMARK   11  A    between atoms: C10_18  and  C11_19 
REMARK   12  A    between atoms: C11_19  and  C12_20 
REMARK   13  A    between atoms: C18_33  and  O2_34 
REMARK   14  A    between atoms: C21_39  and  O4_40 
ROOT
HETATM    1  C7  UNL     1      14.133  36.938 -10.958  1.00  0.00     0.220 C 
HETATM    2  O1  UNL     1      14.718  35.870 -10.668  1.00  0.00    -0.273 OA
HETATM    3  N4  UNL     1      14.355  37.454 -12.278  1.00  0.00    -0.343 N 
ENDROOT
BRANCH   3   4
HETATM    4  C8  UNL     1      13.727  38.694 -12.630  1.00  0.00     0.126 C 
BRANCH   4   5
HETATM    5  C9  UNL     1      14.583  39.912 -12.538  1.00  0.00     0.020 C 
BRANCH   5   6
HETATM    6  C10 UNL     1      14.038  40.878 -11.492  1.00  0.00     0.008 C 
BRANCH   6   7
HETATM    7  C11 UNL     1      14.896  41.063 -10.303  1.00  0.00     0.058 C 
BRANCH   7   8
HETATM    8  C12 UNL     1      16.283  41.464 -10.614  1.00  0.00     0.025 A 
HETATM    9  C13 UNL     1      16.581  42.737 -11.099  1.00  0.00     0.113 A 
HETATM   10  N5  UNL     1      17.907  42.803 -11.264  1.00  0.00    -0.360 N 
HETATM   11  C14 UNL     1      18.413  41.620 -10.898  1.00  0.00     0.180 A 
ATOM     12  H5  UNL     1      18.434  43.606 -11.606  1.00  0.00     0.166 HD
HETATM   13  N6  UNL     1      17.426  40.804 -10.502  1.00  0.00    -0.355 N 
ATOM     14  H6  UNL     1      17.536  39.845 -10.173  1.00  0.00     0.166 HD
ENDBRANCH   7   8
ENDBRANCH   6   7
ENDBRANCH   5   6
ENDBRANCH   4   5
ENDBRANCH   3   4
BRANCH   3  15
HETATM   15  C15 UNL     1      15.142  36.638 -13.183  1.00  0.00     0.144 C 
HETATM   16  C16 UNL     1      14.295  36.287 -14.377  1.00  0.00     0.261 C 
HETATM   17  N7  UNL     1      15.151  35.570 -15.302  1.00  0.00    -0.064 N 
HETATM   18  C17 UNL     1      16.139  36.427 -15.910  1.00  0.00     0.247 C 
ATOM     19  H72 UNL     1      15.588  34.766 -14.852  1.00  0.00     0.277 HD
ATOM     20  H71 UNL     1      14.602  35.081 -16.009  1.00  0.00     0.277 HD
HETATM   21  C18 UNL     1      15.514  37.190 -17.030  1.00  0.00     0.175 C 
HETATM   22  C20 UNL     1      16.635  37.508 -14.996  1.00  0.00     0.185 C 
HETATM   23  C19 UNL     1      15.585  38.634 -16.617  1.00  0.00     0.202 C 
HETATM   24  O3  UNL     1      16.015  38.675 -15.308  1.00  0.00    -0.378 OA
HETATM   25  C21 UNL     1      16.477  37.169 -13.537  1.00  0.00     0.173 C 
BRANCH  21  26
HETATM   26  O2  UNL     1      16.133  36.968 -18.267  1.00  0.00    -0.391 OA
ATOM     27  H2  UNL     1      16.550  36.118 -18.332  1.00  0.00     0.210 HD
ENDBRANCH  21  26
BRANCH  25  28
HETATM   28  O4  UNL     1      17.501  36.241 -13.170  1.00  0.00    -0.391 OA
ATOM     29  H4  UNL     1      18.348  36.670 -13.144  1.00  0.00     0.210 HD
ENDBRANCH  25  28
ENDBRANCH   3  15
BRANCH   1  30
HETATM   30  C6  UNL     1      13.263  37.647 -10.023  1.00  0.00     0.103 C 
BRANCH  30  31
HETATM   31  C5  UNL     1      13.888  37.937  -8.691  1.00  0.00     0.009 C 
BRANCH  31  32
HETATM   32  C4  UNL     1      12.894  38.353  -7.671  1.00  0.00     0.002 C 
BRANCH  32  33
HETATM   33  C3  UNL     1      12.637  39.851  -7.699  1.00  0.00     0.020 C 
BRANCH  33  34
HETATM   34  C2  UNL     1      11.340  40.142  -6.963  1.00  0.00     0.122 C 
BRANCH  34  35
HETATM   35  N3  UNL     1      11.454  39.991  -5.547  1.00  0.00    -0.365 N 
HETATM   36  C1  UNL     1      10.753  39.048  -4.778  1.00  0.00     0.181 C 
HETATM   37  N1  UNL     1      10.950  38.920  -3.511  1.00  0.00    -0.374 N 
HETATM   38  N2  UNL     1       9.788  38.194  -5.379  1.00  0.00    -0.064 NA
ATOM     39  H12 UNL     1      10.441  38.235  -2.952  1.00  0.00     0.158 HD
ATOM     40  H11 UNL     1      11.642  39.532  -3.079  1.00  0.00     0.158 HD
ATOM     41  H3  UNL     1      12.095  40.615  -5.057  1.00  0.00     0.162 HD
ENDBRANCH  34  35
ENDBRANCH  33  34
ENDBRANCH  32  33
ENDBRANCH  31  32
ENDBRANCH  30  31
ENDBRANCH   1  30
TORSDOF 14
ENDMDL
MODEL 5
REMARK VINA RESULT: -7.326638765      2.438      3.305
REMARK  14 active torsions:
REMARK  status: ('A' for Active; 'I' for Inactive)
REMARK       I    between atoms: C1_4  and  N3_6 
REMARK    1  A    between atoms: N3_6  and  C2_8 
REMARK    2  A    between atoms: C2_8  and  C3_9 
REMARK    3  A    between atoms: C3_9  and  C4_10 
REMARK    4  A    between atoms: C4_10  and  C5_11 
REMARK    5  A    between atoms: C5_11  and  C6_12 
REMARK    6  A    between atoms: C6_12  and  C7_13 
REMARK       I    between atoms: C7_13  and  N4_15 
REMARK    7  A    between atoms: N4_15  and  C8_16 
REMARK    8  A    between atoms: N4_15  and  C15_27 
REMARK    9  A    between atoms: C8_16  and  C9_17 
REMARK   10  A    between atoms: C9_17  and  C10_18 
REMARK   11  A    between atoms: C10_18  and  C11_19 
REMARK   12  A    between atoms: C11_19  and  C12_20 
REMARK   13  A    between atoms: C18_33  and  O2_34 
REMARK   14  A    between atoms: C21_39  and  O4_40 
ROOT
HETATM    1  C7  UNL     1      13.167  38.059 -10.288  1.00  0.00     0.220 C 
HETATM    2  O1  UNL     1      12.835  36.853 -10.335  1.00  0.00    -0.273 OA
HETATM    3  N4  UNL     1      13.851  38.583 -11.435  1.00  0.00    -0.343 N 
ENDROOT
BRANCH   3   4
HETATM    4  C8  UNL     1      14.274  39.952 -11.399  1.00  0.00     0.126 C 
BRANCH   4   5
HETATM    5  C9  UNL     1      15.706  40.187 -11.050  1.00  0.00     0.020 C 
BRANCH   5   6
HETATM    6  C10 UNL     1      15.826  41.150  -9.875  1.00  0.00     0.008 C 
BRANCH   6   7
HETATM    7  C11 UNL     1      14.682  42.068  -9.698  1.00  0.00     0.058 C 
BRANCH   7   8
HETATM    8  C12 UNL     1      14.675  42.785  -8.407  1.00  0.00     0.025 A 
HETATM    9  C13 UNL     1      15.655  43.726  -8.091  1.00  0.00     0.113 A 
HETATM   10  N5  UNL     1      15.370  44.210  -6.877  1.00  0.00    -0.360 N 
HETATM   11  C14 UNL     1      14.260  43.595  -6.454  1.00  0.00     0.180 A 
ATOM     12  H5  UNL     1      15.902  44.916  -6.368  1.00  0.00     0.166 HD
HETATM   13  N6  UNL     1      13.836  42.729  -7.384  1.00  0.00    -0.355 N 
ATOM     14  H6  UNL     1      13.012  42.131  -7.316  1.00  0.00     0.166 HD
ENDBRANCH   7   8
ENDBRANCH   6   7
ENDBRANCH   5   6
ENDBRANCH   4   5
ENDBRANCH   3   4
BRANCH   3  15
HETATM   15  C15 UNL     1      13.993  37.702 -12.578  1.00  0.00     0.144 C 
HETATM   16  C16 UNL     1      14.143  38.541 -13.819  1.00  0.00     0.261 C 
HETATM   17  N7  UNL     1      14.394  37.627 -14.916  1.00  0.00    -0.064 N 
HETATM   18  C17 UNL     1      15.701  37.021 -14.836  1.00  0.00     0.247 C 
ATOM     19  H72 UNL     1      13.663  36.918 -14.980  1.00  0.00     0.277 HD
ATOM     20  H71 UNL     1      14.255  38.085 -15.817  1.00  0.00     0.277 HD
HETATM   21  C18 UNL     1      16.724  37.975 -15.355  1.00  0.00     0.175 C 
HETATM   22  C20 UNL     1      16.155  36.767 -13.430  1.00  0.00     0.185 C 
HETATM   23  C19 UNL     1      17.608  38.291 -14.180  1.00  0.00     0.202 C 
HETATM   24  O3  UNL     1      17.026  37.740 -13.059  1.00  0.00    -0.378 OA
HETATM   25  C21 UNL     1      15.016  36.640 -12.452  1.00  0.00     0.173 C 
BRANCH  21  26
HETATM   26  O2  UNL     1      17.455  37.471 -16.438  1.00  0.00    -0.391 OA
ATOM     27  H2  UNL     1      17.699  38.136 -17.070  1.00  0.00     0.210 HD
ENDBRANCH  21  26
BRANCH  25  28
HETATM   28  O4  UNL     1      14.421  35.348 -12.609  1.00  0.00    -0.391 OA
ATOM     29  H4  UNL     1      13.882  35.321 -13.390  1.00  0.00     0.210 HD
ENDBRANCH  25  28
ENDBRANCH   3  15
BRANCH   1  30
HETATM   30  C6  UNL     1      12.888  38.916  -9.137  1.00  0.00     0.103 C 
BRANCH  30  31
HETATM   31  C5  UNL     1      13.230  38.305  -7.811  1.00  0.00     0.009 C 
BRANCH  31  32
HETATM   32  C4  UNL     1      12.113  38.391  -6.838  1.00  0.00     0.002 C 
BRANCH  32  33
HETATM   33  C3  UNL     1      11.827  39.824  -6.418  1.00  0.00     0.020 C 
BRANCH  33  34
HETATM   34  C2  UNL     1      10.675  39.827  -5.427  1.00  0.00     0.122 C 
BRANCH  34  35
HETATM   35  N3  UNL     1      10.949  39.067  -4.249  1.00  0.00    -0.365 N 
HETATM   36  C1  UNL     1      10.039  38.203  -3.618  1.00  0.00     0.181 C 
HETATM   37  N1  UNL     1      10.371  37.495  -2.594  1.00  0.00    -0.374 N 
HETATM   38  N2  UNL     1       8.706  38.079  -4.095  1.00  0.00    -0.064 NA
ATOM     39  H12 UNL     1       9.711  36.867  -2.136  1.00  0.00     0.158 HD
ATOM     40  H11 UNL     1      11.327  37.583  -2.252  1.00  0.00     0.158 HD
ATOM     41  H3  UNL     1      11.876  39.158  -3.834  1.00  0.00     0.162 HD
ENDBRANCH  34  35
ENDBRANCH  33  34
ENDBRANCH  32  33
ENDBRANCH  31  32
ENDBRANCH  30  31
ENDBRANCH   1  30
TORSDOF 14
ENDMDL
