MODEL 1
REMARK VINA RESULT: -5.681012264      0.000      0.000
REMARK  3 active torsions:
REMARK  status: ('A' for Active; 'I' for Inactive)
REMARK    1  A    between atoms: N1_1  and  N2_4 
REMARK       I    between atoms: N2_4  and  C1_6 
REMARK    2  A    between atoms: C1_6  and  C2_8 
REMARK       I    between atoms: C2_8  and  N3_10 
REMARK    3  A    between atoms: N3_10  and  N4_12 
ROOT
HETATM    1  C2  UNL     1      28.296  17.165  45.477  1.00  0.00     0.329 C 
HETATM    2  O2  UNL     1      27.723  16.030  45.445  1.00  0.00    -0.261 OA
HETATM    3  N3  UNL     1      28.486  17.936  44.297  1.00  0.00    -0.260 N 
ATOM      4  H3  UNL     1      28.946  18.846  44.329  1.00  0.00     0.190 HD
ENDROOT
BRANCH   1   5
HETATM    5  C1  UNL     1      28.741  17.627  46.771  1.00  0.00     0.329 C 
HETATM    6  N2  UNL     1      29.445  18.838  46.970  1.00  0.00    -0.268 N 
ATOM      7  H2  UNL     1      29.659  19.430  46.168  1.00  0.00     0.190 HD
HETATM    8  O1  UNL     1      28.485  16.910  47.771  1.00  0.00    -0.261 OA
BRANCH   6   9
HETATM    9  N1  UNL     1      29.854  19.240  48.245  1.00  0.00    -0.342 N 
ATOM     10  H12 UNL     1      30.676  19.839  48.322  1.00  0.00     0.176 HD
ATOM     11  H11 UNL     1      29.349  18.947  49.081  1.00  0.00     0.176 HD
ENDBRANCH   6   9
ENDBRANCH   1   5
BRANCH   3  12
HETATM   12  N4  UNL     1      28.020  17.401  43.091  1.00  0.00    -0.273 N 
HETATM   13  C3  UNL     1      28.234  17.941  41.944  1.00  0.00     0.215 C 
HETATM   14  N5  UNL     1      27.704  17.294  40.801  1.00  0.00    -0.065 NA
HETATM   15  N6  UNL     1      28.961  19.139  41.731  1.00  0.00    -0.065 NA
ATOM     16  H4  UNL     1      27.480  16.536  43.123  1.00  0.00     0.189 HD
ENDBRANCH   3  12
TORSDOF 3
ENDMDL
MODEL 2
REMARK VINA RESULT: -5.643120183      1.789      1.922
REMARK  3 active torsions:
REMARK  status: ('A' for Active; 'I' for Inactive)
REMARK    1  A    between atoms: N1_1  and  N2_4 
REMARK       I    between atoms: N2_4  and  C1_6 
REMARK    2  A    between atoms: C1_6  and  C2_8 
REMARK       I    between atoms: C2_8  and  N3_10 
REMARK    3  A    between atoms: N3_10  and  N4_12 
ROOT
HETATM    1  C2  UNL     1      27.867  17.486  45.957  1.00  0.00     0.329 C 
HETATM    2  O2  UNL     1      28.337  16.337  45.683  1.00  0.00    -0.261 OA
HETATM    3  N3  UNL     1      28.038  18.589  45.076  1.00  0.00    -0.260 N 
ATOM      4  H3  UNL     1      27.659  19.509  45.302  1.00  0.00     0.190 HD
ENDROOT
BRANCH   1   5
HETATM    5  C1  UNL     1      27.155  17.611  47.207  1.00  0.00     0.329 C 
HETATM    6  N2  UNL     1      26.920  18.847  47.856  1.00  0.00    -0.268 N 
ATOM      7  H2  UNL     1      27.265  19.707  47.431  1.00  0.00     0.190 HD
HETATM    8  O1  UNL     1      26.721  16.560  47.744  1.00  0.00    -0.261 OA
BRANCH   6   9
HETATM    9  N1  UNL     1      26.223  18.913  49.066  1.00  0.00    -0.342 N 
ATOM     10  H12 UNL     1      26.753  18.831  49.933  1.00  0.00     0.176 HD
ATOM     11  H11 UNL     1      25.211  19.039  49.089  1.00  0.00     0.176 HD
ENDBRANCH   6   9
ENDBRANCH   1   5
BRANCH   3  12
HETATM   12  N4  UNL     1      28.744  18.368  43.889  1.00  0.00    -0.273 N 
HETATM   13  C3  UNL     1      28.217  18.458  42.720  1.00  0.00     0.215 C 
HETATM   14  N5  UNL     1      29.048  18.209  41.600  1.00  0.00    -0.065 NA
HETATM   15  N6  UNL     1      26.863  18.789  42.461  1.00  0.00    -0.065 NA
ATOM     16  H4  UNL     1      29.732  18.120  43.954  1.00  0.00     0.189 HD
ENDBRANCH   3  12
TORSDOF 3
ENDMDL
MODEL 3
REMARK VINA RESULT: -5.570368908      2.300      2.435
REMARK  3 active torsions:
REMARK  status: ('A' for Active; 'I' for Inactive)
REMARK    1  A    between atoms: N1_1  and  N2_4 
REMARK       I    between atoms: N2_4  and  C1_6 
REMARK    2  A    between atoms: C1_6  and  C2_8 
REMARK       I    between atoms: C2_8  and  N3_10 
REMARK    3  A    between atoms: N3_10  and  N4_12 
ROOT
HETATM    1  C2  UNL     1      27.625  17.274  45.884  1.00  0.00     0.329 C 
HETATM    2  O2  UNL     1      27.909  16.082  45.544  1.00  0.00    -0.261 OA
HETATM    3  N3  UNL     1      27.994  18.385  45.077  1.00  0.00    -0.260 N 
ATOM      4  H3  UNL     1      27.763  19.340  45.354  1.00  0.00     0.190 HD
ENDROOT
BRANCH   1   5
HETATM    5  C1  UNL     1      26.910  17.438  47.128  1.00  0.00     0.329 C 
HETATM    6  N2  UNL     1      25.664  16.824  47.402  1.00  0.00    -0.268 N 
ATOM      7  H2  UNL     1      25.233  16.231  46.693  1.00  0.00     0.190 HD
HETATM    8  O1  UNL     1      27.427  18.166  48.013  1.00  0.00    -0.261 OA
BRANCH   6   9
HETATM    9  N1  UNL     1      25.013  17.015  48.623  1.00  0.00    -0.342 N 
ATOM     10  H12 UNL     1      24.320  17.761  48.690  1.00  0.00     0.176 HD
ATOM     11  H11 UNL     1      25.218  16.428  49.432  1.00  0.00     0.176 HD
ENDBRANCH   6   9
ENDBRANCH   1   5
BRANCH   3  12
HETATM   12  N4  UNL     1      28.686  18.124  43.889  1.00  0.00    -0.273 N 
HETATM   13  C3  UNL     1      28.186  18.310  42.720  1.00  0.00     0.215 C 
HETATM   14  N5  UNL     1      28.998  18.004  41.600  1.00  0.00    -0.065 NA
HETATM   15  N6  UNL     1      26.881  18.799  42.460  1.00  0.00    -0.065 NA
ATOM     16  H4  UNL     1      29.639  17.765  43.955  1.00  0.00     0.189 HD
ENDBRANCH   3  12
TORSDOF 3
ENDMDL
MODEL 4
REMARK VINA RESULT: -5.568355746      3.415      4.002
REMARK  3 active torsions:
REMARK  status: ('A' for Active; 'I' for Inactive)
REMARK    1  A    between atoms: N1_1  and  N2_4 
REMARK       I    between atoms: N2_4  and  C1_6 
REMARK    2  A    between atoms: C1_6  and  C2_8 
REMARK       I    between atoms: C2_8  and  N3_10 
REMARK    3  A    between atoms: N3_10  and  N4_12 
ROOT
HETATM    1  C2  UNL     1      27.285  17.632  47.160  1.00  0.00     0.329 C 
HETATM    2  O2  UNL     1      26.709  16.575  47.568  1.00  0.00    -0.261 OA
HETATM    3  N3  UNL     1      26.571  18.651  46.472  1.00  0.00    -0.260 N 
ATOM      4  H3  UNL     1      27.039  19.497  46.147  1.00  0.00     0.190 HD
ENDROOT
BRANCH   1   5
HETATM    5  C1  UNL     1      28.700  17.741  47.431  1.00  0.00     0.329 C 
HETATM    6  N2  UNL     1      29.425  18.953  47.334  1.00  0.00    -0.268 N 
ATOM      7  H2  UNL     1      28.938  19.805  47.058  1.00  0.00     0.190 HD
HETATM    8  O1  UNL     1      29.315  16.699  47.773  1.00  0.00    -0.261 OA
BRANCH   6   9
HETATM    9  N1  UNL     1      30.794  19.005  47.608  1.00  0.00    -0.342 N 
ATOM     10  H12 UNL     1      31.437  18.572  46.945  1.00  0.00     0.176 HD
ATOM     11  H11 UNL     1      31.151  19.462  48.447  1.00  0.00     0.176 HD
ENDBRANCH   6   9
ENDBRANCH   1   5
BRANCH   3  12
HETATM   12  N4  UNL     1      25.203  18.452  46.257  1.00  0.00    -0.273 N 
HETATM   13  C3  UNL     1      24.328  19.391  46.330  1.00  0.00     0.215 C 
HETATM   14  N5  UNL     1      22.974  19.050  46.088  1.00  0.00    -0.065 NA
HETATM   15  N6  UNL     1      24.610  20.745  46.637  1.00  0.00    -0.065 NA
ATOM     16  H4  UNL     1      24.882  17.511  46.030  1.00  0.00     0.189 HD
ENDBRANCH   3  12
TORSDOF 3
ENDMDL
MODEL 5
REMARK VINA RESULT: -5.462807193      4.001      5.518
REMARK  3 active torsions:
REMARK  status: ('A' for Active; 'I' for Inactive)
REMARK    1  A    between atoms: N1_1  and  N2_4 
REMARK       I    between atoms: N2_4  and  C1_6 
REMARK    2  A    between atoms: C1_6  and  C2_8 
REMARK       I    between atoms: C2_8  and  N3_10 
REMARK    3  A    between atoms: N3_10  and  N4_12 
ROOT
HETATM    1  C2  UNL     1      26.268  18.887  48.174  1.00  0.00     0.329 C 
HETATM    2  O2  UNL     1      26.425  18.389  49.334  1.00  0.00    -0.261 OA
HETATM    3  N3  UNL     1      27.375  19.150  47.321  1.00  0.00    -0.260 N 
ATOM      4  H3  UNL     1      27.242  19.549  46.391  1.00  0.00     0.190 HD
ENDROOT
BRANCH   1   5
HETATM    5  C1  UNL     1      24.910  19.170  47.772  1.00  0.00     0.329 C 
HETATM    6  N2  UNL     1      23.987  18.173  47.376  1.00  0.00    -0.268 N 
ATOM      7  H2  UNL     1      24.279  17.196  47.368  1.00  0.00     0.190 HD
HETATM    8  O1  UNL     1      24.533  20.369  47.777  1.00  0.00    -0.261 OA
BRANCH   6   9
HETATM    9  N1  UNL     1      22.682  18.500  46.996  1.00  0.00    -0.342 N 
ATOM     10  H12 UNL     1      21.954  17.795  47.112  1.00  0.00     0.176 HD
ATOM     11  H11 UNL     1      22.455  19.417  46.612  1.00  0.00     0.176 HD
ENDBRANCH   6   9
ENDBRANCH   1   5
BRANCH   3  12
HETATM   12  N4  UNL     1      28.652  18.841  47.801  1.00  0.00    -0.273 N 
HETATM   13  C3  UNL     1      29.195  17.682  47.686  1.00  0.00     0.215 C 
HETATM   14  N5  UNL     1      30.496  17.507  48.218  1.00  0.00    -0.065 NA
HETATM   15  N6  UNL     1      28.592  16.559  47.066  1.00  0.00    -0.065 NA
ATOM     16  H4  UNL     1      29.182  19.577  48.269  1.00  0.00     0.189 HD
ENDBRANCH   3  12
TORSDOF 3
ENDMDL
