MODEL 1
REMARK VINA RESULT: -5.841840356      0.000      0.000
REMARK  3 active torsions:
REMARK  status: ('A' for Active; 'I' for Inactive)
REMARK    1  A    between atoms: N1_1  and  N2_4 
REMARK       I    between atoms: N2_4  and  C1_6 
REMARK    2  A    between atoms: C1_6  and  C2_8 
REMARK       I    between atoms: C2_8  and  N3_10 
REMARK    3  A    between atoms: N3_10  and  N4_12 
REMARK       I    between atoms: N4_12  and  C3_14 
ROOT
HETATM    1  C2  UNL     1      28.300  17.052  45.743  1.00  0.00     0.329 C 
HETATM    2  O2  UNL     1      27.680  15.944  45.776  1.00  0.00    -0.261 OA
HETATM    3  N3  UNL     1      28.369  17.853  44.595  1.00  0.00    -0.258 N 
ATOM      4  H3  UNL     1      28.885  18.731  44.648  1.00  0.00     0.190 HD
ENDROOT
BRANCH   1   5
HETATM    5  C1  UNL     1      28.961  17.480  46.982  1.00  0.00     0.329 C 
HETATM    6  N2  UNL     1      29.411  18.821  47.162  1.00  0.00    -0.268 N 
ATOM      7  H2  UNL     1      29.284  19.522  46.430  1.00  0.00     0.190 HD
HETATM    8  O1  UNL     1      29.125  16.615  47.901  1.00  0.00    -0.261 OA
BRANCH   6   9
HETATM    9  N1  UNL     1      30.028  19.144  48.370  1.00  0.00    -0.342 N 
ATOM     10  H12 UNL     1      30.776  18.555  48.736  1.00  0.00     0.176 HD
ATOM     11  H11 UNL     1      29.706  19.978  48.861  1.00  0.00     0.176 HD
ENDBRANCH   6   9
ENDBRANCH   1   5
BRANCH   3  12
HETATM   12  N4  UNL     1      27.769  17.512  43.382  1.00  0.00    -0.251 N 
HETATM   13  C3  UNL     1      28.317  17.910  42.132  1.00  0.00     0.347 C 
HETATM   14  N5  UNL     1      27.701  17.560  40.912  1.00  0.00    -0.038 NA
HETATM   15  O3  UNL     1      29.395  18.599  42.157  1.00  0.00    -0.249 OA
ATOM     16  H4  UNL     1      26.911  16.961  43.393  1.00  0.00     0.191 HD
ENDBRANCH   3  12
TORSDOF 3
ENDMDL
MODEL 2
REMARK VINA RESULT: -5.661990464      2.570      2.666
REMARK  3 active torsions:
REMARK  status: ('A' for Active; 'I' for Inactive)
REMARK    1  A    between atoms: N1_1  and  N2_4 
REMARK       I    between atoms: N2_4  and  C1_6 
REMARK    2  A    between atoms: C1_6  and  C2_8 
REMARK       I    between atoms: C2_8  and  N3_10 
REMARK    3  A    between atoms: N3_10  and  N4_12 
REMARK       I    between atoms: N4_12  and  C3_14 
ROOT
HETATM    1  C2  UNL     1      27.409  16.938  46.283  1.00  0.00     0.329 C 
HETATM    2  O2  UNL     1      27.886  15.760  46.278  1.00  0.00    -0.261 OA
HETATM    3  N3  UNL     1      27.602  17.842  45.230  1.00  0.00    -0.258 N 
ATOM      4  H3  UNL     1      27.186  18.770  45.307  1.00  0.00     0.190 HD
ENDROOT
BRANCH   1   5
HETATM    5  C1  UNL     1      26.628  17.332  47.461  1.00  0.00     0.329 C 
HETATM    6  N2  UNL     1      25.416  16.666  47.808  1.00  0.00    -0.268 N 
ATOM      7  H2  UNL     1      25.059  15.894  47.244  1.00  0.00     0.190 HD
HETATM    8  O1  UNL     1      27.063  18.293  48.172  1.00  0.00    -0.261 OA
BRANCH   6   9
HETATM    9  N1  UNL     1      24.736  17.103  48.944  1.00  0.00    -0.342 N 
ATOM     10  H12 UNL     1      25.070  16.845  49.873  1.00  0.00     0.176 HD
ATOM     11  H11 UNL     1      23.905  17.681  48.809  1.00  0.00     0.176 HD
ENDBRANCH   6   9
ENDBRANCH   1   5
BRANCH   3  12
HETATM   12  N4  UNL     1      28.333  17.540  44.080  1.00  0.00    -0.251 N 
HETATM   13  C3  UNL     1      28.399  18.431  42.974  1.00  0.00     0.347 C 
HETATM   14  N5  UNL     1      29.141  18.115  41.816  1.00  0.00    -0.038 NA
HETATM   15  O3  UNL     1      27.758  19.534  43.070  1.00  0.00    -0.249 OA
ATOM     16  H4  UNL     1      28.834  16.654  44.032  1.00  0.00     0.191 HD
ENDBRANCH   3  12
TORSDOF 3
ENDMDL
MODEL 3
REMARK VINA RESULT: -5.596090146      1.943      2.017
REMARK  3 active torsions:
REMARK  status: ('A' for Active; 'I' for Inactive)
REMARK    1  A    between atoms: N1_1  and  N2_4 
REMARK       I    between atoms: N2_4  and  C1_6 
REMARK    2  A    between atoms: C1_6  and  C2_8 
REMARK       I    between atoms: C2_8  and  N3_10 
REMARK    3  A    between atoms: N3_10  and  N4_12 
REMARK       I    between atoms: N4_12  and  C3_14 
ROOT
HETATM    1  C2  UNL     1      27.876  17.487  45.884  1.00  0.00     0.329 C 
HETATM    2  O2  UNL     1      28.243  16.325  45.526  1.00  0.00    -0.261 OA
HETATM    3  N3  UNL     1      28.120  18.633  45.114  1.00  0.00    -0.258 N 
ATOM      4  H3  UNL     1      27.793  19.532  45.469  1.00  0.00     0.190 HD
ENDROOT
BRANCH   1   5
HETATM    5  C1  UNL     1      27.170  17.595  47.165  1.00  0.00     0.329 C 
HETATM    6  N2  UNL     1      26.926  18.860  47.778  1.00  0.00    -0.268 N 
ATOM      7  H2  UNL     1      27.238  19.727  47.339  1.00  0.00     0.190 HD
HETATM    8  O1  UNL     1      26.776  16.521  47.723  1.00  0.00    -0.261 OA
BRANCH   6   9
HETATM    9  N1  UNL     1      26.247  18.872  48.996  1.00  0.00    -0.342 N 
ATOM     10  H12 UNL     1      26.292  19.694  49.599  1.00  0.00     0.176 HD
ATOM     11  H11 UNL     1      25.716  18.040  49.253  1.00  0.00     0.176 HD
ENDBRANCH   6   9
ENDBRANCH   1   5
BRANCH   3  12
HETATM   12  N4  UNL     1      28.786  18.610  43.888  1.00  0.00    -0.251 N 
HETATM   13  C3  UNL     1      28.086  18.623  42.651  1.00  0.00     0.347 C 
HETATM   14  N5  UNL     1      28.769  18.599  41.416  1.00  0.00    -0.038 NA
HETATM   15  O3  UNL     1      26.807  18.659  42.700  1.00  0.00    -0.249 OA
ATOM     16  H4  UNL     1      29.805  18.582  43.880  1.00  0.00     0.191 HD
ENDBRANCH   3  12
TORSDOF 3
ENDMDL
MODEL 4
REMARK VINA RESULT: -5.536670247      3.821      4.958
REMARK  3 active torsions:
REMARK  status: ('A' for Active; 'I' for Inactive)
REMARK    1  A    between atoms: N1_1  and  N2_4 
REMARK       I    between atoms: N2_4  and  C1_6 
REMARK    2  A    between atoms: C1_6  and  C2_8 
REMARK       I    between atoms: C2_8  and  N3_10 
REMARK    3  A    between atoms: N3_10  and  N4_12 
REMARK       I    between atoms: N4_12  and  C3_14 
ROOT
HETATM    1  C2  UNL     1      26.912  17.905  47.644  1.00  0.00     0.329 C 
HETATM    2  O2  UNL     1      26.560  16.693  47.793  1.00  0.00    -0.261 OA
HETATM    3  N3  UNL     1      28.206  18.281  47.261  1.00  0.00    -0.258 N 
ATOM      4  H3  UNL     1      28.411  19.275  47.161  1.00  0.00     0.190 HD
ENDROOT
BRANCH   1   5
HETATM    5  C1  UNL     1      25.889  18.928  47.895  1.00  0.00     0.329 C 
HETATM    6  N2  UNL     1      25.754  19.548  49.172  1.00  0.00    -0.268 N 
ATOM      7  H2  UNL     1      26.367  19.296  49.948  1.00  0.00     0.190 HD
HETATM    8  O1  UNL     1      25.118  19.250  46.936  1.00  0.00    -0.261 OA
BRANCH   6   9
HETATM    9  N1  UNL     1      24.757  20.511  49.325  1.00  0.00    -0.342 N 
ATOM     10  H12 UNL     1      24.818  21.198  50.077  1.00  0.00     0.176 HD
ATOM     11  H11 UNL     1      23.978  20.499  48.666  1.00  0.00     0.176 HD
ENDBRANCH   6   9
ENDBRANCH   1   5
BRANCH   3  12
HETATM   12  N4  UNL     1      29.229  17.367  47.007  1.00  0.00    -0.251 N 
HETATM   13  C3  UNL     1      30.153  16.972  48.012  1.00  0.00     0.347 C 
HETATM   14  N5  UNL     1      31.185  16.047  47.745  1.00  0.00    -0.038 NA
HETATM   15  O3  UNL     1      30.012  17.490  49.174  1.00  0.00    -0.249 OA
ATOM     16  H4  UNL     1      29.317  16.970  46.071  1.00  0.00     0.191 HD
ENDBRANCH   3  12
TORSDOF 3
ENDMDL
MODEL 5
REMARK VINA RESULT: -5.490602295      3.267      4.004
REMARK  3 active torsions:
REMARK  status: ('A' for Active; 'I' for Inactive)
REMARK    1  A    between atoms: N1_1  and  N2_4 
REMARK       I    between atoms: N2_4  and  C1_6 
REMARK    2  A    between atoms: C1_6  and  C2_8 
REMARK       I    between atoms: C2_8  and  N3_10 
REMARK    3  A    between atoms: N3_10  and  N4_12 
REMARK       I    between atoms: N4_12  and  C3_14 
ROOT
HETATM    1  C2  UNL     1      27.181  17.510  47.104  1.00  0.00     0.329 C 
HETATM    2  O2  UNL     1      26.618  16.524  47.674  1.00  0.00    -0.261 OA
HETATM    3  N3  UNL     1      26.506  18.371  46.229  1.00  0.00    -0.258 N 
ATOM      4  H3  UNL     1      27.026  19.142  45.811  1.00  0.00     0.190 HD
ENDROOT
BRANCH   1   5
HETATM    5  C1  UNL     1      28.603  17.724  47.399  1.00  0.00     0.329 C 
HETATM    6  N2  UNL     1      29.186  19.024  47.351  1.00  0.00    -0.268 N 
ATOM      7  H2  UNL     1      28.628  19.844  47.109  1.00  0.00     0.190 HD
HETATM    8  O1  UNL     1      29.310  16.710  47.702  1.00  0.00    -0.261 OA
BRANCH   6   9
HETATM    9  N1  UNL     1      30.545  19.139  47.646  1.00  0.00    -0.342 N 
ATOM     10  H12 UNL     1      30.899  18.840  48.554  1.00  0.00     0.176 HD
ATOM     11  H11 UNL     1      31.156  19.528  46.928  1.00  0.00     0.176 HD
ENDBRANCH   6   9
ENDBRANCH   1   5
BRANCH   3  12
HETATM   12  N4  UNL     1      25.157  18.230  45.900  1.00  0.00    -0.251 N 
HETATM   13  C3  UNL     1      24.136  18.948  46.581  1.00  0.00     0.347 C 
HETATM   14  N5  UNL     1      22.775  18.798  46.240  1.00  0.00    -0.038 NA
HETATM   15  O3  UNL     1      24.501  19.739  47.519  1.00  0.00    -0.249 OA
ATOM     16  H4  UNL     1      24.896  17.594  45.147  1.00  0.00     0.191 HD
ENDBRANCH   3  12
TORSDOF 3
ENDMDL
