MODEL 1
REMARK VINA RESULT: -6.113016695      0.000      0.000
REMARK  2 active torsions:
REMARK  status: ('A' for Active; 'I' for Inactive)
REMARK    1  A    between atoms: C1_2  and  C2_4 
REMARK    2  A    between atoms: C2_4  and  N2_5 
ROOT
HETATM    1  C2  UNL     1      25.657  17.645  47.970  1.00  0.00     0.367 C 
HETATM    2  N3  UNL     1      25.780  18.234  49.239  1.00  0.00    -0.281 N 
ATOM      3  H3  UNL     1      25.879  17.667  50.080  1.00  0.00     0.184 HD
HETATM    4  N4  UNL     1      25.761  19.604  49.301  1.00  0.00    -0.253 N 
ATOM      5  H4  UNL     1      26.254  20.055  50.071  1.00  0.00     0.191 HD
HETATM    6  C3  UNL     1      25.105  20.423  48.370  1.00  0.00     0.341 C 
HETATM    7  O2  UNL     1      24.851  21.650  48.579  1.00  0.00    -0.245 OA
HETATM    8  N5  UNL     1      24.704  19.853  47.129  1.00  0.00    -0.274 N 
ATOM      9  H5  UNL     1      24.223  20.402  46.415  1.00  0.00     0.173 HD
HETATM   10  C4  UNL     1      25.009  18.477  46.938  1.00  0.00     0.293 C 
HETATM   11  O3  UNL     1      24.720  17.924  45.837  1.00  0.00    -0.268 OA
ENDROOT
BRANCH   1  12
HETATM   12  C1  UNL     1      26.965  17.191  47.394  1.00  0.00     0.299 C 
HETATM   13  N1  UNL     1      28.107  18.035  47.472  1.00  0.00    -0.058 NA
HETATM   14  O1  UNL     1      27.108  16.074  46.833  1.00  0.00    -0.271 OA
ENDBRANCH   1  12
BRANCH   1  15
HETATM   15  N2  UNL     1      24.845  16.432  48.127  1.00  0.00    -0.033 N 
ATOM     16  H23 UNL     1      25.255  15.607  47.690  1.00  0.00     0.278 HD
ATOM     17  H22 UNL     1      24.832  16.071  49.081  1.00  0.00     0.278 HD
ATOM     18  H21 UNL     1      23.921  16.668  47.768  1.00  0.00     0.278 HD
ENDBRANCH   1  15
TORSDOF 2
ENDMDL
MODEL 2
REMARK VINA RESULT: -5.924656386      1.637      3.655
REMARK  2 active torsions:
REMARK  status: ('A' for Active; 'I' for Inactive)
REMARK    1  A    between atoms: C1_2  and  C2_4 
REMARK    2  A    between atoms: C2_4  and  N2_5 
ROOT
HETATM    1  C2  UNL     1      24.601  18.311  47.582  1.00  0.00     0.367 C 
HETATM    2  N3  UNL     1      24.849  16.988  47.984  1.00  0.00    -0.281 N 
ATOM      3  H3  UNL     1      24.160  16.457  48.516  1.00  0.00     0.184 HD
HETATM    4  N4  UNL     1      26.056  16.440  47.633  1.00  0.00    -0.253 N 
ATOM      5  H4  UNL     1      26.106  15.428  47.516  1.00  0.00     0.191 HD
HETATM    6  C3  UNL     1      27.226  17.185  47.424  1.00  0.00     0.341 C 
HETATM    7  O2  UNL     1      28.384  16.666  47.379  1.00  0.00    -0.245 OA
HETATM    8  N5  UNL     1      27.112  18.593  47.252  1.00  0.00    -0.274 N 
ATOM      9  H5  UNL     1      27.929  19.185  47.098  1.00  0.00     0.173 HD
HETATM   10  C4  UNL     1      25.796  19.132  47.309  1.00  0.00     0.293 C 
HETATM   11  O3  UNL     1      25.624  20.371  47.118  1.00  0.00    -0.268 OA
ENDROOT
BRANCH   1  12
HETATM   12  C1  UNL     1      23.727  18.411  46.367  1.00  0.00     0.299 C 
HETATM   13  N1  UNL     1      24.230  18.017  45.096  1.00  0.00    -0.058 NA
HETATM   14  O1  UNL     1      22.544  18.835  46.414  1.00  0.00    -0.271 OA
ENDBRANCH   1  12
BRANCH   1  15
HETATM   15  N2  UNL     1      23.858  18.966  48.665  1.00  0.00    -0.033 N 
ATOM     16  H23 UNL     1      22.929  19.283  48.388  1.00  0.00     0.278 HD
ATOM     17  H22 UNL     1      23.555  18.325  49.398  1.00  0.00     0.278 HD
ATOM     18  H21 UNL     1      24.461  19.715  49.002  1.00  0.00     0.278 HD
ENDBRANCH   1  15
TORSDOF 2
ENDMDL
MODEL 3
REMARK VINA RESULT: -5.863551062      2.744      4.462
REMARK  2 active torsions:
REMARK  status: ('A' for Active; 'I' for Inactive)
REMARK    1  A    between atoms: C1_2  and  C2_4 
REMARK    2  A    between atoms: C2_4  and  N2_5 
ROOT
HETATM    1  C2  UNL     1      28.041  17.983  45.456  1.00  0.00     0.367 C 
HETATM    2  N3  UNL     1      28.899  18.970  45.968  1.00  0.00    -0.281 N 
ATOM      3  H3  UNL     1      29.145  19.795  45.422  1.00  0.00     0.184 HD
HETATM    4  N4  UNL     1      29.392  18.778  47.234  1.00  0.00    -0.253 N 
ATOM      5  H4  UNL     1      29.635  19.604  47.782  1.00  0.00     0.191 HD
HETATM    6  C3  UNL     1      29.582  17.519  47.821  1.00  0.00     0.341 C 
HETATM    7  O2  UNL     1      30.289  17.334  48.859  1.00  0.00    -0.245 OA
HETATM    8  N5  UNL     1      28.952  16.391  47.225  1.00  0.00    -0.274 N 
ATOM      9  H5  UNL     1      29.056  15.451  47.609  1.00  0.00     0.173 HD
HETATM   10  C4  UNL     1      28.169  16.645  46.064  1.00  0.00     0.293 C 
HETATM   11  O3  UNL     1      27.546  15.690  45.515  1.00  0.00    -0.268 OA
ENDROOT
BRANCH   1  12
HETATM   12  C1  UNL     1      26.590  18.352  45.538  1.00  0.00     0.299 C 
HETATM   13  N1  UNL     1      26.017  18.705  46.791  1.00  0.00    -0.058 NA
HETATM   14  O1  UNL     1      25.835  18.368  44.531  1.00  0.00    -0.271 OA
ENDBRANCH   1  12
BRANCH   1  15
HETATM   15  N2  UNL     1      28.339  17.844  44.026  1.00  0.00    -0.033 N 
ATOM     16  H23 UNL     1      27.947  18.591  43.452  1.00  0.00     0.278 HD
ATOM     17  H22 UNL     1      29.318  18.013  43.794  1.00  0.00     0.278 HD
ATOM     18  H21 UNL     1      28.014  16.914  43.762  1.00  0.00     0.278 HD
ENDBRANCH   1  15
TORSDOF 2
ENDMDL
MODEL 4
REMARK VINA RESULT: -5.771121686      2.500      3.567
REMARK  2 active torsions:
REMARK  status: ('A' for Active; 'I' for Inactive)
REMARK    1  A    between atoms: C1_2  and  C2_4 
REMARK    2  A    between atoms: C2_4  and  N2_5 
ROOT
HETATM    1  C2  UNL     1      28.313  18.389  46.825  1.00  0.00     0.367 C 
HETATM    2  N3  UNL     1      28.558  18.812  45.508  1.00  0.00    -0.281 N 
ATOM      3  H3  UNL     1      29.499  19.042  45.191  1.00  0.00     0.184 HD
HETATM    4  N4  UNL     1      27.479  18.903  44.666  1.00  0.00    -0.253 N 
ATOM      5  H4  UNL     1      27.641  18.781  43.666  1.00  0.00     0.191 HD
HETATM    6  C3  UNL     1      26.167  19.154  45.094  1.00  0.00     0.341 C 
HETATM    7  O2  UNL     1      25.235  19.514  44.310  1.00  0.00    -0.245 OA
HETATM    8  N5  UNL     1      25.863  18.998  46.476  1.00  0.00    -0.274 N 
ATOM      9  H5  UNL     1      24.926  19.167  46.843  1.00  0.00     0.173 HD
HETATM   10  C4  UNL     1      26.937  18.592  47.317  1.00  0.00     0.293 C 
HETATM   11  O3  UNL     1      26.720  18.391  48.547  1.00  0.00    -0.268 OA
ENDROOT
BRANCH   1  12
HETATM   12  C1  UNL     1      28.642  16.945  47.058  1.00  0.00     0.299 C 
HETATM   13  N1  UNL     1      27.946  15.933  46.341  1.00  0.00    -0.058 NA
HETATM   14  O1  UNL     1      29.523  16.573  47.875  1.00  0.00    -0.271 OA
ENDBRANCH   1  12
BRANCH   1  15
HETATM   15  N2  UNL     1      29.208  19.152  47.703  1.00  0.00    -0.033 N 
ATOM     16  H23 UNL     1      29.632  18.589  48.441  1.00  0.00     0.278 HD
ATOM     17  H22 UNL     1      30.078  19.435  47.252  1.00  0.00     0.278 HD
ATOM     18  H21 UNL     1      28.656  19.934  48.052  1.00  0.00     0.278 HD
ENDBRANCH   1  15
TORSDOF 2
ENDMDL
MODEL 5
REMARK VINA RESULT: -5.769157408      3.049      4.643
REMARK  2 active torsions:
REMARK  status: ('A' for Active; 'I' for Inactive)
REMARK    1  A    between atoms: C1_2  and  C2_4 
REMARK    2  A    between atoms: C2_4  and  N2_5 
ROOT
HETATM    1  C2  UNL     1      28.115  17.075  46.056  1.00  0.00     0.367 C 
HETATM    2  N3  UNL     1      28.286  16.373  44.853  1.00  0.00    -0.281 N 
ATOM      3  H3  UNL     1      28.491  15.374  44.846  1.00  0.00     0.184 HD
HETATM    4  N4  UNL     1      28.167  17.085  43.686  1.00  0.00    -0.253 N 
ATOM      5  H4  UNL     1      27.861  16.586  42.851  1.00  0.00     0.191 HD
HETATM    6  C3  UNL     1      28.439  18.455  43.572  1.00  0.00     0.341 C 
HETATM    7  O2  UNL     1      28.602  19.043  42.457  1.00  0.00    -0.245 OA
HETATM    8  N5  UNL     1      28.539  19.229  44.762  1.00  0.00    -0.274 N 
ATOM      9  H5  UNL     1      28.736  20.230  44.739  1.00  0.00     0.173 HD
HETATM   10  C4  UNL     1      28.350  18.531  45.987  1.00  0.00     0.293 C 
HETATM   11  O3  UNL     1      28.381  19.171  47.078  1.00  0.00    -0.268 OA
ENDROOT
BRANCH   1  12
HETATM   12  C1  UNL     1      26.758  16.891  46.667  1.00  0.00     0.299 C 
HETATM   13  N1  UNL     1      25.594  17.251  45.934  1.00  0.00    -0.058 NA
HETATM   14  O1  UNL     1      26.592  16.421  47.822  1.00  0.00    -0.271 OA
ENDBRANCH   1  12
BRANCH   1  15
HETATM   15  N2  UNL     1      29.070  16.524  47.025  1.00  0.00    -0.033 N 
ATOM     16  H23 UNL     1      28.718  16.511  47.983  1.00  0.00     0.278 HD
ATOM     17  H22 UNL     1      29.210  15.518  46.933  1.00  0.00     0.278 HD
ATOM     18  H21 UNL     1      29.925  17.066  46.913  1.00  0.00     0.278 HD
ENDBRANCH   1  15
TORSDOF 2
ENDMDL
