MODEL 1
REMARK VINA RESULT: -6.249642322      0.000      0.000
REMARK  4 active torsions:
REMARK  status: ('A' for Active; 'I' for Inactive)
REMARK    1  A    between atoms: N1_1  and  C1_5 
REMARK    2  A    between atoms: C1_5  and  N2_6 
REMARK    3  A    between atoms: C1_5  and  C2_10 
REMARK       I    between atoms: C2_10  and  N3_12 
REMARK    4  A    between atoms: N3_12  and  C3_14 
ROOT
HETATM    1  C2  UNL     1      26.399  18.382  47.310  1.00  0.00     0.294 C 
HETATM    2  O1  UNL     1      26.403  17.524  46.409  1.00  0.00    -0.268 OA
HETATM    3  N3  UNL     1      27.555  19.140  47.546  1.00  0.00    -0.155 N 
ATOM      4  H3  UNL     1      27.463  20.153  47.609  1.00  0.00     0.187 HD
ENDROOT
BRANCH   1   5
HETATM    5  C1  UNL     1      25.188  18.585  48.110  1.00  0.00     0.469 C 
BRANCH   5   6
HETATM    6  N1  UNL     1      24.860  17.314  48.723  1.00  0.00    -0.042 N 
ATOM      7  H13 UNL     1      24.769  17.380  49.736  1.00  0.00     0.277 HD
ATOM      8  H12 UNL     1      23.907  17.013  48.517  1.00  0.00     0.277 HD
ATOM      9  H11 UNL     1      25.558  16.628  48.436  1.00  0.00     0.277 HD
ENDBRANCH   5   6
BRANCH   5  10
HETATM   10  N2  UNL     1      25.451  19.560  49.177  1.00  0.00    -0.042 N 
ATOM     11  H23 UNL     1      24.813  19.461  49.966  1.00  0.00     0.277 HD
ATOM     12  H22 UNL     1      26.320  19.370  49.676  1.00  0.00     0.277 HD
ATOM     13  H21 UNL     1      25.430  20.496  48.771  1.00  0.00     0.277 HD
ENDBRANCH   5  10
ENDBRANCH   1   5
BRANCH   3  14
HETATM   14  C3  UNL     1      28.739  18.620  47.689  1.00  0.00     0.703 A 
HETATM   15  N4  UNL     1      29.862  19.312  47.976  1.00  0.00    -0.128 N 
HETATM   16  N5  UNL     1      30.871  18.441  48.043  1.00  0.00    -0.237 N 
ATOM     17  H4  UNL     1      29.926  20.321  48.115  1.00  0.00     0.205 HD
HETATM   18  C4  UNL     1      30.396  17.196  47.800  1.00  0.00     0.353 A 
ATOM     19  H5  UNL     1      31.844  18.675  48.245  1.00  0.00     0.192 HD
HETATM   20  O2  UNL     1      31.067  16.127  47.783  1.00  0.00    -0.245 OA
HETATM   21  N6  UNL     1      29.073  17.324  47.583  1.00  0.00    -0.139 N 
ATOM     22  H6  UNL     1      28.429  16.562  47.372  1.00  0.00     0.189 HD
ENDBRANCH   3  14
TORSDOF 4
ENDMDL
MODEL 2
REMARK VINA RESULT: -6.119149308      3.233      4.651
REMARK  4 active torsions:
REMARK  status: ('A' for Active; 'I' for Inactive)
REMARK    1  A    between atoms: N1_1  and  C1_5 
REMARK    2  A    between atoms: C1_5  and  N2_6 
REMARK    3  A    between atoms: C1_5  and  C2_10 
REMARK       I    between atoms: C2_10  and  N3_12 
REMARK    4  A    between atoms: N3_12  and  C3_14 
ROOT
HETATM    1  C2  UNL     1      28.764  17.647  47.123  1.00  0.00     0.294 C 
HETATM    2  O1  UNL     1      28.162  16.562  47.041  1.00  0.00    -0.268 OA
HETATM    3  N3  UNL     1      28.505  18.652  46.180  1.00  0.00    -0.155 N 
ATOM      4  H3  UNL     1      28.304  19.592  46.520  1.00  0.00     0.187 HD
ENDROOT
BRANCH   1   5
HETATM    5  C1  UNL     1      29.736  17.856  48.201  1.00  0.00     0.469 C 
BRANCH   5   6
HETATM    6  N1  UNL     1      30.398  16.589  48.434  1.00  0.00    -0.042 N 
ATOM      7  H13 UNL     1      31.370  16.701  48.720  1.00  0.00     0.277 HD
ATOM      8  H12 UNL     1      30.060  16.119  49.274  1.00  0.00     0.277 HD
ATOM      9  H11 UNL     1      30.299  16.015  47.597  1.00  0.00     0.277 HD
ENDBRANCH   5   6
BRANCH   5  10
HETATM   10  N2  UNL     1      30.747  18.836  47.779  1.00  0.00    -0.042 N 
ATOM     11  H23 UNL     1      31.700  18.505  47.925  1.00  0.00     0.277 HD
ATOM     12  H22 UNL     1      30.790  18.943  46.766  1.00  0.00     0.277 HD
ATOM     13  H21 UNL     1      30.560  19.718  48.259  1.00  0.00     0.277 HD
ENDBRANCH   5  10
ENDBRANCH   1   5
BRANCH   3  14
HETATM   14  C3  UNL     1      28.508  18.450  44.895  1.00  0.00     0.703 A 
HETATM   15  N4  UNL     1      28.252  17.268  44.295  1.00  0.00    -0.128 N 
HETATM   16  N5  UNL     1      28.348  17.452  42.976  1.00  0.00    -0.237 N 
ATOM     17  H4  UNL     1      28.025  16.392  44.765  1.00  0.00     0.205 HD
HETATM   18  C4  UNL     1      28.666  18.747  42.733  1.00  0.00     0.353 A 
ATOM     19  H5  UNL     1      28.206  16.734  42.265  1.00  0.00     0.192 HD
HETATM   20  O2  UNL     1      28.838  19.277  41.600  1.00  0.00    -0.245 OA
HETATM   21  N6  UNL     1      28.762  19.351  43.933  1.00  0.00    -0.139 N 
ATOM     22  H6  UNL     1      28.989  20.333  44.086  1.00  0.00     0.189 HD
ENDBRANCH   3  14
TORSDOF 4
ENDMDL
MODEL 3
REMARK VINA RESULT: -5.926661825      1.138      1.138
REMARK  4 active torsions:
REMARK  status: ('A' for Active; 'I' for Inactive)
REMARK    1  A    between atoms: N1_1  and  C1_5 
REMARK    2  A    between atoms: C1_5  and  N2_6 
REMARK    3  A    between atoms: C1_5  and  C2_10 
REMARK       I    between atoms: C2_10  and  N3_12 
REMARK    4  A    between atoms: N3_12  and  C3_14 
ROOT
HETATM    1  C2  UNL     1      25.607  19.142  47.218  1.00  0.00     0.294 C 
HETATM    2  O1  UNL     1      25.335  18.189  46.467  1.00  0.00    -0.268 OA
HETATM    3  N3  UNL     1      26.911  19.657  47.235  1.00  0.00    -0.155 N 
ATOM      4  H3  UNL     1      27.032  20.666  47.145  1.00  0.00     0.187 HD
ENDROOT
BRANCH   1   5
HETATM    5  C1  UNL     1      24.560  19.709  48.074  1.00  0.00     0.469 C 
BRANCH   5   6
HETATM    6  N1  UNL     1      23.672  18.626  48.442  1.00  0.00    -0.042 N 
ATOM      7  H13 UNL     1      22.721  18.765  48.101  1.00  0.00     0.277 HD
ATOM      8  H12 UNL     1      23.875  17.763  47.938  1.00  0.00     0.277 HD
ATOM      9  H11 UNL     1      23.712  18.507  49.454  1.00  0.00     0.277 HD
ENDBRANCH   5   6
BRANCH   5  10
HETATM   10  N2  UNL     1      25.159  20.255  49.301  1.00  0.00    -0.042 N 
ATOM     11  H23 UNL     1      24.884  21.221  49.475  1.00  0.00     0.277 HD
ATOM     12  H22 UNL     1      24.765  19.843  50.146  1.00  0.00     0.277 HD
ATOM     13  H21 UNL     1      26.172  20.139  49.244  1.00  0.00     0.277 HD
ENDBRANCH   5  10
ENDBRANCH   1   5
BRANCH   3  14
HETATM   14  C3  UNL     1      27.974  18.918  47.360  1.00  0.00     0.703 A 
HETATM   15  N4  UNL     1      29.192  19.367  47.732  1.00  0.00    -0.128 N 
HETATM   16  N5  UNL     1      30.023  18.322  47.747  1.00  0.00    -0.237 N 
ATOM     17  H4  UNL     1      29.433  20.331  47.959  1.00  0.00     0.205 HD
HETATM   18  C4  UNL     1      29.339  17.209  47.386  1.00  0.00     0.353 A 
ATOM     19  H5  UNL     1      31.014  18.356  47.990  1.00  0.00     0.192 HD
HETATM   20  O2  UNL     1      29.806  16.040  47.291  1.00  0.00    -0.245 OA
HETATM   21  N6  UNL     1      28.071  17.596  47.150  1.00  0.00    -0.139 N 
ATOM     22  H6  UNL     1      27.309  16.985  46.859  1.00  0.00     0.189 HD
ENDBRANCH   3  14
TORSDOF 4
ENDMDL
MODEL 4
REMARK VINA RESULT: -5.832592766      1.822      4.987
REMARK  4 active torsions:
REMARK  status: ('A' for Active; 'I' for Inactive)
REMARK    1  A    between atoms: N1_1  and  C1_5 
REMARK    2  A    between atoms: C1_5  and  N2_6 
REMARK    3  A    between atoms: C1_5  and  C2_10 
REMARK       I    between atoms: C2_10  and  N3_12 
REMARK    4  A    between atoms: N3_12  and  C3_14 
ROOT
HETATM    1  C2  UNL     1      28.521  17.790  47.202  1.00  0.00     0.294 C 
HETATM    2  O1  UNL     1      28.514  18.679  46.332  1.00  0.00    -0.268 OA
HETATM    3  N3  UNL     1      27.402  16.958  47.348  1.00  0.00    -0.155 N 
ATOM      4  H3  UNL     1      27.552  15.950  47.382  1.00  0.00     0.187 HD
ENDROOT
BRANCH   1   5
HETATM    5  C1  UNL     1      29.699  17.629  48.062  1.00  0.00     0.469 C 
BRANCH   5   6
HETATM    6  N1  UNL     1      30.264  16.326  47.777  1.00  0.00    -0.042 N 
ATOM      7  H13 UNL     1      29.732  15.813  47.075  1.00  0.00     0.277 HD
ATOM      8  H12 UNL     1      31.146  16.384  47.269  1.00  0.00     0.277 HD
ATOM      9  H11 UNL     1      30.350  15.814  48.655  1.00  0.00     0.277 HD
ENDBRANCH   5   6
BRANCH   5  10
HETATM   10  N2  UNL     1      30.702  18.652  47.731  1.00  0.00    -0.042 N 
ATOM     11  H23 UNL     1      30.300  19.451  47.241  1.00  0.00     0.277 HD
ATOM     12  H22 UNL     1      31.040  19.150  48.554  1.00  0.00     0.277 HD
ATOM     13  H21 UNL     1      31.454  18.207  47.205  1.00  0.00     0.277 HD
ENDBRANCH   5  10
ENDBRANCH   1   5
BRANCH   3  14
HETATM   14  C3  UNL     1      26.184  17.403  47.443  1.00  0.00     0.703 A 
HETATM   15  N4  UNL     1      25.458  17.442  48.581  1.00  0.00    -0.128 N 
HETATM   16  N5  UNL     1      24.263  17.959  48.283  1.00  0.00    -0.237 N 
ATOM     17  H4  UNL     1      25.767  17.132  49.502  1.00  0.00     0.205 HD
HETATM   18  C4  UNL     1      24.225  18.248  46.960  1.00  0.00     0.353 A 
ATOM     19  H5  UNL     1      23.502  18.111  48.946  1.00  0.00     0.192 HD
HETATM   20  O2  UNL     1      23.252  18.750  46.330  1.00  0.00    -0.245 OA
HETATM   21  N6  UNL     1      25.423  17.898  46.454  1.00  0.00    -0.139 N 
ATOM     22  H6  UNL     1      25.706  17.993  45.479  1.00  0.00     0.189 HD
ENDBRANCH   3  14
TORSDOF 4
ENDMDL
MODEL 5
REMARK VINA RESULT: -5.796084493      1.265      1.711
REMARK  4 active torsions:
REMARK  status: ('A' for Active; 'I' for Inactive)
REMARK    1  A    between atoms: N1_1  and  C1_5 
REMARK    2  A    between atoms: C1_5  and  N2_6 
REMARK    3  A    between atoms: C1_5  and  C2_10 
REMARK       I    between atoms: C2_10  and  N3_12 
REMARK    4  A    between atoms: N3_12  and  C3_14 
ROOT
HETATM    1  C2  UNL     1      25.566  19.361  47.182  1.00  0.00     0.294 C 
HETATM    2  O1  UNL     1      25.260  18.804  46.112  1.00  0.00    -0.268 OA
HETATM    3  N3  UNL     1      26.919  19.517  47.516  1.00  0.00    -0.155 N 
ATOM      4  H3  UNL     1      27.239  20.439  47.811  1.00  0.00     0.187 HD
ENDROOT
BRANCH   1   5
HETATM    5  C1  UNL     1      24.507  19.843  48.075  1.00  0.00     0.469 C 
BRANCH   5   6
HETATM    6  N1  UNL     1      23.650  18.714  48.374  1.00  0.00    -0.042 N 
ATOM      7  H13 UNL     1      24.149  17.825  48.347  1.00  0.00     0.277 HD
ATOM      8  H12 UNL     1      23.368  18.685  49.353  1.00  0.00     0.277 HD
ATOM      9  H11 UNL     1      22.855  18.736  47.736  1.00  0.00     0.277 HD
ENDBRANCH   5   6
BRANCH   5  10
HETATM   10  N2  UNL     1      25.096  20.324  49.333  1.00  0.00    -0.042 N 
ATOM     11  H23 UNL     1      26.059  20.638  49.221  1.00  0.00     0.277 HD
ATOM     12  H22 UNL     1      24.696  21.210  49.639  1.00  0.00     0.277 HD
ATOM     13  H21 UNL     1      25.002  19.588  50.034  1.00  0.00     0.277 HD
ENDBRANCH   5  10
ENDBRANCH   1   5
BRANCH   3  14
HETATM   14  C3  UNL     1      27.786  18.549  47.472  1.00  0.00     0.703 A 
HETATM   15  N4  UNL     1      27.566  17.334  46.926  1.00  0.00    -0.128 N 
HETATM   16  N5  UNL     1      28.681  16.615  47.069  1.00  0.00    -0.237 N 
ATOM     17  H4  UNL     1      26.701  17.022  46.483  1.00  0.00     0.205 HD
HETATM   18  C4  UNL     1      29.612  17.366  47.706  1.00  0.00     0.353 A 
ATOM     19  H5  UNL     1      28.812  15.654  46.752  1.00  0.00     0.192 HD
HETATM   20  O2  UNL     1      30.784  17.010  48.010  1.00  0.00    -0.245 OA
HETATM   21  N6  UNL     1      29.041  18.562  47.948  1.00  0.00    -0.139 N 
ATOM     22  H6  UNL     1      29.489  19.349  48.416  1.00  0.00     0.189 HD
ENDBRANCH   3  14
TORSDOF 4
ENDMDL
