MODEL 1
REMARK VINA RESULT: -6.033783356      0.000      0.000
REMARK  4 active torsions:
REMARK  status: ('A' for Active; 'I' for Inactive)
REMARK    1  A    between atoms: N1_1  and  C1_4 
REMARK    2  A    between atoms: N3_7  and  O1_8 
REMARK    3  A    between atoms: C2_10  and  C3_11 
REMARK    4  A    between atoms: N5_15  and  N6_16 
ROOT
HETATM    1  C1  UNL     1      23.759  18.476  47.097  1.00  0.00     0.713 A 
HETATM    2  N2  UNL     1      24.421  18.481  48.273  1.00  0.00    -0.104 N 
ATOM      3  H2  UNL     1      23.887  18.598  49.134  1.00  0.00     0.208 HD
HETATM    4  N3  UNL     1      25.735  18.341  48.357  1.00  0.00    -0.142 N 
HETATM    5  C2  UNL     1      26.486  18.184  47.242  1.00  0.00     0.164 A 
HETATM    6  C4  UNL     1      25.819  18.178  46.039  1.00  0.00     0.173 A 
HETATM    7  N5  UNL     1      24.485  18.321  45.976  1.00  0.00    -0.101 N 
ENDROOT
BRANCH   1   8
HETATM    8  N1  UNL     1      22.496  18.618  47.116  1.00  0.00    -0.232 N 
ATOM      9  H12 UNL     1      22.022  19.519  47.170  1.00  0.00     0.174 HD
ATOM     10  H11 UNL     1      21.914  17.781  47.074  1.00  0.00     0.174 HD
ENDBRANCH   1   8
BRANCH   7  11
HETATM   11  N6  UNL     1      23.843  18.310  44.739  1.00  0.00    -0.325 N 
ATOM     12  H62 UNL     1      24.087  19.005  44.033  1.00  0.00     0.178 HD
ATOM     13  H61 UNL     1      23.133  17.603  44.548  1.00  0.00     0.178 HD
ENDBRANCH   7  11
BRANCH   4  14
HETATM   14  O1  UNL     1      26.397  18.350  49.585  1.00  0.00    -0.267 OA
ATOM     15  H1  UNL     1      27.025  19.026  49.810  1.00  0.00     0.247 HD
ENDBRANCH   4  14
BRANCH   5  16
HETATM   16  C3  UNL     1      27.928  18.027  47.291  1.00  0.00     0.287 C 
HETATM   17  N4  UNL     1      28.451  16.718  47.410  1.00  0.00    -0.056 NA
HETATM   18  O2  UNL     1      28.634  19.064  47.226  1.00  0.00    -0.269 OA
ENDBRANCH   5  16
TORSDOF 4
ENDMDL
MODEL 2
REMARK VINA RESULT: -5.837425128      2.354      2.901
REMARK  4 active torsions:
REMARK  status: ('A' for Active; 'I' for Inactive)
REMARK    1  A    between atoms: N1_1  and  C1_4 
REMARK    2  A    between atoms: N3_7  and  O1_8 
REMARK    3  A    between atoms: C2_10  and  C3_11 
REMARK    4  A    between atoms: N5_15  and  N6_16 
ROOT
HETATM    1  C1  UNL     1      25.905  19.062  48.332  1.00  0.00     0.713 A 
HETATM    2  N2  UNL     1      27.036  19.497  47.739  1.00  0.00    -0.104 N 
ATOM      3  H2  UNL     1      27.270  20.488  47.801  1.00  0.00     0.208 HD
HETATM    4  N3  UNL     1      27.856  18.693  47.080  1.00  0.00    -0.142 N 
HETATM    5  C2  UNL     1      27.587  17.370  46.971  1.00  0.00     0.164 A 
HETATM    6  C4  UNL     1      26.435  16.919  47.573  1.00  0.00     0.173 A 
HETATM    7  N5  UNL     1      25.618  17.751  48.236  1.00  0.00    -0.101 N 
ENDROOT
BRANCH   1   8
HETATM    8  N1  UNL     1      25.179  19.909  48.942  1.00  0.00    -0.232 N 
ATOM      9  H12 UNL     1      25.187  20.911  48.752  1.00  0.00     0.174 HD
ATOM     10  H11 UNL     1      24.549  19.571  49.669  1.00  0.00     0.174 HD
ENDBRANCH   1   8
BRANCH   7  11
HETATM   11  N6  UNL     1      24.459  17.257  48.833  1.00  0.00    -0.325 N 
ATOM     12  H62 UNL     1      23.546  17.494  48.445  1.00  0.00     0.178 HD
ATOM     13  H61 UNL     1      24.533  16.661  49.657  1.00  0.00     0.178 HD
ENDBRANCH   7  11
BRANCH   4  14
HETATM   14  O1  UNL     1      29.020  19.166  46.475  1.00  0.00    -0.267 OA
ATOM     15  H1  UNL     1      28.992  19.757  45.731  1.00  0.00     0.247 HD
ENDBRANCH   4  14
BRANCH   5  16
HETATM   16  C3  UNL     1      28.459  16.455  46.258  1.00  0.00     0.287 C 
HETATM   17  N4  UNL     1      29.631  16.007  46.913  1.00  0.00    -0.056 NA
HETATM   18  O2  UNL     1      28.127  16.112  45.097  1.00  0.00    -0.269 OA
ENDBRANCH   5  16
TORSDOF 4
ENDMDL
MODEL 3
REMARK VINA RESULT: -5.700975422      2.506      3.922
REMARK  4 active torsions:
REMARK  status: ('A' for Active; 'I' for Inactive)
REMARK    1  A    between atoms: N1_1  and  C1_4 
REMARK    2  A    between atoms: N3_7  and  O1_8 
REMARK    3  A    between atoms: C2_10  and  C3_11 
REMARK    4  A    between atoms: N5_15  and  N6_16 
ROOT
HETATM    1  C1  UNL     1      27.563  16.958  46.823  1.00  0.00     0.713 A 
HETATM    2  N2  UNL     1      26.581  16.539  47.649  1.00  0.00    -0.104 N 
ATOM      3  H2  UNL     1      26.599  15.574  47.979  1.00  0.00     0.208 HD
HETATM    4  N3  UNL     1      25.595  17.327  48.048  1.00  0.00    -0.142 N 
HETATM    5  C2  UNL     1      25.529  18.614  47.635  1.00  0.00     0.164 A 
HETATM    6  C4  UNL     1      26.526  19.050  46.793  1.00  0.00     0.173 A 
HETATM    7  N5  UNL     1      27.518  18.234  46.400  1.00  0.00    -0.101 N 
ENDROOT
BRANCH   1   8
HETATM    8  N1  UNL     1      28.469  16.129  46.494  1.00  0.00    -0.232 N 
ATOM      9  H12 UNL     1      28.287  15.226  46.056  1.00  0.00     0.174 HD
ATOM     10  H11 UNL     1      29.441  16.377  46.677  1.00  0.00     0.174 HD
ENDBRANCH   1   8
BRANCH   7  11
HETATM   11  N6  UNL     1      28.512  18.710  45.547  1.00  0.00    -0.325 N 
ATOM     12  H62 UNL     1      29.147  18.055  45.092  1.00  0.00     0.178 HD
ATOM     13  H61 UNL     1      28.595  19.713  45.383  1.00  0.00     0.178 HD
ENDBRANCH   7  11
BRANCH   4  14
HETATM   14  O1  UNL     1      24.591  16.871  48.901  1.00  0.00    -0.267 OA
ATOM     15  H1  UNL     1      24.271  17.397  49.624  1.00  0.00     0.247 HD
ENDBRANCH   4  14
BRANCH   5  16
HETATM   16  C3  UNL     1      24.465  19.511  48.049  1.00  0.00     0.287 C 
HETATM   17  N4  UNL     1      24.824  20.707  48.714  1.00  0.00    -0.056 NA
HETATM   18  O2  UNL     1      23.282  19.174  47.796  1.00  0.00    -0.269 OA
ENDBRANCH   5  16
TORSDOF 4
ENDMDL
MODEL 4
REMARK VINA RESULT: -5.645347092      3.150      4.382
REMARK  4 active torsions:
REMARK  status: ('A' for Active; 'I' for Inactive)
REMARK    1  A    between atoms: N1_1  and  C1_4 
REMARK    2  A    between atoms: N3_7  and  O1_8 
REMARK    3  A    between atoms: C2_10  and  C3_11 
REMARK    4  A    between atoms: N5_15  and  N6_16 
ROOT
HETATM    1  C1  UNL     1      24.756  18.182  48.072  1.00  0.00     0.713 A 
HETATM    2  N2  UNL     1      24.296  17.763  46.874  1.00  0.00    -0.104 N 
ATOM      3  H2  UNL     1      24.162  16.763  46.726  1.00  0.00     0.208 HD
HETATM    4  N3  UNL     1      24.012  18.594  45.884  1.00  0.00    -0.142 N 
HETATM    5  C2  UNL     1      24.176  19.930  46.035  1.00  0.00     0.164 A 
HETATM    6  C4  UNL     1      24.645  20.365  47.253  1.00  0.00     0.173 A 
HETATM    7  N5  UNL     1      24.926  19.505  48.244  1.00  0.00    -0.101 N 
ENDROOT
BRANCH   1   8
HETATM    8  N1  UNL     1      25.002  17.309  48.963  1.00  0.00    -0.232 N 
ATOM      9  H12 UNL     1      25.255  16.341  48.762  1.00  0.00     0.174 HD
ATOM     10  H11 UNL     1      24.943  17.587  49.942  1.00  0.00     0.174 HD
ENDBRANCH   1   8
BRANCH   7  11
HETATM   11  N6  UNL     1      25.400  19.983  49.465  1.00  0.00    -0.325 N 
ATOM     12  H62 UNL     1      24.883  20.710  49.961  1.00  0.00     0.178 HD
ATOM     13  H61 UNL     1      26.261  19.600  49.855  1.00  0.00     0.178 HD
ENDBRANCH   7  11
BRANCH   4  14
HETATM   14  O1  UNL     1      23.538  18.137  44.655  1.00  0.00    -0.267 OA
ATOM     15  H1  UNL     1      23.227  17.247  44.538  1.00  0.00     0.247 HD
ENDBRANCH   4  14
BRANCH   5  16
HETATM   16  C3  UNL     1      23.876  20.875  44.974  1.00  0.00     0.287 C 
HETATM   17  N4  UNL     1      24.949  21.605  44.411  1.00  0.00    -0.056 NA
HETATM   18  O2  UNL     1      22.679  20.994  44.616  1.00  0.00    -0.269 OA
ENDBRANCH   5  16
TORSDOF 4
ENDMDL
MODEL 5
REMARK VINA RESULT: -5.638035924      1.451      1.495
REMARK  4 active torsions:
REMARK  status: ('A' for Active; 'I' for Inactive)
REMARK    1  A    between atoms: N1_1  and  C1_4 
REMARK    2  A    between atoms: N3_7  and  O1_8 
REMARK    3  A    between atoms: C2_10  and  C3_11 
REMARK    4  A    between atoms: N5_15  and  N6_16 
ROOT
HETATM    1  C1  UNL     1      23.640  18.334  46.631  1.00  0.00     0.713 A 
HETATM    2  N2  UNL     1      24.455  17.636  47.448  1.00  0.00    -0.104 N 
ATOM      3  H2  UNL     1      24.092  17.323  48.349  1.00  0.00     0.208 HD
HETATM    4  N3  UNL     1      25.706  17.340  47.132  1.00  0.00    -0.142 N 
HETATM    5  C2  UNL     1      26.232  17.736  45.949  1.00  0.00     0.164 A 
HETATM    6  C4  UNL     1      25.407  18.448  45.109  1.00  0.00     0.173 A 
HETATM    7  N5  UNL     1      24.141  18.737  45.449  1.00  0.00    -0.101 N 
ENDROOT
BRANCH   1   8
HETATM    8  N1  UNL     1      22.453  18.571  47.020  1.00  0.00    -0.232 N 
ATOM      9  H12 UNL     1      22.076  19.507  47.171  1.00  0.00     0.174 HD
ATOM     10  H11 UNL     1      21.834  17.780  47.195  1.00  0.00     0.174 HD
ENDBRANCH   1   8
BRANCH   7  11
HETATM   11  N6  UNL     1      23.334  19.461  44.573  1.00  0.00    -0.325 N 
ATOM     12  H62 UNL     1      22.490  19.035  44.189  1.00  0.00     0.178 HD
ATOM     13  H61 UNL     1      23.595  20.415  44.321  1.00  0.00     0.178 HD
ENDBRANCH   7  11
BRANCH   4  14
HETATM   14  O1  UNL     1      26.530  16.618  47.995  1.00  0.00    -0.267 OA
ATOM     15  H1  UNL     1      27.387  16.308  47.726  1.00  0.00     0.247 HD
ENDBRANCH   4  14
BRANCH   5  16
HETATM   16  C3  UNL     1      27.598  17.432  45.564  1.00  0.00     0.287 C 
HETATM   17  N4  UNL     1      28.018  16.081  45.614  1.00  0.00    -0.056 NA
HETATM   18  O2  UNL     1      28.333  18.385  45.209  1.00  0.00    -0.269 OA
ENDBRANCH   5  16
TORSDOF 4
ENDMDL
