MODEL 1
REMARK VINA RESULT: -4.967872090      0.000      0.000
REMARK  3 active torsions:
REMARK  status: ('A' for Active; 'I' for Inactive)
REMARK    1  A    between atoms: C1_2  and  C2_4 
REMARK       I    between atoms: C2_4  and  N2_6 
REMARK    2  A    between atoms: N2_6  and  N3_8 
REMARK    3  A    between atoms: N3_8  and  C3_10 
ROOT
HETATM    1  C2  UNL     1      28.283  16.990  45.914  1.00  0.00     0.325 C 
HETATM    2  O2  UNL     1      27.785  15.877  45.634  1.00  0.00    -0.261 OA
HETATM    3  N2  UNL     1      28.574  17.938  44.900  1.00  0.00    -0.260 N 
ATOM      4  H2  UNL     1      28.981  18.840  45.149  1.00  0.00     0.190 HD
ENDROOT
BRANCH   3   5
HETATM    5  N3  UNL     1      28.306  17.639  43.553  1.00  0.00    -0.276 N 
ATOM      6  H3  UNL     1      28.007  16.698  43.298  1.00  0.00     0.189 HD
BRANCH   5   7
HETATM    7  C3  UNL     1      28.443  18.620  42.546  1.00  0.00     0.199 C 
HETATM    8  N4  UNL     1      28.999  18.254  41.285  1.00  0.00    -0.068 NA
HETATM    9  S1  UNL     1      27.959  20.144  42.871  1.00  0.00    -0.043 SA
ENDBRANCH   5   7
ENDBRANCH   3   5
BRANCH   1  10
HETATM   10  C1  UNL     1      28.565  17.315  47.287  1.00  0.00     0.324 C 
HETATM   11  N1  UNL     1      29.621  16.672  47.981  1.00  0.00    -0.053 NA
HETATM   12  O1  UNL     1      27.876  18.172  47.880  1.00  0.00    -0.266 OA
ENDBRANCH   1  10
TORSDOF 3
ENDMDL
MODEL 2
REMARK VINA RESULT: -4.942442168      1.045      1.045
REMARK  3 active torsions:
REMARK  status: ('A' for Active; 'I' for Inactive)
REMARK    1  A    between atoms: C1_2  and  C2_4 
REMARK       I    between atoms: C2_4  and  N2_6 
REMARK    2  A    between atoms: N2_6  and  N3_8 
REMARK    3  A    between atoms: N3_8  and  C3_10 
ROOT
HETATM    1  C2  UNL     1      28.192  16.914  45.827  1.00  0.00     0.325 C 
HETATM    2  O2  UNL     1      27.694  15.799  45.560  1.00  0.00    -0.261 OA
HETATM    3  N2  UNL     1      28.498  17.845  44.801  1.00  0.00    -0.260 N 
ATOM      4  H2  UNL     1      28.905  18.749  45.040  1.00  0.00     0.190 HD
ENDROOT
BRANCH   3   5
HETATM    5  N3  UNL     1      28.243  17.525  43.456  1.00  0.00    -0.276 N 
ATOM      6  H3  UNL     1      27.953  16.578  43.213  1.00  0.00     0.189 HD
BRANCH   5   7
HETATM    7  C3  UNL     1      28.381  18.492  42.437  1.00  0.00     0.199 C 
HETATM    8  N4  UNL     1      28.812  18.085  41.140  1.00  0.00    -0.068 NA
HETATM    9  S1  UNL     1      28.040  20.049  42.789  1.00  0.00    -0.043 SA
ENDBRANCH   5   7
ENDBRANCH   3   5
BRANCH   1  10
HETATM   10  C1  UNL     1      28.462  17.260  47.198  1.00  0.00     0.324 C 
HETATM   11  N1  UNL     1      27.763  18.321  47.828  1.00  0.00    -0.053 NA
HETATM   12  O1  UNL     1      29.321  16.624  47.845  1.00  0.00    -0.266 OA
ENDBRANCH   1  10
TORSDOF 3
ENDMDL
MODEL 3
REMARK VINA RESULT: -4.889652898      3.706      4.781
REMARK  3 active torsions:
REMARK  status: ('A' for Active; 'I' for Inactive)
REMARK    1  A    between atoms: C1_2  and  C2_4 
REMARK       I    between atoms: C2_4  and  N2_6 
REMARK    2  A    between atoms: N2_6  and  N3_8 
REMARK    3  A    between atoms: N3_8  and  C3_10 
ROOT
HETATM    1  C2  UNL     1      27.216  17.423  47.520  1.00  0.00     0.325 C 
HETATM    2  O2  UNL     1      26.354  16.564  47.803  1.00  0.00    -0.261 OA
HETATM    3  N2  UNL     1      27.100  18.760  47.983  1.00  0.00    -0.260 N 
ATOM      4  H2  UNL     1      27.814  19.445  47.739  1.00  0.00     0.190 HD
ENDROOT
BRANCH   3   5
HETATM    5  N3  UNL     1      26.003  19.141  48.775  1.00  0.00    -0.276 N 
ATOM      6  H3  UNL     1      25.968  18.855  49.753  1.00  0.00     0.189 HD
BRANCH   5   7
HETATM    7  C3  UNL     1      24.950  19.914  48.239  1.00  0.00     0.199 C 
HETATM    8  N4  UNL     1      24.936  21.324  48.457  1.00  0.00    -0.068 NA
HETATM    9  S1  UNL     1      23.782  19.157  47.387  1.00  0.00    -0.043 SA
ENDBRANCH   5   7
ENDBRANCH   3   5
BRANCH   1  10
HETATM   10  C1  UNL     1      28.346  17.053  46.709  1.00  0.00     0.324 C 
HETATM   11  N1  UNL     1      29.503  16.483  47.297  1.00  0.00    -0.053 NA
HETATM   12  O1  UNL     1      28.314  17.234  45.473  1.00  0.00    -0.266 OA
ENDBRANCH   1  10
TORSDOF 3
ENDMDL
MODEL 4
REMARK VINA RESULT: -4.862799275      3.611      4.747
REMARK  3 active torsions:
REMARK  status: ('A' for Active; 'I' for Inactive)
REMARK    1  A    between atoms: C1_2  and  C2_4 
REMARK       I    between atoms: C2_4  and  N2_6 
REMARK    2  A    between atoms: N2_6  and  N3_8 
REMARK    3  A    between atoms: N3_8  and  C3_10 
ROOT
HETATM    1  C2  UNL     1      26.152  19.073  48.343  1.00  0.00     0.325 C 
HETATM    2  O2  UNL     1      26.252  18.203  49.235  1.00  0.00    -0.261 OA
HETATM    3  N2  UNL     1      27.240  19.368  47.481  1.00  0.00    -0.260 N 
ATOM      4  H2  UNL     1      27.139  20.082  46.760  1.00  0.00     0.190 HD
ENDROOT
BRANCH   3   5
HETATM    5  N3  UNL     1      28.459  18.680  47.619  1.00  0.00    -0.276 N 
ATOM      6  H3  UNL     1      29.205  19.090  48.180  1.00  0.00     0.189 HD
BRANCH   5   7
HETATM    7  C3  UNL     1      28.666  17.431  46.993  1.00  0.00     0.199 C 
HETATM    8  N4  UNL     1      29.456  16.442  47.651  1.00  0.00    -0.068 NA
HETATM    9  S1  UNL     1      27.990  17.170  45.532  1.00  0.00    -0.043 SA
ENDBRANCH   5   7
ENDBRANCH   3   5
BRANCH   1  10
HETATM   10  C1  UNL     1      24.914  19.789  48.186  1.00  0.00     0.324 C 
HETATM   11  N1  UNL     1      24.887  21.206  48.220  1.00  0.00    -0.053 NA
HETATM   12  O1  UNL     1      23.847  19.161  48.019  1.00  0.00    -0.266 OA
ENDBRANCH   1  10
TORSDOF 3
ENDMDL
MODEL 5
REMARK VINA RESULT: -4.852830496      1.561      1.561
REMARK  3 active torsions:
REMARK  status: ('A' for Active; 'I' for Inactive)
REMARK    1  A    between atoms: C1_2  and  C2_4 
REMARK       I    between atoms: C2_4  and  N2_6 
REMARK    2  A    between atoms: N2_6  and  N3_8 
REMARK    3  A    between atoms: N3_8  and  C3_10 
ROOT
HETATM    1  C2  UNL     1      28.180  16.802  45.863  1.00  0.00     0.325 C 
HETATM    2  O2  UNL     1      27.586  15.717  45.680  1.00  0.00    -0.261 OA
HETATM    3  N2  UNL     1      28.511  17.649  44.774  1.00  0.00    -0.260 N 
ATOM      4  H2  UNL     1      28.996  18.529  44.945  1.00  0.00     0.190 HD
ENDROOT
BRANCH   3   5
HETATM    5  N3  UNL     1      28.173  17.279  43.461  1.00  0.00    -0.276 N 
ATOM      6  H3  UNL     1      27.817  16.341  43.281  1.00  0.00     0.189 HD
BRANCH   5   7
HETATM    7  C3  UNL     1      28.317  18.185  42.388  1.00  0.00     0.199 C 
HETATM    8  N4  UNL     1      28.862  19.480  42.635  1.00  0.00    -0.068 NA
HETATM    9  S1  UNL     1      27.850  17.711  40.898  1.00  0.00    -0.043 SA
ENDBRANCH   5   7
ENDBRANCH   3   5
BRANCH   1  10
HETATM   10  C1  UNL     1      28.536  17.198  47.200  1.00  0.00     0.324 C 
HETATM   11  N1  UNL     1      27.911  18.312  47.815  1.00  0.00    -0.053 NA
HETATM   12  O1  UNL     1      29.404  16.558  47.830  1.00  0.00    -0.266 OA
ENDBRANCH   1  10
TORSDOF 3
ENDMDL
