MODEL 1
REMARK VINA RESULT: -7.101520619      0.000      0.000
REMARK  9 active torsions:
REMARK  status: ('A' for Active; 'I' for Inactive)
REMARK    1  A    between atoms: S1_3  and  C2_4 
REMARK    2  A    between atoms: C3_5  and  C4_6 
REMARK    3  A    between atoms: C4_6  and  O1_7 
REMARK    4  A    between atoms: O1_7  and  N2_8 
REMARK       I    between atoms: N2_8  and  C5_10 
REMARK       I    between atoms: C5_10  and  N3_11 
REMARK    5  A    between atoms: N5_16  and  N6_18 
REMARK    6  A    between atoms: C6_21  and  N7_22 
REMARK    7  A    between atoms: C7_25  and  N8_26 
REMARK    8  A    between atoms: N15_38  and  N16_39 
REMARK    9  A    between atoms: C11_42  and  N17_43 
ROOT
HETATM    1  N1  UNL     1      29.594  31.020  26.833  1.00  0.00    -0.184 NA
HETATM    2  C1  UNL     1      30.657  31.463  26.944  1.00  0.00     0.140 C 
HETATM    3  S1  UNL     1      32.297  32.163  27.107  1.00  0.00     0.009 SA
ENDROOT
BRANCH   3   4
HETATM    4  C2  UNL     1      33.189  32.057  25.549  1.00  0.00     0.119 A 
HETATM    5  C3  UNL     1      33.223  33.192  24.710  1.00  0.00     0.032 A 
HETATM    6  C6  UNL     1      33.910  33.068  23.551  1.00  0.00     0.070 A 
HETATM    7  C7  UNL     1      34.576  31.849  23.181  1.00  0.00     0.133 A 
HETATM    8  C8  UNL     1      34.486  30.802  24.059  1.00  0.00     0.118 A 
HETATM    9  C9  UNL     1      35.082  29.617  23.769  1.00  0.00     0.120 A 
HETATM   10  N18 UNL     1      33.795  30.911  25.234  1.00  0.00    -0.134 N 
HETATM   11  N13 UNL     1      35.840  29.333  22.593  1.00  0.00    -0.096 NA
HETATM   12  C10 UNL     1      34.975  28.545  24.673  1.00  0.00     0.182 A 
HETATM   13  N14 UNL     1      35.621  27.303  24.330  1.00  0.00    -0.078 NA
HETATM   14  N15 UNL     1      34.294  28.698  25.795  1.00  0.00    -0.077 N 
HETATM   15  C11 UNL     1      33.704  29.862  26.088  1.00  0.00     0.706 A 
BRANCH   5  16
HETATM   16  C4  UNL     1      32.510  34.388  25.190  1.00  0.00     0.246 C 
BRANCH  16  17
HETATM   17  O1  UNL     1      33.290  35.431  25.542  1.00  0.00    -0.262 OA
BRANCH  17  18
HETATM   18  N2  UNL     1      32.756  36.295  26.399  1.00  0.00    -0.093 N 
HETATM   19  C5  UNL     1      33.582  37.027  27.272  1.00  0.00     0.730 C 
HETATM   20  N3  UNL     1      33.914  36.445  28.547  1.00  0.00    -0.136 N 
HETATM   21  N5  UNL     1      34.015  38.176  26.920  1.00  0.00    -0.136 N 
HETATM   22  N4  UNL     1      34.182  37.174  29.539  1.00  0.00    -0.331 N 
ATOM     23  H3  UNL     1      33.932  35.429  28.649  1.00  0.00     0.205 HD
ATOM     24  H42 UNL     1      34.160  38.187  29.421  1.00  0.00     0.177 HD
ATOM     25  H41 UNL     1      34.417  36.762  30.442  1.00  0.00     0.177 HD
ATOM     26  H5  UNL     1      34.613  38.709  27.552  1.00  0.00     0.205 HD
ATOM     27  H2  UNL     1      31.745  36.428  26.423  1.00  0.00     0.213 HD
BRANCH  21  28
HETATM   28  N6  UNL     1      33.673  38.707  25.679  1.00  0.00    -0.331 N 
ATOM     29  H62 UNL     1      33.583  38.076  24.882  1.00  0.00     0.177 HD
ATOM     30  H61 UNL     1      33.517  39.709  25.572  1.00  0.00     0.177 HD
ENDBRANCH  21  28
ENDBRANCH  17  18
ENDBRANCH  16  17
ENDBRANCH   5  16
BRANCH   6  31
HETATM   31  N7  UNL     1      34.056  33.972  22.671  1.00  0.00    -0.397 N 
ATOM     32  H72 UNL     1      35.041  34.143  22.463  1.00  0.00     0.156 HD
ATOM     33  H71 UNL     1      33.304  34.485  22.210  1.00  0.00     0.156 HD
ENDBRANCH   6  31
BRANCH   7  34
HETATM   34  N8  UNL     1      35.260  31.856  21.950  1.00  0.00    -0.167 N 
HETATM   35  N9  UNL     1      34.805  31.425  20.799  1.00  0.00    -0.205 N 
HETATM   36  N10 UNL     1      35.707  31.669  19.837  1.00  0.00     0.010 NA
ATOM     37  H9  UNL     1      33.902  30.972  20.657  1.00  0.00     0.207 HD
HETATM   38  N11 UNL     1      36.727  32.262  20.430  1.00  0.00     0.010 NA
HETATM   39  N12 UNL     1      36.446  32.374  21.731  1.00  0.00    -0.205 N 
ATOM     40  H12 UNL     1      37.051  32.792  22.436  1.00  0.00     0.207 HD
ENDBRANCH   7  34
BRANCH  14  41
HETATM   41  N16 UNL     1      34.181  27.639  26.698  1.00  0.00    -0.323 N 
ATOM     42 2H16 UNL     1      35.032  27.199  27.050  1.00  0.00     0.178 HD
ATOM     43 1H16 UNL     1      33.261  27.315  26.997  1.00  0.00     0.178 HD
ENDBRANCH  14  41
BRANCH  15  44
HETATM   44  N17 UNL     1      33.015  29.980  27.203  1.00  0.00    -0.232 N 
ATOM     45 2H17 UNL     1      32.461  29.195  27.544  1.00  0.00     0.174 HD
ATOM     46 1H17 UNL     1      33.052  30.853  27.728  1.00  0.00     0.174 HD
ENDBRANCH  15  44
ENDBRANCH   3   4
TORSDOF 9
ENDMDL
MODEL 2
REMARK VINA RESULT: -6.805949975      0.867      1.244
REMARK  9 active torsions:
REMARK  status: ('A' for Active; 'I' for Inactive)
REMARK    1  A    between atoms: S1_3  and  C2_4 
REMARK    2  A    between atoms: C3_5  and  C4_6 
REMARK    3  A    between atoms: C4_6  and  O1_7 
REMARK    4  A    between atoms: O1_7  and  N2_8 
REMARK       I    between atoms: N2_8  and  C5_10 
REMARK       I    between atoms: C5_10  and  N3_11 
REMARK    5  A    between atoms: N5_16  and  N6_18 
REMARK    6  A    between atoms: C6_21  and  N7_22 
REMARK    7  A    between atoms: C7_25  and  N8_26 
REMARK    8  A    between atoms: N15_38  and  N16_39 
REMARK    9  A    between atoms: C11_42  and  N17_43 
ROOT
HETATM    1  N1  UNL     1      33.497  34.221  29.155  1.00  0.00    -0.184 NA
HETATM    2  C1  UNL     1      32.919  33.563  28.401  1.00  0.00     0.140 C 
HETATM    3  S1  UNL     1      32.035  32.528  27.236  1.00  0.00     0.009 SA
ENDROOT
BRANCH   3   4
HETATM    4  C2  UNL     1      33.007  32.282  25.744  1.00  0.00     0.119 A 
HETATM    5  C3  UNL     1      33.148  33.359  24.841  1.00  0.00     0.032 A 
HETATM    6  C6  UNL     1      33.892  33.129  23.736  1.00  0.00     0.070 A 
HETATM    7  C7  UNL     1      34.514  31.860  23.480  1.00  0.00     0.133 A 
HETATM    8  C8  UNL     1      34.320  30.875  24.411  1.00  0.00     0.118 A 
HETATM    9  C9  UNL     1      34.870  29.646  24.229  1.00  0.00     0.120 A 
HETATM   10  N18 UNL     1      33.570  31.090  25.534  1.00  0.00    -0.134 N 
HETATM   11  N13 UNL     1      35.678  29.254  23.119  1.00  0.00    -0.096 NA
HETATM   12  C10 UNL     1      34.656  28.639  25.186  1.00  0.00     0.182 A 
HETATM   13  N14 UNL     1      35.256  27.349  24.958  1.00  0.00    -0.078 NA
HETATM   14  N15 UNL     1      33.922  28.895  26.255  1.00  0.00    -0.077 N 
HETATM   15  C11 UNL     1      33.377  30.102  26.442  1.00  0.00     0.706 A 
BRANCH   5  16
HETATM   16  C4  UNL     1      32.472  34.616  25.206  1.00  0.00     0.246 C 
BRANCH  16  17
HETATM   17  O1  UNL     1      33.282  35.627  25.578  1.00  0.00    -0.262 OA
BRANCH  17  18
HETATM   18  N2  UNL     1      32.759  36.511  26.423  1.00  0.00    -0.093 N 
HETATM   19  C5  UNL     1      33.599  37.282  27.249  1.00  0.00     0.730 C 
HETATM   20  N3  UNL     1      33.977  36.745  28.531  1.00  0.00    -0.136 N 
HETATM   21  N5  UNL     1      34.004  38.426  26.848  1.00  0.00    -0.136 N 
HETATM   22  N4  UNL     1      34.263  37.510  29.491  1.00  0.00    -0.331 N 
ATOM     23  H3  UNL     1      34.013  35.734  28.664  1.00  0.00     0.205 HD
ATOM     24  H42 UNL     1      34.221  38.518  29.342  1.00  0.00     0.177 HD
ATOM     25  H41 UNL     1      34.530  37.130  30.399  1.00  0.00     0.177 HD
ATOM     26  H5  UNL     1      34.612  38.987  27.445  1.00  0.00     0.205 HD
ATOM     27  H2  UNL     1      31.748  36.630  26.473  1.00  0.00     0.213 HD
BRANCH  21  28
HETATM   28  N6  UNL     1      33.618  38.911  25.601  1.00  0.00    -0.331 N 
ATOM     29  H62 UNL     1      33.456  39.912  25.492  1.00  0.00     0.177 HD
ATOM     30  H61 UNL     1      33.499  38.274  24.814  1.00  0.00     0.177 HD
ENDBRANCH  21  28
ENDBRANCH  17  18
ENDBRANCH  16  17
ENDBRANCH   5  16
BRANCH   6  31
HETATM   31  N7  UNL     1      34.135  33.969  22.814  1.00  0.00    -0.397 N 
ATOM     32  H72 UNL     1      33.595  33.772  21.970  1.00  0.00     0.156 HD
ATOM     33  H71 UNL     1      34.784  34.754  22.875  1.00  0.00     0.156 HD
ENDBRANCH   6  31
BRANCH   7  34
HETATM   34  N8  UNL     1      35.266  31.757  22.293  1.00  0.00    -0.167 N 
HETATM   35  N9  UNL     1      34.824  31.394  21.114  1.00  0.00    -0.205 N 
HETATM   36  N10 UNL     1      35.810  31.494  20.211  1.00  0.00     0.010 NA
ATOM     37  H9  UNL     1      33.873  31.083  20.914  1.00  0.00     0.207 HD
HETATM   38  N11 UNL     1      36.870  31.928  20.869  1.00  0.00     0.010 NA
HETATM   39  N12 UNL     1      36.528  32.087  22.150  1.00  0.00    -0.205 N 
ATOM     40  H12 UNL     1      37.145  32.412  22.894  1.00  0.00     0.207 HD
ENDBRANCH   7  34
BRANCH  14  41
HETATM   41  N16 UNL     1      33.703  27.901  27.211  1.00  0.00    -0.323 N 
ATOM     42 2H16 UNL     1      34.508  27.474  27.670  1.00  0.00     0.178 HD
ATOM     43 1H16 UNL     1      32.753  27.611  27.443  1.00  0.00     0.178 HD
ENDBRANCH  14  41
BRANCH  15  44
HETATM   44  N17 UNL     1      32.633  30.322  27.505  1.00  0.00    -0.232 N 
ATOM     45 2H17 UNL     1      32.793  29.789  28.358  1.00  0.00     0.174 HD
ATOM     46 1H17 UNL     1      31.908  31.039  27.473  1.00  0.00     0.174 HD
ENDBRANCH  15  44
ENDBRANCH   3   4
TORSDOF 9
ENDMDL
MODEL 3
REMARK VINA RESULT: -6.671404532      0.585      1.434
REMARK  9 active torsions:
REMARK  status: ('A' for Active; 'I' for Inactive)
REMARK    1  A    between atoms: S1_3  and  C2_4 
REMARK    2  A    between atoms: C3_5  and  C4_6 
REMARK    3  A    between atoms: C4_6  and  O1_7 
REMARK    4  A    between atoms: O1_7  and  N2_8 
REMARK       I    between atoms: N2_8  and  C5_10 
REMARK       I    between atoms: C5_10  and  N3_11 
REMARK    5  A    between atoms: N5_16  and  N6_18 
REMARK    6  A    between atoms: C6_21  and  N7_22 
REMARK    7  A    between atoms: C7_25  and  N8_26 
REMARK    8  A    between atoms: N15_38  and  N16_39 
REMARK    9  A    between atoms: C11_42  and  N17_43 
ROOT
HETATM    1  N1  UNL     1      29.342  30.615  26.781  1.00  0.00    -0.184 NA
HETATM    2  C1  UNL     1      30.345  31.168  26.938  1.00  0.00     0.140 C 
HETATM    3  S1  UNL     1      31.893  32.039  27.170  1.00  0.00     0.009 SA
ENDROOT
BRANCH   3   4
HETATM    4  C2  UNL     1      32.884  31.980  25.671  1.00  0.00     0.119 A 
HETATM    5  C3  UNL     1      32.895  33.107  24.822  1.00  0.00     0.032 A 
HETATM    6  C6  UNL     1      33.660  33.019  23.709  1.00  0.00     0.070 A 
HETATM    7  C7  UNL     1      34.426  31.844  23.396  1.00  0.00     0.133 A 
HETATM    8  C8  UNL     1      34.351  30.801  24.279  1.00  0.00     0.118 A 
HETATM    9  C9  UNL     1      35.041  29.656  24.041  1.00  0.00     0.120 A 
HETATM   10  N18 UNL     1      33.583  30.874  25.408  1.00  0.00    -0.134 N 
HETATM   11  N13 UNL     1      35.888  29.413  22.918  1.00  0.00    -0.096 NA
HETATM   12  C10 UNL     1      34.949  28.587  24.950  1.00  0.00     0.182 A 
HETATM   13  N14 UNL     1      35.696  27.388  24.663  1.00  0.00    -0.078 NA
HETATM   14  N15 UNL     1      34.192  28.703  26.026  1.00  0.00    -0.077 N 
HETATM   15  C11 UNL     1      33.509  29.828  26.268  1.00  0.00     0.706 A 
BRANCH   5  16
HETATM   16  C4  UNL     1      32.077  34.257  25.242  1.00  0.00     0.246 C 
BRANCH  16  17
HETATM   17  O1  UNL     1      32.473  34.872  26.375  1.00  0.00    -0.262 OA
BRANCH  17  18
HETATM   18  N2  UNL     1      33.642  35.503  26.316  1.00  0.00    -0.093 N 
HETATM   19  C5  UNL     1      33.774  36.799  26.848  1.00  0.00     0.730 C 
HETATM   20  N3  UNL     1      33.480  37.921  25.993  1.00  0.00    -0.136 N 
HETATM   21  N5  UNL     1      34.147  36.952  28.060  1.00  0.00    -0.136 N 
HETATM   22  N4  UNL     1      34.031  39.038  26.183  1.00  0.00    -0.331 N 
ATOM     23  H3  UNL     1      32.817  37.810  25.226  1.00  0.00     0.205 HD
ATOM     24  H42 UNL     1      34.691  39.133  26.955  1.00  0.00     0.177 HD
ATOM     25  H41 UNL     1      33.822  39.833  25.578  1.00  0.00     0.177 HD
ATOM     26  H5  UNL     1      34.244  37.891  28.447  1.00  0.00     0.205 HD
ATOM     27  H2  UNL     1      34.445  35.045  25.885  1.00  0.00     0.213 HD
BRANCH  21  28
HETATM   28  N6  UNL     1      34.423  35.843  28.856  1.00  0.00    -0.331 N 
ATOM     29  H62 UNL     1      33.650  35.367  29.322  1.00  0.00     0.177 HD
ATOM     30  H61 UNL     1      35.382  35.515  28.969  1.00  0.00     0.177 HD
ENDBRANCH  21  28
ENDBRANCH  17  18
ENDBRANCH  16  17
ENDBRANCH   5  16
BRANCH   6  31
HETATM   31  N7  UNL     1      33.800  33.924  22.828  1.00  0.00    -0.397 N 
ATOM     32  H72 UNL     1      34.591  34.534  23.035  1.00  0.00     0.156 HD
ATOM     33  H71 UNL     1      33.211  34.053  22.005  1.00  0.00     0.156 HD
ENDBRANCH   6  31
BRANCH   7  34
HETATM   34  N8  UNL     1      35.183  31.887  22.209  1.00  0.00    -0.167 N 
HETATM   35  N9  UNL     1      36.448  32.214  22.098  1.00  0.00    -0.205 N 
HETATM   36  N10 UNL     1      36.844  32.060  20.826  1.00  0.00     0.010 NA
ATOM     37  H9  UNL     1      37.040  32.536  22.864  1.00  0.00     0.207 HD
HETATM   38  N11 UNL     1      35.788  31.631  20.160  1.00  0.00     0.010 NA
HETATM   39  N12 UNL     1      34.769  31.526  21.017  1.00  0.00    -0.205 N 
ATOM     40  H12 UNL     1      33.826  31.218  20.784  1.00  0.00     0.207 HD
ENDBRANCH   7  34
BRANCH  14  41
HETATM   41  N16 UNL     1      34.093  27.647  26.934  1.00  0.00    -0.323 N 
ATOM     42 2H16 UNL     1      34.744  27.610  27.719  1.00  0.00     0.178 HD
ATOM     43 1H16 UNL     1      33.381  26.927  26.810  1.00  0.00     0.178 HD
ENDBRANCH  14  41
BRANCH  15  44
HETATM   44  N17 UNL     1      32.746  29.909  27.337  1.00  0.00    -0.232 N 
ATOM     45 2H17 UNL     1      31.742  30.052  27.236  1.00  0.00     0.174 HD
ATOM     46 1H17 UNL     1      33.163  29.812  28.263  1.00  0.00     0.174 HD
ENDBRANCH  15  44
ENDBRANCH   3   4
TORSDOF 9
ENDMDL
MODEL 4
REMARK VINA RESULT: -6.401323179      2.240      6.024
REMARK  9 active torsions:
REMARK  status: ('A' for Active; 'I' for Inactive)
REMARK    1  A    between atoms: S1_3  and  C2_4 
REMARK    2  A    between atoms: C3_5  and  C4_6 
REMARK    3  A    between atoms: C4_6  and  O1_7 
REMARK    4  A    between atoms: O1_7  and  N2_8 
REMARK       I    between atoms: N2_8  and  C5_10 
REMARK       I    between atoms: C5_10  and  N3_11 
REMARK    5  A    between atoms: N5_16  and  N6_18 
REMARK    6  A    between atoms: C6_21  and  N7_22 
REMARK    7  A    between atoms: C7_25  and  N8_26 
REMARK    8  A    between atoms: N15_38  and  N16_39 
REMARK    9  A    between atoms: C11_42  and  N17_43 
ROOT
HETATM    1  N1  UNL     1      33.194  34.426  28.548  1.00  0.00    -0.184 NA
HETATM    2  C1  UNL     1      32.713  33.874  27.653  1.00  0.00     0.140 C 
HETATM    3  S1  UNL     1      31.964  33.004  26.278  1.00  0.00     0.009 SA
ENDROOT
BRANCH   3   4
HETATM    4  C2  UNL     1      33.013  31.646  25.740  1.00  0.00     0.119 A 
HETATM    5  C3  UNL     1      33.038  30.463  26.510  1.00  0.00     0.032 A 
HETATM    6  C6  UNL     1      33.837  29.467  26.063  1.00  0.00     0.070 A 
HETATM    7  C7  UNL     1      34.626  29.593  24.869  1.00  0.00     0.133 A 
HETATM    8  C8  UNL     1      34.537  30.779  24.189  1.00  0.00     0.118 A 
HETATM    9  C9  UNL     1      35.263  30.972  23.058  1.00  0.00     0.120 A 
HETATM   10  N18 UNL     1      33.735  31.796  24.628  1.00  0.00    -0.134 N 
HETATM   11  N13 UNL     1      36.145  30.020  22.464  1.00  0.00    -0.096 NA
HETATM   12  C10 UNL     1      35.172  32.197  22.374  1.00  0.00     0.182 A 
HETATM   13  N14 UNL     1      35.958  32.364  21.177  1.00  0.00    -0.078 NA
HETATM   14  N15 UNL     1      34.385  33.151  22.837  1.00  0.00    -0.077 N 
HETATM   15  C11 UNL     1      33.666  32.969  23.951  1.00  0.00     0.706 A 
BRANCH   5  16
HETATM   16  C4  UNL     1      32.187  30.441  27.712  1.00  0.00     0.246 C 
BRANCH  16  17
HETATM   17  O1  UNL     1      31.920  29.220  28.216  1.00  0.00    -0.262 OA
BRANCH  17  18
HETATM   18  N2  UNL     1      30.948  28.541  27.615  1.00  0.00    -0.093 N 
HETATM   19  C5  UNL     1      29.618  28.664  28.062  1.00  0.00     0.730 C 
HETATM   20  N3  UNL     1      29.164  27.782  29.105  1.00  0.00    -0.136 N 
HETATM   21  N5  UNL     1      28.854  29.544  27.539  1.00  0.00    -0.136 N 
HETATM   22  N4  UNL     1      27.947  27.470  29.201  1.00  0.00    -0.331 N 
ATOM     23  H3  UNL     1      29.836  27.405  29.775  1.00  0.00     0.205 HD
ATOM     24  H42 UNL     1      27.289  27.854  28.524  1.00  0.00     0.177 HD
ATOM     25  H41 UNL     1      27.626  26.845  29.941  1.00  0.00     0.177 HD
ATOM     26  H5  UNL     1      27.890  29.635  27.861  1.00  0.00     0.205 HD
ATOM     27  H2  UNL     1      31.166  27.930  26.828  1.00  0.00     0.213 HD
BRANCH  21  28
HETATM   28  N6  UNL     1      29.329  30.380  26.531  1.00  0.00    -0.331 N 
ATOM     29  H62 UNL     1      30.336  30.473  26.404  1.00  0.00     0.177 HD
ATOM     30  H61 UNL     1      28.677  30.889  25.934  1.00  0.00     0.177 HD
ENDBRANCH  21  28
ENDBRANCH  17  18
ENDBRANCH  16  17
ENDBRANCH   5  16
BRANCH   6  31
HETATM   31  N7  UNL     1      33.991  28.332  26.614  1.00  0.00    -0.397 N 
ATOM     32  H72 UNL     1      34.680  27.763  26.122  1.00  0.00     0.156 HD
ATOM     33  H71 UNL     1      33.501  28.000  27.445  1.00  0.00     0.156 HD
ENDBRANCH   6  31
BRANCH   7  34
HETATM   34  N8  UNL     1      35.410  28.479  24.514  1.00  0.00    -0.167 N 
HETATM   35  N9  UNL     1      36.540  28.109  25.064  1.00  0.00    -0.205 N 
HETATM   36  N10 UNL     1      36.954  26.955  24.518  1.00  0.00     0.010 NA
ATOM     37  H9  UNL     1      37.031  28.621  25.798  1.00  0.00     0.207 HD
HETATM   38  N11 UNL     1      36.045  26.629  23.617  1.00  0.00     0.010 NA
HETATM   39  N12 UNL     1      35.098  27.571  23.619  1.00  0.00    -0.205 N 
ATOM     40  H12 UNL     1      34.270  27.582  23.025  1.00  0.00     0.207 HD
ENDBRANCH   7  34
BRANCH  14  41
HETATM   41  N16 UNL     1      34.288  34.371  22.166  1.00  0.00    -0.323 N 
ATOM     42 2H16 UNL     1      33.598  34.470  21.421  1.00  0.00     0.178 HD
ATOM     43 1H16 UNL     1      34.900  35.147  22.419  1.00  0.00     0.178 HD
ENDBRANCH  14  41
BRANCH  15  44
HETATM   44  N17 UNL     1      32.906  33.944  24.402  1.00  0.00    -0.232 N 
ATOM     45 2H17 UNL     1      32.883  34.153  25.399  1.00  0.00     0.174 HD
ATOM     46 1H17 UNL     1      32.353  34.496  23.746  1.00  0.00     0.174 HD
ENDBRANCH  15  44
ENDBRANCH   3   4
TORSDOF 9
ENDMDL
MODEL 5
REMARK VINA RESULT: -6.282499765      0.933      1.343
REMARK  9 active torsions:
REMARK  status: ('A' for Active; 'I' for Inactive)
REMARK    1  A    between atoms: S1_3  and  C2_4 
REMARK    2  A    between atoms: C3_5  and  C4_6 
REMARK    3  A    between atoms: C4_6  and  O1_7 
REMARK    4  A    between atoms: O1_7  and  N2_8 
REMARK       I    between atoms: N2_8  and  C5_10 
REMARK       I    between atoms: C5_10  and  N3_11 
REMARK    5  A    between atoms: N5_16  and  N6_18 
REMARK    6  A    between atoms: C6_21  and  N7_22 
REMARK    7  A    between atoms: C7_25  and  N8_26 
REMARK    8  A    between atoms: N15_38  and  N16_39 
REMARK    9  A    between atoms: C11_42  and  N17_43 
ROOT
HETATM    1  N1  UNL     1      29.164  30.594  26.560  1.00  0.00    -0.184 NA
HETATM    2  C1  UNL     1      30.187  31.093  26.762  1.00  0.00     0.140 C 
HETATM    3  S1  UNL     1      31.766  31.883  27.066  1.00  0.00     0.009 SA
ENDROOT
BRANCH   3   4
HETATM    4  C2  UNL     1      32.781  31.860  25.583  1.00  0.00     0.119 A 
HETATM    5  C3  UNL     1      32.764  32.986  24.732  1.00  0.00     0.032 A 
HETATM    6  C6  UNL     1      33.548  32.926  23.631  1.00  0.00     0.070 A 
HETATM    7  C7  UNL     1      34.362  31.780  23.332  1.00  0.00     0.133 A 
HETATM    8  C8  UNL     1      34.313  30.736  24.215  1.00  0.00     0.118 A 
HETATM    9  C9  UNL     1      35.049  29.617  23.990  1.00  0.00     0.120 A 
HETATM   10  N18 UNL     1      33.525  30.781  25.332  1.00  0.00    -0.134 N 
HETATM   11  N13 UNL     1      35.921  29.405  22.880  1.00  0.00    -0.096 NA
HETATM   12  C10 UNL     1      34.983  28.546  24.898  1.00  0.00     0.182 A 
HETATM   13  N14 UNL     1      35.778  27.376  24.625  1.00  0.00    -0.078 NA
HETATM   14  N15 UNL     1      34.205  28.635  25.963  1.00  0.00    -0.077 N 
HETATM   15  C11 UNL     1      33.477  29.734  26.192  1.00  0.00     0.706 A 
BRANCH   5  16
HETATM   16  C4  UNL     1      31.896  34.105  25.138  1.00  0.00     0.246 C 
BRANCH  16  17
HETATM   17  O1  UNL     1      32.169  34.647  26.342  1.00  0.00    -0.262 OA
BRANCH  17  18
HETATM   18  N2  UNL     1      33.314  35.317  26.433  1.00  0.00    -0.093 N 
HETATM   19  C5  UNL     1      33.919  35.517  27.688  1.00  0.00     0.730 C 
HETATM   20  N3  UNL     1      33.540  36.677  28.452  1.00  0.00    -0.136 N 
HETATM   21  N5  UNL     1      34.780  34.676  28.116  1.00  0.00    -0.136 N 
HETATM   22  N4  UNL     1      34.340  37.195  29.277  1.00  0.00    -0.331 N 
ATOM     23  H3  UNL     1      32.613  37.084  28.325  1.00  0.00     0.205 HD
ATOM     24  H42 UNL     1      35.263  36.777  29.392  1.00  0.00     0.177 HD
ATOM     25  H41 UNL     1      34.071  38.017  29.819  1.00  0.00     0.177 HD
ATOM     26  H5  UNL     1      35.221  34.818  29.025  1.00  0.00     0.205 HD
ATOM     27  H2  UNL     1      33.754  35.687  25.591  1.00  0.00     0.213 HD
BRANCH  21  28
HETATM   28  N6  UNL     1      35.121  33.565  27.348  1.00  0.00    -0.331 N 
ATOM     29  H62 UNL     1      35.710  33.697  26.526  1.00  0.00     0.177 HD
ATOM     30  H61 UNL     1      34.786  32.637  27.606  1.00  0.00     0.177 HD
ENDBRANCH  21  28
ENDBRANCH  17  18
ENDBRANCH  16  17
ENDBRANCH   5  16
BRANCH   6  31
HETATM   31  N7  UNL     1      33.668  33.834  22.751  1.00  0.00    -0.397 N 
ATOM     32  H72 UNL     1      33.387  33.507  21.827  1.00  0.00     0.156 HD
ATOM     33  H71 UNL     1      34.002  34.785  22.915  1.00  0.00     0.156 HD
ENDBRANCH   6  31
BRANCH   7  34
HETATM   34  N8  UNL     1      35.135  31.850  22.156  1.00  0.00    -0.167 N 
HETATM   35  N9  UNL     1      34.791  31.422  20.966  1.00  0.00    -0.205 N 
HETATM   36  N10 UNL     1      35.749  31.734  20.080  1.00  0.00     0.010 NA
ATOM     37  H9  UNL     1      33.927  30.928  20.747  1.00  0.00     0.207 HD
HETATM   38  N11 UNL     1      36.690  32.364  20.760  1.00  0.00     0.010 NA
HETATM   39  N12 UNL     1      36.305  32.432  22.037  1.00  0.00    -0.205 N 
ATOM     40  H12 UNL     1      36.833  32.865  22.795  1.00  0.00     0.207 HD
ENDBRANCH   7  34
BRANCH  14  41
HETATM   41  N16 UNL     1      34.132  27.577  26.871  1.00  0.00    -0.323 N 
ATOM     42 2H16 UNL     1      33.790  27.760  27.814  1.00  0.00     0.178 HD
ATOM     43 1H16 UNL     1      34.419  26.639  26.591  1.00  0.00     0.178 HD
ENDBRANCH  14  41
BRANCH  15  44
HETATM   44  N17 UNL     1      32.695  29.787  27.249  1.00  0.00    -0.232 N 
ATOM     45 2H17 UNL     1      33.103  29.828  28.183  1.00  0.00     0.174 HD
ATOM     46 1H17 UNL     1      31.682  29.802  27.127  1.00  0.00     0.174 HD
ENDBRANCH  15  44
ENDBRANCH   3   4
TORSDOF 9
ENDMDL
