MODEL 1
REMARK VINA RESULT: -12.453633973      0.000      0.000
REMARK  8 active torsions:
REMARK  status: ('A' for Active; 'I' for Inactive)
REMARK    1  A    between atoms: C3_5  and  O2_6 
REMARK    2  A    between atoms: C4_8  and  C5_9 
REMARK    3  A    between atoms: C5_9  and  O3_10 
REMARK    4  A    between atoms: C5_9  and  C6_12 
REMARK       I    between atoms: C6_12  and  N2_14 
REMARK       I    between atoms: N2_14  and  C7_16 
REMARK       I    between atoms: C7_16  and  N3_18 
REMARK    5  A    between atoms: N3_18  and  C8_20 
REMARK    6  A    between atoms: C10_22  and  N4_23 
REMARK    7  A    between atoms: N4_23  and  C11_25 
REMARK    8  A    between atoms: C12_31  and  N7_32 
ROOT
HETATM    1  C6  UNL     1      32.257  30.568  25.680  1.00  0.00     0.259 C 
HETATM    2  O4  UNL     1      32.759  29.648  26.358  1.00  0.00    -0.270 OA
HETATM    3  N2  UNL     1      30.891  30.846  25.687  1.00  0.00    -0.277 N 
ATOM      4  H2  UNL     1      30.571  31.617  25.101  1.00  0.00     0.173 HD
HETATM    5  C7  UNL     1      29.927  30.162  26.424  1.00  0.00     0.324 C 
HETATM    6  O5  UNL     1      28.713  30.581  26.287  1.00  0.00    -0.247 OA
HETATM    7  N3  UNL     1      30.120  29.096  27.277  1.00  0.00    -0.320 N 
ATOM      8  H3  UNL     1      31.059  28.726  27.423  1.00  0.00     0.166 HD
ENDROOT
BRANCH   7   9
HETATM    9  C8  UNL     1      28.987  28.494  27.975  1.00  0.00     0.204 C 
HETATM   10  C9  UNL     1      28.675  27.137  27.383  1.00  0.00     0.096 C 
HETATM   11  C10 UNL     1      28.236  26.409  28.651  1.00  0.00     0.202 C 
HETATM   12  N8  UNL     1      28.886  27.121  29.678  1.00  0.00    -0.316 N 
HETATM   13  N9  UNL     1      29.277  28.207  29.325  1.00  0.00    -0.315 N 
ATOM     14  H8  UNL     1      29.013  26.756  30.623  1.00  0.00     0.182 HD
ATOM     15  H9  UNL     1      29.769  28.854  29.941  1.00  0.00     0.182 HD
BRANCH  11  16
HETATM   16  N4  UNL     1      28.702  25.059  28.640  1.00  0.00    -0.349 N 
ATOM     17  H4  UNL     1      28.930  24.621  27.747  1.00  0.00     0.163 HD
BRANCH  16  18
HETATM   18  C11 UNL     1      28.857  24.313  29.829  1.00  0.00     0.171 A 
HETATM   19  N5  UNL     1      29.996  23.883  30.421  1.00  0.00    -0.222 N 
HETATM   20  O6  UNL     1      29.705  23.229  31.502  1.00  0.00    -0.153 OA
ATOM     21  H5  UNL     1      30.939  24.050  30.071  1.00  0.00     0.198 HD
HETATM   22  N6  UNL     1      28.427  23.190  31.678  1.00  0.00    -0.222 N 
HETATM   23  C12 UNL     1      27.846  23.852  30.662  1.00  0.00     0.167 A 
ATOM     24  H6  UNL     1      27.943  22.736  32.452  1.00  0.00     0.198 HD
BRANCH  23  25
HETATM   25  N7  UNL     1      26.574  24.008  30.523  1.00  0.00    -0.381 N 
ATOM     26  H72 UNL     1      26.121  24.892  30.293  1.00  0.00     0.157 HD
ATOM     27  H71 UNL     1      25.844  23.301  30.617  1.00  0.00     0.157 HD
ENDBRANCH  23  25
ENDBRANCH  16  18
ENDBRANCH  11  16
ENDBRANCH   7   9
BRANCH   1  28
HETATM   28  C5  UNL     1      33.230  31.375  24.839  1.00  0.00     0.253 C 
BRANCH  28  29
HETATM   29  C4  UNL     1      33.386  32.681  25.518  1.00  0.00     0.101 A 
HETATM   30  C3  UNL     1      33.179  32.904  26.858  1.00  0.00     0.185 A 
HETATM   31  N1  UNL     1      33.341  34.132  27.430  1.00  0.00    -0.173 N 
HETATM   32  O1  UNL     1      33.312  34.905  28.473  1.00  0.00    -0.224 OA
HETATM   33  C14 UNL     1      33.717  35.188  26.693  1.00  0.00     0.174 A 
HETATM   34  C2  UNL     1      33.676  35.982  27.823  1.00  0.00     0.136 A 
HETATM   35  C1  UNL     1      33.912  37.259  28.066  1.00  0.00     0.057 C 
HETATM   36  N10 UNL     1      33.926  34.986  25.371  1.00  0.00    -0.305 N 
HETATM   37  C13 UNL     1      33.778  33.797  24.767  1.00  0.00     0.260 A 
ATOM     38  H10 UNL     1      34.212  35.783  24.802  1.00  0.00     0.171 HD
HETATM   39  O7  UNL     1      33.980  33.637  23.534  1.00  0.00    -0.267 OA
BRANCH  30  40
HETATM   40  O2  UNL     1      32.793  31.855  27.657  1.00  0.00    -0.344 OA
ATOM     41  H2  UNL     1      32.048  31.975  28.234  1.00  0.00     0.219 HD
ENDBRANCH  30  40
ENDBRANCH  28  29
BRANCH  28  42
HETATM   42  O3  UNL     1      32.705  31.533  23.575  1.00  0.00    -0.381 OA
ATOM     43  H3  UNL     1      32.589  30.693  23.147  1.00  0.00     0.211 HD
ENDBRANCH  28  42
ENDBRANCH   1  28
TORSDOF 8
ENDMDL
MODEL 2
REMARK VINA RESULT: -12.175991489      1.067      1.224
REMARK  8 active torsions:
REMARK  status: ('A' for Active; 'I' for Inactive)
REMARK    1  A    between atoms: C3_5  and  O2_6 
REMARK    2  A    between atoms: C4_8  and  C5_9 
REMARK    3  A    between atoms: C5_9  and  O3_10 
REMARK    4  A    between atoms: C5_9  and  C6_12 
REMARK       I    between atoms: C6_12  and  N2_14 
REMARK       I    between atoms: N2_14  and  C7_16 
REMARK       I    between atoms: C7_16  and  N3_18 
REMARK    5  A    between atoms: N3_18  and  C8_20 
REMARK    6  A    between atoms: C10_22  and  N4_23 
REMARK    7  A    between atoms: N4_23  and  C11_25 
REMARK    8  A    between atoms: C12_31  and  N7_32 
ROOT
HETATM    1  C6  UNL     1      32.257  30.528  25.554  1.00  0.00     0.259 C 
HETATM    2  O4  UNL     1      32.794  29.704  26.323  1.00  0.00    -0.270 OA
HETATM    3  N2  UNL     1      30.885  30.767  25.550  1.00  0.00    -0.277 N 
ATOM      4  H2  UNL     1      30.535  31.458  24.887  1.00  0.00     0.173 HD
HETATM    5  C7  UNL     1      29.949  30.143  26.373  1.00  0.00     0.324 C 
HETATM    6  O5  UNL     1      28.722  30.511  26.208  1.00  0.00    -0.247 OA
HETATM    7  N3  UNL     1      30.182  29.186  27.337  1.00  0.00    -0.320 N 
ATOM      8  H3  UNL     1      31.134  28.861  27.509  1.00  0.00     0.166 HD
ENDROOT
BRANCH   7   9
HETATM    9  C8  UNL     1      29.076  28.635  28.114  1.00  0.00     0.204 C 
HETATM   10  C9  UNL     1      28.602  27.339  27.495  1.00  0.00     0.096 C 
HETATM   11  C10 UNL     1      28.227  26.579  28.765  1.00  0.00     0.202 C 
HETATM   12  N8  UNL     1      29.026  27.185  29.755  1.00  0.00    -0.316 N 
HETATM   13  N9  UNL     1      29.468  28.256  29.415  1.00  0.00    -0.315 N 
ATOM     14  H8  UNL     1      29.211  26.763  30.665  1.00  0.00     0.182 HD
ATOM     15  H9  UNL     1      30.066  28.830  30.009  1.00  0.00     0.182 HD
BRANCH  11  16
HETATM   16  N4  UNL     1      28.581  25.201  28.648  1.00  0.00    -0.349 N 
ATOM     17  H4  UNL     1      28.681  24.793  27.718  1.00  0.00     0.163 HD
BRANCH  16  18
HETATM   18  C11 UNL     1      28.794  24.385  29.780  1.00  0.00     0.171 A 
HETATM   19  N5  UNL     1      29.964  23.953  30.309  1.00  0.00    -0.222 N 
HETATM   20  O6  UNL     1      29.726  23.223  31.353  1.00  0.00    -0.153 OA
ATOM     21  H5  UNL     1      30.890  24.170  29.941  1.00  0.00     0.198 HD
HETATM   22  N6  UNL     1      28.455  23.135  31.565  1.00  0.00    -0.222 N 
HETATM   23  C12 UNL     1      27.824  23.842  30.612  1.00  0.00     0.167 A 
ATOM     24  H6  UNL     1      28.009  22.618  32.323  1.00  0.00     0.198 HD
BRANCH  23  25
HETATM   25  N7  UNL     1      26.544  23.969  30.522  1.00  0.00    -0.381 N 
ATOM     26  H72 UNL     1      25.876  23.586  31.192  1.00  0.00     0.157 HD
ATOM     27  H71 UNL     1      26.013  24.451  29.797  1.00  0.00     0.157 HD
ENDBRANCH  23  25
ENDBRANCH  16  18
ENDBRANCH  11  16
ENDBRANCH   7   9
BRANCH   1  28
HETATM   28  C5  UNL     1      33.197  31.262  24.614  1.00  0.00     0.253 C 
BRANCH  28  29
HETATM   29  C4  UNL     1      33.387  32.615  25.184  1.00  0.00     0.101 A 
HETATM   30  C3  UNL     1      32.424  33.593  25.232  1.00  0.00     0.185 A 
HETATM   31  N1  UNL     1      32.655  34.824  25.774  1.00  0.00    -0.173 N 
HETATM   32  O1  UNL     1      32.246  36.015  26.087  1.00  0.00    -0.224 OA
HETATM   33  C14 UNL     1      33.855  35.131  26.291  1.00  0.00     0.174 A 
HETATM   34  C2  UNL     1      33.386  36.391  26.610  1.00  0.00     0.136 A 
HETATM   35  C1  UNL     1      33.913  37.456  27.188  1.00  0.00     0.057 C 
HETATM   36  N10 UNL     1      34.815  34.179  26.252  1.00  0.00    -0.305 N 
HETATM   37  C13 UNL     1      34.631  32.956  25.729  1.00  0.00     0.260 A 
ATOM     38  H10 UNL     1      35.731  34.402  26.642  1.00  0.00     0.171 HD
HETATM   39  O7  UNL     1      35.543  32.088  25.707  1.00  0.00    -0.267 OA
BRANCH  30  40
HETATM   40  O2  UNL     1      31.178  33.329  24.717  1.00  0.00    -0.344 OA
ATOM     41  H2  UNL     1      30.560  32.844  25.251  1.00  0.00     0.219 HD
ENDBRANCH  30  40
ENDBRANCH  28  29
BRANCH  28  42
HETATM   42  O3  UNL     1      32.619  31.327  23.365  1.00  0.00    -0.381 OA
ATOM     43  H3  UNL     1      31.691  31.521  23.428  1.00  0.00     0.211 HD
ENDBRANCH  28  42
ENDBRANCH   1  28
TORSDOF 8
ENDMDL
MODEL 3
REMARK VINA RESULT: -12.006567811      1.847      3.222
REMARK  8 active torsions:
REMARK  status: ('A' for Active; 'I' for Inactive)
REMARK    1  A    between atoms: C3_5  and  O2_6 
REMARK    2  A    between atoms: C4_8  and  C5_9 
REMARK    3  A    between atoms: C5_9  and  O3_10 
REMARK    4  A    between atoms: C5_9  and  C6_12 
REMARK       I    between atoms: C6_12  and  N2_14 
REMARK       I    between atoms: N2_14  and  C7_16 
REMARK       I    between atoms: C7_16  and  N3_18 
REMARK    5  A    between atoms: N3_18  and  C8_20 
REMARK    6  A    between atoms: C10_22  and  N4_23 
REMARK    7  A    between atoms: N4_23  and  C11_25 
REMARK    8  A    between atoms: C12_31  and  N7_32 
ROOT
HETATM    1  C6  UNL     1      31.812  31.596  27.199  1.00  0.00     0.259 C 
HETATM    2  O4  UNL     1      32.368  30.754  27.933  1.00  0.00    -0.270 OA
HETATM    3  N2  UNL     1      30.564  31.378  26.618  1.00  0.00    -0.277 N 
ATOM      4  H2  UNL     1      30.187  32.123  26.032  1.00  0.00     0.173 HD
HETATM    5  C7  UNL     1      29.788  30.230  26.767  1.00  0.00     0.324 C 
HETATM    6  O5  UNL     1      28.658  30.230  26.141  1.00  0.00    -0.247 OA
HETATM    7  N3  UNL     1      30.086  29.103  27.502  1.00  0.00    -0.320 N 
ATOM      8  H3  UNL     1      30.966  29.051  28.017  1.00  0.00     0.166 HD
ENDROOT
BRANCH   7   9
HETATM    9  C8  UNL     1      29.151  27.982  27.549  1.00  0.00     0.204 C 
HETATM   10  C9  UNL     1      29.704  26.881  28.427  1.00  0.00     0.096 C 
HETATM   11  C10 UNL     1      28.401  26.370  29.035  1.00  0.00     0.202 C 
HETATM   12  N8  UNL     1      27.542  27.483  28.949  1.00  0.00    -0.316 N 
HETATM   13  N9  UNL     1      27.934  28.323  28.175  1.00  0.00    -0.315 N 
ATOM     14  H8  UNL     1      26.678  27.571  29.485  1.00  0.00     0.182 HD
ATOM     15  H9  UNL     1      27.435  29.193  27.991  1.00  0.00     0.182 HD
BRANCH  11  16
HETATM   16  N4  UNL     1      28.591  26.021  30.407  1.00  0.00    -0.349 N 
ATOM     17  H4  UNL     1      28.946  26.726  31.052  1.00  0.00     0.163 HD
BRANCH  16  18
HETATM   18  C11 UNL     1      28.300  24.728  30.895  1.00  0.00     0.171 A 
HETATM   19  N5  UNL     1      27.720  23.687  30.253  1.00  0.00    -0.222 N 
HETATM   20  O6  UNL     1      27.634  22.674  31.057  1.00  0.00    -0.153 OA
ATOM     21  H5  UNL     1      27.399  23.699  29.285  1.00  0.00     0.198 HD
HETATM   22  N6  UNL     1      28.126  22.969  32.214  1.00  0.00    -0.222 N 
HETATM   23  C12 UNL     1      28.558  24.241  32.170  1.00  0.00     0.167 A 
ATOM     24  H6  UNL     1      28.177  22.346  33.019  1.00  0.00     0.198 HD
BRANCH  23  25
HETATM   25  N7  UNL     1      29.107  24.861  33.157  1.00  0.00    -0.381 N 
ATOM     26  H72 UNL     1      29.391  25.841  33.140  1.00  0.00     0.157 HD
ATOM     27  H71 UNL     1      29.339  24.488  34.079  1.00  0.00     0.157 HD
ENDBRANCH  23  25
ENDBRANCH  16  18
ENDBRANCH  11  16
ENDBRANCH   7   9
BRANCH   1  28
HETATM   28  C5  UNL     1      32.581  32.885  26.974  1.00  0.00     0.253 C 
BRANCH  28  29
HETATM   29  C4  UNL     1      33.274  32.737  25.674  1.00  0.00     0.101 A 
HETATM   30  C3  UNL     1      33.689  31.545  25.132  1.00  0.00     0.185 A 
HETATM   31  N1  UNL     1      34.321  31.469  23.925  1.00  0.00    -0.173 N 
HETATM   32  O1  UNL     1      34.885  30.770  22.988  1.00  0.00    -0.224 OA
HETATM   33  C14 UNL     1      34.566  32.576  23.208  1.00  0.00     0.174 A 
HETATM   34  C2  UNL     1      35.159  31.801  22.230  1.00  0.00     0.136 A 
HETATM   35  C1  UNL     1      35.731  32.058  21.066  1.00  0.00     0.057 C 
HETATM   36  N10 UNL     1      34.163  33.759  23.726  1.00  0.00    -0.305 N 
HETATM   37  C13 UNL     1      33.538  33.880  24.909  1.00  0.00     0.260 A 
ATOM     38  H10 UNL     1      34.344  34.607  23.189  1.00  0.00     0.171 HD
HETATM   39  O7  UNL     1      33.173  34.995  25.367  1.00  0.00    -0.267 OA
BRANCH  30  40
HETATM   40  O2  UNL     1      33.462  30.381  25.827  1.00  0.00    -0.344 OA
ATOM     41  H2  UNL     1      33.615  29.553  25.386  1.00  0.00     0.219 HD
ENDBRANCH  30  40
ENDBRANCH  28  29
BRANCH  28  42
HETATM   42  O3  UNL     1      33.485  33.052  28.000  1.00  0.00    -0.381 OA
ATOM     43  H3  UNL     1      34.311  32.627  27.801  1.00  0.00     0.211 HD
ENDBRANCH  28  42
ENDBRANCH   1  28
TORSDOF 8
ENDMDL
MODEL 4
REMARK VINA RESULT: -11.986648160      0.677      1.087
REMARK  8 active torsions:
REMARK  status: ('A' for Active; 'I' for Inactive)
REMARK    1  A    between atoms: C3_5  and  O2_6 
REMARK    2  A    between atoms: C4_8  and  C5_9 
REMARK    3  A    between atoms: C5_9  and  O3_10 
REMARK    4  A    between atoms: C5_9  and  C6_12 
REMARK       I    between atoms: C6_12  and  N2_14 
REMARK       I    between atoms: N2_14  and  C7_16 
REMARK       I    between atoms: C7_16  and  N3_18 
REMARK    5  A    between atoms: N3_18  and  C8_20 
REMARK    6  A    between atoms: C10_22  and  N4_23 
REMARK    7  A    between atoms: N4_23  and  C11_25 
REMARK    8  A    between atoms: C12_31  and  N7_32 
ROOT
HETATM    1  C6  UNL     1      32.283  30.593  25.697  1.00  0.00     0.259 C 
HETATM    2  O4  UNL     1      32.792  29.743  26.456  1.00  0.00    -0.270 OA
HETATM    3  N2  UNL     1      30.912  30.840  25.657  1.00  0.00    -0.277 N 
ATOM      4  H2  UNL     1      30.587  31.553  25.005  1.00  0.00     0.173 HD
HETATM    5  C7  UNL     1      29.948  30.195  26.430  1.00  0.00     0.324 C 
HETATM    6  O5  UNL     1      28.729  30.575  26.238  1.00  0.00    -0.247 OA
HETATM    7  N3  UNL     1      30.147  29.208  27.370  1.00  0.00    -0.320 N 
ATOM      8  H3  UNL     1      31.091  28.872  27.562  1.00  0.00     0.166 HD
ENDROOT
BRANCH   7   9
HETATM    9  C8  UNL     1      29.014  28.638  28.094  1.00  0.00     0.204 C 
HETATM   10  C9  UNL     1      28.565  27.355  27.431  1.00  0.00     0.096 C 
HETATM   11  C10 UNL     1      28.146  26.568  28.670  1.00  0.00     0.202 C 
HETATM   12  N8  UNL     1      28.907  27.153  29.701  1.00  0.00    -0.316 N 
HETATM   13  N9  UNL     1      29.359  28.232  29.400  1.00  0.00    -0.315 N 
ATOM     14  H8  UNL     1      29.060  26.711  30.608  1.00  0.00     0.182 HD
ATOM     15  H9  UNL     1      29.933  28.794  30.028  1.00  0.00     0.182 HD
BRANCH  11  16
HETATM   16  N4  UNL     1      28.507  25.192  28.535  1.00  0.00    -0.349 N 
ATOM     17  H4  UNL     1      29.105  24.911  27.758  1.00  0.00     0.163 HD
BRANCH  16  18
HETATM   18  C11 UNL     1      28.059  24.211  29.446  1.00  0.00     0.171 A 
HETATM   19  N5  UNL     1      26.805  23.739  29.639  1.00  0.00    -0.222 N 
HETATM   20  O6  UNL     1      26.817  22.839  30.573  1.00  0.00    -0.153 OA
ATOM     21  H5  UNL     1      25.977  24.044  29.128  1.00  0.00     0.198 HD
HETATM   22  N6  UNL     1      28.014  22.673  31.027  1.00  0.00    -0.222 N 
HETATM   23  C12 UNL     1      28.832  23.505  30.358  1.00  0.00     0.167 A 
ATOM     24  H6  UNL     1      28.290  22.024  31.763  1.00  0.00     0.198 HD
BRANCH  23  25
HETATM   25  N7  UNL     1      30.102  23.599  30.559  1.00  0.00    -0.381 N 
ATOM     26  H72 UNL     1      30.635  24.466  30.493  1.00  0.00     0.157 HD
ATOM     27  H71 UNL     1      30.753  22.853  30.805  1.00  0.00     0.157 HD
ENDBRANCH  23  25
ENDBRANCH  16  18
ENDBRANCH  11  16
ENDBRANCH   7   9
BRANCH   1  28
HETATM   28  C5  UNL     1      33.256  31.351  24.811  1.00  0.00     0.253 C 
BRANCH  28  29
HETATM   29  C4  UNL     1      33.409  32.695  25.412  1.00  0.00     0.101 A 
HETATM   30  C3  UNL     1      33.178  33.001  26.731  1.00  0.00     0.185 A 
HETATM   31  N1  UNL     1      33.339  34.260  27.231  1.00  0.00    -0.173 N 
HETATM   32  O1  UNL     1      33.297  35.095  28.224  1.00  0.00    -0.224 OA
HETATM   33  C14 UNL     1      33.736  35.267  26.438  1.00  0.00     0.174 A 
HETATM   34  C2  UNL     1      33.680  36.128  27.517  1.00  0.00     0.136 A 
HETATM   35  C1  UNL     1      33.921  37.417  27.686  1.00  0.00     0.057 C 
HETATM   36  N10 UNL     1      33.967  34.984  25.135  1.00  0.00    -0.305 N 
HETATM   37  C13 UNL     1      33.822  33.761  24.602  1.00  0.00     0.260 A 
ATOM     38  H10 UNL     1      34.269  35.743  24.524  1.00  0.00     0.171 HD
HETATM   39  O7  UNL     1      34.045  33.525  23.385  1.00  0.00    -0.267 OA
BRANCH  30  40
HETATM   40  O2  UNL     1      32.771  32.005  27.585  1.00  0.00    -0.344 OA
ATOM     41  H2  UNL     1      32.205  31.321  27.246  1.00  0.00     0.219 HD
ENDBRANCH  30  40
ENDBRANCH  28  29
BRANCH  28  42
HETATM   42  O3  UNL     1      32.731  31.433  23.539  1.00  0.00    -0.381 OA
ATOM     43  H3  UNL     1      32.531  32.333  23.310  1.00  0.00     0.211 HD
ENDBRANCH  28  42
ENDBRANCH   1  28
TORSDOF 8
ENDMDL
MODEL 5
REMARK VINA RESULT: -11.829384685      1.014      1.070
REMARK  8 active torsions:
REMARK  status: ('A' for Active; 'I' for Inactive)
REMARK    1  A    between atoms: C3_5  and  O2_6 
REMARK    2  A    between atoms: C4_8  and  C5_9 
REMARK    3  A    between atoms: C5_9  and  O3_10 
REMARK    4  A    between atoms: C5_9  and  C6_12 
REMARK       I    between atoms: C6_12  and  N2_14 
REMARK       I    between atoms: N2_14  and  C7_16 
REMARK       I    between atoms: C7_16  and  N3_18 
REMARK    5  A    between atoms: N3_18  and  C8_20 
REMARK    6  A    between atoms: C10_22  and  N4_23 
REMARK    7  A    between atoms: N4_23  and  C11_25 
REMARK    8  A    between atoms: C12_31  and  N7_32 
ROOT
HETATM    1  C6  UNL     1      32.142  30.679  25.644  1.00  0.00     0.259 C 
HETATM    2  O4  UNL     1      32.703  29.820  26.355  1.00  0.00    -0.270 OA
HETATM    3  N2  UNL     1      30.762  30.868  25.641  1.00  0.00    -0.277 N 
ATOM      4  H2  UNL     1      30.392  31.594  25.027  1.00  0.00     0.173 HD
HETATM    5  C7  UNL     1      29.843  30.152  26.406  1.00  0.00     0.324 C 
HETATM    6  O5  UNL     1      28.604  30.486  26.255  1.00  0.00    -0.247 OA
HETATM    7  N3  UNL     1      30.103  29.135  27.299  1.00  0.00    -0.320 N 
ATOM      8  H3  UNL     1      31.064  28.832  27.457  1.00  0.00     0.166 HD
ENDROOT
BRANCH   7   9
HETATM    9  C8  UNL     1      29.011  28.488  28.021  1.00  0.00     0.204 C 
HETATM   10  C9  UNL     1      28.745  27.116  27.441  1.00  0.00     0.096 C 
HETATM   11  C10 UNL     1      28.363  26.375  28.719  1.00  0.00     0.202 C 
HETATM   12  N8  UNL     1      29.002  27.118  29.731  1.00  0.00    -0.316 N 
HETATM   13  N9  UNL     1      29.340  28.219  29.366  1.00  0.00    -0.315 N 
ATOM     14  H8  UNL     1      29.163  26.764  30.674  1.00  0.00     0.182 HD
ATOM     15  H9  UNL     1      29.816  28.888  29.970  1.00  0.00     0.182 HD
BRANCH  11  16
HETATM   16  N4  UNL     1      28.885  25.046  28.703  1.00  0.00    -0.349 N 
ATOM     17  H4  UNL     1      29.202  24.649  27.818  1.00  0.00     0.163 HD
BRANCH  16  18
HETATM   18  C11 UNL     1      28.977  24.266  29.876  1.00  0.00     0.171 A 
HETATM   19  N5  UNL     1      30.081  23.774  30.486  1.00  0.00    -0.222 N 
HETATM   20  O6  UNL     1      29.735  23.107  31.542  1.00  0.00    -0.153 OA
ATOM     21  H5  UNL     1      31.040  23.907  30.163  1.00  0.00     0.198 HD
HETATM   22  N6  UNL     1      28.452  23.120  31.685  1.00  0.00    -0.222 N 
HETATM   23  C12 UNL     1      27.926  23.830  30.673  1.00  0.00     0.167 A 
ATOM     24  H6  UNL     1      27.929  22.669  32.436  1.00  0.00     0.198 HD
BRANCH  23  25
HETATM   25  N7  UNL     1      26.666  24.044  30.506  1.00  0.00    -0.381 N 
ATOM     26  H72 UNL     1      26.274  24.881  30.072  1.00  0.00     0.157 HD
ATOM     27  H71 UNL     1      25.889  23.439  30.770  1.00  0.00     0.157 HD
ENDBRANCH  23  25
ENDBRANCH  16  18
ENDBRANCH  11  16
ENDBRANCH   7   9
BRANCH   1  28
HETATM   28  C5  UNL     1      33.062  31.514  24.771  1.00  0.00     0.253 C 
BRANCH  28  29
HETATM   29  C4  UNL     1      33.191  32.829  25.437  1.00  0.00     0.101 A 
HETATM   30  C3  UNL     1      34.310  33.273  26.100  1.00  0.00     0.185 A 
HETATM   31  N1  UNL     1      34.372  34.499  26.694  1.00  0.00    -0.173 N 
HETATM   32  O1  UNL     1      35.024  35.393  27.375  1.00  0.00    -0.224 OA
HETATM   33  C14 UNL     1      33.324  35.335  26.654  1.00  0.00     0.174 A 
HETATM   34  C2  UNL     1      34.046  36.263  27.379  1.00  0.00     0.136 A 
HETATM   35  C1  UNL     1      33.794  37.476  27.840  1.00  0.00     0.057 C 
HETATM   36  N10 UNL     1      32.213  34.914  26.006  1.00  0.00    -0.305 N 
HETATM   37  C13 UNL     1      32.108  33.717  25.408  1.00  0.00     0.260 A 
ATOM     38  H10 UNL     1      31.410  35.542  25.970  1.00  0.00     0.171 HD
HETATM   39  O7  UNL     1      31.061  33.351  24.810  1.00  0.00    -0.267 OA
BRANCH  30  40
HETATM   40  O2  UNL     1      35.412  32.455  26.169  1.00  0.00    -0.344 OA
ATOM     41  H2  UNL     1      35.327  31.616  26.607  1.00  0.00     0.219 HD
ENDBRANCH  30  40
ENDBRANCH  28  29
BRANCH  28  42
HETATM   42  O3  UNL     1      32.497  31.645  23.521  1.00  0.00    -0.381 OA
ATOM     43  H3  UNL     1      32.635  30.863  23.000  1.00  0.00     0.211 HD
ENDBRANCH  28  42
ENDBRANCH   1  28
TORSDOF 8
ENDMDL
