MODEL 1
REMARK VINA RESULT: -10.041607939      0.000      0.000
REMARK  10 active torsions:
REMARK  status: ('A' for Active; 'I' for Inactive)
REMARK    1  A    between atoms: N1_1  and  C1_4 
REMARK    2  A    between atoms: C2_7  and  C3_8 
REMARK    3  A    between atoms: C4_11  and  C5_12 
REMARK    4  A    between atoms: C5_12  and  N4_13 
REMARK    5  A    between atoms: N4_13  and  N5_14 
REMARK       I    between atoms: N5_14  and  C6_16 
REMARK    6  A    between atoms: C6_16  and  C7_18 
REMARK    7  A    between atoms: C7_18  and  N6_19 
REMARK    8  A    between atoms: C10_26  and  N9_27 
REMARK    9  A    between atoms: C11_32  and  N11_33 
REMARK   10  A    between atoms: C13_40  and  N13_41 
ROOT
HETATM    1  N5  UNL     1      31.449  31.254  27.391  1.00  0.00    -0.272 N 
ATOM      2  H5  UNL     1      32.143  30.515  27.268  1.00  0.00     0.185 HD
HETATM    3  C6  UNL     1      31.846  32.593  27.407  1.00  0.00     0.254 C 
HETATM    4  O1  UNL     1      30.963  33.488  27.575  1.00  0.00    -0.270 OA
ENDROOT
BRANCH   1   5
HETATM    5  N4  UNL     1      30.088  30.925  27.546  1.00  0.00    -0.133 NA
BRANCH   5   6
HETATM    6  C5  UNL     1      29.742  29.774  26.750  1.00  0.00     0.192 C 
BRANCH   6   7
HETATM    7  C4  UNL     1      29.343  28.666  27.670  1.00  0.00     0.033 A 
HETATM    8  N3  UNL     1      28.941  27.485  27.275  1.00  0.00    -0.349 N 
HETATM    9  C3  UNL     1      28.618  26.567  28.160  1.00  0.00     0.127 A 
ATOM     10  H3  UNL     1      28.879  27.275  26.279  1.00  0.00     0.166 HD
HETATM   11  S1  UNL     1      28.878  27.367  29.642  1.00  0.00    -0.078 SA
HETATM   12  C12 UNL     1      29.401  28.875  29.030  1.00  0.00     0.078 A 
BRANCH   9  13
HETATM   13  C2  UNL     1      28.159  25.212  27.894  1.00  0.00     0.200 A 
HETATM   14  N2  UNL     1      28.768  24.558  26.853  1.00  0.00    -0.167 N 
HETATM   15  C1  UNL     1      28.426  23.294  26.512  1.00  0.00     0.681 A 
ATOM     16  H2  UNL     1      29.496  25.037  26.323  1.00  0.00     0.186 HD
HETATM   17  N14 UNL     1      27.463  22.680  27.223  1.00  0.00    -0.155 N 
HETATM   18  C13 UNL     1      26.883  23.331  28.232  1.00  0.00     0.238 A 
ATOM     19  H14 UNL     1      27.180  21.727  26.993  1.00  0.00     0.188 HD
HETATM   20  O2  UNL     1      27.243  24.569  28.538  1.00  0.00    -0.258 OA
BRANCH  15  21
HETATM   21  N1  UNL     1      28.992  22.673  25.539  1.00  0.00    -0.234 N 
ATOM     22  H12 UNL     1      29.692  21.956  25.736  1.00  0.00     0.174 HD
ATOM     23  H11 UNL     1      28.767  22.874  24.564  1.00  0.00     0.174 HD
ENDBRANCH  15  21
BRANCH  18  24
HETATM   24  N13 UNL     1      25.958  22.722  28.906  1.00  0.00    -0.364 N 
ATOM     25 2H13 UNL     1      26.038  22.696  29.923  1.00  0.00     0.159 HD
ATOM     26 1H13 UNL     1      25.170  22.282  28.432  1.00  0.00     0.159 HD
ENDBRANCH  18  24
ENDBRANCH   9  13
ENDBRANCH   6   7
ENDBRANCH   5   6
ENDBRANCH   1   5
BRANCH   3  27
HETATM   27  C7  UNL     1      33.271  33.035  27.232  1.00  0.00     0.274 C 
BRANCH  27  28
HETATM   28  N6  UNL     1      33.443  34.337  27.869  1.00  0.00    -0.203 N 
HETATM   29  N7  UNL     1      33.491  34.534  29.197  1.00  0.00    -0.290 N 
HETATM   30  C8  UNL     1      33.655  35.815  29.495  1.00  0.00     0.160 A 
ATOM     31  H7  UNL     1      33.411  33.790  29.890  1.00  0.00     0.188 HD
HETATM   32  C9  UNL     1      33.712  36.466  28.272  1.00  0.00     0.179 A 
HETATM   33  N8  UNL     1      33.864  37.756  27.937  1.00  0.00    -0.172 N 
HETATM   34  N12 UNL     1      33.578  35.520  27.315  1.00  0.00    -0.051 N 
HETATM   35  C10 UNL     1      33.892  38.177  26.657  1.00  0.00     0.692 A 
ATOM     36  H8  UNL     1      33.963  38.446  28.682  1.00  0.00     0.186 HD
HETATM   37  N10 UNL     1      33.759  37.247  25.695  1.00  0.00    -0.021 N 
HETATM   38  C11 UNL     1      33.606  35.951  26.037  1.00  0.00     0.715 A 
ATOM     39  H10 UNL     1      33.773  37.520  24.713  1.00  0.00     0.203 HD
BRANCH  35  40
HETATM   40  N9  UNL     1      34.034  39.413  26.349  1.00  0.00    -0.234 N 
ATOM     41  H92 UNL     1      33.417  40.120  26.751  1.00  0.00     0.174 HD
ATOM     42  H91 UNL     1      34.758  39.732  25.705  1.00  0.00     0.174 HD
ENDBRANCH  35  40
BRANCH  38  43
HETATM   43  N11 UNL     1      33.478  35.049  25.094  1.00  0.00    -0.232 N 
ATOM     44 2H11 UNL     1      34.182  35.039  24.356  1.00  0.00     0.174 HD
ATOM     45 1H11 UNL     1      32.692  34.399  25.129  1.00  0.00     0.174 HD
ENDBRANCH  38  43
ENDBRANCH  27  28
ENDBRANCH   3  27
TORSDOF 10
ENDMDL
MODEL 2
REMARK VINA RESULT: -9.723738410      0.643      1.449
REMARK  10 active torsions:
REMARK  status: ('A' for Active; 'I' for Inactive)
REMARK    1  A    between atoms: N1_1  and  C1_4 
REMARK    2  A    between atoms: C2_7  and  C3_8 
REMARK    3  A    between atoms: C4_11  and  C5_12 
REMARK    4  A    between atoms: C5_12  and  N4_13 
REMARK    5  A    between atoms: N4_13  and  N5_14 
REMARK       I    between atoms: N5_14  and  C6_16 
REMARK    6  A    between atoms: C6_16  and  C7_18 
REMARK    7  A    between atoms: C7_18  and  N6_19 
REMARK    8  A    between atoms: C10_26  and  N9_27 
REMARK    9  A    between atoms: C11_32  and  N11_33 
REMARK   10  A    between atoms: C13_40  and  N13_41 
ROOT
HETATM    1  N5  UNL     1      31.528  31.416  27.275  1.00  0.00    -0.272 N 
ATOM      2  H5  UNL     1      32.212  30.680  27.093  1.00  0.00     0.185 HD
HETATM    3  C6  UNL     1      31.945  32.742  27.412  1.00  0.00     0.254 C 
HETATM    4  O1  UNL     1      31.074  33.633  27.650  1.00  0.00    -0.270 OA
ENDROOT
BRANCH   1   5
HETATM    5  N4  UNL     1      30.160  31.097  27.388  1.00  0.00    -0.133 NA
BRANCH   5   6
HETATM    6  C5  UNL     1      29.836  29.935  26.598  1.00  0.00     0.192 C 
BRANCH   6   7
HETATM    7  C4  UNL     1      29.419  28.837  27.523  1.00  0.00     0.033 A 
HETATM    8  N3  UNL     1      29.120  27.621  27.140  1.00  0.00    -0.349 N 
HETATM    9  C3  UNL     1      28.772  26.717  28.029  1.00  0.00     0.127 A 
ATOM     10  H3  UNL     1      29.157  27.375  26.151  1.00  0.00     0.166 HD
HETATM   11  S1  UNL     1      28.857  27.580  29.496  1.00  0.00    -0.078 SA
HETATM   12  C12 UNL     1      29.347  29.094  28.873  1.00  0.00     0.078 A 
BRANCH   9  13
HETATM   13  C2  UNL     1      28.413  25.329  27.777  1.00  0.00     0.200 A 
HETATM   14  N2  UNL     1      27.635  24.721  28.728  1.00  0.00    -0.167 N 
HETATM   15  C1  UNL     1      27.237  23.433  28.603  1.00  0.00     0.681 A 
ATOM     16  H2  UNL     1      27.349  25.252  29.551  1.00  0.00     0.186 HD
HETATM   17  N14 UNL     1      27.624  22.750  27.510  1.00  0.00    -0.155 N 
HETATM   18  C13 UNL     1      28.380  23.358  26.596  1.00  0.00     0.238 A 
ATOM     19  H14 UNL     1      27.342  21.777  27.384  1.00  0.00     0.188 HD
HETATM   20  O2  UNL     1      28.751  24.620  26.751  1.00  0.00    -0.258 OA
BRANCH  15  21
HETATM   21  N1  UNL     1      26.506  22.856  29.490  1.00  0.00    -0.234 N 
ATOM     22  H12 UNL     1      25.925  22.060  29.225  1.00  0.00     0.174 HD
ATOM     23  H11 UNL     1      26.484  23.169  30.460  1.00  0.00     0.174 HD
ENDBRANCH  15  21
BRANCH  18  24
HETATM   24  N13 UNL     1      28.742  22.683  25.549  1.00  0.00    -0.364 N 
ATOM     25 2H13 UNL     1      29.739  22.577  25.364  1.00  0.00     0.159 HD
ATOM     26 1H13 UNL     1      28.047  22.268  24.929  1.00  0.00     0.159 HD
ENDBRANCH  18  24
ENDBRANCH   9  13
ENDBRANCH   6   7
ENDBRANCH   5   6
ENDBRANCH   1   5
BRANCH   3  27
HETATM   27  C7  UNL     1      33.378  33.175  27.290  1.00  0.00     0.274 C 
BRANCH  27  28
HETATM   28  N6  UNL     1      33.529  34.489  27.906  1.00  0.00    -0.203 N 
HETATM   29  N7  UNL     1      33.570  34.708  29.231  1.00  0.00    -0.290 N 
HETATM   30  C8  UNL     1      33.713  35.996  29.509  1.00  0.00     0.160 A 
ATOM     31  H7  UNL     1      33.501  33.974  29.936  1.00  0.00     0.188 HD
HETATM   32  C9  UNL     1      33.763  36.628  28.276  1.00  0.00     0.179 A 
HETATM   33  N8  UNL     1      33.896  37.915  27.921  1.00  0.00    -0.172 N 
HETATM   34  N12 UNL     1      33.646  35.666  27.334  1.00  0.00    -0.051 N 
HETATM   35  C10 UNL     1      33.920  38.317  26.634  1.00  0.00     0.692 A 
ATOM     36  H8  UNL     1      33.982  38.619  28.655  1.00  0.00     0.186 HD
HETATM   37  N10 UNL     1      33.804  37.370  25.687  1.00  0.00    -0.021 N 
HETATM   38  C11 UNL     1      33.671  36.077  26.049  1.00  0.00     0.715 A 
ATOM     39  H10 UNL     1      33.816  37.627  24.701  1.00  0.00     0.203 HD
BRANCH  35  40
HETATM   40  N9  UNL     1      34.043  39.550  26.307  1.00  0.00    -0.234 N 
ATOM     41  H92 UNL     1      33.541  39.922  25.501  1.00  0.00     0.174 HD
ATOM     42  H91 UNL     1      34.634  40.194  26.833  1.00  0.00     0.174 HD
ENDBRANCH  35  40
BRANCH  38  43
HETATM   43  N11 UNL     1      33.558  35.158  25.120  1.00  0.00    -0.232 N 
ATOM     44 2H11 UNL     1      33.315  35.470  24.180  1.00  0.00     0.174 HD
ATOM     45 1H11 UNL     1      33.714  34.180  25.364  1.00  0.00     0.174 HD
ENDBRANCH  38  43
ENDBRANCH  27  28
ENDBRANCH   3  27
TORSDOF 10
ENDMDL
MODEL 3
REMARK VINA RESULT: -9.224659610      1.821      2.282
REMARK  10 active torsions:
REMARK  status: ('A' for Active; 'I' for Inactive)
REMARK    1  A    between atoms: N1_1  and  C1_4 
REMARK    2  A    between atoms: C2_7  and  C3_8 
REMARK    3  A    between atoms: C4_11  and  C5_12 
REMARK    4  A    between atoms: C5_12  and  N4_13 
REMARK    5  A    between atoms: N4_13  and  N5_14 
REMARK       I    between atoms: N5_14  and  C6_16 
REMARK    6  A    between atoms: C6_16  and  C7_18 
REMARK    7  A    between atoms: C7_18  and  N6_19 
REMARK    8  A    between atoms: C10_26  and  N9_27 
REMARK    9  A    between atoms: C11_32  and  N11_33 
REMARK   10  A    between atoms: C13_40  and  N13_41 
ROOT
HETATM    1  N5  UNL     1      32.278  30.995  27.159  1.00  0.00    -0.272 N 
ATOM      2  H5  UNL     1      33.071  30.419  26.873  1.00  0.00     0.185 HD
HETATM    3  C6  UNL     1      32.420  32.380  27.267  1.00  0.00     0.254 C 
HETATM    4  O1  UNL     1      31.420  33.069  27.637  1.00  0.00    -0.270 OA
ENDROOT
BRANCH   1   5
HETATM    5  N4  UNL     1      31.035  30.394  27.445  1.00  0.00    -0.133 NA
BRANCH   5   6
HETATM    6  C5  UNL     1      31.196  29.290  28.358  1.00  0.00     0.192 C 
BRANCH   6   7
HETATM    7  C4  UNL     1      29.983  28.422  28.267  1.00  0.00     0.033 A 
HETATM    8  N3  UNL     1      29.718  27.434  29.084  1.00  0.00    -0.349 N 
HETATM    9  C3  UNL     1      28.618  26.729  28.932  1.00  0.00     0.127 A 
ATOM     10  H3  UNL     1      30.365  27.210  29.839  1.00  0.00     0.166 HD
HETATM   11  S1  UNL     1      27.887  27.462  27.578  1.00  0.00    -0.078 SA
HETATM   12  C12 UNL     1      29.063  28.664  27.273  1.00  0.00     0.078 A 
BRANCH   9  13
HETATM   13  C2  UNL     1      28.173  25.608  29.745  1.00  0.00     0.200 A 
HETATM   14  N2  UNL     1      28.766  25.478  30.975  1.00  0.00    -0.167 N 
HETATM   15  C1  UNL     1      28.433  24.475  31.822  1.00  0.00     0.681 A 
ATOM     16  H2  UNL     1      29.476  26.153  31.260  1.00  0.00     0.186 HD
HETATM   17  N14 UNL     1      27.494  23.595  31.429  1.00  0.00    -0.155 N 
HETATM   18  C13 UNL     1      26.929  23.738  30.230  1.00  0.00     0.238 A 
ATOM     19  H14 UNL     1      27.219  22.826  32.041  1.00  0.00     0.188 HD
HETATM   20  O2  UNL     1      27.279  24.732  29.427  1.00  0.00    -0.258 OA
BRANCH  15  21
HETATM   21  N1  UNL     1      28.982  24.346  32.977  1.00  0.00    -0.234 N 
ATOM     22  H12 UNL     1      29.621  23.569  33.148  1.00  0.00     0.174 HD
ATOM     23  H11 UNL     1      28.800  24.999  33.739  1.00  0.00     0.174 HD
ENDBRANCH  15  21
BRANCH  18  24
HETATM   24  N13 UNL     1      26.025  22.880  29.869  1.00  0.00    -0.364 N 
ATOM     25 2H13 UNL     1      25.732  22.868  28.892  1.00  0.00     0.159 HD
ATOM     26 1H13 UNL     1      25.619  22.234  30.545  1.00  0.00     0.159 HD
ENDBRANCH  18  24
ENDBRANCH   9  13
ENDBRANCH   6   7
ENDBRANCH   5   6
ENDBRANCH   1   5
BRANCH   3  27
HETATM   27  C7  UNL     1      33.700  33.106  26.966  1.00  0.00     0.274 C 
BRANCH  27  28
HETATM   28  N6  UNL     1      33.696  34.384  27.671  1.00  0.00    -0.203 N 
HETATM   29  N7  UNL     1      33.578  34.517  29.003  1.00  0.00    -0.290 N 
HETATM   30  C8  UNL     1      33.605  35.790  29.370  1.00  0.00     0.160 A 
ATOM     31  H7  UNL     1      33.479  33.736  29.651  1.00  0.00     0.188 HD
HETATM   32  C9  UNL     1      33.749  36.504  28.190  1.00  0.00     0.179 A 
HETATM   33  N8  UNL     1      33.835  37.817  27.928  1.00  0.00    -0.172 N 
HETATM   34  N12 UNL     1      33.799  35.600  27.186  1.00  0.00    -0.051 N 
HETATM   35  C10 UNL     1      33.974  38.302  26.678  1.00  0.00     0.692 A 
ATOM     36  H8  UNL     1      33.795  38.475  28.707  1.00  0.00     0.186 HD
HETATM   37  N10 UNL     1      34.025  37.414  25.670  1.00  0.00    -0.021 N 
HETATM   38  C11 UNL     1      33.937  36.095  25.939  1.00  0.00     0.715 A 
ATOM     39  H10 UNL     1      34.128  37.736  24.708  1.00  0.00     0.203 HD
BRANCH  35  40
HETATM   40  N9  UNL     1      34.052  39.559  26.440  1.00  0.00    -0.234 N 
ATOM     41  H92 UNL     1      34.843  39.938  25.919  1.00  0.00     0.174 HD
ATOM     42  H91 UNL     1      33.336  40.216  26.752  1.00  0.00     0.174 HD
ENDBRANCH  35  40
BRANCH  38  43
HETATM   43  N11 UNL     1      33.987  35.234  24.951  1.00  0.00    -0.232 N 
ATOM     44 2H11 UNL     1      34.677  34.485  25.018  1.00  0.00     0.174 HD
ATOM     45 1H11 UNL     1      33.347  35.339  24.164  1.00  0.00     0.174 HD
ENDBRANCH  38  43
ENDBRANCH  27  28
ENDBRANCH   3  27
TORSDOF 10
ENDMDL
MODEL 4
REMARK VINA RESULT: -9.130788879      2.786     11.648
REMARK  10 active torsions:
REMARK  status: ('A' for Active; 'I' for Inactive)
REMARK    1  A    between atoms: N1_1  and  C1_4 
REMARK    2  A    between atoms: C2_7  and  C3_8 
REMARK    3  A    between atoms: C4_11  and  C5_12 
REMARK    4  A    between atoms: C5_12  and  N4_13 
REMARK    5  A    between atoms: N4_13  and  N5_14 
REMARK       I    between atoms: N5_14  and  C6_16 
REMARK    6  A    between atoms: C6_16  and  C7_18 
REMARK    7  A    between atoms: C7_18  and  N6_19 
REMARK    8  A    between atoms: C10_26  and  N9_27 
REMARK    9  A    between atoms: C11_32  and  N11_33 
REMARK   10  A    between atoms: C13_40  and  N13_41 
ROOT
HETATM    1  N5  UNL     1      28.943  28.544  27.212  1.00  0.00    -0.272 N 
ATOM      2  H5  UNL     1      28.034  28.933  26.962  1.00  0.00     0.185 HD
HETATM    3  C6  UNL     1      29.039  27.229  27.675  1.00  0.00     0.254 C 
HETATM    4  O1  UNL     1      30.181  26.776  27.991  1.00  0.00    -0.270 OA
ENDROOT
BRANCH   1   5
HETATM    5  N4  UNL     1      30.106  29.330  27.092  1.00  0.00    -0.133 NA
BRANCH   5   6
HETATM    6  C5  UNL     1      29.772  30.705  26.820  1.00  0.00     0.192 C 
BRANCH   6   7
HETATM    7  C4  UNL     1      31.027  31.437  26.470  1.00  0.00     0.033 A 
HETATM    8  N3  UNL     1      31.346  32.620  26.930  1.00  0.00    -0.349 N 
HETATM    9  C3  UNL     1      32.479  33.183  26.572  1.00  0.00     0.127 A 
ATOM     10  H3  UNL     1      30.715  33.107  27.566  1.00  0.00     0.166 HD
HETATM   11  S1  UNL     1      33.165  32.019  25.533  1.00  0.00    -0.078 SA
HETATM   12  C12 UNL     1      31.928  30.843  25.616  1.00  0.00     0.078 A 
BRANCH   9  13
HETATM   13  C2  UNL     1      32.986  34.482  26.989  1.00  0.00     0.200 A 
HETATM   14  N2  UNL     1      32.993  35.466  26.033  1.00  0.00    -0.167 N 
HETATM   15  C1  UNL     1      33.439  36.715  26.303  1.00  0.00     0.681 A 
ATOM     16  H2  UNL     1      32.654  35.251  25.095  1.00  0.00     0.186 HD
HETATM   17  N14 UNL     1      33.883  36.979  27.546  1.00  0.00    -0.155 N 
HETATM   18  C13 UNL     1      33.867  36.010  28.461  1.00  0.00     0.238 A 
ATOM     19  H14 UNL     1      34.226  37.909  27.784  1.00  0.00     0.188 HD
HETATM   20  O2  UNL     1      33.423  34.798  28.162  1.00  0.00    -0.258 OA
BRANCH  15  21
HETATM   21  N1  UNL     1      33.449  37.643  25.413  1.00  0.00    -0.234 N 
ATOM     22  H12 UNL     1      32.964  37.498  24.527  1.00  0.00     0.174 HD
ATOM     23  H11 UNL     1      33.930  38.530  25.561  1.00  0.00     0.174 HD
ENDBRANCH  15  21
BRANCH  18  24
HETATM   24  N13 UNL     1      34.298  36.284  29.654  1.00  0.00    -0.364 N 
ATOM     25 2H13 UNL     1      34.617  35.514  30.242  1.00  0.00     0.159 HD
ATOM     26 1H13 UNL     1      34.316  37.245  29.994  1.00  0.00     0.159 HD
ENDBRANCH  18  24
ENDBRANCH   9  13
ENDBRANCH   6   7
ENDBRANCH   5   6
ENDBRANCH   1   5
BRANCH   3  27
HETATM   27  C7  UNL     1      27.855  26.315  27.818  1.00  0.00     0.274 C 
BRANCH  27  28
HETATM   28  N6  UNL     1      28.323  25.003  28.255  1.00  0.00    -0.203 N 
HETATM   29  N7  UNL     1      28.484  23.944  27.444  1.00  0.00    -0.290 N 
HETATM   30  C8  UNL     1      28.919  22.883  28.107  1.00  0.00     0.160 A 
ATOM     31  H7  UNL     1      28.295  23.956  26.442  1.00  0.00     0.188 HD
HETATM   32  C9  UNL     1      29.037  23.302  29.423  1.00  0.00     0.179 A 
HETATM   33  N8  UNL     1      29.427  22.676  30.544  1.00  0.00    -0.172 N 
HETATM   34  N12 UNL     1      28.662  24.601  29.458  1.00  0.00    -0.051 N 
HETATM   35  C10 UNL     1      29.467  23.289  31.744  1.00  0.00     0.692 A 
ATOM     36  H8  UNL     1      29.705  21.697  30.486  1.00  0.00     0.186 HD
HETATM   37  N10 UNL     1      29.095  24.580  31.794  1.00  0.00    -0.021 N 
HETATM   38  C11 UNL     1      28.704  25.205  30.664  1.00  0.00     0.715 A 
ATOM     39  H10 UNL     1      29.108  25.084  32.680  1.00  0.00     0.203 HD
BRANCH  35  40
HETATM   40  N9  UNL     1      29.837  22.680  32.809  1.00  0.00    -0.234 N 
ATOM     41  H92 UNL     1      29.421  21.784  33.062  1.00  0.00     0.174 HD
ATOM     42  H91 UNL     1      30.552  23.059  33.430  1.00  0.00     0.174 HD
ENDBRANCH  35  40
BRANCH  38  43
HETATM   43  N11 UNL     1      28.343  26.465  30.719  1.00  0.00    -0.232 N 
ATOM     44 2H11 UNL     1      29.045  27.140  31.022  1.00  0.00     0.174 HD
ATOM     45 1H11 UNL     1      27.390  26.723  30.461  1.00  0.00     0.174 HD
ENDBRANCH  38  43
ENDBRANCH  27  28
ENDBRANCH   3  27
TORSDOF 10
ENDMDL
MODEL 5
REMARK VINA RESULT: -9.063142385      2.833     11.675
REMARK  10 active torsions:
REMARK  status: ('A' for Active; 'I' for Inactive)
REMARK    1  A    between atoms: N1_1  and  C1_4 
REMARK    2  A    between atoms: C2_7  and  C3_8 
REMARK    3  A    between atoms: C4_11  and  C5_12 
REMARK    4  A    between atoms: C5_12  and  N4_13 
REMARK    5  A    between atoms: N4_13  and  N5_14 
REMARK       I    between atoms: N5_14  and  C6_16 
REMARK    6  A    between atoms: C6_16  and  C7_18 
REMARK    7  A    between atoms: C7_18  and  N6_19 
REMARK    8  A    between atoms: C10_26  and  N9_27 
REMARK    9  A    between atoms: C11_32  and  N11_33 
REMARK   10  A    between atoms: C13_40  and  N13_41 
ROOT
HETATM    1  N5  UNL     1      28.901  28.383  27.210  1.00  0.00    -0.272 N 
ATOM      2  H5  UNL     1      27.985  28.773  26.981  1.00  0.00     0.185 HD
HETATM    3  C6  UNL     1      29.006  27.074  27.684  1.00  0.00     0.254 C 
HETATM    4  O1  UNL     1      30.156  26.620  27.972  1.00  0.00    -0.270 OA
ENDROOT
BRANCH   1   5
HETATM    5  N4  UNL     1      30.062  29.165  27.048  1.00  0.00    -0.133 NA
BRANCH   5   6
HETATM    6  C5  UNL     1      29.724  30.549  26.828  1.00  0.00     0.192 C 
BRANCH   6   7
HETATM    7  C4  UNL     1      30.953  31.270  26.379  1.00  0.00     0.033 A 
HETATM    8  N3  UNL     1      31.285  32.477  26.764  1.00  0.00    -0.349 N 
HETATM    9  C3  UNL     1      32.394  33.028  26.322  1.00  0.00     0.127 A 
ATOM     10  H3  UNL     1      30.683  32.989  27.407  1.00  0.00     0.166 HD
HETATM   11  S1  UNL     1      33.037  31.819  25.307  1.00  0.00    -0.078 SA
HETATM   12  C12 UNL     1      31.816  30.641  25.510  1.00  0.00     0.078 A 
BRANCH   9  13
HETATM   13  C2  UNL     1      32.909  34.349  26.649  1.00  0.00     0.200 A 
HETATM   14  N2  UNL     1      33.153  34.595  27.976  1.00  0.00    -0.167 N 
HETATM   15  C1  UNL     1      33.634  35.786  28.401  1.00  0.00     0.681 A 
ATOM     16  H2  UNL     1      32.966  33.861  28.660  1.00  0.00     0.186 HD
HETATM   17  N14 UNL     1      33.874  36.741  27.484  1.00  0.00    -0.155 N 
HETATM   18  C13 UNL     1      33.631  36.483  26.198  1.00  0.00     0.238 A 
ATOM     19  H14 UNL     1      34.237  37.651  27.769  1.00  0.00     0.188 HD
HETATM   20  O2  UNL     1      33.160  35.305  25.817  1.00  0.00    -0.258 OA
BRANCH  15  21
HETATM   21  N1  UNL     1      33.867  36.024  29.643  1.00  0.00    -0.234 N 
ATOM     22  H12 UNL     1      33.808  35.265  30.322  1.00  0.00     0.174 HD
ATOM     23  H11 UNL     1      34.109  36.956  29.980  1.00  0.00     0.174 HD
ENDBRANCH  15  21
BRANCH  18  24
HETATM   24  N13 UNL     1      33.870  37.417  25.329  1.00  0.00    -0.364 N 
ATOM     25 2H13 UNL     1      34.720  37.350  24.770  1.00  0.00     0.159 HD
ATOM     26 1H13 UNL     1      33.222  38.195  25.207  1.00  0.00     0.159 HD
ENDBRANCH  18  24
ENDBRANCH   9  13
ENDBRANCH   6   7
ENDBRANCH   5   6
ENDBRANCH   1   5
BRANCH   3  27
HETATM   27  C7  UNL     1      27.826  26.164  27.871  1.00  0.00     0.274 C 
BRANCH  27  28
HETATM   28  N6  UNL     1      28.296  24.878  28.377  1.00  0.00    -0.203 N 
HETATM   29  N7  UNL     1      28.476  23.783  27.621  1.00  0.00    -0.290 N 
HETATM   30  C8  UNL     1      28.909  22.758  28.340  1.00  0.00     0.160 A 
ATOM     31  H7  UNL     1      28.301  23.744  26.616  1.00  0.00     0.188 HD
HETATM   32  C9  UNL     1      29.005  23.241  29.636  1.00  0.00     0.179 A 
HETATM   33  N8  UNL     1      29.383  22.673  30.791  1.00  0.00    -0.172 N 
HETATM   34  N12 UNL     1      28.620  24.537  29.603  1.00  0.00    -0.051 N 
HETATM   35  C10 UNL     1      29.402  23.344  31.961  1.00  0.00     0.692 A 
ATOM     36  H8  UNL     1      29.669  21.694  30.784  1.00  0.00     0.186 HD
HETATM   37  N10 UNL     1      29.020  24.633  31.942  1.00  0.00    -0.021 N 
HETATM   38  C11 UNL     1      28.641  25.199  30.778  1.00  0.00     0.715 A 
ATOM     39  H10 UNL     1      29.018  25.179  32.803  1.00  0.00     0.203 HD
BRANCH  35  40
HETATM   40  N9  UNL     1      29.761  22.789  33.059  1.00  0.00    -0.234 N 
ATOM     41  H92 UNL     1      29.969  21.791  33.089  1.00  0.00     0.174 HD
ATOM     42  H91 UNL     1      29.855  23.316  33.927  1.00  0.00     0.174 HD
ENDBRANCH  35  40
BRANCH  38  43
HETATM   43  N11 UNL     1      28.270  26.457  30.767  1.00  0.00    -0.232 N 
ATOM     44 2H11 UNL     1      28.408  26.993  31.624  1.00  0.00     0.174 HD
ATOM     45 1H11 UNL     1      27.865  26.851  29.918  1.00  0.00     0.174 HD
ENDBRANCH  38  43
ENDBRANCH  27  28
ENDBRANCH   3  27
TORSDOF 10
ENDMDL
