MODEL 1
REMARK VINA RESULT: -8.419411098      0.000      0.000
REMARK  4 active torsions:
REMARK  status: ('A' for Active; 'I' for Inactive)
REMARK    1  A    between atoms: S1_2  and  C2_4 
REMARK    2  A    between atoms: C2_4  and  C3_5 
REMARK    3  A    between atoms: C3_5  and  O2_6 
REMARK    4  A    between atoms: C3_5  and  C4_8 
ROOT
HETATM    1  C4  UNL     1      17.276  72.453  15.101  1.00  0.00     0.184 A 
HETATM    2  O3  UNL     1      18.427  73.236  15.199  1.00  0.00    -0.367 OA
HETATM    3  C5  UNL     1      18.215  73.591  16.525  1.00  0.00     0.093 A 
HETATM    4  C6  UNL     1      18.084  75.049  16.804  1.00  0.00     0.049 C 
HETATM    5  C7  UNL     1      16.965  72.785  16.513  1.00  0.00     0.189 A 
HETATM    6  O4  UNL     1      17.102  71.717  17.375  1.00  0.00    -0.364 OA
HETATM    7  C8  UNL     1      18.148  71.971  18.241  1.00  0.00     0.089 C 
HETATM    8  C9  UNL     1      17.591  72.696  19.442  1.00  0.00     0.051 C 
HETATM    9  C10 UNL     1      18.880  70.725  18.617  1.00  0.00    -0.037 C 
HETATM   10  C11 UNL     1      18.244  69.584  18.539  1.00  0.00    -0.019 C 
HETATM   11  C12 UNL     1      18.837  68.264  18.877  1.00  0.00     0.041 C 
HETATM   12  C13 UNL     1      20.343  68.294  18.799  1.00  0.00    -0.009 C 
HETATM   13  C14 UNL     1      20.845  68.017  17.411  1.00  0.00     0.021 C 
HETATM   14  C15 UNL     1      20.888  67.210  19.705  1.00  0.00     0.097 C 
HETATM   15  C16 UNL     1      22.221  67.794  20.046  1.00  0.00     0.150 C 
HETATM   16  O5  UNL     1      23.282  67.185  20.276  1.00  0.00    -0.293 OA
HETATM   17  C17 UNL     1      21.993  69.242  20.045  1.00  0.00     0.054 C 
HETATM   18  C18 UNL     1      20.919  69.534  19.333  1.00  0.00    -0.055 C 
HETATM   19  C19 UNL     1      20.308  70.880  19.058  1.00  0.00     0.006 C 
HETATM   20  C20 UNL     1      20.298  71.588  20.420  1.00  0.00     0.025 C 
HETATM   21  C21 UNL     1      21.097  71.625  18.037  1.00  0.00     0.019 C 
HETATM   22  C22 UNL     1      20.185  72.094  16.919  1.00  0.00     0.012 C 
HETATM   23  C23 UNL     1      19.098  72.912  17.535  1.00  0.00     0.061 C 
ENDROOT
BRANCH   1  24
HETATM   24  C3  UNL     1      16.393  72.952  14.016  1.00  0.00     0.161 C 
BRANCH  24  25
HETATM   25  C2  UNL     1      15.949  71.960  13.010  1.00  0.00     0.142 C 
BRANCH  25  26
HETATM   26  S1  UNL     1      14.183  72.096  12.810  1.00  0.00     0.013 S 
HETATM   27  C1  UNL     1      13.748  72.944  11.326  1.00  0.00     0.127 C 
HETATM   28  O1  UNL     1      13.568  70.531  12.851  1.00  0.00    -0.258 OA
ENDBRANCH  25  26
ENDBRANCH  24  25
BRANCH  24  29
HETATM   29  O2  UNL     1      15.276  73.607  14.534  1.00  0.00    -0.392 OA
ATOM     30  H2  UNL     1      15.518  74.043  15.342  1.00  0.00     0.210 HD
ENDBRANCH  24  29
ENDBRANCH   1  24
TORSDOF 4
ENDMDL
MODEL 2
REMARK VINA RESULT: -7.665576825      1.201      1.570
REMARK  4 active torsions:
REMARK  status: ('A' for Active; 'I' for Inactive)
REMARK    1  A    between atoms: S1_2  and  C2_4 
REMARK    2  A    between atoms: C2_4  and  C3_5 
REMARK    3  A    between atoms: C3_5  and  O2_6 
REMARK    4  A    between atoms: C3_5  and  C4_8 
ROOT
HETATM    1  C4  UNL     1      17.122  72.106  15.305  1.00  0.00     0.184 A 
HETATM    2  O3  UNL     1      18.266  72.903  15.236  1.00  0.00    -0.367 OA
HETATM    3  C5  UNL     1      18.171  73.356  16.546  1.00  0.00     0.093 A 
HETATM    4  C6  UNL     1      18.045  74.830  16.726  1.00  0.00     0.049 C 
HETATM    5  C7  UNL     1      16.937  72.542  16.711  1.00  0.00     0.189 A 
HETATM    6  O4  UNL     1      17.169  71.543  17.633  1.00  0.00    -0.364 OA
HETATM    7  C8  UNL     1      18.285  71.871  18.378  1.00  0.00     0.089 C 
HETATM    8  C9  UNL     1      17.831  72.681  19.567  1.00  0.00     0.051 C 
HETATM    9  C10 UNL     1      19.067  70.662  18.776  1.00  0.00    -0.037 C 
HETATM   10  C11 UNL     1      18.443  69.514  18.843  1.00  0.00    -0.019 C 
HETATM   11  C12 UNL     1      19.084  68.227  19.223  1.00  0.00     0.041 C 
HETATM   12  C13 UNL     1      20.576  68.263  19.004  1.00  0.00    -0.009 C 
HETATM   13  C14 UNL     1      20.952  67.886  17.599  1.00  0.00     0.021 C 
HETATM   14  C15 UNL     1      21.217  67.255  19.934  1.00  0.00     0.097 C 
HETATM   15  C16 UNL     1      22.567  67.873  20.105  1.00  0.00     0.150 C 
HETATM   16  O5  UNL     1      23.653  67.291  20.281  1.00  0.00    -0.293 OA
HETATM   17  C17 UNL     1      22.319  69.316  20.017  1.00  0.00     0.054 C 
HETATM   18  C18 UNL     1      21.180  69.544  19.387  1.00  0.00    -0.055 C 
HETATM   19  C19 UNL     1      20.527  70.861  19.071  1.00  0.00     0.006 C 
HETATM   20  C20 UNL     1      20.632  71.670  20.370  1.00  0.00     0.025 C 
HETATM   21  C21 UNL     1      21.208  71.532  17.928  1.00  0.00     0.019 C 
HETATM   22  C22 UNL     1      20.191  71.908  16.867  1.00  0.00     0.012 C 
HETATM   23  C23 UNL     1      19.153  72.762  17.518  1.00  0.00     0.061 C 
ENDROOT
BRANCH   1  24
HETATM   24  C3  UNL     1      16.136  72.514  14.272  1.00  0.00     0.161 C 
BRANCH  24  25
HETATM   25  C2  UNL     1      16.292  73.872  13.703  1.00  0.00     0.142 C 
BRANCH  25  26
HETATM   26  S1  UNL     1      14.982  74.909  14.325  1.00  0.00     0.013 S 
HETATM   27  C1  UNL     1      15.557  76.523  14.744  1.00  0.00     0.127 C 
HETATM   28  O1  UNL     1      13.789  74.948  13.140  1.00  0.00    -0.258 OA
ENDBRANCH  25  26
ENDBRANCH  24  25
BRANCH  24  29
HETATM   29  O2  UNL     1      16.082  71.588  13.230  1.00  0.00    -0.392 OA
ATOM     30  H2  UNL     1      15.539  71.935  12.533  1.00  0.00     0.210 HD
ENDBRANCH  24  29
ENDBRANCH   1  24
TORSDOF 4
ENDMDL
MODEL 3
REMARK VINA RESULT: -7.455712666      3.698      5.076
REMARK  4 active torsions:
REMARK  status: ('A' for Active; 'I' for Inactive)
REMARK    1  A    between atoms: S1_2  and  C2_4 
REMARK    2  A    between atoms: C2_4  and  C3_5 
REMARK    3  A    between atoms: C3_5  and  O2_6 
REMARK    4  A    between atoms: C3_5  and  C4_8 
ROOT
HETATM    1  C4  UNL     1      18.228  76.774  17.724  1.00  0.00     0.184 A 
HETATM    2  O3  UNL     1      19.192  76.696  16.717  1.00  0.00    -0.367 OA
HETATM    3  C5  UNL     1      20.208  76.267  17.562  1.00  0.00     0.093 A 
HETATM    4  C6  UNL     1      21.414  77.140  17.637  1.00  0.00     0.049 C 
HETATM    5  C7  UNL     1      19.252  76.327  18.699  1.00  0.00     0.189 A 
HETATM    6  O4  UNL     1      19.037  75.053  19.182  1.00  0.00    -0.364 OA
HETATM    7  C8  UNL     1      20.055  74.229  18.743  1.00  0.00     0.089 C 
HETATM    8  C9  UNL     1      21.168  74.282  19.761  1.00  0.00     0.051 C 
HETATM    9  C10 UNL     1      19.579  72.836  18.491  1.00  0.00    -0.037 C 
HETATM   10  C11 UNL     1      18.511  72.421  19.123  1.00  0.00    -0.019 C 
HETATM   11  C12 UNL     1      17.919  71.066  18.976  1.00  0.00     0.041 C 
HETATM   12  C13 UNL     1      18.322  70.420  17.674  1.00  0.00    -0.009 C 
HETATM   13  C14 UNL     1      17.408  70.801  16.545  1.00  0.00     0.021 C 
HETATM   14  C15 UNL     1      18.239  68.918  17.842  1.00  0.00     0.097 C 
HETATM   15  C16 UNL     1      19.257  68.482  16.840  1.00  0.00     0.150 C 
HETATM   16  O5  UNL     1      19.254  67.442  16.155  1.00  0.00    -0.293 OA
HETATM   17  C17 UNL     1      20.256  69.555  16.848  1.00  0.00     0.054 C 
HETATM   18  C18 UNL     1      19.726  70.667  17.324  1.00  0.00    -0.055 C 
HETATM   19  C19 UNL     1      20.372  72.011  17.517  1.00  0.00     0.006 C 
HETATM   20  C20 UNL     1      21.727  71.702  18.167  1.00  0.00     0.025 C 
HETATM   21  C21 UNL     1      20.516  72.724  16.216  1.00  0.00     0.019 C 
HETATM   22  C22 UNL     1      19.912  74.112  16.318  1.00  0.00     0.012 C 
HETATM   23  C23 UNL     1      20.582  74.815  17.452  1.00  0.00     0.061 C 
ENDROOT
BRANCH   1  24
HETATM   24  C3  UNL     1      17.675  78.149  17.815  1.00  0.00     0.161 C 
BRANCH  24  25
HETATM   25  C2  UNL     1      16.481  78.442  16.991  1.00  0.00     0.142 C 
BRANCH  25  26
HETATM   26  S1  UNL     1      15.877  80.066  17.410  1.00  0.00     0.013 S 
HETATM   27  C1  UNL     1      15.190  80.898  16.015  1.00  0.00     0.127 C 
HETATM   28  O1  UNL     1      14.754  79.864  18.646  1.00  0.00    -0.258 OA
ENDBRANCH  25  26
ENDBRANCH  24  25
BRANCH  24  29
HETATM   29  O2  UNL     1      17.413  78.502  19.139  1.00  0.00    -0.392 OA
ATOM     30  H2  UNL     1      18.211  78.830  19.536  1.00  0.00     0.210 HD
ENDBRANCH  24  29
ENDBRANCH   1  24
TORSDOF 4
ENDMDL
MODEL 4
REMARK VINA RESULT: -7.405990038      2.691      4.333
REMARK  4 active torsions:
REMARK  status: ('A' for Active; 'I' for Inactive)
REMARK    1  A    between atoms: S1_2  and  C2_4 
REMARK    2  A    between atoms: C2_4  and  C3_5 
REMARK    3  A    between atoms: C3_5  and  O2_6 
REMARK    4  A    between atoms: C3_5  and  C4_8 
ROOT
HETATM    1  C4  UNL     1      17.698  73.312  16.001  1.00  0.00     0.184 A 
HETATM    2  O3  UNL     1      17.179  72.682  17.133  1.00  0.00    -0.367 OA
HETATM    3  C5  UNL     1      18.022  71.581  17.051  1.00  0.00     0.093 A 
HETATM    4  C6  UNL     1      17.360  70.254  16.910  1.00  0.00     0.049 C 
HETATM    5  C7  UNL     1      18.632  72.173  15.831  1.00  0.00     0.189 A 
HETATM    6  O4  UNL     1      19.948  72.494  16.087  1.00  0.00    -0.364 OA
HETATM    7  C8  UNL     1      20.367  71.806  17.210  1.00  0.00     0.089 C 
HETATM    8  C9  UNL     1      20.919  70.475  16.762  1.00  0.00     0.051 C 
HETATM    9  C10 UNL     1      21.353  72.591  18.013  1.00  0.00    -0.037 C 
HETATM   10  C11 UNL     1      22.054  73.513  17.404  1.00  0.00    -0.019 C 
HETATM   11  C12 UNL     1      23.070  74.373  18.067  1.00  0.00     0.041 C 
HETATM   12  C13 UNL     1      22.840  74.460  19.555  1.00  0.00    -0.009 C 
HETATM   13  C14 UNL     1      21.871  75.550  19.916  1.00  0.00     0.021 C 
HETATM   14  C15 UNL     1      24.159  74.784  20.222  1.00  0.00     0.097 C 
HETATM   15  C16 UNL     1      23.935  74.170  21.566  1.00  0.00     0.150 C 
HETATM   16  O5  UNL     1      24.383  74.555  22.662  1.00  0.00    -0.293 OA
HETATM   17  C17 UNL     1      23.070  73.018  21.298  1.00  0.00     0.054 C 
HETATM   18  C18 UNL     1      22.440  73.178  20.148  1.00  0.00    -0.055 C 
HETATM   19  C19 UNL     1      21.461  72.258  19.474  1.00  0.00     0.006 C 
HETATM   20  C20 UNL     1      22.094  70.865  19.587  1.00  0.00     0.025 C 
HETATM   21  C21 UNL     1      20.125  72.329  20.130  1.00  0.00     0.019 C 
HETATM   22  C22 UNL     1      19.052  72.605  19.094  1.00  0.00     0.012 C 
HETATM   23  C23 UNL     1      19.142  71.536  18.054  1.00  0.00     0.061 C 
ENDROOT
BRANCH   1  24
HETATM   24  C3  UNL     1      16.630  73.546  14.996  1.00  0.00     0.161 C 
BRANCH  24  25
HETATM   25  C2  UNL     1      16.363  72.447  14.041  1.00  0.00     0.142 C 
BRANCH  25  26
HETATM   26  S1  UNL     1      15.518  73.113  12.620  1.00  0.00     0.013 S 
HETATM   27  C1  UNL     1      13.998  72.277  12.300  1.00  0.00     0.127 C 
HETATM   28  O1  UNL     1      15.290  74.753  12.914  1.00  0.00    -0.258 OA
ENDBRANCH  25  26
ENDBRANCH  24  25
BRANCH  24  29
HETATM   29  O2  UNL     1      15.433  73.918  15.608  1.00  0.00    -0.392 OA
ATOM     30  H2  UNL     1      15.261  74.833  15.420  1.00  0.00     0.210 HD
ENDBRANCH  24  29
ENDBRANCH   1  24
TORSDOF 4
ENDMDL
MODEL 5
REMARK VINA RESULT: -7.358602676      3.551      4.819
REMARK  4 active torsions:
REMARK  status: ('A' for Active; 'I' for Inactive)
REMARK    1  A    between atoms: S1_2  and  C2_4 
REMARK    2  A    between atoms: C2_4  and  C3_5 
REMARK    3  A    between atoms: C3_5  and  O2_6 
REMARK    4  A    between atoms: C3_5  and  C4_8 
ROOT
HETATM    1  C4  UNL     1      18.620  76.571  17.825  1.00  0.00     0.184 A 
HETATM    2  O3  UNL     1      19.634  76.469  16.871  1.00  0.00    -0.367 OA
HETATM    3  C5  UNL     1      20.577  75.963  17.757  1.00  0.00     0.093 A 
HETATM    4  C6  UNL     1      21.820  76.767  17.925  1.00  0.00     0.049 C 
HETATM    5  C7  UNL     1      19.562  76.043  18.841  1.00  0.00     0.189 A 
HETATM    6  O4  UNL     1      19.254  74.770  19.272  1.00  0.00    -0.364 OA
HETATM    7  C8  UNL     1      20.251  73.905  18.866  1.00  0.00     0.089 C 
HETATM    8  C9  UNL     1      21.306  73.871  19.945  1.00  0.00     0.051 C 
HETATM    9  C10 UNL     1      19.718  72.547  18.546  1.00  0.00    -0.037 C 
HETATM   10  C11 UNL     1      18.596  72.173  19.106  1.00  0.00    -0.019 C 
HETATM   11  C12 UNL     1      17.943  70.856  18.885  1.00  0.00     0.041 C 
HETATM   12  C13 UNL     1      18.385  70.225  17.589  1.00  0.00    -0.009 C 
HETATM   13  C14 UNL     1      17.557  70.685  16.423  1.00  0.00     0.021 C 
HETATM   14  C15 UNL     1      18.215  68.725  17.706  1.00  0.00     0.097 C 
HETATM   15  C16 UNL     1      19.264  68.262  16.749  1.00  0.00     0.150 C 
HETATM   16  O5  UNL     1      19.246  67.243  16.034  1.00  0.00    -0.293 OA
HETATM   17  C17 UNL     1      20.316  69.280  16.844  1.00  0.00     0.054 C 
HETATM   18  C18 UNL     1      19.818  70.405  17.324  1.00  0.00    -0.055 C 
HETATM   19  C19 UNL     1      20.521  71.707  17.593  1.00  0.00     0.006 C 
HETATM   20  C20 UNL     1      21.819  71.308  18.307  1.00  0.00     0.025 C 
HETATM   21  C21 UNL     1      20.775  72.447  16.325  1.00  0.00     0.019 C 
HETATM   22  C22 UNL     1      20.240  73.862  16.434  1.00  0.00     0.012 C 
HETATM   23  C23 UNL     1      20.880  74.497  17.625  1.00  0.00     0.061 C 
ENDROOT
BRANCH   1  24
HETATM   24  C3  UNL     1      18.135  77.971  17.926  1.00  0.00     0.161 C 
BRANCH  24  25
HETATM   25  C2  UNL     1      16.832  78.272  17.291  1.00  0.00     0.142 C 
BRANCH  25  26
HETATM   26  S1  UNL     1      17.091  78.547  15.549  1.00  0.00     0.013 S 
HETATM   27  C1  UNL     1      15.901  79.657  14.869  1.00  0.00     0.127 C 
HETATM   28  O1  UNL     1      18.663  79.118  15.376  1.00  0.00    -0.258 OA
ENDBRANCH  25  26
ENDBRANCH  24  25
BRANCH  24  29
HETATM   29  O2  UNL     1      18.105  78.400  19.253  1.00  0.00    -0.392 OA
ATOM     30  H2  UNL     1      17.248  78.217  19.620  1.00  0.00     0.210 HD
ENDBRANCH  24  29
ENDBRANCH   1  24
TORSDOF 4
ENDMDL
