MODEL 1
REMARK VINA RESULT: -8.549122989      0.000      0.000
REMARK  6 active torsions:
REMARK  status: ('A' for Active; 'I' for Inactive)
REMARK    1  A    between atoms: C8_10  and  C9_11 
REMARK       I    between atoms: C9_11  and  N2_13 
REMARK    2  A    between atoms: N2_13  and  C10_15 
REMARK    3  A    between atoms: C10_15  and  O3_16 
REMARK    4  A    between atoms: C10_15  and  N3_18 
REMARK    5  A    between atoms: C12_22  and  C13_23 
REMARK    6  A    between atoms: C13_23  and  C14_24 
ROOT
HETATM    1  C1  UNL     1      20.049  71.172  20.297  1.00  0.00     0.033 C 
HETATM    2  C2  UNL     1      20.443  70.526  18.991  1.00  0.00     0.067 C 
HETATM    3  C3  UNL     1      21.339  71.418  18.283  1.00  0.00     0.070 C 
HETATM    4  N1  UNL     1      22.076  72.124  17.717  1.00  0.00    -0.196 NA
HETATM    5  C4  UNL     1      21.197  69.251  19.284  1.00  0.00     0.033 C 
HETATM    6  C5  UNL     1      21.851  68.739  18.045  1.00  0.00     0.174 C 
HETATM    7  O1  UNL     1      21.050  67.731  17.520  1.00  0.00    -0.385 OA
HETATM    8  C6  UNL     1      19.709  68.020  17.559  1.00  0.00     0.126 C 
HETATM    9  C7  UNL     1      19.472  69.392  16.986  1.00  0.00     0.053 C 
HETATM   10  C8  UNL     1      19.193  70.214  18.212  1.00  0.00     0.065 C 
HETATM   11  C19 UNL     1      18.308  69.314  19.026  1.00  0.00     0.028 C 
HETATM   12  C20 UNL     1      19.127  68.015  18.961  1.00  0.00     0.016 C 
HETATM   13  C21 UNL     1      20.308  68.201  19.910  1.00  0.00     0.015 C 
ENDROOT
BRANCH  10  14
HETATM   14  C9  UNL     1      18.492  71.473  17.808  1.00  0.00     0.235 C 
HETATM   15  O2  UNL     1      17.445  71.765  18.424  1.00  0.00    -0.272 OA
HETATM   16  N2  UNL     1      19.041  72.243  16.777  1.00  0.00    -0.290 N 
ATOM     17  H2  UNL     1      19.898  71.852  16.386  1.00  0.00     0.172 HD
BRANCH  16  18
HETATM   18  C10 UNL     1      18.650  73.434  16.180  1.00  0.00     0.252 C 
BRANCH  18  19
HETATM   19  O3  UNL     1      19.516  74.415  16.316  1.00  0.00    -0.330 OA
ATOM     20  H3  UNL     1      19.938  74.677  15.507  1.00  0.00     0.221 HD
ENDBRANCH  18  19
BRANCH  18  21
HETATM   21  N3  UNL     1      17.472  73.690  15.474  1.00  0.00    -0.191 N 
HETATM   22  N4  UNL     1      16.683  74.768  15.259  1.00  0.00    -0.299 N 
HETATM   23  C11 UNL     1      15.873  74.817  14.319  1.00  0.00     0.098 C 
ATOM     24  H4  UNL     1      16.757  75.566  15.889  1.00  0.00     0.187 HD
HETATM   25  C12 UNL     1      15.802  73.631  13.428  1.00  0.00     0.111 C 
HETATM   26  S1  UNL     1      16.594  72.409  14.529  1.00  0.00    -0.016 SA
BRANCH  25  27
HETATM   27  C13 UNL     1      14.377  73.269  13.235  1.00  0.00     0.027 C 
BRANCH  27  28
HETATM   28  C14 UNL     1      14.144  72.117  12.289  1.00  0.00    -0.009 C 
HETATM   29  C15 UNL     1      12.999  72.477  11.372  1.00  0.00     0.031 C 
HETATM   30  C16 UNL     1      12.698  71.253  10.518  1.00  0.00     0.168 C 
HETATM   31  O4  UNL     1      12.331  70.215  11.342  1.00  0.00    -0.391 OA
HETATM   32  C17 UNL     1      13.449  69.779  12.059  1.00  0.00     0.168 C 
HETATM   33  C18 UNL     1      13.766  70.868  13.057  1.00  0.00     0.031 C 
ENDBRANCH  27  28
ENDBRANCH  25  27
ENDBRANCH  18  21
ENDBRANCH  16  18
ENDBRANCH  10  14
TORSDOF 6
ENDMDL
MODEL 2
REMARK VINA RESULT: -8.365894856      1.773      2.754
REMARK  6 active torsions:
REMARK  status: ('A' for Active; 'I' for Inactive)
REMARK    1  A    between atoms: C8_10  and  C9_11 
REMARK       I    between atoms: C9_11  and  N2_13 
REMARK    2  A    between atoms: N2_13  and  C10_15 
REMARK    3  A    between atoms: C10_15  and  O3_16 
REMARK    4  A    between atoms: C10_15  and  N3_18 
REMARK    5  A    between atoms: C12_22  and  C13_23 
REMARK    6  A    between atoms: C13_23  and  C14_24 
ROOT
HETATM    1  C1  UNL     1      21.902  72.651  17.482  1.00  0.00     0.033 C 
HETATM    2  C2  UNL     1      20.580  72.120  17.981  1.00  0.00     0.067 C 
HETATM    3  C3  UNL     1      19.725  71.857  16.841  1.00  0.00     0.070 C 
HETATM    4  N1  UNL     1      19.039  71.625  15.926  1.00  0.00    -0.196 NA
HETATM    5  C4  UNL     1      20.817  70.810  18.694  1.00  0.00     0.033 C 
HETATM    6  C5  UNL     1      19.522  70.115  18.943  1.00  0.00     0.174 C 
HETATM    7  O1  UNL     1      19.148  70.360  20.260  1.00  0.00    -0.385 OA
HETATM    8  C6  UNL     1      19.356  71.657  20.656  1.00  0.00     0.126 C 
HETATM    9  C7  UNL     1      18.769  72.596  19.637  1.00  0.00     0.053 C 
HETATM   10  C8  UNL     1      19.989  73.122  18.936  1.00  0.00     0.065 C 
HETATM   11  C19 UNL     1      20.948  73.362  20.067  1.00  0.00     0.028 C 
HETATM   12  C20 UNL     1      20.823  72.019  20.804  1.00  0.00     0.016 C 
HETATM   13  C21 UNL     1      21.596  70.998  19.976  1.00  0.00     0.015 C 
ENDROOT
BRANCH  10  14
HETATM   14  C9  UNL     1      19.636  74.390  18.223  1.00  0.00     0.235 C 
HETATM   15  O2  UNL     1      20.388  75.372  18.399  1.00  0.00    -0.272 OA
HETATM   16  N2  UNL     1      18.498  74.405  17.409  1.00  0.00    -0.290 N 
ATOM     17  H2  UNL     1      18.002  73.514  17.383  1.00  0.00     0.172 HD
BRANCH  16  18
HETATM   18  C10 UNL     1      17.911  75.391  16.629  1.00  0.00     0.252 C 
BRANCH  18  19
HETATM   19  O3  UNL     1      18.367  76.603  16.858  1.00  0.00    -0.330 OA
ATOM     20  H3  UNL     1      17.988  77.274  16.302  1.00  0.00     0.221 HD
ENDBRANCH  18  19
BRANCH  18  21
HETATM   21  N3  UNL     1      16.919  75.235  15.657  1.00  0.00    -0.191 N 
HETATM   22  N4  UNL     1      16.275  76.047  14.788  1.00  0.00    -0.299 N 
HETATM   23  C11 UNL     1      15.672  75.607  13.795  1.00  0.00     0.098 C 
ATOM     24  H4  UNL     1      16.285  77.054  14.953  1.00  0.00     0.187 HD
HETATM   25  C12 UNL     1      15.687  74.136  13.595  1.00  0.00     0.111 C 
HETATM   26  S1  UNL     1      16.148  73.631  15.288  1.00  0.00    -0.016 SA
BRANCH  25  27
HETATM   27  C13 UNL     1      14.304  73.684  13.306  1.00  0.00     0.027 C 
BRANCH  27  28
HETATM   28  C14 UNL     1      14.213  72.476  12.406  1.00  0.00    -0.009 C 
HETATM   29  C15 UNL     1      13.079  72.691  11.433  1.00  0.00     0.031 C 
HETATM   30  C16 UNL     1      12.922  71.409  10.627  1.00  0.00     0.168 C 
HETATM   31  O4  UNL     1      12.617  70.378  11.484  1.00  0.00    -0.391 OA
HETATM   32  C17 UNL     1      13.740  70.077  12.260  1.00  0.00     0.168 C 
HETATM   33  C18 UNL     1      13.917  71.232  13.218  1.00  0.00     0.031 C 
ENDBRANCH  27  28
ENDBRANCH  25  27
ENDBRANCH  18  21
ENDBRANCH  16  18
ENDBRANCH  10  14
TORSDOF 6
ENDMDL
MODEL 3
REMARK VINA RESULT: -8.291541135      1.601      2.443
REMARK  6 active torsions:
REMARK  status: ('A' for Active; 'I' for Inactive)
REMARK    1  A    between atoms: C8_10  and  C9_11 
REMARK       I    between atoms: C9_11  and  N2_13 
REMARK    2  A    between atoms: N2_13  and  C10_15 
REMARK    3  A    between atoms: C10_15  and  O3_16 
REMARK    4  A    between atoms: C10_15  and  N3_18 
REMARK    5  A    between atoms: C12_22  and  C13_23 
REMARK    6  A    between atoms: C13_23  and  C14_24 
ROOT
HETATM    1  C1  UNL     1      18.183  70.107  17.026  1.00  0.00     0.033 C 
HETATM    2  C2  UNL     1      18.922  70.792  18.149  1.00  0.00     0.067 C 
HETATM    3  C3  UNL     1      18.006  71.680  18.836  1.00  0.00     0.070 C 
HETATM    4  N1  UNL     1      17.267  72.382  19.405  1.00  0.00    -0.196 NA
HETATM    5  C4  UNL     1      19.385  69.749  19.138  1.00  0.00     0.033 C 
HETATM    6  C5  UNL     1      19.857  70.400  20.394  1.00  0.00     0.174 C 
HETATM    7  O1  UNL     1      21.246  70.465  20.349  1.00  0.00    -0.385 OA
HETATM    8  C6  UNL     1      21.738  70.830  19.121  1.00  0.00     0.126 C 
HETATM    9  C7  UNL     1      21.021  72.062  18.636  1.00  0.00     0.053 C 
HETATM   10  C8  UNL     1      20.112  71.513  17.573  1.00  0.00     0.065 C 
HETATM   11  C19 UNL     1      20.992  70.531  16.853  1.00  0.00     0.028 C 
HETATM   12  C20 UNL     1      21.562  69.763  18.056  1.00  0.00     0.016 C 
HETATM   13  C21 UNL     1      20.448  68.848  18.553  1.00  0.00     0.015 C 
ENDROOT
BRANCH  10  14
HETATM   14  C9  UNL     1      19.673  72.631  16.679  1.00  0.00     0.235 C 
HETATM   15  O2  UNL     1      20.037  72.583  15.486  1.00  0.00    -0.272 OA
HETATM   16  N2  UNL     1      18.889  73.654  17.224  1.00  0.00    -0.290 N 
ATOM     17  H2  UNL     1      18.688  73.531  18.217  1.00  0.00     0.172 HD
BRANCH  16  18
HETATM   18  C10 UNL     1      18.329  74.802  16.681  1.00  0.00     0.252 C 
BRANCH  18  19
HETATM   19  O3  UNL     1      18.922  75.917  17.047  1.00  0.00    -0.330 OA
ATOM     20  H3  UNL     1      18.969  76.576  16.365  1.00  0.00     0.221 HD
ENDBRANCH  18  19
BRANCH  18  21
HETATM   21  N3  UNL     1      17.237  74.893  15.814  1.00  0.00    -0.191 N 
HETATM   22  N4  UNL     1      16.466  75.891  15.325  1.00  0.00    -0.299 N 
HETATM   23  C11 UNL     1      15.768  75.749  14.307  1.00  0.00     0.098 C 
ATOM     24  H4  UNL     1      16.457  76.789  15.808  1.00  0.00     0.187 HD
HETATM   25  C12 UNL     1      15.814  74.424  13.638  1.00  0.00     0.111 C 
HETATM   26  S1  UNL     1      16.489  73.439  15.020  1.00  0.00    -0.016 SA
BRANCH  25  27
HETATM   27  C13 UNL     1      14.425  73.989  13.355  1.00  0.00     0.027 C 
BRANCH  27  28
HETATM   28  C14 UNL     1      14.316  72.774  12.467  1.00  0.00    -0.009 C 
HETATM   29  C15 UNL     1      13.132  72.960  11.547  1.00  0.00     0.031 C 
HETATM   30  C16 UNL     1      12.964  71.671  10.756  1.00  0.00     0.168 C 
HETATM   31  O4  UNL     1      12.721  70.639  11.632  1.00  0.00    -0.391 OA
HETATM   32  C17 UNL     1      13.885  70.365  12.355  1.00  0.00     0.168 C 
HETATM   33  C18 UNL     1      14.085  71.529  13.298  1.00  0.00     0.031 C 
ENDBRANCH  27  28
ENDBRANCH  25  27
ENDBRANCH  18  21
ENDBRANCH  16  18
ENDBRANCH  10  14
TORSDOF 6
ENDMDL
MODEL 4
REMARK VINA RESULT: -8.103406625      3.135      5.313
REMARK  6 active torsions:
REMARK  status: ('A' for Active; 'I' for Inactive)
REMARK    1  A    between atoms: C8_10  and  C9_11 
REMARK       I    between atoms: C9_11  and  N2_13 
REMARK    2  A    between atoms: N2_13  and  C10_15 
REMARK    3  A    between atoms: C10_15  and  O3_16 
REMARK    4  A    between atoms: C10_15  and  N3_18 
REMARK    5  A    between atoms: C12_22  and  C13_23 
REMARK    6  A    between atoms: C13_23  and  C14_24 
ROOT
HETATM    1  C1  UNL     1      17.507  71.911  18.724  1.00  0.00     0.033 C 
HETATM    2  C2  UNL     1      18.899  71.425  18.407  1.00  0.00     0.067 C 
HETATM    3  C3  UNL     1      19.802  72.558  18.419  1.00  0.00     0.070 C 
HETATM    4  N1  UNL     1      20.537  73.464  18.447  1.00  0.00    -0.196 NA
HETATM    5  C4  UNL     1      19.342  70.469  19.490  1.00  0.00     0.033 C 
HETATM    6  C5  UNL     1      20.803  70.195  19.372  1.00  0.00     0.174 C 
HETATM    7  O1  UNL     1      20.962  68.976  18.720  1.00  0.00    -0.385 OA
HETATM    8  C6  UNL     1      20.111  68.809  17.657  1.00  0.00     0.126 C 
HETATM    9  C7  UNL     1      20.167  70.024  16.769  1.00  0.00     0.053 C 
HETATM   10  C8  UNL     1      18.870  70.716  17.079  1.00  0.00     0.065 C 
HETATM   11  C19 UNL     1      17.890  69.578  17.141  1.00  0.00     0.028 C 
HETATM   12  C20 UNL     1      18.661  68.621  18.064  1.00  0.00     0.016 C 
HETATM   13  C21 UNL     1      18.539  69.188  19.474  1.00  0.00     0.015 C 
ENDROOT
BRANCH  10  14
HETATM   14  C9  UNL     1      18.550  71.672  15.974  1.00  0.00     0.235 C 
HETATM   15  O2  UNL     1      19.480  72.395  15.558  1.00  0.00    -0.272 OA
HETATM   16  N2  UNL     1      17.244  71.702  15.472  1.00  0.00    -0.290 N 
ATOM     17  H2  UNL     1      16.615  71.043  15.931  1.00  0.00     0.172 HD
BRANCH  16  18
HETATM   18  C10 UNL     1      16.635  72.449  14.474  1.00  0.00     0.252 C 
BRANCH  18  19
HETATM   19  O3  UNL     1      16.266  71.749  13.424  1.00  0.00    -0.330 OA
ATOM     20  H3  UNL     1      15.350  71.848  13.192  1.00  0.00     0.221 HD
ENDBRANCH  18  19
BRANCH  18  21
HETATM   21  N3  UNL     1      16.383  73.824  14.469  1.00  0.00    -0.191 N 
HETATM   22  N4  UNL     1      15.721  74.687  13.664  1.00  0.00    -0.299 N 
HETATM   23  C11 UNL     1      15.358  75.808  14.055  1.00  0.00     0.098 C 
ATOM     24  H4  UNL     1      15.512  74.406  12.706  1.00  0.00     0.187 HD
HETATM   25  C12 UNL     1      15.683  76.171  15.458  1.00  0.00     0.111 C 
HETATM   26  S1  UNL     1      16.996  74.941  15.765  1.00  0.00    -0.016 SA
BRANCH  25  27
HETATM   27  C13 UNL     1      16.270  77.532  15.470  1.00  0.00     0.027 C 
BRANCH  27  28
HETATM   28  C14 UNL     1      15.805  78.407  16.608  1.00  0.00    -0.009 C 
HETATM   29  C15 UNL     1      15.688  79.826  16.102  1.00  0.00     0.031 C 
HETATM   30  C16 UNL     1      15.346  80.707  17.296  1.00  0.00     0.168 C 
HETATM   31  O4  UNL     1      16.362  80.620  18.219  1.00  0.00    -0.391 OA
HETATM   32  C17 UNL     1      16.344  79.350  18.804  1.00  0.00     0.168 C 
HETATM   33  C18 UNL     1      16.811  78.385  17.740  1.00  0.00     0.031 C 
ENDBRANCH  27  28
ENDBRANCH  25  27
ENDBRANCH  18  21
ENDBRANCH  16  18
ENDBRANCH  10  14
TORSDOF 6
ENDMDL
MODEL 5
REMARK VINA RESULT: -8.102779648      1.451      2.396
REMARK  6 active torsions:
REMARK  status: ('A' for Active; 'I' for Inactive)
REMARK    1  A    between atoms: C8_10  and  C9_11 
REMARK       I    between atoms: C9_11  and  N2_13 
REMARK    2  A    between atoms: N2_13  and  C10_15 
REMARK    3  A    between atoms: C10_15  and  O3_16 
REMARK    4  A    between atoms: C10_15  and  N3_18 
REMARK    5  A    between atoms: C12_22  and  C13_23 
REMARK    6  A    between atoms: C13_23  and  C14_24 
ROOT
HETATM    1  C1  UNL     1      20.302  71.479  16.362  1.00  0.00     0.033 C 
HETATM    2  C2  UNL     1      19.687  70.865  17.595  1.00  0.00     0.067 C 
HETATM    3  C3  UNL     1      18.438  70.229  17.226  1.00  0.00     0.070 C 
HETATM    4  N1  UNL     1      17.441  69.700  16.930  1.00  0.00    -0.196 NA
HETATM    5  C4  UNL     1      20.612  69.793  18.122  1.00  0.00     0.033 C 
HETATM    6  C5  UNL     1      19.919  68.971  19.154  1.00  0.00     0.174 C 
HETATM    7  O1  UNL     1      20.311  69.432  20.407  1.00  0.00    -0.385 OA
HETATM    8  C6  UNL     1      20.366  70.800  20.495  1.00  0.00     0.126 C 
HETATM    9  C7  UNL     1      19.087  71.392  19.965  1.00  0.00     0.053 C 
HETATM   10  C8  UNL     1      19.510  71.942  18.632  1.00  0.00     0.065 C 
HETATM   11  C19 UNL     1      20.841  72.569  18.935  1.00  0.00     0.028 C 
HETATM   12  C20 UNL     1      21.505  71.414  19.701  1.00  0.00     0.016 C 
HETATM   13  C21 UNL     1      21.901  70.374  18.657  1.00  0.00     0.015 C 
ENDROOT
BRANCH  10  14
HETATM   14  C9  UNL     1      18.504  72.954  18.179  1.00  0.00     0.235 C 
HETATM   15  O2  UNL     1      17.356  72.873  18.666  1.00  0.00    -0.272 OA
HETATM   16  N2  UNL     1      18.900  73.921  17.250  1.00  0.00    -0.290 N 
ATOM     17  H2  UNL     1      19.874  73.835  16.959  1.00  0.00     0.172 HD
BRANCH  16  18
HETATM   18  C10 UNL     1      18.230  74.975  16.644  1.00  0.00     0.252 C 
BRANCH  18  19
HETATM   19  O3  UNL     1      18.686  76.164  16.972  1.00  0.00    -0.330 OA
ATOM     20  H3  UNL     1      18.034  76.854  16.940  1.00  0.00     0.221 HD
ENDBRANCH  18  19
BRANCH  18  21
HETATM   21  N3  UNL     1      17.157  74.906  15.751  1.00  0.00    -0.191 N 
HETATM   22  N4  UNL     1      16.407  75.797  15.064  1.00  0.00    -0.299 N 
HETATM   23  C11 UNL     1      15.729  75.468  14.076  1.00  0.00     0.098 C 
ATOM     24  H4  UNL     1      16.397  76.771  15.367  1.00  0.00     0.187 HD
HETATM   25  C12 UNL     1      15.776  74.040  13.673  1.00  0.00     0.111 C 
HETATM   26  S1  UNL     1      16.411  73.332  15.232  1.00  0.00    -0.016 SA
BRANCH  25  27
HETATM   27  C13 UNL     1      14.388  73.567  13.447  1.00  0.00     0.027 C 
BRANCH  27  28
HETATM   28  C14 UNL     1      14.268  72.409  12.488  1.00  0.00    -0.009 C 
HETATM   29  C15 UNL     1      13.158  72.713  11.510  1.00  0.00     0.031 C 
HETATM   30  C16 UNL     1      12.968  71.478  10.639  1.00  0.00     0.168 C 
HETATM   31  O4  UNL     1      12.611  70.419  11.440  1.00  0.00    -0.391 OA
HETATM   32  C17 UNL     1      13.710  70.039  12.216  1.00  0.00     0.168 C 
HETATM   33  C18 UNL     1      13.914  71.138  13.232  1.00  0.00     0.031 C 
ENDBRANCH  27  28
ENDBRANCH  25  27
ENDBRANCH  18  21
ENDBRANCH  16  18
ENDBRANCH  10  14
TORSDOF 6
ENDMDL
