MODEL 1
REMARK VINA RESULT: -6.949718507      0.000      0.000
REMARK  6 active torsions:
REMARK  status: ('A' for Active; 'I' for Inactive)
REMARK    1  A    between atoms: C9_11  and  O3_12 
REMARK    2  A    between atoms: C18_22  and  C19_23 
REMARK    3  A    between atoms: C19_23  and  O4_24 
REMARK    4  A    between atoms: O4_24  and  C20_25 
REMARK    5  A    between atoms: C20_25  and  C21_27 
REMARK    6  A    between atoms: C24_30  and  O6_31 
ROOT
HETATM    1  C1  UNL     1      24.810  70.781  19.188  1.00  0.00     0.025 C 
HETATM    2  C2  UNL     1      23.720  70.949  18.473  1.00  0.00     0.010 C 
HETATM    3  C3  UNL     1      22.443  71.484  18.923  1.00  0.00     0.194 C 
HETATM    4  O1  UNL     1      22.296  72.186  19.959  1.00  0.00    -0.289 OA
HETATM    5  C4  UNL     1      21.469  71.011  17.909  1.00  0.00     0.156 C 
HETATM    6  O2  UNL     1      22.241  70.871  16.715  1.00  0.00    -0.359 OA
HETATM    7  C5  UNL     1      23.540  70.637  17.049  1.00  0.00     0.155 C 
HETATM    8  C6  UNL     1      24.080  69.298  16.638  1.00  0.00     0.045 C 
HETATM    9  C7  UNL     1      20.939  69.658  18.122  1.00  0.00     0.037 C 
HETATM   10  C8  UNL     1      20.364  69.103  16.809  1.00  0.00     0.040 C 
HETATM   11  C9  UNL     1      18.848  69.124  16.782  1.00  0.00     0.123 C 
HETATM   12  C10 UNL     1      18.251  69.188  18.131  1.00  0.00     0.019 C 
HETATM   13  C11 UNL     1      19.152  68.211  18.932  1.00  0.00     0.012 C 
HETATM   14  C12 UNL     1      20.235  69.252  19.322  1.00  0.00    -0.006 C 
HETATM   15  C13 UNL     1      19.331  70.172  20.041  1.00  0.00     0.011 C 
HETATM   16  C14 UNL     1      18.244  70.357  18.981  1.00  0.00     0.001 C 
HETATM   17  C15 UNL     1      18.214  71.754  18.494  1.00  0.00    -0.035 C 
HETATM   18  C16 UNL     1      17.283  71.906  17.319  1.00  0.00     0.016 C 
HETATM   19  C17 UNL     1      17.486  72.556  19.626  1.00  0.00     0.016 C 
HETATM   20  C18 UNL     1      19.482  72.513  18.402  1.00  0.00     0.050 C 
HETATM   21  C24 UNL     1      20.543  72.127  17.492  1.00  0.00     0.170 C 
ENDROOT
BRANCH  21  22
HETATM   22  O6  UNL     1      20.166  72.016  16.167  1.00  0.00    -0.387 OA
HETATM   23  C25 UNL     1      20.342  73.062  15.334  1.00  0.00     0.202 C 
ENDBRANCH  21  22
BRANCH  20  24
HETATM   24  C19 UNL     1      19.122  73.952  18.062  1.00  0.00     0.186 C 
BRANCH  24  25
HETATM   25  O4  UNL     1      20.174  74.815  18.536  1.00  0.00    -0.321 OA
BRANCH  25  26
HETATM   26  C20 UNL     1      20.795  75.726  17.723  1.00  0.00     0.263 C 
HETATM   27  O5  UNL     1      20.066  76.428  16.967  1.00  0.00    -0.265 OA
BRANCH  26  28
HETATM   28  C21 UNL     1      22.266  75.936  17.678  1.00  0.00     0.085 A 
HETATM   29  C22 UNL     1      23.020  74.709  17.164  1.00  0.00     0.015 A 
HETATM   30  C23 UNL     1      22.930  75.959  16.350  1.00  0.00     0.015 A 
ENDBRANCH  26  28
ENDBRANCH  25  26
ENDBRANCH  24  25
ENDBRANCH  20  24
BRANCH  11  31
HETATM   31  O3  UNL     1      18.492  67.830  16.278  1.00  0.00    -0.395 OA
ATOM     32  H3  UNL     1      17.771  68.004  15.684  1.00  0.00     0.210 HD
ENDBRANCH  11  31
TORSDOF 6
ENDMDL
MODEL 2
REMARK VINA RESULT: -6.850343447      0.870      1.442
REMARK  6 active torsions:
REMARK  status: ('A' for Active; 'I' for Inactive)
REMARK    1  A    between atoms: C9_11  and  O3_12 
REMARK    2  A    between atoms: C18_22  and  C19_23 
REMARK    3  A    between atoms: C19_23  and  O4_24 
REMARK    4  A    between atoms: O4_24  and  C20_25 
REMARK    5  A    between atoms: C20_25  and  C21_27 
REMARK    6  A    between atoms: C24_30  and  O6_31 
ROOT
HETATM    1  C1  UNL     1      24.893  70.736  19.199  1.00  0.00     0.025 C 
HETATM    2  C2  UNL     1      23.797  70.917  18.496  1.00  0.00     0.010 C 
HETATM    3  C3  UNL     1      22.522  71.440  18.966  1.00  0.00     0.194 C 
HETATM    4  O1  UNL     1      22.382  72.121  20.018  1.00  0.00    -0.289 OA
HETATM    5  C4  UNL     1      21.541  70.986  17.951  1.00  0.00     0.156 C 
HETATM    6  O2  UNL     1      22.305  70.872  16.748  1.00  0.00    -0.359 OA
HETATM    7  C5  UNL     1      23.606  70.633  17.068  1.00  0.00     0.155 C 
HETATM    8  C6  UNL     1      24.146  69.304  16.626  1.00  0.00     0.045 C 
HETATM    9  C7  UNL     1      21.015  69.628  18.141  1.00  0.00     0.037 C 
HETATM   10  C8  UNL     1      20.432  69.099  16.821  1.00  0.00     0.040 C 
HETATM   11  C9  UNL     1      18.916  69.117  16.805  1.00  0.00     0.123 C 
HETATM   12  C10 UNL     1      18.328  69.153  18.160  1.00  0.00     0.019 C 
HETATM   13  C11 UNL     1      19.237  68.162  18.935  1.00  0.00     0.012 C 
HETATM   14  C12 UNL     1      20.321  69.196  19.337  1.00  0.00    -0.006 C 
HETATM   15  C13 UNL     1      19.421  70.100  20.081  1.00  0.00     0.011 C 
HETATM   16  C14 UNL     1      18.326  70.304  19.033  1.00  0.00     0.001 C 
HETATM   17  C15 UNL     1      18.290  71.711  18.575  1.00  0.00    -0.035 C 
HETATM   18  C16 UNL     1      17.349  71.885  17.410  1.00  0.00     0.016 C 
HETATM   19  C17 UNL     1      17.568  72.488  19.729  1.00  0.00     0.016 C 
HETATM   20  C18 UNL     1      19.556  72.474  18.489  1.00  0.00     0.050 C 
HETATM   21  C24 UNL     1      20.611  72.108  17.563  1.00  0.00     0.170 C 
ENDROOT
BRANCH  21  22
HETATM   22  O6  UNL     1      20.224  72.023  16.239  1.00  0.00    -0.387 OA
HETATM   23  C25 UNL     1      20.460  73.059  15.408  1.00  0.00     0.202 C 
ENDBRANCH  21  22
BRANCH  20  24
HETATM   24  C19 UNL     1      19.191  73.919  18.181  1.00  0.00     0.186 C 
BRANCH  24  25
HETATM   25  O4  UNL     1      20.329  74.753  18.468  1.00  0.00    -0.321 OA
BRANCH  25  26
HETATM   26  C20 UNL     1      20.433  76.036  17.998  1.00  0.00     0.263 C 
HETATM   27  O5  UNL     1      20.710  76.190  16.776  1.00  0.00    -0.265 OA
BRANCH  26  28
HETATM   28  C21 UNL     1      20.241  77.249  18.837  1.00  0.00     0.085 A 
HETATM   29  C22 UNL     1      18.776  77.486  19.201  1.00  0.00     0.015 A 
HETATM   30  C23 UNL     1      19.773  77.068  20.234  1.00  0.00     0.015 A 
ENDBRANCH  26  28
ENDBRANCH  25  26
ENDBRANCH  24  25
ENDBRANCH  20  24
BRANCH  11  31
HETATM   31  O3  UNL     1      18.558  67.833  16.278  1.00  0.00    -0.395 OA
ATOM     32  H3  UNL     1      17.653  67.938  16.010  1.00  0.00     0.210 HD
ENDBRANCH  11  31
TORSDOF 6
ENDMDL
MODEL 3
REMARK VINA RESULT: -6.674479371      2.224      4.530
REMARK  6 active torsions:
REMARK  status: ('A' for Active; 'I' for Inactive)
REMARK    1  A    between atoms: C9_11  and  O3_12 
REMARK    2  A    between atoms: C18_22  and  C19_23 
REMARK    3  A    between atoms: C19_23  and  O4_24 
REMARK    4  A    between atoms: O4_24  and  C20_25 
REMARK    5  A    between atoms: C20_25  and  C21_27 
REMARK    6  A    between atoms: C24_30  and  O6_31 
ROOT
HETATM    1  C1  UNL     1      20.496  76.964  20.284  1.00  0.00     0.025 C 
HETATM    2  C2  UNL     1      20.685  75.948  19.470  1.00  0.00     0.010 C 
HETATM    3  C3  UNL     1      19.796  74.816  19.250  1.00  0.00     0.194 C 
HETATM    4  O1  UNL     1      18.569  74.815  19.535  1.00  0.00    -0.289 OA
HETATM    5  C4  UNL     1      20.669  73.775  18.654  1.00  0.00     0.156 C 
HETATM    6  O2  UNL     1      21.693  74.513  17.985  1.00  0.00    -0.359 OA
HETATM    7  C5  UNL     1      21.840  75.723  18.593  1.00  0.00     0.155 C 
HETATM    8  C6  UNL     1      23.170  75.957  19.249  1.00  0.00     0.045 C 
HETATM    9  C7  UNL     1      21.422  72.954  19.611  1.00  0.00     0.037 C 
HETATM   10  C8  UNL     1      22.617  72.289  18.910  1.00  0.00     0.040 C 
HETATM   11  C9  UNL     1      22.385  70.816  18.634  1.00  0.00     0.123 C 
HETATM   12  C10 UNL     1      21.338  70.229  19.495  1.00  0.00     0.019 C 
HETATM   13  C11 UNL     1      21.646  70.880  20.870  1.00  0.00     0.012 C 
HETATM   14  C12 UNL     1      20.799  72.161  20.652  1.00  0.00    -0.006 C 
HETATM   15  C13 UNL     1      19.510  71.475  20.438  1.00  0.00     0.011 C 
HETATM   16  C14 UNL     1      19.920  70.471  19.359  1.00  0.00     0.001 C 
HETATM   17  C15 UNL     1      19.231  70.760  18.081  1.00  0.00    -0.035 C 
HETATM   18  C16 UNL     1      19.767  69.902  16.964  1.00  0.00     0.016 C 
HETATM   19  C17 UNL     1      17.777  70.212  18.279  1.00  0.00     0.016 C 
HETATM   20  C18 UNL     1      18.941  72.166  17.720  1.00  0.00     0.050 C 
HETATM   21  C24 UNL     1      19.998  73.127  17.469  1.00  0.00     0.170 C 
ENDROOT
BRANCH  21  22
HETATM   22  O6  UNL     1      20.911  72.753  16.500  1.00  0.00    -0.387 OA
HETATM   23  C25 UNL     1      20.763  73.201  15.236  1.00  0.00     0.202 C 
ENDBRANCH  21  22
BRANCH  20  24
HETATM   24  C19 UNL     1      18.072  72.140  16.471  1.00  0.00     0.186 C 
BRANCH  24  25
HETATM   25  O4  UNL     1      17.022  73.114  16.619  1.00  0.00    -0.321 OA
BRANCH  25  26
HETATM   26  C20 UNL     1      16.916  74.207  15.799  1.00  0.00     0.263 C 
HETATM   27  O5  UNL     1      17.812  75.092  15.886  1.00  0.00    -0.265 OA
BRANCH  26  28
HETATM   28  C21 UNL     1      15.816  74.409  14.819  1.00  0.00     0.085 A 
HETATM   29  C22 UNL     1      14.637  75.182  15.409  1.00  0.00     0.015 A 
HETATM   30  C23 UNL     1      15.522  75.793  14.371  1.00  0.00     0.015 A 
ENDBRANCH  26  28
ENDBRANCH  25  26
ENDBRANCH  24  25
ENDBRANCH  20  24
BRANCH  11  31
HETATM   31  O3  UNL     1      23.604  70.188  19.050  1.00  0.00    -0.395 OA
ATOM     32  H3  UNL     1      23.459  69.266  18.876  1.00  0.00     0.210 HD
ENDBRANCH  11  31
TORSDOF 6
ENDMDL
MODEL 4
REMARK VINA RESULT: -6.671971445      2.037      3.631
REMARK  6 active torsions:
REMARK  status: ('A' for Active; 'I' for Inactive)
REMARK    1  A    between atoms: C9_11  and  O3_12 
REMARK    2  A    between atoms: C18_22  and  C19_23 
REMARK    3  A    between atoms: C19_23  and  O4_24 
REMARK    4  A    between atoms: O4_24  and  C20_25 
REMARK    5  A    between atoms: C20_25  and  C21_27 
REMARK    6  A    between atoms: C24_30  and  O6_31 
ROOT
HETATM    1  C1  UNL     1      25.136  72.597  16.987  1.00  0.00     0.025 C 
HETATM    2  C2  UNL     1      24.146  71.773  17.254  1.00  0.00     0.010 C 
HETATM    3  C3  UNL     1      22.756  72.118  17.516  1.00  0.00     0.194 C 
HETATM    4  O1  UNL     1      22.224  73.211  17.184  1.00  0.00    -0.289 OA
HETATM    5  C4  UNL     1      22.208  70.931  18.215  1.00  0.00     0.156 C 
HETATM    6  O2  UNL     1      22.997  69.841  17.731  1.00  0.00    -0.359 OA
HETATM    7  C5  UNL     1      24.216  70.310  17.347  1.00  0.00     0.155 C 
HETATM    8  C6  UNL     1      25.383  69.796  18.140  1.00  0.00     0.045 C 
HETATM    9  C7  UNL     1      22.436  70.887  19.665  1.00  0.00     0.037 C 
HETATM   10  C8  UNL     1      22.286  69.446  20.180  1.00  0.00     0.040 C 
HETATM   11  C9  UNL     1      20.976  69.221  20.909  1.00  0.00     0.123 C 
HETATM   12  C10 UNL     1      20.369  70.476  21.399  1.00  0.00     0.019 C 
HETATM   13  C11 UNL     1      21.606  71.250  21.928  1.00  0.00     0.012 C 
HETATM   14  C12 UNL     1      21.985  71.917  20.579  1.00  0.00    -0.006 C 
HETATM   15  C13 UNL     1      20.706  72.627  20.379  1.00  0.00     0.011 C 
HETATM   16  C14 UNL     1      19.727  71.467  20.567  1.00  0.00     0.001 C 
HETATM   17  C15 UNL     1      19.009  71.174  19.306  1.00  0.00    -0.035 C 
HETATM   18  C16 UNL     1      18.185  69.917  19.424  1.00  0.00     0.016 C 
HETATM   19  C17 UNL     1      17.922  72.298  19.195  1.00  0.00     0.016 C 
HETATM   20  C18 UNL     1      19.713  71.354  18.016  1.00  0.00     0.050 C 
HETATM   21  C24 UNL     1      20.862  70.549  17.651  1.00  0.00     0.170 C 
ENDROOT
BRANCH  21  22
HETATM   22  O6  UNL     1      20.656  69.183  17.688  1.00  0.00    -0.387 OA
HETATM   23  C25 UNL     1      20.096  68.564  16.629  1.00  0.00     0.202 C 
ENDBRANCH  21  22
BRANCH  20  24
HETATM   24  C19 UNL     1      18.683  71.167  16.911  1.00  0.00     0.186 C 
BRANCH  24  25
HETATM   25  O4  UNL     1      19.045  72.005  15.797  1.00  0.00    -0.321 OA
BRANCH  25  26
HETATM   26  C20 UNL     1      18.507  73.252  15.615  1.00  0.00     0.263 C 
HETATM   27  O5  UNL     1      19.236  74.248  15.879  1.00  0.00    -0.265 OA
BRANCH  26  28
HETATM   28  C21 UNL     1      17.124  73.499  15.127  1.00  0.00     0.085 A 
HETATM   29  C22 UNL     1      16.161  73.875  16.254  1.00  0.00     0.015 A 
HETATM   30  C23 UNL     1      16.581  74.877  15.227  1.00  0.00     0.015 A 
ENDBRANCH  26  28
ENDBRANCH  25  26
ENDBRANCH  24  25
ENDBRANCH  20  24
BRANCH  11  31
HETATM   31  O3  UNL     1      21.355  68.504  22.091  1.00  0.00    -0.395 OA
ATOM     32  H3  UNL     1      20.539  68.394  22.565  1.00  0.00     0.210 HD
ENDBRANCH  11  31
TORSDOF 6
ENDMDL
MODEL 5
REMARK VINA RESULT: -6.626523325      2.210      3.833
REMARK  6 active torsions:
REMARK  status: ('A' for Active; 'I' for Inactive)
REMARK    1  A    between atoms: C9_11  and  O3_12 
REMARK    2  A    between atoms: C18_22  and  C19_23 
REMARK    3  A    between atoms: C19_23  and  O4_24 
REMARK    4  A    between atoms: O4_24  and  C20_25 
REMARK    5  A    between atoms: C20_25  and  C21_27 
REMARK    6  A    between atoms: C24_30  and  O6_31 
ROOT
HETATM    1  C1  UNL     1      24.180  69.259  16.255  1.00  0.00     0.025 C 
HETATM    2  C2  UNL     1      22.997  69.292  16.830  1.00  0.00     0.010 C 
HETATM    3  C3  UNL     1      22.197  70.469  17.136  1.00  0.00     0.194 C 
HETATM    4  O1  UNL     1      22.352  71.592  16.586  1.00  0.00    -0.289 OA
HETATM    5  C4  UNL     1      21.244  70.005  18.174  1.00  0.00     0.156 C 
HETATM    6  O2  UNL     1      21.089  68.609  17.913  1.00  0.00    -0.359 OA
HETATM    7  C5  UNL     1      22.209  68.144  17.295  1.00  0.00     0.155 C 
HETATM    8  C6  UNL     1      22.997  67.127  18.069  1.00  0.00     0.045 C 
HETATM    9  C7  UNL     1      21.748  70.031  19.554  1.00  0.00     0.037 C 
HETATM   10  C8  UNL     1      20.908  69.099  20.440  1.00  0.00     0.040 C 
HETATM   11  C9  UNL     1      19.946  69.855  21.335  1.00  0.00     0.123 C 
HETATM   12  C10 UNL     1      20.340  71.264  21.539  1.00  0.00     0.019 C 
HETATM   13  C11 UNL     1      21.878  71.149  21.716  1.00  0.00     0.012 C 
HETATM   14  C12 UNL     1      22.234  71.230  20.208  1.00  0.00    -0.006 C 
HETATM   15  C13 UNL     1      21.621  72.551  19.962  1.00  0.00     0.011 C 
HETATM   16  C14 UNL     1      20.229  72.309  20.548  1.00  0.00     0.001 C 
HETATM   17  C15 UNL     1      19.195  72.362  19.490  1.00  0.00    -0.035 C 
HETATM   18  C16 UNL     1      17.848  71.939  20.017  1.00  0.00     0.016 C 
HETATM   19  C17 UNL     1      18.996  73.889  19.202  1.00  0.00     0.016 C 
HETATM   20  C18 UNL     1      19.527  71.875  18.132  1.00  0.00     0.050 C 
HETATM   21  C24 UNL     1      19.846  70.484  17.872  1.00  0.00     0.170 C 
ENDROOT
BRANCH  21  22
HETATM   22  O6  UNL     1      18.889  69.577  18.288  1.00  0.00    -0.387 OA
HETATM   23  C25 UNL     1      18.146  68.924  17.370  1.00  0.00     0.202 C 
ENDBRANCH  21  22
BRANCH  20  24
HETATM   24  C19 UNL     1      18.355  72.227  17.227  1.00  0.00     0.186 C 
BRANCH  24  25
HETATM   25  O4  UNL     1      18.788  73.218  16.277  1.00  0.00    -0.321 OA
BRANCH  25  26
HETATM   26  C20 UNL     1      17.984  74.256  15.885  1.00  0.00     0.263 C 
HETATM   27  O5  UNL     1      18.312  75.419  16.252  1.00  0.00    -0.265 OA
BRANCH  26  28
HETATM   28  C21 UNL     1      16.757  74.095  15.061  1.00  0.00     0.085 A 
HETATM   29  C22 UNL     1      15.475  74.252  15.877  1.00  0.00     0.015 A 
HETATM   30  C23 UNL     1      15.881  75.278  14.869  1.00  0.00     0.015 A 
ENDBRANCH  26  28
ENDBRANCH  25  26
ENDBRANCH  24  25
ENDBRANCH  20  24
BRANCH  11  31
HETATM   31  O3  UNL     1      20.103  69.235  22.617  1.00  0.00    -0.395 OA
ATOM     32  H3  UNL     1      20.986  68.884  22.597  1.00  0.00     0.210 HD
ENDBRANCH  11  31
TORSDOF 6
ENDMDL
