MODEL 1
REMARK VINA RESULT: -4.836318733      0.000      0.000
REMARK  2 active torsions:
REMARK  status: ('A' for Active; 'I' for Inactive)
REMARK    1  A    between atoms: C2_3  and  C3_4 
REMARK    2  A    between atoms: C3_4  and  N2_5 
ROOT
HETATM    1  N1  UNL     1     -20.910 -10.872  -0.285  1.00  0.00    -0.197 NA
HETATM    2  C1  UNL     1     -21.784 -10.546   0.396  1.00  0.00     0.060 C 
HETATM    3  C2  UNL     1     -22.891 -10.107   1.260  1.00  0.00     0.145 C 
ENDROOT
BRANCH   3   4
HETATM    4  C3  UNL     1     -24.128 -10.822   0.830  1.00  0.00     0.162 C 
BRANCH   4   5
HETATM    5  N2  UNL     1     -25.274  -9.898   0.702  1.00  0.00    -0.295 N 
HETATM    6  C4  UNL     1     -25.152  -8.596   0.887  1.00  0.00     0.138 A 
HETATM    7  C5  UNL     1     -26.291  -7.848   0.738  1.00  0.00     0.086 A 
HETATM    8 BR1  UNL     1     -26.477  -5.935   0.931  1.00  0.00    -0.040 Br
HETATM    9  S1  UNL     1     -27.448  -9.033   0.349  1.00  0.00     0.011 SA
HETATM   10  N3  UNL     1     -26.445 -10.376   0.396  1.00  0.00    -0.267 N 
ATOM     11  H3  UNL     1     -26.696 -11.350   0.224  1.00  0.00     0.196 HD
ENDBRANCH   4   5
ENDBRANCH   3   4
TORSDOF 2
ENDMDL
MODEL 2
REMARK VINA RESULT: -4.749041137      1.031      1.127
REMARK  2 active torsions:
REMARK  status: ('A' for Active; 'I' for Inactive)
REMARK    1  A    between atoms: C2_3  and  C3_4 
REMARK    2  A    between atoms: C3_4  and  N2_5 
ROOT
HETATM    1  N1  UNL     1     -20.933 -10.841  -0.286  1.00  0.00    -0.197 NA
HETATM    2  C1  UNL     1     -21.901 -10.675   0.321  1.00  0.00     0.060 C 
HETATM    3  C2  UNL     1     -23.124 -10.471   1.114  1.00  0.00     0.145 C 
ENDROOT
BRANCH   3   4
HETATM    4  C3  UNL     1     -23.676  -9.126   0.778  1.00  0.00     0.162 C 
BRANCH   4   5
HETATM    5  N2  UNL     1     -25.150  -9.153   0.680  1.00  0.00    -0.295 N 
HETATM    6  C4  UNL     1     -25.870  -8.048   0.598  1.00  0.00     0.138 A 
HETATM    7  C5  UNL     1     -27.229  -8.210   0.511  1.00  0.00     0.086 A 
HETATM    8 BR1  UNL     1     -28.571  -6.828   0.378  1.00  0.00    -0.040 Br
HETATM    9  S1  UNL     1     -27.391  -9.903   0.552  1.00  0.00     0.011 SA
HETATM   10  N3  UNL     1     -25.766 -10.299   0.674  1.00  0.00    -0.267 N 
ATOM     11  H3  UNL     1     -25.353 -11.230   0.729  1.00  0.00     0.196 HD
ENDBRANCH   4   5
ENDBRANCH   3   4
TORSDOF 2
ENDMDL
MODEL 3
REMARK VINA RESULT: -4.733848647      1.725      2.038
REMARK  2 active torsions:
REMARK  status: ('A' for Active; 'I' for Inactive)
REMARK    1  A    between atoms: C2_3  and  C3_4 
REMARK    2  A    between atoms: C3_4  and  N2_5 
ROOT
HETATM    1  N1  UNL     1     -23.145 -12.743  -1.835  1.00  0.00    -0.197 NA
HETATM    2  C1  UNL     1     -22.502 -11.975  -1.261  1.00  0.00     0.060 C 
HETATM    3  C2  UNL     1     -21.684 -10.981  -0.547  1.00  0.00     0.145 C 
ENDROOT
BRANCH   3   4
HETATM    4  C3  UNL     1     -22.245 -10.817   0.826  1.00  0.00     0.162 C 
BRANCH   4   5
HETATM    5  N2  UNL     1     -23.566 -10.156   0.798  1.00  0.00    -0.295 N 
HETATM    6  C4  UNL     1     -23.704  -8.869   0.531  1.00  0.00     0.138 A 
HETATM    7  C5  UNL     1     -24.983  -8.378   0.535  1.00  0.00     0.086 A 
HETATM    8 BR1  UNL     1     -25.548  -6.563   0.189  1.00  0.00    -0.040 Br
HETATM    9  S1  UNL     1     -25.897  -9.762   0.913  1.00  0.00     0.011 SA
HETATM   10  N3  UNL     1     -24.634 -10.858   1.042  1.00  0.00    -0.267 N 
ATOM     11  H3  UNL     1     -24.691 -11.853   1.261  1.00  0.00     0.196 HD
ENDBRANCH   4   5
ENDBRANCH   3   4
TORSDOF 2
ENDMDL
MODEL 4
REMARK VINA RESULT: -4.593583481      3.361      4.206
REMARK  2 active torsions:
REMARK  status: ('A' for Active; 'I' for Inactive)
REMARK    1  A    between atoms: C2_3  and  C3_4 
REMARK    2  A    between atoms: C3_4  and  N2_5 
ROOT
HETATM    1  N1  UNL     1     -23.197 -11.866  -4.575  1.00  0.00    -0.197 NA
HETATM    2  C1  UNL     1     -23.345 -12.279  -3.506  1.00  0.00     0.060 C 
HETATM    3  C2  UNL     1     -23.541 -12.826  -2.154  1.00  0.00     0.145 C 
ENDROOT
BRANCH   3   4
HETATM    4  C3  UNL     1     -22.295 -12.582  -1.370  1.00  0.00     0.162 C 
BRANCH   4   5
HETATM    5  N2  UNL     1     -22.391 -11.347  -0.565  1.00  0.00    -0.295 N 
HETATM    6  C4  UNL     1     -23.551 -10.851  -0.173  1.00  0.00     0.138 A 
HETATM    7  C5  UNL     1     -23.504  -9.700   0.569  1.00  0.00     0.086 A 
HETATM    8 BR1  UNL     1     -24.992  -8.711   1.302  1.00  0.00    -0.040 Br
HETATM    9  S1  UNL     1     -21.832  -9.402   0.660  1.00  0.00     0.011 SA
HETATM   10  N3  UNL     1     -21.301 -10.722  -0.226  1.00  0.00    -0.267 N 
ATOM     11  H3  UNL     1     -20.339 -10.978  -0.450  1.00  0.00     0.196 HD
ENDBRANCH   4   5
ENDBRANCH   3   4
TORSDOF 2
ENDMDL
MODEL 5
REMARK VINA RESULT: -4.585382971      2.060      2.177
REMARK  2 active torsions:
REMARK  status: ('A' for Active; 'I' for Inactive)
REMARK    1  A    between atoms: C2_3  and  C3_4 
REMARK    2  A    between atoms: C3_4  and  N2_5 
ROOT
HETATM    1  N1  UNL     1     -20.921 -10.865  -0.254  1.00  0.00    -0.197 NA
HETATM    2  C1  UNL     1     -21.947 -10.702   0.248  1.00  0.00     0.060 C 
HETATM    3  C2  UNL     1     -23.249 -10.508   0.908  1.00  0.00     0.145 C 
ENDROOT
BRANCH   3   4
HETATM    4  C3  UNL     1     -23.573  -9.052   0.875  1.00  0.00     0.162 C 
BRANCH   4   5
HETATM    5  N2  UNL     1     -25.014  -8.820   0.644  1.00  0.00    -0.295 N 
HETATM    6  C4  UNL     1     -25.917  -9.767   0.825  1.00  0.00     0.138 A 
HETATM    7  C5  UNL     1     -27.220  -9.424   0.576  1.00  0.00     0.086 A 
HETATM    8 BR1  UNL     1     -28.783 -10.547   0.736  1.00  0.00    -0.040 Br
HETATM    9  S1  UNL     1     -27.078  -7.795   0.107  1.00  0.00     0.011 SA
HETATM   10  N3  UNL     1     -25.414  -7.646   0.250  1.00  0.00    -0.267 N 
ATOM     11  H3  UNL     1     -24.843  -6.820   0.069  1.00  0.00     0.196 HD
ENDBRANCH   4   5
ENDBRANCH   3   4
TORSDOF 2
ENDMDL
