MODEL 1
REMARK VINA RESULT: -4.393618607      0.000      0.000
REMARK  4 active torsions:
REMARK  status: ('A' for Active; 'I' for Inactive)
REMARK    1  A    between atoms: C2_2  and  N1_3 
REMARK    2  A    between atoms: C2_2  and  C3_7 
REMARK    3  A    between atoms: N1_3  and  N2_4 
REMARK    4  A    between atoms: C3_7  and  C4_9 
ROOT
HETATM    1  C3  UNL     1     -28.035  -9.183   0.008  1.00  0.00     0.171 C 
HETATM    2 BR1  UNL     1     -28.970 -10.451   1.171  1.00  0.00    -0.077 Br
ENDROOT
BRANCH   1   3
HETATM    3  C2  UNL     1     -28.252  -9.546  -1.395  1.00  0.00     0.102 C 
HETATM    4  C1  UNL     1     -28.967  -8.631  -2.307  1.00  0.00     0.084 C 
BRANCH   3   5
HETATM    5  N1  UNL     1     -27.833 -10.631  -1.828  1.00  0.00    -0.341 NA
BRANCH   5   6
HETATM    6  N2  UNL     1     -27.504 -11.722  -2.346  1.00  0.00    -0.280 N 
ATOM      7  H22 UNL     1     -27.797 -11.236  -3.193  1.00  0.00     0.191 HD
ATOM      8  H21 UNL     1     -27.212 -12.642  -2.675  1.00  0.00     0.191 HD
ENDBRANCH   5   6
ENDBRANCH   3   5
ENDBRANCH   1   3
BRANCH   1   9
HETATM    9  C4  UNL     1     -26.612  -9.257   0.409  1.00  0.00     0.054 A 
HETATM   10  C5  UNL     1     -25.741  -8.227   0.668  1.00  0.00     0.169 A 
HETATM   11  O1  UNL     1     -24.592  -8.782   0.985  1.00  0.00    -0.316 OA
HETATM   12  C6  UNL     1     -24.667 -10.073   0.948  1.00  0.00     0.233 A 
HETATM   13  N3  UNL     1     -25.932 -10.397   0.587  1.00  0.00    -0.347 N 
ATOM     14  H3  UNL     1     -26.301 -11.341   0.472  1.00  0.00     0.167 HD
ENDBRANCH   1   9
TORSDOF 4
ENDMDL
MODEL 2
REMARK VINA RESULT: -4.282814110      4.491      5.259
REMARK  4 active torsions:
REMARK  status: ('A' for Active; 'I' for Inactive)
REMARK    1  A    between atoms: C2_2  and  N1_3 
REMARK    2  A    between atoms: C2_2  and  C3_7 
REMARK    3  A    between atoms: N1_3  and  N2_4 
REMARK    4  A    between atoms: C3_7  and  C4_9 
ROOT
HETATM    1  C3  UNL     1     -23.643 -10.107   0.977  1.00  0.00     0.171 C 
HETATM    2 BR1  UNL     1     -25.567 -10.275   0.649  1.00  0.00    -0.077 Br
ENDROOT
BRANCH   1   3
HETATM    3  C2  UNL     1     -23.233  -8.711   0.803  1.00  0.00     0.102 C 
HETATM    4  C1  UNL     1     -24.242  -7.634   0.731  1.00  0.00     0.084 C 
BRANCH   3   5
HETATM    5  N1  UNL     1     -22.030  -8.422   0.717  1.00  0.00    -0.341 NA
BRANCH   5   6
HETATM    6  N2  UNL     1     -20.829  -8.139   0.506  1.00  0.00    -0.280 N 
ATOM      7  H22 UNL     1     -21.229  -7.212   0.362  1.00  0.00     0.191 HD
ATOM      8  H21 UNL     1     -19.829  -8.006   0.352  1.00  0.00     0.191 HD
ENDBRANCH   5   6
ENDBRANCH   3   5
ENDBRANCH   1   3
BRANCH   1   9
HETATM    9  C4  UNL     1     -22.997 -11.021   0.007  1.00  0.00     0.054 A 
HETATM   10  C5  UNL     1     -23.570 -11.706  -1.036  1.00  0.00     0.169 A 
HETATM   11  O1  UNL     1     -22.603 -12.385  -1.611  1.00  0.00    -0.316 OA
HETATM   12  C6  UNL     1     -21.470 -12.185  -1.019  1.00  0.00     0.233 A 
HETATM   13  N3  UNL     1     -21.693 -11.326   0.006  1.00  0.00    -0.347 N 
ATOM     14  H3  UNL     1     -20.993 -10.975   0.659  1.00  0.00     0.167 HD
ENDBRANCH   1   9
TORSDOF 4
ENDMDL
MODEL 3
REMARK VINA RESULT: -4.258348518      4.260      5.149
REMARK  4 active torsions:
REMARK  status: ('A' for Active; 'I' for Inactive)
REMARK    1  A    between atoms: C2_2  and  N1_3 
REMARK    2  A    between atoms: C2_2  and  C3_7 
REMARK    3  A    between atoms: N1_3  and  N2_4 
REMARK    4  A    between atoms: C3_7  and  C4_9 
ROOT
HETATM    1  C3  UNL     1     -22.499 -12.005  -0.748  1.00  0.00     0.171 C 
HETATM    2 BR1  UNL     1     -20.579 -11.626  -0.685  1.00  0.00    -0.077 Br
ENDROOT
BRANCH   1   3
HETATM    3  C2  UNL     1     -22.940 -12.093  -2.143  1.00  0.00     0.102 C 
HETATM    4  C1  UNL     1     -24.105 -12.922  -2.512  1.00  0.00     0.084 C 
BRANCH   3   5
HETATM    5  N1  UNL     1     -22.334 -11.469  -3.028  1.00  0.00    -0.341 NA
BRANCH   5   6
HETATM    6  N2  UNL     1     -21.754 -10.930  -3.997  1.00  0.00    -0.280 N 
ATOM      7  H22 UNL     1     -22.191 -10.097  -3.602  1.00  0.00     0.191 HD
ATOM      8  H21 UNL     1     -21.248 -10.583  -4.812  1.00  0.00     0.191 HD
ENDBRANCH   5   6
ENDBRANCH   3   5
ENDBRANCH   1   3
BRANCH   1   9
HETATM    9  C4  UNL     1     -23.144 -10.894  -0.011  1.00  0.00     0.054 A 
HETATM   10  C5  UNL     1     -22.576  -9.736   0.461  1.00  0.00     0.169 A 
HETATM   11  O1  UNL     1     -23.540  -9.061   1.047  1.00  0.00    -0.316 OA
HETATM   12  C6  UNL     1     -24.665  -9.696   0.983  1.00  0.00     0.233 A 
HETATM   13  N3  UNL     1     -24.441 -10.856   0.320  1.00  0.00    -0.347 N 
ATOM     14  H3  UNL     1     -25.137 -11.572   0.110  1.00  0.00     0.167 HD
ENDBRANCH   1   9
TORSDOF 4
ENDMDL
MODEL 4
REMARK VINA RESULT: -4.222239234      2.253      3.830
REMARK  4 active torsions:
REMARK  status: ('A' for Active; 'I' for Inactive)
REMARK    1  A    between atoms: C2_2  and  N1_3 
REMARK    2  A    between atoms: C2_2  and  C3_7 
REMARK    3  A    between atoms: N1_3  and  N2_4 
REMARK    4  A    between atoms: C3_7  and  C4_9 
ROOT
HETATM    1  C3  UNL     1     -27.180  -8.766   0.492  1.00  0.00     0.171 C 
HETATM    2 BR1  UNL     1     -27.772  -6.911   0.279  1.00  0.00    -0.077 Br
ENDROOT
BRANCH   1   3
HETATM    3  C2  UNL     1     -25.719  -8.808   0.599  1.00  0.00     0.102 C 
HETATM    4  C1  UNL     1     -24.918  -7.577   0.450  1.00  0.00     0.084 C 
BRANCH   3   5
HETATM    5  N1  UNL     1     -25.142  -9.885   0.818  1.00  0.00    -0.341 NA
BRANCH   5   6
HETATM    6  N2  UNL     1     -24.465 -10.925   0.975  1.00  0.00    -0.280 N 
ATOM      7  H22 UNL     1     -23.801 -10.399   0.406  1.00  0.00     0.191 HD
ATOM      8  H21 UNL     1     -23.990 -11.809   1.158  1.00  0.00     0.191 HD
ENDBRANCH   5   6
ENDBRANCH   3   5
ENDBRANCH   1   3
BRANCH   1   9
HETATM    9  C4  UNL     1     -27.691  -9.481  -0.700  1.00  0.00     0.054 A 
HETATM   10  C5  UNL     1     -28.456  -8.991  -1.729  1.00  0.00     0.169 A 
HETATM   11  O1  UNL     1     -28.659  -9.996  -2.552  1.00  0.00    -0.316 OA
HETATM   12  C6  UNL     1     -28.087 -11.076  -2.127  1.00  0.00     0.233 A 
HETATM   13  N3  UNL     1     -27.468 -10.776  -0.960  1.00  0.00    -0.347 N 
ATOM     14  H3  UNL     1     -26.929 -11.421  -0.382  1.00  0.00     0.167 HD
ENDBRANCH   1   9
TORSDOF 4
ENDMDL
MODEL 5
REMARK VINA RESULT: -4.182973833      3.113      4.162
REMARK  4 active torsions:
REMARK  status: ('A' for Active; 'I' for Inactive)
REMARK    1  A    between atoms: C2_2  and  N1_3 
REMARK    2  A    between atoms: C2_2  and  C3_7 
REMARK    3  A    between atoms: N1_3  and  N2_4 
REMARK    4  A    between atoms: C3_7  and  C4_9 
ROOT
HETATM    1  C3  UNL     1     -25.294  -8.834   1.342  1.00  0.00     0.171 C 
HETATM    2 BR1  UNL     1     -26.842  -9.721   0.533  1.00  0.00    -0.077 Br
ENDROOT
BRANCH   1   3
HETATM    3  C2  UNL     1     -25.337  -7.400   1.048  1.00  0.00     0.102 C 
HETATM    4  C1  UNL     1     -25.179  -6.911  -0.336  1.00  0.00     0.084 C 
BRANCH   3   5
HETATM    5  N1  UNL     1     -25.509  -6.582   1.966  1.00  0.00    -0.341 NA
BRANCH   5   6
HETATM    6  N2  UNL     1     -25.713  -5.675   2.803  1.00  0.00    -0.280 N 
ATOM      7  H22 UNL     1     -26.104  -6.456   3.330  1.00  0.00     0.191 HD
ATOM      8  H21 UNL     1     -25.837  -4.872   3.420  1.00  0.00     0.191 HD
ENDBRANCH   5   6
ENDBRANCH   3   5
ENDBRANCH   1   3
BRANCH   1   9
HETATM    9  C4  UNL     1     -24.108  -9.505   0.763  1.00  0.00     0.054 A 
HETATM   10  C5  UNL     1     -22.828  -9.023   0.637  1.00  0.00     0.169 A 
HETATM   11  O1  UNL     1     -22.127  -9.975   0.064  1.00  0.00    -0.316 OA
HETATM   12  C6  UNL     1     -22.856 -11.016  -0.180  1.00  0.00     0.233 A 
HETATM   13  N3  UNL     1     -24.111 -10.743   0.252  1.00  0.00    -0.347 N 
ATOM     14  H3  UNL     1     -24.914 -11.370   0.199  1.00  0.00     0.167 HD
ENDBRANCH   1   9
TORSDOF 4
ENDMDL
