MODEL 1
REMARK VINA RESULT: -4.082357709      0.000      0.000
REMARK  2 active torsions:
REMARK  status: ('A' for Active; 'I' for Inactive)
REMARK    1  A    between atoms: C3_3  and  O1_4 
REMARK    2  A    between atoms: O1_4  and  C4_5 
ROOT
HETATM    1  C1  UNL     1     -22.416 -10.172   0.735  1.00  0.00     0.099 C 
HETATM    2  C2  UNL     1     -23.629 -10.190   0.880  1.00  0.00    -0.162 C 
HETATM    3  C3  UNL     1     -25.069 -10.229   1.060  1.00  0.00     0.247 C 
ENDROOT
BRANCH   3   4
HETATM    4  O1  UNL     1     -25.675  -9.221   0.295  1.00  0.00    -0.369 OA
BRANCH   4   5
HETATM    5  C4  UNL     1     -26.258  -8.339   1.161  1.00  0.00     0.196 C 
HETATM    6  C5  UNL     1     -25.584  -6.963   1.150  1.00  0.00     0.188 C 
HETATM    7  C6  UNL     1     -25.242  -6.538  -0.256  1.00  0.00     0.045 C 
HETATM    8  O2  UNL     1     -26.673  -6.189   1.617  1.00  0.00    -0.232 OA
HETATM    9  O3  UNL     1     -27.660  -6.561   0.861  1.00  0.00    -0.221 OA
HETATM   10  C7  UNL     1     -27.662  -7.939   0.784  1.00  0.00     0.263 C 
HETATM   11 BR1  UNL     1     -27.987  -8.453  -1.058  1.00  0.00    -0.055 Br
ENDBRANCH   4   5
ENDBRANCH   3   4
TORSDOF 2
ENDMDL
MODEL 2
REMARK VINA RESULT: -4.071158307      2.427      3.095
REMARK  2 active torsions:
REMARK  status: ('A' for Active; 'I' for Inactive)
REMARK    1  A    between atoms: C3_3  and  O1_4 
REMARK    2  A    between atoms: O1_4  and  C4_5 
ROOT
HETATM    1  C1  UNL     1     -24.327  -7.568   0.856  1.00  0.00     0.099 C 
HETATM    2  C2  UNL     1     -24.938  -8.625   0.919  1.00  0.00    -0.162 C 
HETATM    3  C3  UNL     1     -25.650  -9.887   1.007  1.00  0.00     0.247 C 
ENDROOT
BRANCH   3   4
HETATM    4  O1  UNL     1     -26.591  -9.978  -0.028  1.00  0.00    -0.369 OA
BRANCH   4   5
HETATM    5  C4  UNL     1     -27.828 -10.088   0.544  1.00  0.00     0.196 C 
HETATM    6  C5  UNL     1     -28.565  -8.747   0.624  1.00  0.00     0.188 C 
HETATM    7  C6  UNL     1     -28.381  -7.950  -0.643  1.00  0.00     0.045 C 
HETATM    8  O2  UNL     1     -29.893  -9.237   0.674  1.00  0.00    -0.232 OA
HETATM    9  O3  UNL     1     -29.945 -10.080  -0.312  1.00  0.00    -0.221 OA
HETATM   10  C7  UNL     1     -28.820 -10.877  -0.271  1.00  0.00     0.263 C 
HETATM   11 BR1  UNL     1     -28.136 -11.070  -2.077  1.00  0.00    -0.055 Br
ENDBRANCH   4   5
ENDBRANCH   3   4
TORSDOF 2
ENDMDL
MODEL 3
REMARK VINA RESULT: -4.052885271      2.637      3.656
REMARK  2 active torsions:
REMARK  status: ('A' for Active; 'I' for Inactive)
REMARK    1  A    between atoms: C3_3  and  O1_4 
REMARK    2  A    between atoms: O1_4  and  C4_5 
ROOT
HETATM    1  C1  UNL     1     -24.232  -7.604   0.822  1.00  0.00     0.099 C 
HETATM    2  C2  UNL     1     -24.866  -8.649   0.812  1.00  0.00    -0.162 C 
HETATM    3  C3  UNL     1     -25.604  -9.899   0.794  1.00  0.00     0.247 C 
ENDROOT
BRANCH   3   4
HETATM    4  O1  UNL     1     -26.980  -9.644   0.885  1.00  0.00    -0.369 OA
BRANCH   4   5
HETATM    5  C4  UNL     1     -27.555 -10.049  -0.288  1.00  0.00     0.196 C 
HETATM    6  C5  UNL     1     -28.784 -10.938  -0.070  1.00  0.00     0.188 C 
HETATM    7  C6  UNL     1     -29.639 -10.416   1.057  1.00  0.00     0.045 C 
HETATM    8  O2  UNL     1     -29.440 -10.698  -1.301  1.00  0.00    -0.232 OA
HETATM    9  O3  UNL     1     -29.443  -9.404  -1.399  1.00  0.00    -0.221 OA
HETATM   10  C7  UNL     1     -28.183  -8.935  -1.085  1.00  0.00     0.263 C 
HETATM   11 BR1  UNL     1     -28.372  -7.376   0.054  1.00  0.00    -0.055 Br
ENDBRANCH   4   5
ENDBRANCH   3   4
TORSDOF 2
ENDMDL
MODEL 4
REMARK VINA RESULT: -4.012373343      2.808      4.136
REMARK  2 active torsions:
REMARK  status: ('A' for Active; 'I' for Inactive)
REMARK    1  A    between atoms: C3_3  and  O1_4 
REMARK    2  A    between atoms: O1_4  and  C4_5 
ROOT
HETATM    1  C1  UNL     1     -25.076  -6.729  -0.042  1.00  0.00     0.099 C 
HETATM    2  C2  UNL     1     -25.569  -7.791   0.309  1.00  0.00    -0.162 C 
HETATM    3  C3  UNL     1     -26.137  -9.060   0.726  1.00  0.00     0.247 C 
ENDROOT
BRANCH   3   4
HETATM    4  O1  UNL     1     -27.530  -9.036   0.569  1.00  0.00    -0.369 OA
BRANCH   4   5
HETATM    5  C4  UNL     1     -27.938 -10.310   0.288  1.00  0.00     0.196 C 
HETATM    6  C5  UNL     1     -29.187 -10.720   1.075  1.00  0.00     0.188 C 
HETATM    7  C6  UNL     1     -30.189  -9.594   1.127  1.00  0.00     0.045 C 
HETATM    8  O2  UNL     1     -29.666 -11.727   0.203  1.00  0.00    -0.232 OA
HETATM    9  O3  UNL     1     -29.651 -11.156  -0.963  1.00  0.00    -0.221 OA
HETATM   10  C7  UNL     1     -28.446 -10.502  -1.118  1.00  0.00     0.263 C 
HETATM   11 BR1  UNL     1     -28.787  -8.762  -1.905  1.00  0.00    -0.055 Br
ENDBRANCH   4   5
ENDBRANCH   3   4
TORSDOF 2
ENDMDL
MODEL 5
REMARK VINA RESULT: -4.008246855      2.303      4.117
REMARK  2 active torsions:
REMARK  status: ('A' for Active; 'I' for Inactive)
REMARK    1  A    between atoms: C3_3  and  O1_4 
REMARK    2  A    between atoms: O1_4  and  C4_5 
ROOT
HETATM    1  C1  UNL     1     -29.102  -8.063   0.422  1.00  0.00     0.099 C 
HETATM    2  C2  UNL     1     -28.340  -9.013   0.529  1.00  0.00    -0.162 C 
HETATM    3  C3  UNL     1     -27.448 -10.149   0.668  1.00  0.00     0.247 C 
ENDROOT
BRANCH   3   4
HETATM    4  O1  UNL     1     -26.181  -9.829   0.157  1.00  0.00    -0.369 OA
BRANCH   4   5
HETATM    5  C4  UNL     1     -25.305  -9.806   1.206  1.00  0.00     0.196 C 
HETATM    6  C5  UNL     1     -24.026 -10.602   0.927  1.00  0.00     0.188 C 
HETATM    7  C6  UNL     1     -23.536 -10.368  -0.479  1.00  0.00     0.045 C 
HETATM    8  O2  UNL     1     -23.163  -9.943   1.835  1.00  0.00    -0.232 OA
HETATM    9  O3  UNL     1     -23.351  -8.685   1.577  1.00  0.00    -0.221 OA
HETATM   10  C7  UNL     1     -24.707  -8.451   1.484  1.00  0.00     0.263 C 
HETATM   11 BR1  UNL     1     -25.030  -7.298  -0.043  1.00  0.00    -0.055 Br
ENDBRANCH   4   5
ENDBRANCH   3   4
TORSDOF 2
ENDMDL
