MODEL 1
REMARK VINA RESULT: -4.946861885      0.000      0.000
REMARK  4 active torsions:
REMARK  status: ('A' for Active; 'I' for Inactive)
REMARK    1  A    between atoms: C2_2  and  C3_3 
REMARK    2  A    between atoms: C3_3  and  C4_4 
REMARK    3  A    between atoms: C4_4  and  O1_5 
REMARK    4  A    between atoms: N1_11  and  C9_12 
ROOT
HETATM    1  C4  UNL     1     -25.610  -8.790   0.762  1.00  0.00     0.191 C 
HETATM    2  C5  UNL     1     -26.292 -10.086   0.491  1.00  0.00     0.071 C 
HETATM    3  C6  UNL     1     -27.656 -10.238   1.073  1.00  0.00     0.010 C 
HETATM    4  C7  UNL     1     -28.720  -9.389   0.471  1.00  0.00     0.047 C 
HETATM    5  C8  UNL     1     -28.170  -8.482  -0.610  1.00  0.00     0.095 C 
HETATM    6  N1  UNL     1     -27.365  -7.510  -0.006  1.00  0.00    -0.249 N 
HETATM    7  O2  UNL     1     -26.093  -7.696   0.106  1.00  0.00    -0.235 OA
ENDROOT
BRANCH   1   8
HETATM    8  C3  UNL     1     -24.166  -8.960   0.247  1.00  0.00     0.097 C 
BRANCH   8   9
HETATM    9  C2  UNL     1     -23.625 -10.223   0.805  1.00  0.00    -0.032 C 
HETATM   10  C1  UNL     1     -22.745 -10.902   0.120  1.00  0.00     0.007 C 
ENDBRANCH   8   9
ENDBRANCH   1   8
BRANCH   1  11
HETATM   11  O1  UNL     1     -25.474  -8.601   2.135  1.00  0.00    -0.363 OA
ATOM     12  H1  UNL     1     -26.335  -8.321   2.425  1.00  0.00     0.213 HD
ENDBRANCH   1  11
BRANCH   6  13
HETATM   13  C9  UNL     1     -27.923  -6.256   0.287  1.00  0.00     0.091 C 
HETATM   14  C10 UNL     1     -27.607  -5.740   1.677  1.00  0.00     0.057 C 
ENDBRANCH   6  13
TORSDOF 4
ENDMDL
MODEL 2
REMARK VINA RESULT: -4.824416638      1.251      4.296
REMARK  4 active torsions:
REMARK  status: ('A' for Active; 'I' for Inactive)
REMARK    1  A    between atoms: C2_2  and  C3_3 
REMARK    2  A    between atoms: C3_3  and  C4_4 
REMARK    3  A    between atoms: C4_4  and  O1_5 
REMARK    4  A    between atoms: N1_11  and  C9_12 
ROOT
HETATM    1  C4  UNL     1     -26.856  -7.272   0.718  1.00  0.00     0.191 C 
HETATM    2  C5  UNL     1     -28.283  -7.489   0.352  1.00  0.00     0.071 C 
HETATM    3  C6  UNL     1     -28.527  -8.387  -0.813  1.00  0.00     0.010 C 
HETATM    4  C7  UNL     1     -28.213  -9.827  -0.603  1.00  0.00     0.047 C 
HETATM    5  C8  UNL     1     -27.646 -10.083   0.778  1.00  0.00     0.095 C 
HETATM    6  N1  UNL     1     -26.366  -9.519   0.844  1.00  0.00    -0.249 N 
HETATM    7  O2  UNL     1     -26.206  -8.321   1.296  1.00  0.00    -0.235 OA
ENDROOT
BRANCH   1   8
HETATM    8  C3  UNL     1     -26.862  -6.165   1.791  1.00  0.00     0.097 C 
BRANCH   8   9
HETATM    9  C2  UNL     1     -28.031  -5.288   1.541  1.00  0.00    -0.032 C 
HETATM   10  C1  UNL     1     -27.990  -4.039   1.922  1.00  0.00     0.007 C 
ENDBRANCH   8   9
ENDBRANCH   1   8
BRANCH   1  11
HETATM   11  O1  UNL     1     -26.169  -6.715  -0.358  1.00  0.00    -0.363 OA
ATOM     12  H1  UNL     1     -25.251  -6.809  -0.130  1.00  0.00     0.213 HD
ENDBRANCH   1  11
BRANCH   6  13
HETATM   13  C9  UNL     1     -25.253 -10.340   0.607  1.00  0.00     0.091 C 
HETATM   14  C10 UNL     1     -23.962  -9.586   0.358  1.00  0.00     0.057 C 
ENDBRANCH   6  13
TORSDOF 4
ENDMDL
MODEL 3
REMARK VINA RESULT: -4.617284824      1.968      4.643
REMARK  4 active torsions:
REMARK  status: ('A' for Active; 'I' for Inactive)
REMARK    1  A    between atoms: C2_2  and  C3_3 
REMARK    2  A    between atoms: C3_3  and  C4_4 
REMARK    3  A    between atoms: C4_4  and  O1_5 
REMARK    4  A    between atoms: N1_11  and  C9_12 
ROOT
HETATM    1  C4  UNL     1     -28.065  -9.358  -0.093  1.00  0.00     0.191 C 
HETATM    2  C5  UNL     1     -27.969  -7.874  -0.175  1.00  0.00     0.071 C 
HETATM    3  C6  UNL     1     -27.413  -7.190   1.027  1.00  0.00     0.010 C 
HETATM    4  C7  UNL     1     -25.966  -7.411   1.292  1.00  0.00     0.047 C 
HETATM    5  C8  UNL     1     -25.347  -8.355   0.282  1.00  0.00     0.095 C 
HETATM    6  N1  UNL     1     -25.858  -9.639   0.504  1.00  0.00    -0.249 N 
HETATM    7  O2  UNL     1     -26.892 -10.051  -0.149  1.00  0.00    -0.235 OA
ENDROOT
BRANCH   1   8
HETATM    8  C3  UNL     1     -28.849  -9.799  -1.345  1.00  0.00     0.097 C 
BRANCH   8   9
HETATM    9  C2  UNL     1     -29.447  -8.590  -1.962  1.00  0.00    -0.032 C 
HETATM   10  C1  UNL     1     -30.416  -8.723  -2.828  1.00  0.00     0.007 C 
ENDBRANCH   8   9
ENDBRANCH   1   8
BRANCH   1  11
HETATM   11  O1  UNL     1     -28.878  -9.724   0.978  1.00  0.00    -0.363 OA
ATOM     12  H1  UNL     1     -28.783  -9.015   1.604  1.00  0.00     0.213 HD
ENDBRANCH   1  11
BRANCH   6  13
HETATM   13  C9  UNL     1     -25.115 -10.535   1.288  1.00  0.00     0.091 C 
HETATM   14  C10 UNL     1     -23.615 -10.443   1.094  1.00  0.00     0.057 C 
ENDBRANCH   6  13
TORSDOF 4
ENDMDL
MODEL 4
REMARK VINA RESULT: -4.581157129      2.368      3.704
REMARK  4 active torsions:
REMARK  status: ('A' for Active; 'I' for Inactive)
REMARK    1  A    between atoms: C2_2  and  C3_3 
REMARK    2  A    between atoms: C3_3  and  C4_4 
REMARK    3  A    between atoms: C4_4  and  O1_5 
REMARK    4  A    between atoms: N1_11  and  C9_12 
ROOT
HETATM    1  C4  UNL     1     -27.767 -10.002   0.393  1.00  0.00     0.191 C 
HETATM    2  C5  UNL     1     -27.708  -8.549   0.068  1.00  0.00     0.071 C 
HETATM    3  C6  UNL     1     -28.712  -8.063  -0.921  1.00  0.00     0.010 C 
HETATM    4  C7  UNL     1     -30.127  -8.047  -0.459  1.00  0.00     0.047 C 
HETATM    5  C8  UNL     1     -30.265  -8.594   0.947  1.00  0.00     0.095 C 
HETATM    6  N1  UNL     1     -30.010  -9.970   0.915  1.00  0.00    -0.249 N 
HETATM    7  O2  UNL     1     -28.822 -10.417   1.149  1.00  0.00    -0.235 OA
ENDROOT
BRANCH   1   8
HETATM    8  C3  UNL     1     -26.521 -10.290   1.254  1.00  0.00     0.097 C 
BRANCH   8   9
HETATM    9  C2  UNL     1     -25.319  -9.972   0.445  1.00  0.00    -0.032 C 
HETATM   10  C1  UNL     1     -24.232 -10.677   0.605  1.00  0.00     0.007 C 
ENDBRANCH   8   9
ENDBRANCH   1   8
BRANCH   1  11
HETATM   11  O1  UNL     1     -27.578 -10.756  -0.763  1.00  0.00    -0.363 OA
ATOM     12  H1  UNL     1     -27.694 -10.137  -1.475  1.00  0.00     0.213 HD
ENDBRANCH   1  11
BRANCH   6  13
HETATM   13  C9  UNL     1     -31.094 -10.856   0.829  1.00  0.00     0.091 C 
HETATM   14  C10 UNL     1     -30.820 -12.103   0.014  1.00  0.00     0.057 C 
ENDBRANCH   6  13
TORSDOF 4
ENDMDL
MODEL 5
REMARK VINA RESULT: -4.578865265      1.881      4.560
REMARK  4 active torsions:
REMARK  status: ('A' for Active; 'I' for Inactive)
REMARK    1  A    between atoms: C2_2  and  C3_3 
REMARK    2  A    between atoms: C3_3  and  C4_4 
REMARK    3  A    between atoms: C4_4  and  O1_5 
REMARK    4  A    between atoms: N1_11  and  C9_12 
ROOT
HETATM    1  C4  UNL     1     -28.409  -8.265  -0.188  1.00  0.00     0.191 C 
HETATM    2  C5  UNL     1     -27.828  -6.894  -0.217  1.00  0.00     0.071 C 
HETATM    3  C6  UNL     1     -27.109  -6.466   1.017  1.00  0.00     0.010 C 
HETATM    4  C7  UNL     1     -25.822  -7.159   1.296  1.00  0.00     0.047 C 
HETATM    5  C8  UNL     1     -25.523  -8.225   0.262  1.00  0.00     0.095 C 
HETATM    6  N1  UNL     1     -26.433  -9.275   0.432  1.00  0.00    -0.249 N 
HETATM    7  O2  UNL     1     -27.528  -9.304  -0.251  1.00  0.00    -0.235 OA
ENDROOT
BRANCH   1   8
HETATM    8  C3  UNL     1     -29.262  -8.386  -1.467  1.00  0.00     0.097 C 
BRANCH   8   9
HETATM    9  C2  UNL     1     -29.233  -9.803  -1.905  1.00  0.00    -0.032 C 
HETATM   10  C1  UNL     1     -29.994 -10.184  -2.896  1.00  0.00     0.007 C 
ENDBRANCH   8   9
ENDBRANCH   1   8
BRANCH   1  11
HETATM   11  O1  UNL     1     -29.324  -8.372   0.856  1.00  0.00    -0.363 OA
ATOM     12  H1  UNL     1     -28.956  -9.035   1.430  1.00  0.00     0.213 HD
ENDBRANCH   1  11
BRANCH   6  13
HETATM   13  C9  UNL     1     -26.048 -10.388   1.194  1.00  0.00     0.091 C 
HETATM   14  C10 UNL     1     -24.579 -10.743   1.085  1.00  0.00     0.057 C 
ENDBRANCH   6  13
TORSDOF 4
ENDMDL
