MODEL 1
REMARK VINA RESULT: -5.449629393      0.000      0.000
REMARK  4 active torsions:
REMARK  status: ('A' for Active; 'I' for Inactive)
REMARK    1  A    between atoms: O1_1  and  N1_3 
REMARK    2  A    between atoms: C1_5  and  C2_6 
REMARK    3  A    between atoms: C2_6  and  C3_7 
REMARK    4  A    between atoms: N2_11  and  C7_12 
ROOT
HETATM    1  C3  UNL     1     -25.914  -9.054   1.031  1.00  0.00     0.228 C 
HETATM    2  C4  UNL     1     -25.135  -7.771   0.696  1.00  0.00     0.038 C 
HETATM    3  C5  UNL     1     -26.204  -6.747   0.314  1.00  0.00     0.032 C 
HETATM    4  C6  UNL     1     -27.492  -7.521   0.636  1.00  0.00     0.273 C 
HETATM    5  N2  UNL     1     -27.106  -8.846   0.292  1.00  0.00     0.098 N 
ENDROOT
BRANCH   1   6
HETATM    6  C2  UNL     1     -25.068 -10.199   0.574  1.00  0.00     0.082 C 
BRANCH   6   7
HETATM    7  C1  UNL     1     -23.628  -9.945   0.796  1.00  0.00     0.088 C 
HETATM    8  N1  UNL     1     -22.785 -10.312  -0.080  1.00  0.00    -0.284 N 
ATOM      9  H1  UNL     1     -21.797 -10.128   0.094  1.00  0.00     0.192 HD
BRANCH   8  10
HETATM   10  O1  UNL     1     -23.131 -10.942  -1.249  1.00  0.00    -0.291 OA
ATOM     11  H1  UNL     1     -23.072 -10.532  -2.104  1.00  0.00     0.244 HD
ENDBRANCH   8  10
ENDBRANCH   6   7
ENDBRANCH   1   6
BRANCH   5  12
HETATM   12  C7  UNL     1     -28.073  -9.855   0.305  1.00  0.00     0.223 C 
HETATM   13  C8  UNL     1     -29.488  -9.525   0.629  1.00  0.00     0.036 C 
HETATM   14  C9  UNL     1     -29.796  -9.567  -0.870  1.00  0.00     0.004 C 
HETATM   15  C10 UNL     1     -28.534 -10.386  -1.037  1.00  0.00     0.036 C 
ENDBRANCH   5  12
TORSDOF 4
ENDMDL
MODEL 2
REMARK VINA RESULT: -5.415073163      1.097      1.219
REMARK  4 active torsions:
REMARK  status: ('A' for Active; 'I' for Inactive)
REMARK    1  A    between atoms: O1_1  and  N1_3 
REMARK    2  A    between atoms: C1_5  and  C2_6 
REMARK    3  A    between atoms: C2_6  and  C3_7 
REMARK    4  A    between atoms: N2_11  and  C7_12 
ROOT
HETATM    1  C3  UNL     1     -26.768  -8.773   0.868  1.00  0.00     0.228 C 
HETATM    2  C4  UNL     1     -25.596  -7.800   0.656  1.00  0.00     0.038 C 
HETATM    3  C5  UNL     1     -26.183  -6.639  -0.146  1.00  0.00     0.032 C 
HETATM    4  C6  UNL     1     -27.676  -7.007  -0.159  1.00  0.00     0.273 C 
HETATM    5  N2  UNL     1     -27.606  -8.426  -0.222  1.00  0.00     0.098 N 
ENDROOT
BRANCH   1   6
HETATM    6  C2  UNL     1     -26.193 -10.152   0.821  1.00  0.00     0.082 C 
BRANCH   6   7
HETATM    7  C1  UNL     1     -24.715 -10.133   0.761  1.00  0.00     0.088 C 
HETATM    8  N1  UNL     1     -24.109 -10.944  -0.006  1.00  0.00    -0.284 N 
ATOM      9  H1  UNL     1     -23.090 -10.914  -0.031  1.00  0.00     0.192 HD
BRANCH   8  10
HETATM   10  O1  UNL     1     -24.752 -11.858  -0.803  1.00  0.00    -0.291 OA
ATOM     11  H1  UNL     1     -24.522 -12.016  -1.711  1.00  0.00     0.244 HD
ENDBRANCH   8  10
ENDBRANCH   6   7
ENDBRANCH   1   6
BRANCH   5  12
HETATM   12  C7  UNL     1     -28.787  -9.152  -0.402  1.00  0.00     0.223 C 
HETATM   13  C8  UNL     1     -30.009  -8.470  -0.909  1.00  0.00     0.036 C 
HETATM   14  C9  UNL     1     -29.710  -9.056  -2.291  1.00  0.00     0.004 C 
HETATM   15  C10 UNL     1     -28.848 -10.086  -1.593  1.00  0.00     0.036 C 
ENDBRANCH   5  12
TORSDOF 4
ENDMDL
MODEL 3
REMARK VINA RESULT: -5.274775178      1.031      1.197
REMARK  4 active torsions:
REMARK  status: ('A' for Active; 'I' for Inactive)
REMARK    1  A    between atoms: O1_1  and  N1_3 
REMARK    2  A    between atoms: C1_5  and  C2_6 
REMARK    3  A    between atoms: C2_6  and  C3_7 
REMARK    4  A    between atoms: N2_11  and  C7_12 
ROOT
HETATM    1  C3  UNL     1     -25.102 -10.022   0.740  1.00  0.00     0.228 C 
HETATM    2  C4  UNL     1     -24.216  -8.768   0.660  1.00  0.00     0.038 C 
HETATM    3  C5  UNL     1     -25.183  -7.590   0.782  1.00  0.00     0.032 C 
HETATM    4  C6  UNL     1     -26.504  -8.316   1.086  1.00  0.00     0.273 C 
HETATM    5  N2  UNL     1     -26.349  -9.499   0.313  1.00  0.00     0.098 N 
ENDROOT
BRANCH   1   6
HETATM    6  C2  UNL     1     -24.488 -11.038  -0.169  1.00  0.00     0.082 C 
BRANCH   6   7
HETATM    7  C1  UNL     1     -23.012 -11.041  -0.077  1.00  0.00     0.088 C 
HETATM    8  N1  UNL     1     -22.320 -11.283  -1.114  1.00  0.00    -0.284 N 
ATOM      9  H1  UNL     1     -21.304 -11.281  -1.028  1.00  0.00     0.192 HD
BRANCH   8  10
HETATM   10  O1  UNL     1     -22.867 -11.547  -2.345  1.00  0.00    -0.291 OA
ATOM     11  H1  UNL     1     -22.580 -12.258  -2.906  1.00  0.00     0.244 HD
ENDBRANCH   8  10
ENDBRANCH   6   7
ENDBRANCH   1   6
BRANCH   5  12
HETATM   12  C7  UNL     1     -27.430 -10.379   0.202  1.00  0.00     0.223 C 
HETATM   13  C8  UNL     1     -28.673 -10.130   0.980  1.00  0.00     0.036 C 
HETATM   14  C9  UNL     1     -29.304  -9.562  -0.293  1.00  0.00     0.004 C 
HETATM   15  C10 UNL     1     -28.246 -10.313  -1.072  1.00  0.00     0.036 C 
ENDBRANCH   5  12
TORSDOF 4
ENDMDL
MODEL 4
REMARK VINA RESULT: -4.979518781      1.913      4.239
REMARK  4 active torsions:
REMARK  status: ('A' for Active; 'I' for Inactive)
REMARK    1  A    between atoms: O1_1  and  N1_3 
REMARK    2  A    between atoms: C1_5  and  C2_6 
REMARK    3  A    between atoms: C2_6  and  C3_7 
REMARK    4  A    between atoms: N2_11  and  C7_12 
ROOT
HETATM    1  C3  UNL     1     -26.924  -9.209  -0.144  1.00  0.00     0.228 C 
HETATM    2  C4  UNL     1     -27.514  -7.825   0.175  1.00  0.00     0.038 C 
HETATM    3  C5  UNL     1     -26.407  -7.086   0.927  1.00  0.00     0.032 C 
HETATM    4  C6  UNL     1     -25.244  -8.083   0.807  1.00  0.00     0.273 C 
HETATM    5  N2  UNL     1     -25.939  -9.322   0.870  1.00  0.00     0.098 N 
ENDROOT
BRANCH   1   6
HETATM    6  C2  UNL     1     -28.052 -10.185  -0.052  1.00  0.00     0.082 C 
BRANCH   6   7
HETATM    7  C1  UNL     1     -29.018 -10.020  -1.161  1.00  0.00     0.088 C 
HETATM    8  N1  UNL     1     -28.926 -10.762  -2.188  1.00  0.00    -0.284 N 
ATOM      9  H1  UNL     1     -29.601 -10.630  -2.940  1.00  0.00     0.192 HD
BRANCH   8  10
HETATM   10  O1  UNL     1     -27.966 -11.731  -2.339  1.00  0.00    -0.291 OA
ATOM     11  H1  UNL     1     -27.629 -12.010  -3.182  1.00  0.00     0.244 HD
ENDBRANCH   8  10
ENDBRANCH   6   7
ENDBRANCH   1   6
BRANCH   5  12
HETATM   12  C7  UNL     1     -25.201 -10.507   0.942  1.00  0.00     0.223 C 
HETATM   13  C8  UNL     1     -24.710 -11.154  -0.305  1.00  0.00     0.036 C 
HETATM   14  C9  UNL     1     -23.332 -10.551  -0.023  1.00  0.00     0.004 C 
HETATM   15  C10 UNL     1     -23.767 -10.400   1.418  1.00  0.00     0.036 C 
ENDBRANCH   5  12
TORSDOF 4
ENDMDL
MODEL 5
REMARK VINA RESULT: -4.960334015      3.870      5.596
REMARK  4 active torsions:
REMARK  status: ('A' for Active; 'I' for Inactive)
REMARK    1  A    between atoms: O1_1  and  N1_3 
REMARK    2  A    between atoms: C1_5  and  C2_6 
REMARK    3  A    between atoms: C2_6  and  C3_7 
REMARK    4  A    between atoms: N2_11  and  C7_12 
ROOT
HETATM    1  C3  UNL     1     -29.859 -10.458  -3.126  1.00  0.00     0.228 C 
HETATM    2  C4  UNL     1     -31.339 -10.637  -3.503  1.00  0.00     0.038 C 
HETATM    3  C5  UNL     1     -32.041  -9.393  -2.958  1.00  0.00     0.032 C 
HETATM    4  C6  UNL     1     -30.844  -8.561  -2.471  1.00  0.00     0.273 C 
HETATM    5  N2  UNL     1     -29.968  -9.585  -2.014  1.00  0.00     0.098 N 
ENDROOT
BRANCH   1   6
HETATM    6  C2  UNL     1     -29.328 -11.821  -2.820  1.00  0.00     0.082 C 
BRANCH   6   7
HETATM    7  C1  UNL     1     -30.248 -12.591  -1.953  1.00  0.00     0.088 C 
HETATM    8  N1  UNL     1     -30.015 -13.818  -1.727  1.00  0.00    -0.284 N 
ATOM      9  H1  UNL     1     -30.662 -14.330  -1.127  1.00  0.00     0.192 HD
BRANCH   8  10
HETATM   10  O1  UNL     1     -28.938 -14.494  -2.245  1.00  0.00    -0.291 OA
ATOM     11  H1  UNL     1     -28.956 -15.417  -2.468  1.00  0.00     0.244 HD
ENDBRANCH   8  10
ENDBRANCH   6   7
ENDBRANCH   1   6
BRANCH   5  12
HETATM   12  C7  UNL     1     -28.796  -9.221  -1.344  1.00  0.00     0.223 C 
HETATM   13  C8  UNL     1     -28.650  -7.845  -0.797  1.00  0.00     0.036 C 
HETATM   14  C9  UNL     1     -28.992  -8.405   0.586  1.00  0.00     0.004 C 
HETATM   15  C10 UNL     1     -28.603  -9.768   0.055  1.00  0.00     0.036 C 
ENDBRANCH   5  12
TORSDOF 4
ENDMDL
