MODEL 1
REMARK VINA RESULT: -5.894717120      0.000      0.000
REMARK  4 active torsions:
REMARK  status: ('A' for Active; 'I' for Inactive)
REMARK    1  A    between atoms: N1_1  and  C1_5 
REMARK    2  A    between atoms: C1_5  and  C2_6 
REMARK    3  A    between atoms: C1_5  and  C7_13 
REMARK    4  A    between atoms: C2_6  and  C3_7 
ROOT
HETATM    1  C1  UNL     1     -25.351 -10.085   0.278  1.00  0.00     0.192 C 
ENDROOT
BRANCH   1   2
HETATM    2  N1  UNL     1     -26.345 -10.683   1.137  1.00  0.00    -0.074 N 
ATOM      3  H13 UNL     1     -25.979 -11.527   1.578  1.00  0.00     0.274 HD
ATOM      4  H12 UNL     1     -26.497 -10.109   1.966  1.00  0.00     0.274 HD
ATOM      5  H11 UNL     1     -27.229 -10.878   0.667  1.00  0.00     0.274 HD
ENDBRANCH   1   2
BRANCH   1   6
HETATM    6  C2  UNL     1     -24.882  -8.757   0.744  1.00  0.00     0.085 C 
BRANCH   6   7
HETATM    7  C3  UNL     1     -26.005  -7.782   0.855  1.00  0.00    -0.016 C 
HETATM    8  N2  UNL     1     -26.105  -7.071   1.949  1.00  0.00    -0.396 N 
HETATM    9  C4  UNL     1     -27.216  -6.197   1.900  1.00  0.00     0.119 C 
ATOM     10  H2  UNL     1     -25.463  -7.138   2.738  1.00  0.00     0.159 HD
HETATM   11  C5  UNL     1     -27.523  -6.050   0.405  1.00  0.00     0.025 C 
HETATM   12  C6  UNL     1     -27.097  -7.442  -0.073  1.00  0.00     0.054 C 
ENDBRANCH   6   7
ENDBRANCH   1   6
BRANCH   1  13
HETATM   13  C7  UNL     1     -24.231 -11.090   0.126  1.00  0.00     0.016 C 
HETATM   14  C8  UNL     1     -22.871 -10.431   0.223  1.00  0.00     0.007 C 
HETATM   15  C9  UNL     1     -21.965 -11.532  -0.295  1.00  0.00     0.000 C 
HETATM   16  C10 UNL     1     -22.777 -12.208  -1.356  1.00  0.00     0.000 C 
HETATM   17  C11 UNL     1     -24.189 -11.686  -1.255  1.00  0.00     0.007 C 
ENDBRANCH   1  13
TORSDOF 4
ENDMDL
MODEL 2
REMARK VINA RESULT: -5.884816906      1.596      5.314
REMARK  4 active torsions:
REMARK  status: ('A' for Active; 'I' for Inactive)
REMARK    1  A    between atoms: N1_1  and  C1_5 
REMARK    2  A    between atoms: C1_5  and  C2_6 
REMARK    3  A    between atoms: C1_5  and  C7_13 
REMARK    4  A    between atoms: C2_6  and  C3_7 
ROOT
HETATM    1  C1  UNL     1     -24.838  -9.805   1.196  1.00  0.00     0.192 C 
ENDROOT
BRANCH   1   2
HETATM    2  N1  UNL     1     -25.521 -11.071   1.087  1.00  0.00    -0.074 N 
ATOM      3  H13 UNL     1     -26.531 -10.934   1.050  1.00  0.00     0.274 HD
ATOM      4  H12 UNL     1     -25.371 -11.482   0.165  1.00  0.00     0.274 HD
ATOM      5  H11 UNL     1     -25.276 -11.735   1.821  1.00  0.00     0.274 HD
ENDBRANCH   1   2
BRANCH   1   6
HETATM    6  C2  UNL     1     -23.386  -9.882   0.905  1.00  0.00     0.085 C 
BRANCH   6   7
HETATM    7  C3  UNL     1     -23.094 -10.844  -0.197  1.00  0.00    -0.016 C 
HETATM    8  N2  UNL     1     -21.851 -11.192  -0.408  1.00  0.00    -0.396 N 
HETATM    9  C4  UNL     1     -21.740 -12.105  -1.482  1.00  0.00     0.119 C 
ATOM     10  H2  UNL     1     -21.059 -10.846   0.136  1.00  0.00     0.159 HD
HETATM   11  C5  UNL     1     -23.139 -12.721  -1.606  1.00  0.00     0.025 C 
HETATM   12  C6  UNL     1     -23.979 -11.519  -1.163  1.00  0.00     0.054 C 
ENDBRANCH   6   7
ENDBRANCH   1   6
BRANCH   1  13
HETATM   13  C7  UNL     1     -25.570  -8.825   0.306  1.00  0.00     0.016 C 
HETATM   14  C8  UNL     1     -25.287  -7.391   0.700  1.00  0.00     0.007 C 
HETATM   15  C9  UNL     1     -26.362  -6.649  -0.070  1.00  0.00     0.000 C 
HETATM   16  C10 UNL     1     -27.538  -7.575  -0.046  1.00  0.00     0.000 C 
HETATM   17  C11 UNL     1     -27.062  -8.906   0.481  1.00  0.00     0.007 C 
ENDBRANCH   1  13
TORSDOF 4
ENDMDL
MODEL 3
REMARK VINA RESULT: -5.874414195      1.443      5.595
REMARK  4 active torsions:
REMARK  status: ('A' for Active; 'I' for Inactive)
REMARK    1  A    between atoms: N1_1  and  C1_5 
REMARK    2  A    between atoms: C1_5  and  C2_6 
REMARK    3  A    between atoms: C1_5  and  C7_13 
REMARK    4  A    between atoms: C2_6  and  C3_7 
ROOT
HETATM    1  C1  UNL     1     -24.679  -8.793   0.408  1.00  0.00     0.192 C 
ENDROOT
BRANCH   1   2
HETATM    2  N1  UNL     1     -23.635  -7.902   0.857  1.00  0.00    -0.074 N 
ATOM      3  H13 UNL     1     -23.115  -8.318   1.629  1.00  0.00     0.274 HD
ATOM      4  H12 UNL     1     -22.890  -7.842   0.162  1.00  0.00     0.274 HD
ATOM      5  H11 UNL     1     -23.969  -6.972   1.108  1.00  0.00     0.274 HD
ENDBRANCH   1   2
BRANCH   1   6
HETATM    6  C2  UNL     1     -24.561 -10.170   0.946  1.00  0.00     0.085 C 
BRANCH   6   7
HETATM    7  C3  UNL     1     -23.823 -11.068   0.012  1.00  0.00    -0.016 C 
HETATM    8  N2  UNL     1     -24.511 -11.769  -0.852  1.00  0.00    -0.396 N 
HETATM    9  C4  UNL     1     -23.670 -12.566  -1.663  1.00  0.00     0.119 C 
ATOM     10  H2  UNL     1     -25.528 -11.744  -0.931  1.00  0.00     0.159 HD
HETATM   11  C5  UNL     1     -22.296 -11.891  -1.569  1.00  0.00     0.025 C 
HETATM   12  C6  UNL     1     -22.384 -11.348  -0.139  1.00  0.00     0.054 C 
ENDBRANCH   6   7
ENDBRANCH   1   6
BRANCH   1  13
HETATM   13  C7  UNL     1     -26.000  -8.137   0.742  1.00  0.00     0.016 C 
HETATM   14  C8  UNL     1     -27.171  -9.039   0.419  1.00  0.00     0.007 C 
HETATM   15  C9  UNL     1     -28.333  -8.067   0.501  1.00  0.00     0.000 C 
HETATM   16  C10 UNL     1     -27.772  -6.780  -0.018  1.00  0.00     0.000 C 
HETATM   17  C11 UNL     1     -26.277  -6.944  -0.133  1.00  0.00     0.007 C 
ENDBRANCH   1  13
TORSDOF 4
ENDMDL
MODEL 4
REMARK VINA RESULT: -5.801421346      1.622      5.330
REMARK  4 active torsions:
REMARK  status: ('A' for Active; 'I' for Inactive)
REMARK    1  A    between atoms: N1_1  and  C1_5 
REMARK    2  A    between atoms: C1_5  and  C2_6 
REMARK    3  A    between atoms: C1_5  and  C7_13 
REMARK    4  A    between atoms: C2_6  and  C3_7 
ROOT
HETATM    1  C1  UNL     1     -24.722  -9.942   1.365  1.00  0.00     0.192 C 
ENDROOT
BRANCH   1   2
HETATM    2  N1  UNL     1     -25.409 -11.141   0.948  1.00  0.00    -0.074 N 
ATOM      3  H13 UNL     1     -25.079 -11.444   0.031  1.00  0.00     0.274 HD
ATOM      4  H12 UNL     1     -25.112 -11.940   1.509  1.00  0.00     0.274 HD
ATOM      5  H11 UNL     1     -26.425 -11.055   0.953  1.00  0.00     0.274 HD
ENDBRANCH   1   2
BRANCH   1   6
HETATM    6  C2  UNL     1     -23.461  -9.689   0.627  1.00  0.00     0.085 C 
BRANCH   6   7
HETATM    7  C3  UNL     1     -23.167 -10.775  -0.352  1.00  0.00    -0.016 C 
HETATM    8  N2  UNL     1     -22.053 -11.448  -0.218  1.00  0.00    -0.396 N 
HETATM    9  C4  UNL     1     -21.921 -12.438  -1.220  1.00  0.00     0.119 C 
ATOM     10  H2  UNL     1     -21.366 -11.280   0.517  1.00  0.00     0.159 HD
HETATM   11  C5  UNL     1     -23.353 -12.677  -1.714  1.00  0.00     0.025 C 
HETATM   12  C6  UNL     1     -23.920 -11.267  -1.518  1.00  0.00     0.054 C 
ENDBRANCH   6   7
ENDBRANCH   1   6
BRANCH   1  13
HETATM   13  C7  UNL     1     -25.711  -8.802   1.259  1.00  0.00     0.016 C 
HETATM   14  C8  UNL     1     -26.882  -9.158   0.369  1.00  0.00     0.007 C 
HETATM   15  C9  UNL     1     -27.515  -7.798   0.145  1.00  0.00     0.000 C 
HETATM   16  C10 UNL     1     -26.353  -6.855   0.095  1.00  0.00     0.000 C 
HETATM   17  C11 UNL     1     -25.128  -7.612   0.545  1.00  0.00     0.007 C 
ENDBRANCH   1  13
TORSDOF 4
ENDMDL
MODEL 5
REMARK VINA RESULT: -5.785350399      1.203      1.281
REMARK  4 active torsions:
REMARK  status: ('A' for Active; 'I' for Inactive)
REMARK    1  A    between atoms: N1_1  and  C1_5 
REMARK    2  A    between atoms: C1_5  and  C2_6 
REMARK    3  A    between atoms: C1_5  and  C7_13 
REMARK    4  A    between atoms: C2_6  and  C3_7 
ROOT
HETATM    1  C1  UNL     1     -24.203  -9.957   0.960  1.00  0.00     0.192 C 
ENDROOT
BRANCH   1   2
HETATM    2  N1  UNL     1     -23.624  -8.820   0.284  1.00  0.00    -0.074 N 
ATOM      3  H13 UNL     1     -22.625  -8.960   0.135  1.00  0.00     0.274 HD
ATOM      4  H12 UNL     1     -23.938  -8.780  -0.686  1.00  0.00     0.274 HD
ATOM      5  H11 UNL     1     -23.796  -7.931   0.755  1.00  0.00     0.274 HD
ENDBRANCH   1   2
BRANCH   1   6
HETATM    6  C2  UNL     1     -25.685  -9.929   1.013  1.00  0.00     0.085 C 
BRANCH   6   7
HETATM    7  C3  UNL     1     -26.216  -8.540   0.893  1.00  0.00    -0.016 C 
HETATM    8  N2  UNL     1     -26.041  -7.718   1.895  1.00  0.00    -0.396 N 
HETATM    9  C4  UNL     1     -26.599  -6.446   1.629  1.00  0.00     0.119 C 
ATOM     10  H2  UNL     1     -25.562  -7.964   2.762  1.00  0.00     0.159 HD
HETATM   11  C5  UNL     1     -26.698  -6.384   0.099  1.00  0.00     0.025 C 
HETATM   12  C6  UNL     1     -26.951  -7.867  -0.192  1.00  0.00     0.054 C 
ENDBRANCH   6   7
ENDBRANCH   1   6
BRANCH   1  13
HETATM   13  C7  UNL     1     -23.657 -11.198   0.292  1.00  0.00     0.016 C 
HETATM   14  C8  UNL     1     -22.256 -10.979  -0.237  1.00  0.00     0.007 C 
HETATM   15  C9  UNL     1     -22.078 -12.190  -1.134  1.00  0.00     0.000 C 
HETATM   16  C10 UNL     1     -23.439 -12.422  -1.712  1.00  0.00     0.000 C 
HETATM   17  C11 UNL     1     -24.412 -11.544  -0.964  1.00  0.00     0.007 C 
ENDBRANCH   1  13
TORSDOF 4
ENDMDL
