MODEL 1
REMARK VINA RESULT: -6.361406823      0.000      0.000
REMARK  3 active torsions:
REMARK  status: ('A' for Active; 'I' for Inactive)
REMARK    1  A    between atoms: C4_6  and  N1_7 
REMARK    2  A    between atoms: N1_7  and  C5_10 
REMARK    3  A    between atoms: C5_10  and  C6_11 
ROOT
HETATM    1  N1  UNL     1     -25.147 -10.175  -0.188  1.00  0.00    -0.061 N 
ATOM      2  H11 UNL     1     -25.801 -10.590  -0.851  1.00  0.00     0.278 HD
ATOM      3  H12 UNL     1     -24.987  -9.301  -0.688  1.00  0.00     0.278 HD
ENDROOT
BRANCH   1   4
HETATM    4  C4  UNL     1     -23.941 -10.958  -0.018  1.00  0.00     0.286 C 
HETATM    5  C1  UNL     1     -22.732 -10.144   0.148  1.00  0.00     0.289 C 
HETATM    6  O1  UNL     1     -22.589  -8.954   0.573  1.00  0.00    -0.263 OA
HETATM    7  O2  UNL     1     -21.659 -10.935  -0.264  1.00  0.00    -0.320 OA
HETATM    8  C2  UNL     1     -22.122 -12.037  -1.018  1.00  0.00     0.181 C 
HETATM    9  C3  UNL     1     -23.601 -11.733  -1.294  1.00  0.00     0.070 C 
ENDBRANCH   1   4
BRANCH   1  10
HETATM   10  C5  UNL     1     -25.720  -9.980   1.127  1.00  0.00     0.238 C 
BRANCH  10  11
HETATM   11  C6  UNL     1     -26.407  -8.614   1.218  1.00  0.00     0.011 C 
HETATM   12  C7  UNL     1     -25.545  -7.573   0.491  1.00  0.00     0.006 C 
HETATM   13  C8  UNL     1     -26.572  -6.501   0.184  1.00  0.00     0.000 C 
HETATM   14  C9  UNL     1     -27.723  -7.323  -0.360  1.00  0.00     0.000 C 
HETATM   15  C10 UNL     1     -27.687  -8.601   0.441  1.00  0.00     0.006 C 
ENDBRANCH  10  11
ENDBRANCH   1  10
TORSDOF 3
ENDMDL
MODEL 2
REMARK VINA RESULT: -6.296342460      1.031      1.277
REMARK  3 active torsions:
REMARK  status: ('A' for Active; 'I' for Inactive)
REMARK    1  A    between atoms: C4_6  and  N1_7 
REMARK    2  A    between atoms: N1_7  and  C5_10 
REMARK    3  A    between atoms: C5_10  and  C6_11 
ROOT
HETATM    1  N1  UNL     1     -25.017  -9.537   1.164  1.00  0.00    -0.061 N 
ATOM      2  H11 UNL     1     -24.918  -8.583   0.817  1.00  0.00     0.278 HD
ATOM      3  H12 UNL     1     -25.142  -9.308   2.149  1.00  0.00     0.278 HD
ENDROOT
BRANCH   1   4
HETATM    4  C4  UNL     1     -23.849 -10.355   0.916  1.00  0.00     0.286 C 
HETATM    5  C1  UNL     1     -22.669  -9.584   0.508  1.00  0.00     0.289 C 
HETATM    6  O1  UNL     1     -22.362  -8.369   0.722  1.00  0.00    -0.263 OA
HETATM    7  O2  UNL     1     -21.856 -10.454  -0.217  1.00  0.00    -0.320 OA
HETATM    8  C2  UNL     1     -22.588 -11.596  -0.614  1.00  0.00     0.181 C 
HETATM    9  C3  UNL     1     -24.052 -11.253  -0.308  1.00  0.00     0.070 C 
ENDBRANCH   1   4
BRANCH   1  10
HETATM   10  C5  UNL     1     -26.155 -10.231   0.595  1.00  0.00     0.238 C 
BRANCH  10  11
HETATM   11  C6  UNL     1     -27.394  -9.330   0.603  1.00  0.00     0.011 C 
HETATM   12  C7  UNL     1     -26.985  -7.918   0.162  1.00  0.00     0.006 C 
HETATM   13  C8  UNL     1     -28.313  -7.362  -0.313  1.00  0.00     0.000 C 
HETATM   14  C9  UNL     1     -28.840  -8.502  -1.162  1.00  0.00     0.000 C 
HETATM   15  C10 UNL     1     -28.371  -9.748  -0.451  1.00  0.00     0.006 C 
ENDBRANCH  10  11
ENDBRANCH   1  10
TORSDOF 3
ENDMDL
MODEL 3
REMARK VINA RESULT: -6.178898329      0.859      1.116
REMARK  3 active torsions:
REMARK  status: ('A' for Active; 'I' for Inactive)
REMARK    1  A    between atoms: C4_6  and  N1_7 
REMARK    2  A    between atoms: N1_7  and  C5_10 
REMARK    3  A    between atoms: C5_10  and  C6_11 
ROOT
HETATM    1  N1  UNL     1     -24.365  -9.973   0.125  1.00  0.00    -0.061 N 
ATOM      2  H11 UNL     1     -24.466  -9.389  -0.705  1.00  0.00     0.278 HD
ATOM      3  H12 UNL     1     -23.670  -9.401   0.604  1.00  0.00     0.278 HD
ENDROOT
BRANCH   1   4
HETATM    4  C4  UNL     1     -23.890 -11.306  -0.176  1.00  0.00     0.286 C 
HETATM    5  C1  UNL     1     -22.475 -11.354  -0.557  1.00  0.00     0.289 C 
HETATM    6  O1  UNL     1     -21.519 -10.561  -0.285  1.00  0.00    -0.263 OA
HETATM    7  O2  UNL     1     -22.309 -12.501  -1.333  1.00  0.00    -0.320 OA
HETATM    8  C2  UNL     1     -23.562 -12.978  -1.779  1.00  0.00     0.181 C 
HETATM    9  C3  UNL     1     -24.554 -11.857  -1.441  1.00  0.00     0.070 C 
ENDBRANCH   1   4
BRANCH   1  10
HETATM   10  C5  UNL     1     -25.597 -10.113   0.873  1.00  0.00     0.238 C 
BRANCH  10  11
HETATM   11  C6  UNL     1     -26.262  -8.749   1.077  1.00  0.00     0.011 C 
HETATM   12  C7  UNL     1     -25.389  -7.667   0.428  1.00  0.00     0.006 C 
HETATM   13  C8  UNL     1     -26.402  -6.558   0.216  1.00  0.00     0.000 C 
HETATM   14  C9  UNL     1     -27.568  -7.317  -0.384  1.00  0.00     0.000 C 
HETATM   15  C10 UNL     1     -27.546  -8.656   0.314  1.00  0.00     0.006 C 
ENDBRANCH  10  11
ENDBRANCH   1  10
TORSDOF 3
ENDMDL
MODEL 4
REMARK VINA RESULT: -6.109472288      0.975      1.471
REMARK  3 active torsions:
REMARK  status: ('A' for Active; 'I' for Inactive)
REMARK    1  A    between atoms: C4_6  and  N1_7 
REMARK    2  A    between atoms: N1_7  and  C5_10 
REMARK    3  A    between atoms: C5_10  and  C6_11 
ROOT
HETATM    1  N1  UNL     1     -24.985  -9.777   1.512  1.00  0.00    -0.061 N 
ATOM      2  H11 UNL     1     -24.704  -8.871   1.888  1.00  0.00     0.278 HD
ATOM      3  H12 UNL     1     -25.362 -10.167   2.376  1.00  0.00     0.278 HD
ENDROOT
BRANCH   1   4
HETATM    4  C4  UNL     1     -23.876 -10.540   0.982  1.00  0.00     0.286 C 
HETATM    5  C1  UNL     1     -22.790  -9.707   0.454  1.00  0.00     0.289 C 
HETATM    6  O1  UNL     1     -22.455  -8.513   0.732  1.00  0.00    -0.263 OA
HETATM    7  O2  UNL     1     -22.113 -10.483  -0.486  1.00  0.00    -0.320 OA
HETATM    8  C2  UNL     1     -22.898 -11.596  -0.862  1.00  0.00     0.181 C 
HETATM    9  C3  UNL     1     -24.287 -11.317  -0.271  1.00  0.00     0.070 C 
ENDBRANCH   1   4
BRANCH   1  10
HETATM   10  C5  UNL     1     -25.975  -9.671   0.460  1.00  0.00     0.238 C 
BRANCH  10  11
HETATM   11  C6  UNL     1     -26.274  -8.202   0.147  1.00  0.00     0.011 C 
HETATM   12  C7  UNL     1     -27.793  -7.983   0.189  1.00  0.00     0.006 C 
HETATM   13  C8  UNL     1     -27.869  -6.489   0.433  1.00  0.00     0.000 C 
HETATM   14  C9  UNL     1     -26.856  -6.305   1.545  1.00  0.00     0.000 C 
HETATM   15  C10 UNL     1     -25.769  -7.305   1.234  1.00  0.00     0.006 C 
ENDBRANCH  10  11
ENDBRANCH   1  10
TORSDOF 3
ENDMDL
MODEL 5
REMARK VINA RESULT: -6.084305480      1.352      1.870
REMARK  3 active torsions:
REMARK  status: ('A' for Active; 'I' for Inactive)
REMARK    1  A    between atoms: C4_6  and  N1_7 
REMARK    2  A    between atoms: N1_7  and  C5_10 
REMARK    3  A    between atoms: C5_10  and  C6_11 
ROOT
HETATM    1  N1  UNL     1     -25.358 -10.895  -0.190  1.00  0.00    -0.061 N 
ATOM      2  H11 UNL     1     -25.806 -11.811  -0.220  1.00  0.00     0.278 HD
ATOM      3  H12 UNL     1     -26.035 -10.398  -0.768  1.00  0.00     0.278 HD
ENDROOT
BRANCH   1   4
HETATM    4  C4  UNL     1     -24.025 -10.898  -0.754  1.00  0.00     0.286 C 
HETATM    5  C1  UNL     1     -23.705 -12.121  -1.498  1.00  0.00     0.289 C 
HETATM    6  O1  UNL     1     -24.467 -12.959  -2.076  1.00  0.00    -0.263 OA
HETATM    7  O2  UNL     1     -22.317 -12.247  -1.481  1.00  0.00    -0.320 OA
HETATM    8  C2  UNL     1     -21.760 -11.416  -0.483  1.00  0.00     0.181 C 
HETATM    9  C3  UNL     1     -22.959 -10.936   0.345  1.00  0.00     0.070 C 
ENDBRANCH   1   4
BRANCH   1  10
HETATM   10  C5  UNL     1     -25.255 -10.359   1.151  1.00  0.00     0.238 C 
BRANCH  10  11
HETATM   11  C6  UNL     1     -26.044  -9.051   1.270  1.00  0.00     0.011 C 
HETATM   12  C7  UNL     1     -25.194  -7.904   0.707  1.00  0.00     0.006 C 
HETATM   13  C8  UNL     1     -26.263  -6.880   0.378  1.00  0.00     0.000 C 
HETATM   14  C9  UNL     1     -27.296  -7.730  -0.334  1.00  0.00     0.000 C 
HETATM   15  C10 UNL     1     -27.243  -9.061   0.375  1.00  0.00     0.006 C 
ENDBRANCH  10  11
ENDBRANCH   1  10
TORSDOF 3
ENDMDL
