MODEL 1
REMARK VINA RESULT: -5.480968186      0.000      0.000
REMARK  3 active torsions:
REMARK  status: ('A' for Active; 'I' for Inactive)
REMARK    1  A    between atoms: N2_5  and  C4_6 
REMARK    2  A    between atoms: C4_6  and  C5_7 
REMARK    3  A    between atoms: C4_6  and  C8_10 
ROOT
HETATM    1  N1  UNL     1      32.163 -34.773  29.327  1.00  0.00    -0.197 NA
HETATM    2  C1  UNL     1      32.655 -35.749  28.964  1.00  0.00     0.068 C 
HETATM    3  C2  UNL     1      33.269 -36.975  28.511  1.00  0.00     0.146 C 
HETATM    4  C3  UNL     1      34.102 -37.655  29.620  1.00  0.00     0.139 C 
HETATM    5  N2  UNL     1      34.069 -38.992  29.279  1.00  0.00    -0.401 N 
HETATM    6  C10 UNL     1      32.676 -39.242  28.992  1.00  0.00     0.156 C 
HETATM    7  C11 UNL     1      32.238 -38.060  28.173  1.00  0.00     0.206 C 
HETATM    8  F1  UNL     1      31.014 -37.579  28.615  1.00  0.00    -0.246 F 
ENDROOT
BRANCH   5   9
HETATM    9  C4  UNL     1      34.997 -39.728  28.589  1.00  0.00     0.114 C 
BRANCH   9  10
HETATM   10  C5  UNL     1      36.278 -39.941  29.304  1.00  0.00     0.011 A 
HETATM   11  C6  UNL     1      37.501 -39.145  28.862  1.00  0.00     0.007 A 
HETATM   12  C7  UNL     1      37.449 -40.661  28.822  1.00  0.00     0.007 A 
ENDBRANCH   9  10
BRANCH   9  13
HETATM   13  C8  UNL     1      34.467 -41.056  28.044  1.00  0.00     0.168 A 
HETATM   14  C9  UNL     1      35.148 -41.866  27.080  1.00  0.00     0.202 A 
HETATM   15  O1  UNL     1      34.368 -40.841  26.553  1.00  0.00    -0.379 OA
ENDBRANCH   9  13
ENDBRANCH   5   9
TORSDOF 3
ENDMDL
MODEL 2
REMARK VINA RESULT: -5.356999223      3.876      5.050
REMARK  3 active torsions:
REMARK  status: ('A' for Active; 'I' for Inactive)
REMARK    1  A    between atoms: N2_5  and  C4_6 
REMARK    2  A    between atoms: C4_6  and  C5_7 
REMARK    3  A    between atoms: C4_6  and  C8_10 
ROOT
HETATM    1  N1  UNL     1      39.539 -36.642  27.695  1.00  0.00    -0.197 NA
HETATM    2  C1  UNL     1      38.802 -37.502  27.912  1.00  0.00     0.068 C 
HETATM    3  C2  UNL     1      37.884 -38.581  28.184  1.00  0.00     0.146 C 
HETATM    4  C3  UNL     1      37.935 -39.679  27.098  1.00  0.00     0.139 C 
HETATM    5  N2  UNL     1      37.545 -40.821  27.769  1.00  0.00    -0.401 N 
HETATM    6  C10 UNL     1      38.327 -40.792  28.983  1.00  0.00     0.156 C 
HETATM    7  C11 UNL     1      38.254 -39.365  29.450  1.00  0.00     0.206 C 
HETATM    8  F1  UNL     1      39.506 -38.906  29.833  1.00  0.00    -0.246 F 
ENDROOT
BRANCH   5   9
HETATM    9  C4  UNL     1      36.305 -41.403  27.831  1.00  0.00     0.114 C 
BRANCH   9  10
HETATM   10  C5  UNL     1      35.195 -40.555  27.334  1.00  0.00     0.011 A 
HETATM   11  C6  UNL     1      34.325 -39.822  28.349  1.00  0.00     0.007 A 
HETATM   12  C7  UNL     1      33.770 -40.851  27.381  1.00  0.00     0.007 A 
ENDBRANCH   9  10
BRANCH   9  13
HETATM   13  C8  UNL     1      36.232 -42.796  27.203  1.00  0.00     0.168 A 
HETATM   14  C9  UNL     1      35.308 -43.815  27.597  1.00  0.00     0.202 A 
HETATM   15  O1  UNL     1      36.475 -43.744  28.352  1.00  0.00    -0.379 OA
ENDBRANCH   9  13
ENDBRANCH   5   9
TORSDOF 3
ENDMDL
MODEL 3
REMARK VINA RESULT: -5.297425602      3.424      5.783
REMARK  3 active torsions:
REMARK  status: ('A' for Active; 'I' for Inactive)
REMARK    1  A    between atoms: N2_5  and  C4_6 
REMARK    2  A    between atoms: C4_6  and  C5_7 
REMARK    3  A    between atoms: C4_6  and  C8_10 
ROOT
HETATM    1  N1  UNL     1      40.467 -42.006  29.325  1.00  0.00    -0.197 NA
HETATM    2  C1  UNL     1      39.482 -41.516  28.983  1.00  0.00     0.068 C 
HETATM    3  C2  UNL     1      38.249 -40.899  28.555  1.00  0.00     0.146 C 
HETATM    4  C3  UNL     1      37.476 -40.262  29.730  1.00  0.00     0.139 C 
HETATM    5  N2  UNL     1      36.752 -39.248  29.134  1.00  0.00    -0.401 N 
HETATM    6  C10 UNL     1      37.719 -38.581  28.294  1.00  0.00     0.156 C 
HETATM    7  C11 UNL     1      38.483 -39.694  27.633  1.00  0.00     0.206 C 
HETATM    8  F1  UNL     1      39.847 -39.444  27.667  1.00  0.00    -0.246 F 
ENDROOT
BRANCH   5   9
HETATM    9  C4  UNL     1      35.448 -39.255  28.712  1.00  0.00     0.114 C 
BRANCH   9  10
HETATM   10  C5  UNL     1      34.979 -40.549  28.161  1.00  0.00     0.011 A 
HETATM   11  C6  UNL     1      35.054 -40.770  26.654  1.00  0.00     0.007 A 
HETATM   12  C7  UNL     1      33.748 -40.801  27.426  1.00  0.00     0.007 A 
ENDBRANCH   9  10
BRANCH   9  13
HETATM   13  C8  UNL     1      34.450 -38.725  29.744  1.00  0.00     0.168 A 
HETATM   14  C9  UNL     1      33.141 -38.239  29.430  1.00  0.00     0.202 A 
HETATM   15  O1  UNL     1      34.169 -37.308  29.307  1.00  0.00    -0.379 OA
ENDBRANCH   9  13
ENDBRANCH   5   9
TORSDOF 3
ENDMDL
MODEL 4
REMARK VINA RESULT: -5.295976827      1.253      2.214
REMARK  3 active torsions:
REMARK  status: ('A' for Active; 'I' for Inactive)
REMARK    1  A    between atoms: N2_5  and  C4_6 
REMARK    2  A    between atoms: C4_6  and  C5_7 
REMARK    3  A    between atoms: C4_6  and  C8_10 
ROOT
HETATM    1  N1  UNL     1      32.307 -34.670  29.256  1.00  0.00    -0.197 NA
HETATM    2  C1  UNL     1      32.748 -35.690  28.952  1.00  0.00     0.068 C 
HETATM    3  C2  UNL     1      33.299 -36.970  28.575  1.00  0.00     0.146 C 
HETATM    4  C3  UNL     1      34.069 -37.640  29.734  1.00  0.00     0.139 C 
HETATM    5  N2  UNL     1      33.965 -38.989  29.459  1.00  0.00    -0.401 N 
HETATM    6  C10 UNL     1      32.565 -39.173  29.153  1.00  0.00     0.156 C 
HETATM    7  C11 UNL     1      32.213 -38.010  28.266  1.00  0.00     0.206 C 
HETATM    8  F1  UNL     1      31.011 -37.438  28.657  1.00  0.00    -0.246 F 
ENDROOT
BRANCH   5   9
HETATM    9  C4  UNL     1      34.862 -39.811  28.827  1.00  0.00     0.114 C 
BRANCH   9  10
HETATM   10  C5  UNL     1      34.335 -40.495  27.622  1.00  0.00     0.011 A 
HETATM   11  C6  UNL     1      34.699 -41.959  27.396  1.00  0.00     0.007 A 
HETATM   12  C7  UNL     1      35.073 -40.858  26.420  1.00  0.00     0.007 A 
ENDBRANCH   9  10
BRANCH   9  13
HETATM   13  C8  UNL     1      36.208 -39.153  28.518  1.00  0.00     0.168 A 
HETATM   14  C9  UNL     1      37.447 -39.860  28.402  1.00  0.00     0.202 A 
HETATM   15  O1  UNL     1      37.082 -39.506  29.698  1.00  0.00    -0.379 OA
ENDBRANCH   9  13
ENDBRANCH   5   9
TORSDOF 3
ENDMDL
MODEL 5
REMARK VINA RESULT: -5.161056308      2.335      3.579
REMARK  3 active torsions:
REMARK  status: ('A' for Active; 'I' for Inactive)
REMARK    1  A    between atoms: N2_5  and  C4_6 
REMARK    2  A    between atoms: C4_6  and  C5_7 
REMARK    3  A    between atoms: C4_6  and  C8_10 
ROOT
HETATM    1  N1  UNL     1      31.743 -38.056  28.132  1.00  0.00    -0.197 NA
HETATM    2  C1  UNL     1      32.625 -38.763  28.352  1.00  0.00     0.068 C 
HETATM    3  C2  UNL     1      33.733 -39.647  28.625  1.00  0.00     0.146 C 
HETATM    4  C3  UNL     1      34.522 -40.008  27.348  1.00  0.00     0.139 C 
HETATM    5  N2  UNL     1      35.794 -40.275  27.813  1.00  0.00    -0.401 N 
HETATM    6  C10 UNL     1      36.076 -39.171  28.700  1.00  0.00     0.156 C 
HETATM    7  C11 UNL     1      34.812 -38.986  29.493  1.00  0.00     0.206 C 
HETATM    8  F1  UNL     1      34.472 -37.644  29.574  1.00  0.00    -0.246 F 
ENDROOT
BRANCH   5   9
HETATM    9  C4  UNL     1      36.366 -41.485  28.110  1.00  0.00     0.114 C 
BRANCH   9  10
HETATM   10  C5  UNL     1      35.946 -42.604  27.232  1.00  0.00     0.011 A 
HETATM   11  C6  UNL     1      35.193 -43.776  27.852  1.00  0.00     0.007 A 
HETATM   12  C7  UNL     1      36.533 -43.934  27.156  1.00  0.00     0.007 A 
ENDBRANCH   9  10
BRANCH   9  13
HETATM   13  C8  UNL     1      37.891 -41.448  28.230  1.00  0.00     0.168 A 
HETATM   14  C9  UNL     1      38.672 -42.417  28.935  1.00  0.00     0.202 A 
HETATM   15  O1  UNL     1      38.153 -41.388  29.716  1.00  0.00    -0.379 OA
ENDBRANCH   9  13
ENDBRANCH   5   9
TORSDOF 3
ENDMDL
