MODEL 1
REMARK VINA RESULT: -6.126424181      0.000      0.000
REMARK  2 active torsions:
REMARK  status: ('A' for Active; 'I' for Inactive)
REMARK    1  A    between atoms: N1_4  and  C3_5 
REMARK    2  A    between atoms: C3_5  and  C4_6 
ROOT
HETATM    1  C3  UNL     1      34.300 -38.539  29.668  1.00  0.00     0.308 C 
ENDROOT
BRANCH   1   2
HETATM    2  N1  UNL     1      33.398 -37.636  29.031  1.00  0.00     0.097 N 
HETATM    3  C2  UNL     1      34.015 -36.280  28.995  1.00  0.00     0.338 C 
HETATM    4  C1  UNL     1      33.015 -35.230  28.702  1.00  0.00     0.335 C 
HETATM    5  F1  UNL     1      32.782 -34.397  29.811  1.00  0.00    -0.218 F 
HETATM    6  O1  UNL     1      31.853 -35.607  28.095  1.00  0.00    -0.353 OA
HETATM    7  C11 UNL     1      31.268 -36.751  28.545  1.00  0.00     0.201 C 
HETATM    8  C10 UNL     1      32.099 -37.488  29.595  1.00  0.00     0.298 C 
ENDBRANCH   1   2
BRANCH   1   9
HETATM    9  C4  UNL     1      34.336 -39.859  29.060  1.00  0.00     0.251 C 
HETATM   10  C5  UNL     1      33.862 -39.892  27.603  1.00  0.00     0.044 C 
HETATM   11  C6  UNL     1      34.497 -41.127  27.082  1.00  0.00     0.018 C 
HETATM   12  C7  UNL     1      35.860 -40.700  26.543  1.00  0.00     0.036 C 
HETATM   13  C9  UNL     1      35.029 -41.797  28.362  1.00  0.00     0.277 C 
HETATM   14  C8  UNL     1      36.391 -40.025  27.807  1.00  0.00     0.273 C 
HETATM   15  N2  UNL     1      35.601 -40.541  28.925  1.00  0.00     0.095 N 
ENDBRANCH   1   9
TORSDOF 2
ENDMDL
MODEL 2
REMARK VINA RESULT: -6.080060689      1.049      1.713
REMARK  2 active torsions:
REMARK  status: ('A' for Active; 'I' for Inactive)
REMARK    1  A    between atoms: N1_4  and  C3_5 
REMARK    2  A    between atoms: C3_5  and  C4_6 
ROOT
HETATM    1  C3  UNL     1      34.745 -38.610  29.651  1.00  0.00     0.308 C 
ENDROOT
BRANCH   1   2
HETATM    2  N1  UNL     1      33.614 -38.021  29.014  1.00  0.00     0.097 N 
HETATM    3  C2  UNL     1      33.734 -36.537  29.088  1.00  0.00     0.338 C 
HETATM    4  C1  UNL     1      32.448 -35.868  28.795  1.00  0.00     0.335 C 
HETATM    5  F1  UNL     1      31.906 -35.243  29.932  1.00  0.00    -0.218 F 
HETATM    6  O1  UNL     1      31.506 -36.570  28.102  1.00  0.00    -0.353 OA
HETATM    7  C11 UNL     1      31.329 -37.873  28.454  1.00  0.00     0.201 C 
HETATM    8  C10 UNL     1      32.323 -38.360  29.509  1.00  0.00     0.298 C 
ENDBRANCH   1   2
BRANCH   1   9
HETATM    9  C4  UNL     1      35.650 -39.285  28.736  1.00  0.00     0.251 C 
HETATM   10  C5  UNL     1      36.549 -40.333  29.401  1.00  0.00     0.044 C 
HETATM   11  C6  UNL     1      36.921 -41.210  28.265  1.00  0.00     0.018 C 
HETATM   12  C7  UNL     1      35.845 -42.293  28.202  1.00  0.00     0.036 C 
HETATM   13  C9  UNL     1      36.423 -40.413  27.046  1.00  0.00     0.277 C 
HETATM   14  C8  UNL     1      34.624 -41.378  28.112  1.00  0.00     0.273 C 
HETATM   15  N2  UNL     1      35.106 -40.074  27.656  1.00  0.00     0.095 N 
ENDBRANCH   1   9
TORSDOF 2
ENDMDL
MODEL 3
REMARK VINA RESULT: -6.070990462      1.233      1.403
REMARK  2 active torsions:
REMARK  status: ('A' for Active; 'I' for Inactive)
REMARK    1  A    between atoms: N1_4  and  C3_5 
REMARK    2  A    between atoms: C3_5  and  C4_6 
ROOT
HETATM    1  C3  UNL     1      34.854 -38.595  29.837  1.00  0.00     0.308 C 
ENDROOT
BRANCH   1   2
HETATM    2  N1  UNL     1      33.707 -38.119  29.135  1.00  0.00     0.097 N 
HETATM    3  C2  UNL     1      33.717 -36.629  29.146  1.00  0.00     0.338 C 
HETATM    4  C1  UNL     1      32.397 -36.070  28.780  1.00  0.00     0.335 C 
HETATM    5  F1  UNL     1      31.770 -35.438  29.869  1.00  0.00    -0.218 F 
HETATM    6  O1  UNL     1      31.535 -36.869  28.088  1.00  0.00    -0.353 OA
HETATM    7  C11 UNL     1      31.440 -38.165  28.492  1.00  0.00     0.201 C 
HETATM    8  C10 UNL     1      32.427 -38.531  29.601  1.00  0.00     0.298 C 
ENDBRANCH   1   2
BRANCH   1   9
HETATM    9  C4  UNL     1      35.475 -39.759  29.226  1.00  0.00     0.251 C 
HETATM   10  C5  UNL     1      35.302 -39.837  27.705  1.00  0.00     0.044 C 
HETATM   11  C6  UNL     1      36.424 -40.715  27.295  1.00  0.00     0.018 C 
HETATM   12  C7  UNL     1      37.607 -39.787  27.030  1.00  0.00     0.036 C 
HETATM   13  C9  UNL     1      36.938 -41.256  28.642  1.00  0.00     0.277 C 
HETATM   14  C8  UNL     1      37.630 -39.075  28.383  1.00  0.00     0.273 C 
HETATM   15  N2  UNL     1      36.906 -39.931  29.322  1.00  0.00     0.095 N 
ENDBRANCH   1   9
TORSDOF 2
ENDMDL
MODEL 4
REMARK VINA RESULT: -5.406803350      2.686      3.949
REMARK  2 active torsions:
REMARK  status: ('A' for Active; 'I' for Inactive)
REMARK    1  A    between atoms: N1_4  and  C3_5 
REMARK    2  A    between atoms: C3_5  and  C4_6 
ROOT
HETATM    1  C3  UNL     1      36.844 -39.909  29.395  1.00  0.00     0.308 C 
ENDROOT
BRANCH   1   2
HETATM    2  N1  UNL     1      35.609 -39.661  28.727  1.00  0.00     0.097 N 
HETATM    3  C2  UNL     1      34.892 -38.560  29.430  1.00  0.00     0.338 C 
HETATM    4  C1  UNL     1      33.466 -38.499  29.041  1.00  0.00     0.335 C 
HETATM    5  F1  UNL     1      32.613 -38.869  30.097  1.00  0.00    -0.218 F 
HETATM    6  O1  UNL     1      33.100 -39.081  27.863  1.00  0.00    -0.353 OA
HETATM    7  C11 UNL     1      33.650 -40.293  27.579  1.00  0.00     0.201 C 
HETATM    8  C10 UNL     1      34.694 -40.743  28.602  1.00  0.00     0.298 C 
ENDBRANCH   1   2
BRANCH   1   9
HETATM    9  C4  UNL     1      37.978 -40.057  28.497  1.00  0.00     0.251 C 
HETATM   10  C5  UNL     1      37.699 -39.618  27.055  1.00  0.00     0.044 C 
HETATM   11  C6  UNL     1      39.057 -39.338  26.532  1.00  0.00     0.018 C 
HETATM   12  C7  UNL     1      39.331 -37.868  26.840  1.00  0.00     0.036 C 
HETATM   13  C9  UNL     1      39.967 -39.909  27.634  1.00  0.00     0.277 C 
HETATM   14  C8  UNL     1      39.070 -37.912  28.346  1.00  0.00     0.273 C 
HETATM   15  N2  UNL     1      39.187 -39.311  28.754  1.00  0.00     0.095 N 
ENDBRANCH   1   9
TORSDOF 2
ENDMDL
MODEL 5
REMARK VINA RESULT: -5.300804230      1.313      2.136
REMARK  2 active torsions:
REMARK  status: ('A' for Active; 'I' for Inactive)
REMARK    1  A    between atoms: N1_4  and  C3_5 
REMARK    2  A    between atoms: C3_5  and  C4_6 
ROOT
HETATM    1  C3  UNL     1      34.618 -38.964  29.627  1.00  0.00     0.308 C 
ENDROOT
BRANCH   1   2
HETATM    2  N1  UNL     1      33.840 -37.768  29.644  1.00  0.00     0.097 N 
HETATM    3  C2  UNL     1      32.395 -38.131  29.653  1.00  0.00     0.338 C 
HETATM    4  C1  UNL     1      31.539 -36.979  29.294  1.00  0.00     0.335 C 
HETATM    5  F1  UNL     1      30.919 -37.150  28.044  1.00  0.00    -0.218 F 
HETATM    6  O1  UNL     1      32.061 -35.726  29.438  1.00  0.00    -0.353 OA
HETATM    7  C11 UNL     1      33.347 -35.546  29.030  1.00  0.00     0.201 C 
HETATM    8  C10 UNL     1      34.031 -36.839  28.583  1.00  0.00     0.298 C 
ENDBRANCH   1   2
BRANCH   1   9
HETATM    9  C4  UNL     1      34.860 -39.488  28.292  1.00  0.00     0.251 C 
HETATM   10  C5  UNL     1      36.306 -39.932  28.046  1.00  0.00     0.044 C 
HETATM   11  C6  UNL     1      36.166 -40.886  26.919  1.00  0.00     0.018 C 
HETATM   12  C7  UNL     1      35.939 -42.256  27.555  1.00  0.00     0.036 C 
HETATM   13  C9  UNL     1      34.708 -40.668  26.474  1.00  0.00     0.277 C 
HETATM   14  C8  UNL     1      34.735 -41.894  28.423  1.00  0.00     0.273 C 
HETATM   15  N2  UNL     1      34.159 -40.673  27.859  1.00  0.00     0.095 N 
ENDBRANCH   1   9
TORSDOF 2
ENDMDL
