MODEL 1
REMARK VINA RESULT: -6.783990996      0.000      0.000
REMARK  2 active torsions:
REMARK  status: ('A' for Active; 'I' for Inactive)
REMARK    1  A    between atoms: N1_2  and  C1_4 
REMARK    2  A    between atoms: N2_7  and  C4_8 
ROOT
HETATM    1  C1  UNL     1      35.619 -41.439  28.229  1.00  0.00     0.105 A 
HETATM    2  C2  UNL     1      34.385 -41.268  27.626  1.00  0.00     0.053 A 
HETATM    3  C3  UNL     1      33.723 -40.080  27.838  1.00  0.00     0.100 A 
HETATM    4  N2  UNL     1      34.247 -39.108  28.605  1.00  0.00    -0.319 N 
HETATM    5  C9  UNL     1      35.442 -39.247  29.202  1.00  0.00     0.100 A 
HETATM    6  C10 UNL     1      36.130 -40.418  29.012  1.00  0.00     0.053 A 
ENDROOT
BRANCH   4   7
HETATM    7  C4  UNL     1      33.538 -37.908  28.797  1.00  0.00     0.111 A 
HETATM    8  C5  UNL     1      32.161 -37.922  28.696  1.00  0.00     0.052 A 
HETATM    9  C6  UNL     1      31.441 -36.761  28.879  1.00  0.00     0.047 A 
HETATM   10  C7  UNL     1      32.168 -35.619  29.163  1.00  0.00     0.131 A 
HETATM   11  F1  UNL     1      31.498 -34.445  29.353  1.00  0.00    -0.205 F 
HETATM   12  C8  UNL     1      33.545 -35.623  29.260  1.00  0.00     0.132 A 
HETATM   13  N3  UNL     1      34.200 -36.777  29.073  1.00  0.00    -0.349 N 
ATOM     14  H3  UNL     1      35.218 -36.794  29.143  1.00  0.00     0.167 HD
ENDBRANCH   4   7
BRANCH   1  15
HETATM   15  N1  UNL     1      36.346 -42.642  28.045  1.00  0.00    -0.116 N 
HETATM   16  O1  UNL     1      37.443 -42.762  28.618  1.00  0.00    -0.532 OA
HETATM   17  O2  UNL     1      35.810 -43.615  27.247  1.00  0.00    -0.532 OA
ENDBRANCH   1  15
TORSDOF 2
ENDMDL
MODEL 2
REMARK VINA RESULT: -6.772649244      0.037      1.183
REMARK  2 active torsions:
REMARK  status: ('A' for Active; 'I' for Inactive)
REMARK    1  A    between atoms: N1_2  and  C1_4 
REMARK    2  A    between atoms: N2_7  and  C4_8 
ROOT
HETATM    1  C1  UNL     1      35.632 -41.431  28.233  1.00  0.00     0.105 A 
HETATM    2  C2  UNL     1      36.181 -40.432  29.016  1.00  0.00     0.053 A 
HETATM    3  C3  UNL     1      35.457 -39.274  29.187  1.00  0.00     0.100 A 
HETATM    4  N2  UNL     1      34.252 -39.105  28.615  1.00  0.00    -0.319 N 
HETATM    5  C9  UNL     1      33.695 -40.058  27.849  1.00  0.00     0.100 A 
HETATM    6  C10 UNL     1      34.389 -41.225  27.658  1.00  0.00     0.053 A 
ENDROOT
BRANCH   4   7
HETATM    7  C4  UNL     1      33.543 -37.906  28.813  1.00  0.00     0.111 A 
HETATM    8  C5  UNL     1      32.166 -37.922  28.720  1.00  0.00     0.052 A 
HETATM    9  C6  UNL     1      31.446 -36.762  28.908  1.00  0.00     0.047 A 
HETATM   10  C7  UNL     1      32.173 -35.619  29.189  1.00  0.00     0.131 A 
HETATM   11  F1  UNL     1      31.503 -34.446  29.384  1.00  0.00    -0.205 F 
HETATM   12  C8  UNL     1      33.550 -35.621  29.278  1.00  0.00     0.132 A 
HETATM   13  N3  UNL     1      34.206 -36.775  29.086  1.00  0.00    -0.349 N 
ATOM     14  H3  UNL     1      35.224 -36.791  29.149  1.00  0.00     0.167 HD
ENDBRANCH   4   7
BRANCH   1  15
HETATM   15  N1  UNL     1      36.333 -42.645  28.022  1.00  0.00    -0.116 N 
HETATM   16  O1  UNL     1      37.417 -42.809  28.606  1.00  0.00    -0.532 OA
HETATM   17  O2  UNL     1      35.785 -43.580  27.187  1.00  0.00    -0.532 OA
ENDBRANCH   1  15
TORSDOF 2
ENDMDL
MODEL 3
REMARK VINA RESULT: -6.479727036      4.441      6.555
REMARK  2 active torsions:
REMARK  status: ('A' for Active; 'I' for Inactive)
REMARK    1  A    between atoms: N1_2  and  C1_4 
REMARK    2  A    between atoms: N2_7  and  C4_8 
ROOT
HETATM    1  C1  UNL     1      33.057 -37.729  28.866  1.00  0.00     0.105 A 
HETATM    2  C2  UNL     1      32.581 -38.723  28.030  1.00  0.00     0.053 A 
HETATM    3  C3  UNL     1      33.350 -39.853  27.867  1.00  0.00     0.100 A 
HETATM    4  N2  UNL     1      34.529 -39.999  28.496  1.00  0.00    -0.319 N 
HETATM    5  C9  UNL     1      35.016 -39.051  29.314  1.00  0.00     0.100 A 
HETATM    6  C10 UNL     1      34.275 -37.911  29.499  1.00  0.00     0.053 A 
ENDROOT
BRANCH   4   7
HETATM    7  C4  UNL     1      35.286 -41.170  28.304  1.00  0.00     0.111 A 
HETATM    8  C5  UNL     1      36.660 -41.101  28.412  1.00  0.00     0.052 A 
HETATM    9  C6  UNL     1      37.427 -42.232  28.228  1.00  0.00     0.047 A 
HETATM   10  C7  UNL     1      36.747 -43.401  27.939  1.00  0.00     0.131 A 
HETATM   11  F1  UNL     1      37.464 -44.547  27.749  1.00  0.00    -0.205 F 
HETATM   12  C8  UNL     1      35.372 -43.452  27.834  1.00  0.00     0.132 A 
HETATM   13  N3  UNL     1      34.671 -42.326  28.022  1.00  0.00    -0.349 N 
ATOM     14  H3  UNL     1      33.653 -42.349  27.948  1.00  0.00     0.167 HD
ENDBRANCH   4   7
BRANCH   1  15
HETATM   15  N1  UNL     1      32.307 -36.543  29.071  1.00  0.00    -0.116 N 
HETATM   16  O1  UNL     1      31.072 -36.636  29.171  1.00  0.00    -0.532 OA
HETATM   17  O2  UNL     1      32.976 -35.352  29.148  1.00  0.00    -0.532 OA
ENDBRANCH   1  15
TORSDOF 2
ENDMDL
MODEL 4
REMARK VINA RESULT: -6.473200881      0.774      1.252
REMARK  2 active torsions:
REMARK  status: ('A' for Active; 'I' for Inactive)
REMARK    1  A    between atoms: N1_2  and  C1_4 
REMARK    2  A    between atoms: N2_7  and  C4_8 
ROOT
HETATM    1  C1  UNL     1      35.516 -41.395  28.224  1.00  0.00     0.105 A 
HETATM    2  C2  UNL     1      34.309 -41.216  27.572  1.00  0.00     0.053 A 
HETATM    3  C3  UNL     1      33.636 -40.033  27.772  1.00  0.00     0.100 A 
HETATM    4  N2  UNL     1      34.125 -39.071  28.574  1.00  0.00    -0.319 N 
HETATM    5  C9  UNL     1      35.293 -39.216  29.220  1.00  0.00     0.100 A 
HETATM    6  C10 UNL     1      35.991 -40.384  29.044  1.00  0.00     0.053 A 
ENDROOT
BRANCH   4   7
HETATM    7  C4  UNL     1      33.406 -37.874  28.752  1.00  0.00     0.111 A 
HETATM    8  C5  UNL     1      34.101 -36.710  29.012  1.00  0.00     0.052 A 
HETATM    9  C6  UNL     1      33.424 -35.524  29.192  1.00  0.00     0.047 A 
HETATM   10  C7  UNL     1      32.044 -35.577  29.096  1.00  0.00     0.131 A 
HETATM   11  F1  UNL     1      31.330 -34.426  29.267  1.00  0.00    -0.205 F 
HETATM   12  C8  UNL     1      31.365 -36.750  28.837  1.00  0.00     0.132 A 
HETATM   13  N3  UNL     1      32.069 -37.878  28.670  1.00  0.00    -0.349 N 
ATOM     14  H3  UNL     1      31.580 -38.752  28.476  1.00  0.00     0.167 HD
ENDBRANCH   4   7
BRANCH   1  15
HETATM   15  N1  UNL     1      36.253 -42.594  28.056  1.00  0.00    -0.116 N 
HETATM   16  O1  UNL     1      37.452 -42.511  27.743  1.00  0.00    -0.532 OA
HETATM   17  O2  UNL     1      35.611 -43.788  28.244  1.00  0.00    -0.532 OA
ENDBRANCH   1  15
TORSDOF 2
ENDMDL
MODEL 5
REMARK VINA RESULT: -6.469389070      4.442      6.662
REMARK  2 active torsions:
REMARK  status: ('A' for Active; 'I' for Inactive)
REMARK    1  A    between atoms: N1_2  and  C1_4 
REMARK    2  A    between atoms: N2_7  and  C4_8 
ROOT
HETATM    1  C1  UNL     1      33.077 -37.731  28.879  1.00  0.00     0.105 A 
HETATM    2  C2  UNL     1      34.286 -37.892  29.531  1.00  0.00     0.053 A 
HETATM    3  C3  UNL     1      34.992 -39.052  29.306  1.00  0.00     0.100 A 
HETATM    4  N2  UNL     1      34.531 -40.009  28.481  1.00  0.00    -0.319 N 
HETATM    5  C9  UNL     1      33.360 -39.880  27.835  1.00  0.00     0.100 A 
HETATM    6  C10 UNL     1      32.631 -38.736  28.036  1.00  0.00     0.053 A 
ENDROOT
BRANCH   4   7
HETATM    7  C4  UNL     1      35.282 -41.181  28.278  1.00  0.00     0.111 A 
HETATM    8  C5  UNL     1      36.660 -41.109  28.328  1.00  0.00     0.052 A 
HETATM    9  C6  UNL     1      37.420 -42.241  28.132  1.00  0.00     0.047 A 
HETATM   10  C7  UNL     1      36.732 -43.416  27.891  1.00  0.00     0.131 A 
HETATM   11  F1  UNL     1      37.443 -44.564  27.691  1.00  0.00    -0.205 F 
HETATM   12  C8  UNL     1      35.354 -43.471  27.844  1.00  0.00     0.132 A 
HETATM   13  N3  UNL     1      34.658 -42.342  28.041  1.00  0.00    -0.349 N 
ATOM     14  H3  UNL     1      33.638 -42.368  28.010  1.00  0.00     0.167 HD
ENDBRANCH   4   7
BRANCH   1  15
HETATM   15  N1  UNL     1      32.307 -36.557  29.072  1.00  0.00    -0.116 N 
HETATM   16  O1  UNL     1      31.073 -36.668  29.166  1.00  0.00    -0.532 OA
HETATM   17  O2  UNL     1      32.957 -35.355  29.147  1.00  0.00    -0.532 OA
ENDBRANCH   1  15
TORSDOF 2
ENDMDL
