MODEL 1
REMARK VINA RESULT: -4.616420157      0.000      0.000
REMARK  2 active torsions:
REMARK  status: ('A' for Active; 'I' for Inactive)
REMARK    1  A    between atoms: S1_2  and  C2_3 
REMARK    2  A    between atoms: N2_7  and  C4_8 
ROOT
HETATM    1  C2  UNL     1      33.119 -36.978  28.922  1.00  0.00     0.145 A 
HETATM    2  N1  UNL     1      32.427 -37.857  28.188  1.00  0.00    -0.333 N 
ATOM      3  H1  UNL     1      31.569 -37.555  27.727  1.00  0.00     0.168 HD
HETATM    4  C3  UNL     1      32.843 -39.147  28.043  1.00  0.00     0.186 A 
HETATM    5  N2  UNL     1      33.955 -39.545  28.638  1.00  0.00    -0.329 N 
HETATM    6  C5  UNL     1      34.680 -38.681  29.387  1.00  0.00     0.186 A 
HETATM    7  N3  UNL     1      34.245 -37.409  29.515  1.00  0.00    -0.333 N 
ATOM      8  H3  UNL     1      34.789 -36.755  30.078  1.00  0.00     0.168 HD
ENDROOT
BRANCH   1   9
HETATM    9  S1  UNL     1      32.557 -35.296  29.098  1.00  0.00    -0.098 SA
HETATM   10  C1  UNL     1      34.027 -34.257  29.344  1.00  0.00     0.099 C 
ENDBRANCH   1   9
BRANCH   5  11
HETATM   11  C4  UNL     1      34.399 -40.906  28.488  1.00  0.00     0.215 C 
HETATM   12 BR1  UNL     1      34.981 -41.128  26.639  1.00  0.00    -0.074 Br
ENDBRANCH   5  11
TORSDOF 2
ENDMDL
MODEL 2
REMARK VINA RESULT: -4.604908066      1.358      1.998
REMARK  2 active torsions:
REMARK  status: ('A' for Active; 'I' for Inactive)
REMARK    1  A    between atoms: S1_2  and  C2_3 
REMARK    2  A    between atoms: N2_7  and  C4_8 
ROOT
HETATM    1  C2  UNL     1      33.150 -38.147  28.919  1.00  0.00     0.145 A 
HETATM    2  N1  UNL     1      34.307 -38.096  29.588  1.00  0.00    -0.333 N 
ATOM      3  H1  UNL     1      34.467 -37.338  30.251  1.00  0.00     0.168 HD
HETATM    4  C3  UNL     1      35.278 -39.034  29.403  1.00  0.00     0.186 A 
HETATM    5  N2  UNL     1      35.078 -40.021  28.545  1.00  0.00    -0.329 N 
HETATM    6  C5  UNL     1      33.918 -40.103  27.852  1.00  0.00     0.186 A 
HETATM    7  N3  UNL     1      32.973 -39.160  28.054  1.00  0.00    -0.333 N 
ATOM      8  H3  UNL     1      32.097 -39.219  27.534  1.00  0.00     0.168 HD
ENDROOT
BRANCH   1   9
HETATM    9  S1  UNL     1      31.894 -36.909  29.176  1.00  0.00    -0.098 SA
HETATM   10  C1  UNL     1      32.666 -35.289  28.894  1.00  0.00     0.099 C 
ENDBRANCH   1   9
BRANCH   5  11
HETATM   11  C4  UNL     1      36.100 -41.015  28.347  1.00  0.00     0.215 C 
HETATM   12 BR1  UNL     1      35.258 -42.553  27.491  1.00  0.00    -0.074 Br
ENDBRANCH   5  11
TORSDOF 2
ENDMDL
MODEL 3
REMARK VINA RESULT: -4.600103219      1.360      1.418
REMARK  2 active torsions:
REMARK  status: ('A' for Active; 'I' for Inactive)
REMARK    1  A    between atoms: S1_2  and  C2_3 
REMARK    2  A    between atoms: N2_7  and  C4_8 
ROOT
HETATM    1  C2  UNL     1      33.157 -38.152  28.928  1.00  0.00     0.145 A 
HETATM    2  N1  UNL     1      32.975 -39.160  28.067  1.00  0.00    -0.333 N 
ATOM      3  H1  UNL     1      32.099 -39.223  27.551  1.00  0.00     0.168 HD
HETATM    4  C3  UNL     1      33.937 -40.105  27.866  1.00  0.00     0.186 A 
HETATM    5  N2  UNL     1      35.077 -40.029  28.531  1.00  0.00    -0.329 N 
HETATM    6  C5  UNL     1      35.294 -39.021  29.409  1.00  0.00     0.186 A 
HETATM    7  N3  UNL     1      34.325 -38.099  29.590  1.00  0.00    -0.333 N 
ATOM      8  H3  UNL     1      34.484 -37.337  30.250  1.00  0.00     0.168 HD
ENDROOT
BRANCH   1   9
HETATM    9  S1  UNL     1      31.886 -36.927  29.176  1.00  0.00    -0.098 SA
HETATM   10  C1  UNL     1      32.645 -35.298  28.908  1.00  0.00     0.099 C 
ENDBRANCH   1   9
BRANCH   5  11
HETATM   11  C4  UNL     1      36.096 -41.024  28.321  1.00  0.00     0.215 C 
HETATM   12 BR1  UNL     1      35.240 -42.566  27.487  1.00  0.00    -0.074 Br
ENDBRANCH   5  11
TORSDOF 2
ENDMDL
MODEL 4
REMARK VINA RESULT: -4.464896296      1.548      2.127
REMARK  2 active torsions:
REMARK  status: ('A' for Active; 'I' for Inactive)
REMARK    1  A    between atoms: S1_2  and  C2_3 
REMARK    2  A    between atoms: N2_7  and  C4_8 
ROOT
HETATM    1  C2  UNL     1      33.133 -38.141  28.923  1.00  0.00     0.145 A 
HETATM    2  N1  UNL     1      34.300 -38.090  29.575  1.00  0.00    -0.333 N 
ATOM      3  H1  UNL     1      34.470 -37.331  30.234  1.00  0.00     0.168 HD
HETATM    4  C3  UNL     1      35.267 -39.029  29.376  1.00  0.00     0.186 A 
HETATM    5  N2  UNL     1      35.054 -40.016  28.523  1.00  0.00    -0.329 N 
HETATM    6  C5  UNL     1      33.883 -40.099  27.848  1.00  0.00     0.186 A 
HETATM    7  N3  UNL     1      32.942 -39.156  28.063  1.00  0.00    -0.333 N 
ATOM      8  H3  UNL     1      32.058 -39.215  27.556  1.00  0.00     0.168 HD
ENDROOT
BRANCH   1   9
HETATM    9  S1  UNL     1      31.881 -36.902  29.198  1.00  0.00    -0.098 SA
HETATM   10  C1  UNL     1      32.655 -35.282  28.920  1.00  0.00     0.099 C 
ENDBRANCH   1   9
BRANCH   5  11
HETATM   11  C4  UNL     1      36.072 -41.012  28.311  1.00  0.00     0.215 C 
HETATM   12 BR1  UNL     1      37.580 -40.126  27.444  1.00  0.00    -0.074 Br
ENDBRANCH   5  11
TORSDOF 2
ENDMDL
MODEL 5
REMARK VINA RESULT: -4.453402358      1.526      1.544
REMARK  2 active torsions:
REMARK  status: ('A' for Active; 'I' for Inactive)
REMARK    1  A    between atoms: S1_2  and  C2_3 
REMARK    2  A    between atoms: N2_7  and  C4_8 
ROOT
HETATM    1  C2  UNL     1      33.112 -38.109  28.924  1.00  0.00     0.145 A 
HETATM    2  N1  UNL     1      32.894 -39.106  28.060  1.00  0.00    -0.333 N 
ATOM      3  H1  UNL     1      32.008 -39.146  27.557  1.00  0.00     0.168 HD
HETATM    4  C3  UNL     1      33.830 -40.071  27.836  1.00  0.00     0.186 A 
HETATM    5  N2  UNL     1      34.982 -40.027  28.484  1.00  0.00    -0.329 N 
HETATM    6  C5  UNL     1      35.236 -39.030  29.365  1.00  0.00     0.186 A 
HETATM    7  N3  UNL     1      34.291 -38.087  29.568  1.00  0.00    -0.333 N 
ATOM      8  H3  UNL     1      34.479 -37.334  30.231  1.00  0.00     0.168 HD
ENDROOT
BRANCH   1   9
HETATM    9  S1  UNL     1      31.874 -36.857  29.201  1.00  0.00    -0.098 SA
HETATM   10  C1  UNL     1      32.663 -35.245  28.921  1.00  0.00     0.099 C 
ENDBRANCH   1   9
BRANCH   5  11
HETATM   11  C4  UNL     1      35.975 -41.043  28.251  1.00  0.00     0.215 C 
HETATM   12 BR1  UNL     1      37.541 -40.163  27.491  1.00  0.00    -0.074 Br
ENDBRANCH   5  11
TORSDOF 2
ENDMDL
