MODEL 1
REMARK VINA RESULT: -5.440479943      0.000      0.000
REMARK  4 active torsions:
REMARK  status: ('A' for Active; 'I' for Inactive)
REMARK    1  A    between atoms: C2_2  and  C3_4 
REMARK    2  A    between atoms: C6_9  and  C7_10 
REMARK    3  A    between atoms: C7_10  and  N2_11 
REMARK    4  A    between atoms: N2_11  and  N3_12 
ROOT
HETATM    1  C3  UNL     1      33.600 -38.789  28.733  1.00  0.00     0.095 A 
HETATM    2  N1  UNL     1      32.325 -39.062  28.404  1.00  0.00    -0.355 N 
ATOM      3  H1  UNL     1      32.084 -40.027  28.178  1.00  0.00     0.166 HD
HETATM    4  C4  UNL     1      31.350 -38.139  28.353  1.00  0.00     0.092 A 
HETATM    5  C5  UNL     1      31.711 -36.823  28.668  1.00  0.00     0.049 A 
HETATM    6  C6  UNL     1      33.004 -36.527  29.007  1.00  0.00     0.065 A 
HETATM    7  N4  UNL     1      33.918 -37.507  29.032  1.00  0.00    -0.343 N 
ATOM      8  H4  UNL     1      34.880 -37.281  29.283  1.00  0.00     0.167 HD
ENDROOT
BRANCH   6   9
HETATM    9  C7  UNL     1      33.385 -35.176  29.332  1.00  0.00     0.237 C 
BRANCH   9  10
HETATM   10  N2  UNL     1      34.499 -34.710  29.004  1.00  0.00    -0.344 NA
BRANCH  10  11
HETATM   11  N3  UNL     1      35.665 -34.410  28.686  1.00  0.00    -0.281 N 
ATOM     12  H32 UNL     1      35.565 -35.105  27.945  1.00  0.00     0.191 HD
ATOM     13  H31 UNL     1      36.616 -34.073  28.534  1.00  0.00     0.191 HD
ENDBRANCH  10  11
ENDBRANCH   9  10
ENDBRANCH   6   9
BRANCH   1  14
HETATM   14  C2  UNL     1      34.562 -39.898  28.746  1.00  0.00     0.121 C 
HETATM   15  C1  UNL     1      35.962 -39.424  29.096  1.00  0.00     0.030 C 
HETATM   16 BR1  UNL     1      34.699 -40.733  26.986  1.00  0.00    -0.083 Br
ENDBRANCH   1  14
TORSDOF 4
ENDMDL
MODEL 2
REMARK VINA RESULT: -5.214329376      2.626      4.131
REMARK  4 active torsions:
REMARK  status: ('A' for Active; 'I' for Inactive)
REMARK    1  A    between atoms: C2_2  and  C3_4 
REMARK    2  A    between atoms: C6_9  and  C7_10 
REMARK    3  A    between atoms: C7_10  and  N2_11 
REMARK    4  A    between atoms: N2_11  and  N3_12 
ROOT
HETATM    1  C3  UNL     1      33.362 -37.168  29.030  1.00  0.00     0.095 A 
HETATM    2  N1  UNL     1      32.476 -37.855  28.289  1.00  0.00    -0.355 N 
ATOM      3  H1  UNL     1      31.621 -37.380  27.999  1.00  0.00     0.166 HD
HETATM    4  C4  UNL     1      32.648 -39.133  27.909  1.00  0.00     0.092 A 
HETATM    5  C5  UNL     1      33.830 -39.760  28.323  1.00  0.00     0.049 A 
HETATM    6  C6  UNL     1      34.744 -39.074  29.077  1.00  0.00     0.065 A 
HETATM    7  N4  UNL     1      34.494 -37.801  29.416  1.00  0.00    -0.343 N 
ATOM      8  H4  UNL     1      35.178 -37.295  29.980  1.00  0.00     0.167 HD
ENDROOT
BRANCH   6   9
HETATM    9  C7  UNL     1      35.963 -39.710  29.508  1.00  0.00     0.237 C 
BRANCH   9  10
HETATM   10  N2  UNL     1      37.086 -39.232  29.236  1.00  0.00    -0.344 NA
BRANCH  10  11
HETATM   11  N3  UNL     1      38.153 -38.615  29.056  1.00  0.00    -0.281 N 
ATOM     12  H32 UNL     1      37.833 -37.989  29.795  1.00  0.00     0.191 HD
ATOM     13  H31 UNL     1      39.055 -38.208  28.807  1.00  0.00     0.191 HD
ENDBRANCH  10  11
ENDBRANCH   9  10
ENDBRANCH   6   9
BRANCH   1  14
HETATM   14  C2  UNL     1      33.042 -35.776  29.374  1.00  0.00     0.121 C 
HETATM   15  C1  UNL     1      31.814 -35.281  28.629  1.00  0.00     0.030 C 
HETATM   16 BR1  UNL     1      34.497 -34.574  28.873  1.00  0.00    -0.083 Br
ENDBRANCH   1  14
TORSDOF 4
ENDMDL
MODEL 3
REMARK VINA RESULT: -5.065585389      2.641      4.236
REMARK  4 active torsions:
REMARK  status: ('A' for Active; 'I' for Inactive)
REMARK    1  A    between atoms: C2_2  and  C3_4 
REMARK    2  A    between atoms: C6_9  and  C7_10 
REMARK    3  A    between atoms: C7_10  and  N2_11 
REMARK    4  A    between atoms: N2_11  and  N3_12 
ROOT
HETATM    1  C3  UNL     1      33.702 -38.336  28.989  1.00  0.00     0.095 A 
HETATM    2  N1  UNL     1      33.166 -39.194  28.104  1.00  0.00    -0.355 N 
ATOM      3  H1  UNL     1      32.226 -39.002  27.758  1.00  0.00     0.166 HD
HETATM    4  C4  UNL     1      33.794 -40.291  27.649  1.00  0.00     0.092 A 
HETATM    5  C5  UNL     1      35.084 -40.530  28.142  1.00  0.00     0.049 A 
HETATM    6  C6  UNL     1      35.645 -39.666  29.043  1.00  0.00     0.065 A 
HETATM    7  N4  UNL     1      34.949 -38.593  29.448  1.00  0.00    -0.343 N 
ATOM      8  H4  UNL     1      35.372 -37.954  30.121  1.00  0.00     0.167 HD
ENDROOT
BRANCH   6   9
HETATM    9  C7  UNL     1      36.971 -39.902  29.557  1.00  0.00     0.237 C 
BRANCH   9  10
HETATM   10  N2  UNL     1      37.918 -39.121  29.317  1.00  0.00    -0.344 NA
BRANCH  10  11
HETATM   11  N3  UNL     1      38.781 -38.233  29.187  1.00  0.00    -0.281 N 
ATOM     12  H32 UNL     1      38.102 -37.609  29.623  1.00  0.00     0.191 HD
ATOM     13  H31 UNL     1      39.570 -37.607  29.022  1.00  0.00     0.191 HD
ENDBRANCH  10  11
ENDBRANCH   9  10
ENDBRANCH   6   9
BRANCH   1  14
HETATM   14  C2  UNL     1      32.899 -37.177  29.400  1.00  0.00     0.121 C 
HETATM   15  C1  UNL     1      31.555 -37.144  28.692  1.00  0.00     0.030 C 
HETATM   16 BR1  UNL     1      33.792 -35.502  28.939  1.00  0.00    -0.083 Br
ENDBRANCH   1  14
TORSDOF 4
ENDMDL
MODEL 4
REMARK VINA RESULT: -5.040402905      2.722      3.666
REMARK  4 active torsions:
REMARK  status: ('A' for Active; 'I' for Inactive)
REMARK    1  A    between atoms: C2_2  and  C3_4 
REMARK    2  A    between atoms: C6_9  and  C7_10 
REMARK    3  A    between atoms: C7_10  and  N2_11 
REMARK    4  A    between atoms: N2_11  and  N3_12 
ROOT
HETATM    1  C3  UNL     1      36.284 -39.416  28.624  1.00  0.00     0.095 A 
HETATM    2  N1  UNL     1      36.036 -40.286  27.630  1.00  0.00    -0.355 N 
ATOM      3  H1  UNL     1      36.831 -40.726  27.167  1.00  0.00     0.166 HD
HETATM    4  C4  UNL     1      34.801 -40.610  27.210  1.00  0.00     0.092 A 
HETATM    5  C5  UNL     1      33.729 -39.991  27.864  1.00  0.00     0.049 A 
HETATM    6  C6  UNL     1      33.964 -39.103  28.879  1.00  0.00     0.065 A 
HETATM    7  N4  UNL     1      35.228 -38.833  29.237  1.00  0.00    -0.343 N 
ATOM      8  H4  UNL     1      35.397 -38.168  29.993  1.00  0.00     0.167 HD
ENDROOT
BRANCH   6   9
HETATM    9  C7  UNL     1      32.868 -38.459  29.558  1.00  0.00     0.237 C 
BRANCH   9  10
HETATM   10  N2  UNL     1      32.078 -37.697  28.957  1.00  0.00    -0.344 NA
BRANCH  10  11
HETATM   11  N3  UNL     1      31.342 -36.817  28.473  1.00  0.00    -0.281 N 
ATOM     12  H32 UNL     1      30.873 -36.813  29.378  1.00  0.00     0.191 HD
ATOM     13  H31 UNL     1      30.817 -36.110  27.957  1.00  0.00     0.191 HD
ENDBRANCH  10  11
ENDBRANCH   9  10
ENDBRANCH   6   9
BRANCH   1  14
HETATM   14  C2  UNL     1      37.686 -39.155  28.979  1.00  0.00     0.121 C 
HETATM   15  C1  UNL     1      38.560 -39.009  27.745  1.00  0.00     0.030 C 
HETATM   16 BR1  UNL     1      38.441 -40.636  30.003  1.00  0.00    -0.083 Br
ENDBRANCH   1  14
TORSDOF 4
ENDMDL
MODEL 5
REMARK VINA RESULT: -5.015518893      1.567      1.848
REMARK  4 active torsions:
REMARK  status: ('A' for Active; 'I' for Inactive)
REMARK    1  A    between atoms: C2_2  and  C3_4 
REMARK    2  A    between atoms: C6_9  and  C7_10 
REMARK    3  A    between atoms: C7_10  and  N2_11 
REMARK    4  A    between atoms: N2_11  and  N3_12 
ROOT
HETATM    1  C3  UNL     1      34.789 -39.101  28.985  1.00  0.00     0.095 A 
HETATM    2  N1  UNL     1      33.736 -39.744  28.455  1.00  0.00    -0.355 N 
ATOM      3  H1  UNL     1      33.837 -40.736  28.240  1.00  0.00     0.166 HD
HETATM    4  C4  UNL     1      32.555 -39.159  28.190  1.00  0.00     0.092 A 
HETATM    5  C5  UNL     1      32.445 -37.796  28.496  1.00  0.00     0.049 A 
HETATM    6  C6  UNL     1      33.509 -37.125  29.037  1.00  0.00     0.065 A 
HETATM    7  N4  UNL     1      34.653 -37.784  29.269  1.00  0.00    -0.343 N 
ATOM      8  H4  UNL     1      35.443 -37.279  29.671  1.00  0.00     0.167 HD
ENDROOT
BRANCH   6   9
HETATM    9  C7  UNL     1      33.406 -35.723  29.354  1.00  0.00     0.237 C 
BRANCH   9  10
HETATM   10  N2  UNL     1      32.352 -35.080  29.156  1.00  0.00    -0.344 NA
BRANCH  10  11
HETATM   11  N3  UNL     1      31.346 -34.443  28.790  1.00  0.00    -0.281 N 
ATOM     12  H32 UNL     1      31.920 -33.608  28.908  1.00  0.00     0.191 HD
ATOM     13  H31 UNL     1      30.457 -34.048  28.479  1.00  0.00     0.191 HD
ENDBRANCH  10  11
ENDBRANCH   9  10
ENDBRANCH   6   9
BRANCH   1  14
HETATM   14  C2  UNL     1      36.020 -39.868  29.221  1.00  0.00     0.121 C 
HETATM   15  C1  UNL     1      37.260 -39.061  28.879  1.00  0.00     0.030 C 
HETATM   16 BR1  UNL     1      36.084 -41.461  28.092  1.00  0.00    -0.083 Br
ENDBRANCH   1  14
TORSDOF 4
ENDMDL
