MODEL 1
REMARK VINA RESULT: -5.518137566      0.000      0.000
REMARK  4 active torsions:
REMARK  status: ('A' for Active; 'I' for Inactive)
REMARK    1  A    between atoms: C2_2  and  C3_3 
REMARK    2  A    between atoms: C3_3  and  C4_4 
REMARK    3  A    between atoms: C7_7  and  C8_8 
REMARK    4  A    between atoms: C8_8  and  N1_9 
ROOT
HETATM    1  C8  UNL     1    -110.373  47.823  28.797  1.00  0.00     0.295 C 
HETATM    2  C9  UNL     1    -108.953  48.131  28.628  1.00  0.00     0.092 C 
HETATM    3  N2  UNL     1    -107.838  48.364  28.509  1.00  0.00    -0.195 NA
ENDROOT
BRANCH   1   4
HETATM    4  C7  UNL     1    -110.526  46.421  29.293  1.00  0.00     0.057 C 
HETATM    5  C6  UNL     1    -109.277  45.601  29.244  1.00  0.00     0.047 C 
HETATM    6  C4  UNL     1    -109.868  44.211  28.925  1.00  0.00     0.061 C 
HETATM    7  C5  UNL     1    -110.282  43.655  30.304  1.00  0.00     0.046 C 
HETATM    8  O1  UNL     1    -110.927  44.441  28.100  1.00  0.00    -0.380 OA
HETATM    9  C10 UNL     1    -111.547  45.618  28.523  1.00  0.00     0.176 C 
BRANCH   6  10
HETATM   10  C3  UNL     1    -108.788  43.343  28.439  1.00  0.00     0.064 C 
BRANCH  10  11
HETATM   11  C2  UNL     1    -109.100  42.253  27.531  1.00  0.00    -0.034 C 
HETATM   12  C1  UNL     1    -108.425  41.755  26.544  1.00  0.00     0.007 C 
ENDBRANCH  10  11
ENDBRANCH   6  10
ENDBRANCH   1   4
BRANCH   1  13
HETATM   13  N1  UNL     1    -111.109  48.088  27.592  1.00  0.00    -0.062 N 
ATOM     14  H13 UNL     1    -110.895  47.391  26.878  1.00  0.00     0.275 HD
ATOM     15  H12 UNL     1    -112.102  47.895  27.725  1.00  0.00     0.275 HD
ATOM     16  H11 UNL     1    -110.969  49.030  27.230  1.00  0.00     0.275 HD
ENDBRANCH   1  13
TORSDOF 4
ENDMDL
MODEL 2
REMARK VINA RESULT: -5.490474022      2.954      4.499
REMARK  4 active torsions:
REMARK  status: ('A' for Active; 'I' for Inactive)
REMARK    1  A    between atoms: C2_2  and  C3_3 
REMARK    2  A    between atoms: C3_3  and  C4_4 
REMARK    3  A    between atoms: C7_7  and  C8_8 
REMARK    4  A    between atoms: C8_8  and  N1_9 
ROOT
HETATM    1  C8  UNL     1    -109.020  44.093  28.737  1.00  0.00     0.295 C 
HETATM    2  C9  UNL     1    -110.451  44.252  28.480  1.00  0.00     0.092 C 
HETATM    3  N2  UNL     1    -111.570  44.368  28.264  1.00  0.00    -0.195 NA
ENDROOT
BRANCH   1   4
HETATM    4  C7  UNL     1    -108.612  42.685  28.442  1.00  0.00     0.057 C 
HETATM    5  C6  UNL     1    -107.172  42.382  28.711  1.00  0.00     0.047 C 
HETATM    6  C4  UNL     1    -106.887  41.365  27.585  1.00  0.00     0.061 C 
HETATM    7  C5  UNL     1    -107.368  40.018  28.168  1.00  0.00     0.046 C 
HETATM    8  O1  UNL     1    -107.623  41.780  26.518  1.00  0.00    -0.380 OA
HETATM    9  C10 UNL     1    -108.831  42.283  27.003  1.00  0.00     0.176 C 
BRANCH   6  10
HETATM   10  C3  UNL     1    -105.433  41.245  27.421  1.00  0.00     0.064 C 
BRANCH  10  11
HETATM   11  C2  UNL     1    -104.611  42.442  27.438  1.00  0.00    -0.034 C 
HETATM   12  C1  UNL     1    -104.399  43.336  26.524  1.00  0.00     0.007 C 
ENDBRANCH  10  11
ENDBRANCH   6  10
ENDBRANCH   1   4
BRANCH   1  13
HETATM   13  N1  UNL     1    -108.682  44.521  30.066  1.00  0.00    -0.062 N 
ATOM     14  H13 UNL     1    -109.369  44.184  30.741  1.00  0.00     0.275 HD
ATOM     15  H12 UNL     1    -107.856  44.028  30.405  1.00  0.00     0.275 HD
ATOM     16  H11 UNL     1    -108.559  45.529  30.149  1.00  0.00     0.275 HD
ENDBRANCH   1  13
TORSDOF 4
ENDMDL
MODEL 3
REMARK VINA RESULT: -5.397360624      4.130      5.607
REMARK  4 active torsions:
REMARK  status: ('A' for Active; 'I' for Inactive)
REMARK    1  A    between atoms: C2_2  and  C3_3 
REMARK    2  A    between atoms: C3_3  and  C4_4 
REMARK    3  A    between atoms: C7_7  and  C8_8 
REMARK    4  A    between atoms: C8_8  and  N1_9 
ROOT
HETATM    1  C8  UNL     1    -103.778  44.937  27.972  1.00  0.00     0.295 C 
HETATM    2  C9  UNL     1    -103.079  45.083  26.696  1.00  0.00     0.092 C 
HETATM    3  N2  UNL     1    -102.524  45.183  25.699  1.00  0.00    -0.195 NA
ENDROOT
BRANCH   1   4
HETATM    4  C7  UNL     1    -104.285  43.536  28.107  1.00  0.00     0.057 C 
HETATM    5  C6  UNL     1    -105.195  43.092  27.007  1.00  0.00     0.047 C 
HETATM    6  C4  UNL     1    -106.154  42.171  27.792  1.00  0.00     0.061 C 
HETATM    7  C5  UNL     1    -105.413  40.817  27.844  1.00  0.00     0.046 C 
HETATM    8  O1  UNL     1    -106.299  42.749  29.017  1.00  0.00    -0.380 OA
HETATM    9  C10 UNL     1    -105.068  43.299  29.377  1.00  0.00     0.176 C 
BRANCH   6  10
HETATM   10  C3  UNL     1    -107.358  41.949  26.982  1.00  0.00     0.064 C 
BRANCH  10  11
HETATM   11  C2  UNL     1    -108.663  41.982  27.619  1.00  0.00    -0.034 C 
HETATM   12  C1  UNL     1    -109.438  42.979  27.910  1.00  0.00     0.007 C 
ENDBRANCH  10  11
ENDBRANCH   6  10
ENDBRANCH   1   4
BRANCH   1  13
HETATM   13  N1  UNL     1    -104.803  45.933  28.119  1.00  0.00    -0.062 N 
ATOM     14  H13 UNL     1    -105.317  45.797  28.990  1.00  0.00     0.275 HD
ATOM     15  H12 UNL     1    -104.393  46.848  28.305  1.00  0.00     0.275 HD
ATOM     16  H11 UNL     1    -105.442  45.978  27.326  1.00  0.00     0.275 HD
ENDBRANCH   1  13
TORSDOF 4
ENDMDL
MODEL 4
REMARK VINA RESULT: -5.346067782      3.660      5.386
REMARK  4 active torsions:
REMARK  status: ('A' for Active; 'I' for Inactive)
REMARK    1  A    between atoms: C2_2  and  C3_3 
REMARK    2  A    between atoms: C3_3  and  C4_4 
REMARK    3  A    between atoms: C7_7  and  C8_8 
REMARK    4  A    between atoms: C8_8  and  N1_9 
ROOT
HETATM    1  C8  UNL     1    -104.306  43.885  27.845  1.00  0.00     0.295 C 
HETATM    2  C9  UNL     1    -103.872  43.813  26.450  1.00  0.00     0.092 C 
HETATM    3  N2  UNL     1    -103.531  43.741  25.359  1.00  0.00    -0.195 NA
ENDROOT
BRANCH   1   4
HETATM    4  C7  UNL     1    -105.286  42.789  28.122  1.00  0.00     0.057 C 
HETATM    5  C6  UNL     1    -106.598  42.932  27.420  1.00  0.00     0.047 C 
HETATM    6  C4  UNL     1    -107.547  42.330  28.479  1.00  0.00     0.061 C 
HETATM    7  C5  UNL     1    -107.477  40.809  28.223  1.00  0.00     0.046 C 
HETATM    8  O1  UNL     1    -107.031  42.694  29.686  1.00  0.00    -0.380 OA
HETATM    9  C10 UNL     1    -105.640  42.653  29.583  1.00  0.00     0.176 C 
BRANCH   6  10
HETATM   10  C3  UNL     1    -108.921  42.738  28.162  1.00  0.00     0.064 C 
BRANCH  10  11
HETATM   11  C2  UNL     1    -109.530  43.831  28.898  1.00  0.00    -0.034 C 
HETATM   12  C1  UNL     1    -110.553  44.575  28.616  1.00  0.00     0.007 C 
ENDBRANCH  10  11
ENDBRANCH   6  10
ENDBRANCH   1   4
BRANCH   1  13
HETATM   13  N1  UNL     1    -104.806  45.193  28.166  1.00  0.00    -0.062 N 
ATOM     14  H13 UNL     1    -104.097  45.741  28.654  1.00  0.00     0.275 HD
ATOM     15  H12 UNL     1    -104.907  45.759  27.323  1.00  0.00     0.275 HD
ATOM     16  H11 UNL     1    -105.676  45.176  28.696  1.00  0.00     0.275 HD
ENDBRANCH   1  13
TORSDOF 4
ENDMDL
MODEL 5
REMARK VINA RESULT: -5.250504561      2.189      3.346
REMARK  4 active torsions:
REMARK  status: ('A' for Active; 'I' for Inactive)
REMARK    1  A    between atoms: C2_2  and  C3_3 
REMARK    2  A    between atoms: C3_3  and  C4_4 
REMARK    3  A    between atoms: C7_7  and  C8_8 
REMARK    4  A    between atoms: C8_8  and  N1_9 
ROOT
HETATM    1  C8  UNL     1    -110.582  44.575  28.817  1.00  0.00     0.295 C 
HETATM    2  C9  UNL     1    -110.491  46.027  28.964  1.00  0.00     0.092 C 
HETATM    3  N2  UNL     1    -110.404  47.163  29.085  1.00  0.00    -0.195 NA
ENDROOT
BRANCH   1   4
HETATM    4  C7  UNL     1    -109.270  44.036  28.342  1.00  0.00     0.057 C 
HETATM    5  C6  UNL     1    -109.304  42.609  27.898  1.00  0.00     0.047 C 
HETATM    6  C4  UNL     1    -107.900  42.145  28.342  1.00  0.00     0.061 C 
HETATM    7  C5  UNL     1    -106.980  42.575  27.179  1.00  0.00     0.046 C 
HETATM    8  O1  UNL     1    -107.642  42.810  29.503  1.00  0.00    -0.380 OA
HETATM    9  C10 UNL     1    -108.183  44.091  29.389  1.00  0.00     0.176 C 
BRANCH   6  10
HETATM   10  C3  UNL     1    -107.877  40.677  28.363  1.00  0.00     0.064 C 
BRANCH  10  11
HETATM   11  C2  UNL     1    -107.858  39.945  27.109  1.00  0.00    -0.034 C 
HETATM   12  C1  UNL     1    -107.533  38.718  26.851  1.00  0.00     0.007 C 
ENDBRANCH  10  11
ENDBRANCH   6  10
ENDBRANCH   1   4
BRANCH   1  13
HETATM   13  N1  UNL     1    -111.689  44.207  27.978  1.00  0.00    -0.062 N 
ATOM     14  H13 UNL     1    -112.536  44.701  28.259  1.00  0.00     0.275 HD
ATOM     15  H12 UNL     1    -111.574  44.589  27.039  1.00  0.00     0.275 HD
ATOM     16  H11 UNL     1    -111.853  43.202  27.941  1.00  0.00     0.275 HD
ENDBRANCH   1  13
TORSDOF 4
ENDMDL
