MODEL 1
REMARK VINA RESULT: -4.793875135      0.000      0.000
REMARK  4 active torsions:
REMARK  status: ('A' for Active; 'I' for Inactive)
REMARK    1  A    between atoms: S1_2  and  C2_3 
REMARK    2  A    between atoms: C2_3  and  C3_4 
REMARK    3  A    between atoms: C3_4  and  N1_5 
REMARK    4  A    between atoms: N1_5  and  C4_7 
ROOT
HETATM    1  C4  UNL     1    -107.589  42.623  28.764  1.00  0.00     0.113 C 
HETATM    2  C5  UNL     1    -107.723  42.473  27.238  1.00  0.00     0.015 C 
HETATM    3  C6  UNL     1    -108.151  41.056  26.924  1.00  0.00     0.033 C 
HETATM    4  C7  UNL     1    -107.508  40.150  27.934  1.00  0.00     0.168 C 
HETATM    5  O1  UNL     1    -106.393  40.613  28.555  1.00  0.00    -0.384 OA
HETATM    6  C8  UNL     1    -106.259  42.007  28.609  1.00  0.00     0.144 C 
HETATM    7  C9  UNL     1    -106.211  42.454  27.174  1.00  0.00     0.041 C 
ENDROOT
BRANCH   1   8
HETATM    8  N1  UNL     1    -107.845  43.902  29.191  1.00  0.00    -0.394 N 
ATOM      9  H1  UNL     1    -107.066  44.558  29.129  1.00  0.00     0.159 HD
BRANCH   8  10
HETATM   10  C3  UNL     1    -109.021  44.411  29.692  1.00  0.00     0.066 C 
BRANCH  10  11
HETATM   11  C2  UNL     1    -110.254  44.417  28.834  1.00  0.00     0.117 C 
BRANCH  11  12
HETATM   12  S1  UNL     1    -111.071  46.042  29.138  1.00  0.00    -0.168 SA
HETATM   13  C1  UNL     1    -109.942  47.392  28.766  1.00  0.00     0.090 C 
ENDBRANCH  11  12
ENDBRANCH  10  11
ENDBRANCH   8  10
ENDBRANCH   1   8
TORSDOF 4
ENDMDL
MODEL 2
REMARK VINA RESULT: -4.446508353      1.245      1.791
REMARK  4 active torsions:
REMARK  status: ('A' for Active; 'I' for Inactive)
REMARK    1  A    between atoms: S1_2  and  C2_3 
REMARK    2  A    between atoms: C2_3  and  C3_4 
REMARK    3  A    between atoms: C3_4  and  N1_5 
REMARK    4  A    between atoms: N1_5  and  C4_7 
ROOT
HETATM    1  C4  UNL     1    -107.240  43.487  28.727  1.00  0.00     0.113 C 
HETATM    2  C5  UNL     1    -105.731  43.791  28.696  1.00  0.00     0.015 C 
HETATM    3  C6  UNL     1    -105.155  43.263  27.400  1.00  0.00     0.033 C 
HETATM    4  C7  UNL     1    -105.899  42.008  27.047  1.00  0.00     0.168 C 
HETATM    5  O1  UNL     1    -106.520  41.353  28.062  1.00  0.00    -0.384 OA
HETATM    6  C8  UNL     1    -106.859  42.135  29.174  1.00  0.00     0.144 C 
HETATM    7  C9  UNL     1    -105.554  42.667  29.695  1.00  0.00     0.041 C 
ENDROOT
BRANCH   1   8
HETATM    8  N1  UNL     1    -107.947  44.412  29.453  1.00  0.00    -0.394 N 
ATOM      9  H1  UNL     1    -107.416  45.214  29.791  1.00  0.00     0.159 HD
BRANCH   8  10
HETATM   10  C3  UNL     1    -109.283  44.393  29.782  1.00  0.00     0.066 C 
BRANCH  10  11
HETATM   11  C2  UNL     1    -110.318  44.523  28.701  1.00  0.00     0.117 C 
BRANCH  11  12
HETATM   12  S1  UNL     1    -111.240  46.076  29.072  1.00  0.00    -0.168 SA
HETATM   13  C1  UNL     1    -110.172  47.508  28.858  1.00  0.00     0.090 C 
ENDBRANCH  11  12
ENDBRANCH  10  11
ENDBRANCH   8  10
ENDBRANCH   1   8
TORSDOF 4
ENDMDL
MODEL 3
REMARK VINA RESULT: -4.433490599      1.423      2.435
REMARK  4 active torsions:
REMARK  status: ('A' for Active; 'I' for Inactive)
REMARK    1  A    between atoms: S1_2  and  C2_3 
REMARK    2  A    between atoms: C2_3  and  C3_4 
REMARK    3  A    between atoms: C3_4  and  N1_5 
REMARK    4  A    between atoms: N1_5  and  C4_7 
ROOT
HETATM    1  C4  UNL     1    -106.843  43.617  28.797  1.00  0.00     0.113 C 
HETATM    2  C5  UNL     1    -105.658  43.007  29.567  1.00  0.00     0.015 C 
HETATM    3  C6  UNL     1    -104.370  43.526  28.967  1.00  0.00     0.033 C 
HETATM    4  C7  UNL     1    -104.585  43.690  27.490  1.00  0.00     0.168 C 
HETATM    5  O1  UNL     1    -105.582  42.958  26.929  1.00  0.00    -0.384 OA
HETATM    6  C8  UNL     1    -106.610  42.561  27.796  1.00  0.00     0.144 C 
HETATM    7  C9  UNL     1    -105.940  41.710  28.838  1.00  0.00     0.041 C 
ENDROOT
BRANCH   1   8
HETATM    8  N1  UNL     1    -107.961  43.759  29.580  1.00  0.00    -0.394 N 
ATOM      9  H1  UNL     1    -108.117  43.026  30.272  1.00  0.00     0.159 HD
BRANCH   8  10
HETATM   10  C3  UNL     1    -108.899  44.766  29.549  1.00  0.00     0.066 C 
BRANCH  10  11
HETATM   11  C2  UNL     1    -110.316  44.451  29.164  1.00  0.00     0.117 C 
BRANCH  11  12
HETATM   12  S1  UNL     1    -111.203  46.068  29.147  1.00  0.00    -0.168 SA
HETATM   13  C1  UNL     1    -110.069  47.403  28.738  1.00  0.00     0.090 C 
ENDBRANCH  11  12
ENDBRANCH  10  11
ENDBRANCH   8  10
ENDBRANCH   1   8
TORSDOF 4
ENDMDL
MODEL 4
REMARK VINA RESULT: -4.396159643      2.845      4.257
REMARK  4 active torsions:
REMARK  status: ('A' for Active; 'I' for Inactive)
REMARK    1  A    between atoms: S1_2  and  C2_3 
REMARK    2  A    between atoms: C2_3  and  C3_4 
REMARK    3  A    between atoms: C3_4  and  N1_5 
REMARK    4  A    between atoms: N1_5  and  C4_7 
ROOT
HETATM    1  C4  UNL     1    -109.857  45.518  28.392  1.00  0.00     0.113 C 
HETATM    2  C5  UNL     1    -109.083  44.917  29.579  1.00  0.00     0.015 C 
HETATM    3  C6  UNL     1    -108.338  43.690  29.103  1.00  0.00     0.033 C 
HETATM    4  C7  UNL     1    -109.180  43.020  28.057  1.00  0.00     0.168 C 
HETATM    5  O1  UNL     1    -110.512  43.285  28.076  1.00  0.00    -0.384 OA
HETATM    6  C8  UNL     1    -110.884  44.498  28.672  1.00  0.00     0.144 C 
HETATM    7  C9  UNL     1    -110.410  44.400  30.095  1.00  0.00     0.041 C 
ENDROOT
BRANCH   1   8
HETATM    8  N1  UNL     1    -110.014  46.877  28.501  1.00  0.00    -0.394 N 
ATOM      9  H1  UNL     1    -110.923  47.245  28.223  1.00  0.00     0.159 HD
BRANCH   8  10
HETATM   10  C3  UNL     1    -109.097  47.805  28.939  1.00  0.00     0.066 C 
BRANCH  10  11
HETATM   11  C2  UNL     1    -108.228  48.519  27.944  1.00  0.00     0.117 C 
BRANCH  11  12
HETATM   12  S1  UNL     1    -109.270  48.750  26.440  1.00  0.00    -0.168 SA
HETATM   13  C1  UNL     1    -108.615  50.078  25.419  1.00  0.00     0.090 C 
ENDBRANCH  11  12
ENDBRANCH  10  11
ENDBRANCH   8  10
ENDBRANCH   1   8
TORSDOF 4
ENDMDL
MODEL 5
REMARK VINA RESULT: -4.374742843      1.627      2.223
REMARK  4 active torsions:
REMARK  status: ('A' for Active; 'I' for Inactive)
REMARK    1  A    between atoms: S1_2  and  C2_3 
REMARK    2  A    between atoms: C2_3  and  C3_4 
REMARK    3  A    between atoms: C3_4  and  N1_5 
REMARK    4  A    between atoms: N1_5  and  C4_7 
ROOT
HETATM    1  C4  UNL     1    -106.917  43.223  29.181  1.00  0.00     0.113 C 
HETATM    2  C5  UNL     1    -106.355  41.897  28.637  1.00  0.00     0.015 C 
HETATM    3  C6  UNL     1    -105.184  41.475  29.497  1.00  0.00     0.033 C 
HETATM    4  C7  UNL     1    -104.472  42.720  29.942  1.00  0.00     0.168 C 
HETATM    5  O1  UNL     1    -104.650  43.835  29.187  1.00  0.00    -0.384 OA
HETATM    6  C8  UNL     1    -105.829  43.878  28.432  1.00  0.00     0.144 C 
HETATM    7  C9  UNL     1    -105.747  42.697  27.505  1.00  0.00     0.041 C 
ENDROOT
BRANCH   1   8
HETATM    8  N1  UNL     1    -108.262  43.359  28.944  1.00  0.00    -0.394 N 
ATOM      9  H1  UNL     1    -108.711  42.581  28.461  1.00  0.00     0.159 HD
BRANCH   8  10
HETATM   10  C3  UNL     1    -109.080  44.415  29.276  1.00  0.00     0.066 C 
BRANCH  10  11
HETATM   11  C2  UNL     1    -110.504  44.431  28.798  1.00  0.00     0.117 C 
BRANCH  11  12
HETATM   12  S1  UNL     1    -111.132  46.129  29.148  1.00  0.00    -0.168 SA
HETATM   13  C1  UNL     1    -109.870  47.356  28.778  1.00  0.00     0.090 C 
ENDBRANCH  11  12
ENDBRANCH  10  11
ENDBRANCH   8  10
ENDBRANCH   1   8
TORSDOF 4
ENDMDL
