MODEL 1
REMARK VINA RESULT: -5.923635799      0.000      0.000
REMARK  4 active torsions:
REMARK  status: ('A' for Active; 'I' for Inactive)
REMARK    1  A    between atoms: C3_3  and  C4_4 
REMARK    2  A    between atoms: C5_5  and  C7_8 
REMARK    3  A    between atoms: C8_9  and  C9_10 
REMARK    4  A    between atoms: C10_12  and  O2_13 
ROOT
HETATM    1  C4  UNL     1    -109.913  46.782  28.787  1.00  0.00     0.022 C 
HETATM    2  C5  UNL     1    -109.917  45.464  29.019  1.00  0.00     0.044 C 
HETATM    3  C6  UNL     1    -111.076  44.724  28.514  1.00  0.00     0.099 C 
HETATM    4  N1  UNL     1    -112.016  44.169  28.097  1.00  0.00    -0.191 NA
ENDROOT
BRANCH   2   5
HETATM    5  C7  UNL     1    -108.863  44.796  29.717  1.00  0.00     0.021 C 
HETATM    6  C8  UNL     1    -108.219  43.725  29.373  1.00  0.00     0.011 C 
BRANCH   6   7
HETATM    7  C9  UNL     1    -108.366  42.875  28.183  1.00  0.00     0.202 A 
HETATM    8  O1  UNL     1    -107.284  42.485  27.445  1.00  0.00    -0.345 OA
HETATM    9  C10 UNL     1    -107.807  41.478  28.212  1.00  0.00     0.290 A 
BRANCH   9  10
HETATM   10  O2  UNL     1    -108.624  40.502  27.696  1.00  0.00    -0.368 OA
ATOM     11  H2  UNL     1    -108.197  39.683  27.479  1.00  0.00     0.212 HD
ENDBRANCH   9  10
ENDBRANCH   6   7
ENDBRANCH   2   5
BRANCH   1  12
HETATM   12  C3  UNL     1    -108.847  47.612  29.225  1.00  0.00    -0.003 C 
HETATM   13  C2  UNL     1    -108.320  48.503  28.368  1.00  0.00    -0.031 C 
HETATM   14  C1  UNL     1    -108.881  48.575  27.010  1.00  0.00     0.036 C 
ENDBRANCH   1  12
TORSDOF 4
ENDMDL
MODEL 2
REMARK VINA RESULT: -5.886717037      3.276      4.722
REMARK  4 active torsions:
REMARK  status: ('A' for Active; 'I' for Inactive)
REMARK    1  A    between atoms: C3_3  and  C4_4 
REMARK    2  A    between atoms: C5_5  and  C7_8 
REMARK    3  A    between atoms: C8_9  and  C9_10 
REMARK    4  A    between atoms: C10_12  and  O2_13 
ROOT
HETATM    1  C4  UNL     1    -105.987  43.022  27.670  1.00  0.00     0.022 C 
HETATM    2  C5  UNL     1    -107.131  42.715  28.292  1.00  0.00     0.044 C 
HETATM    3  C6  UNL     1    -107.878  41.581  27.744  1.00  0.00     0.099 C 
HETATM    4  N1  UNL     1    -108.446  40.672  27.278  1.00  0.00    -0.191 NA
ENDROOT
BRANCH   2   5
HETATM    5  C7  UNL     1    -107.615  43.439  29.427  1.00  0.00     0.021 C 
HETATM    6  C8  UNL     1    -108.684  44.165  29.524  1.00  0.00     0.011 C 
BRANCH   6   7
HETATM    7  C9  UNL     1    -109.715  44.469  28.520  1.00  0.00     0.202 A 
HETATM    8  O1  UNL     1    -110.805  43.663  28.350  1.00  0.00    -0.345 OA
HETATM    9  C10 UNL     1    -111.097  44.839  28.986  1.00  0.00     0.290 A 
BRANCH   9  10
HETATM   10  O2  UNL     1    -111.673  45.907  28.342  1.00  0.00    -0.368 OA
ATOM     11  H2  UNL     1    -112.385  46.330  28.807  1.00  0.00     0.212 HD
ENDBRANCH   9  10
ENDBRANCH   6   7
ENDBRANCH   2   5
BRANCH   1  12
HETATM   12  C3  UNL     1    -105.170  44.100  28.103  1.00  0.00    -0.003 C 
HETATM   13  C2  UNL     1    -104.107  44.453  27.360  1.00  0.00    -0.031 C 
HETATM   14  C1  UNL     1    -103.844  43.699  26.124  1.00  0.00     0.036 C 
ENDBRANCH   1  12
TORSDOF 4
ENDMDL
MODEL 3
REMARK VINA RESULT: -5.803231062      2.342      3.434
REMARK  4 active torsions:
REMARK  status: ('A' for Active; 'I' for Inactive)
REMARK    1  A    between atoms: C3_3  and  C4_4 
REMARK    2  A    between atoms: C5_5  and  C7_8 
REMARK    3  A    between atoms: C8_9  and  C9_10 
REMARK    4  A    between atoms: C10_12  and  O2_13 
ROOT
HETATM    1  C4  UNL     1    -109.138  44.312  29.633  1.00  0.00     0.022 C 
HETATM    2  C5  UNL     1    -108.446  43.480  28.846  1.00  0.00     0.044 C 
HETATM    3  C6  UNL     1    -107.025  43.323  29.166  1.00  0.00     0.099 C 
HETATM    4  N1  UNL     1    -105.896  43.223  29.452  1.00  0.00    -0.191 NA
ENDROOT
BRANCH   2   5
HETATM    5  C7  UNL     1    -109.038  42.776  27.750  1.00  0.00     0.021 C 
HETATM    6  C8  UNL     1    -108.816  41.561  27.357  1.00  0.00     0.011 C 
BRANCH   6   7
HETATM    7  C9  UNL     1    -107.907  40.543  27.902  1.00  0.00     0.202 A 
HETATM    8  O1  UNL     1    -107.579  39.423  27.191  1.00  0.00    -0.345 OA
HETATM    9  C10 UNL     1    -106.565  40.342  27.249  1.00  0.00     0.290 A 
BRANCH   9  10
HETATM   10  O2  UNL     1    -105.501  40.217  28.109  1.00  0.00    -0.368 OA
ATOM     11  H2  UNL     1    -104.804  40.851  27.992  1.00  0.00     0.212 HD
ENDBRANCH   9  10
ENDBRANCH   6   7
ENDBRANCH   2   5
BRANCH   1  12
HETATM   12  C3  UNL     1    -110.523  44.551  29.428  1.00  0.00    -0.003 C 
HETATM   13  C2  UNL     1    -110.927  45.785  29.079  1.00  0.00    -0.031 C 
HETATM   14  C1  UNL     1    -109.905  46.831  28.925  1.00  0.00     0.036 C 
ENDBRANCH   1  12
TORSDOF 4
ENDMDL
MODEL 4
REMARK VINA RESULT: -5.763263498      3.226      5.605
REMARK  4 active torsions:
REMARK  status: ('A' for Active; 'I' for Inactive)
REMARK    1  A    between atoms: C3_3  and  C4_4 
REMARK    2  A    between atoms: C5_5  and  C7_8 
REMARK    3  A    between atoms: C8_9  and  C9_10 
REMARK    4  A    between atoms: C10_12  and  O2_13 
ROOT
HETATM    1  C4  UNL     1    -107.229  42.504  27.312  1.00  0.00     0.022 C 
HETATM    2  C5  UNL     1    -106.908  43.273  28.359  1.00  0.00     0.044 C 
HETATM    3  C6  UNL     1    -105.721  44.115  28.199  1.00  0.00     0.099 C 
HETATM    4  N1  UNL     1    -104.768  44.772  28.034  1.00  0.00    -0.191 NA
ENDROOT
BRANCH   2   5
HETATM    5  C7  UNL     1    -107.665  43.286  29.572  1.00  0.00     0.021 C 
HETATM    6  C8  UNL     1    -108.702  44.005  29.868  1.00  0.00     0.011 C 
BRANCH   6   7
HETATM    7  C9  UNL     1    -109.414  45.011  29.067  1.00  0.00     0.202 A 
HETATM    8  O1  UNL     1    -110.349  44.653  28.136  1.00  0.00    -0.345 OA
HETATM    9  C10 UNL     1    -110.895  45.190  29.272  1.00  0.00     0.290 A 
BRANCH   9  10
HETATM   10  O2  UNL     1    -111.330  46.491  29.341  1.00  0.00    -0.368 OA
ATOM     11  H2  UNL     1    -111.393  46.855  30.216  1.00  0.00     0.212 HD
ENDBRANCH   9  10
ENDBRANCH   6   7
ENDBRANCH   2   5
BRANCH   1  12
HETATM   12  C3  UNL     1    -108.357  41.641  27.340  1.00  0.00    -0.003 C 
HETATM   13  C2  UNL     1    -108.169  40.316  27.219  1.00  0.00    -0.031 C 
HETATM   14  C1  UNL     1    -106.791  39.824  27.064  1.00  0.00     0.036 C 
ENDBRANCH   1  12
TORSDOF 4
ENDMDL
MODEL 5
REMARK VINA RESULT: -5.722284842      3.027      5.063
REMARK  4 active torsions:
REMARK  status: ('A' for Active; 'I' for Inactive)
REMARK    1  A    between atoms: C3_3  and  C4_4 
REMARK    2  A    between atoms: C5_5  and  C7_8 
REMARK    3  A    between atoms: C8_9  and  C9_10 
REMARK    4  A    between atoms: C10_12  and  O2_13 
ROOT
HETATM    1  C4  UNL     1    -106.156  42.950  28.258  1.00  0.00     0.022 C 
HETATM    2  C5  UNL     1    -107.460  42.985  28.555  1.00  0.00     0.044 C 
HETATM    3  C6  UNL     1    -108.346  42.245  27.652  1.00  0.00     0.099 C 
HETATM    4  N1  UNL     1    -109.020  41.644  26.911  1.00  0.00    -0.191 NA
ENDROOT
BRANCH   2   5
HETATM    5  C7  UNL     1    -107.981  43.697  29.680  1.00  0.00     0.021 C 
HETATM    6  C8  UNL     1    -109.022  44.466  29.737  1.00  0.00     0.011 C 
BRANCH   6   7
HETATM    7  C9  UNL     1    -109.977  44.842  28.685  1.00  0.00     0.202 A 
HETATM    8  O1  UNL     1    -111.192  44.226  28.569  1.00  0.00    -0.345 OA
HETATM    9  C10 UNL     1    -111.275  45.494  29.079  1.00  0.00     0.290 A 
BRANCH   9  10
HETATM   10  O2  UNL     1    -111.649  46.575  28.320  1.00  0.00    -0.368 OA
ATOM     11  H2  UNL     1    -111.800  47.381  28.800  1.00  0.00     0.212 HD
ENDBRANCH   9  10
ENDBRANCH   6   7
ENDBRANCH   2   5
BRANCH   1  12
HETATM   12  C3  UNL     1    -105.193  43.626  29.053  1.00  0.00    -0.003 C 
HETATM   13  C2  UNL     1    -104.406  42.910  29.875  1.00  0.00    -0.031 C 
HETATM   14  C1  UNL     1    -104.585  41.450  29.907  1.00  0.00     0.036 C 
ENDBRANCH   1  12
TORSDOF 4
ENDMDL
