MODEL 1
REMARK VINA RESULT: -5.982568936      0.000      0.000
REMARK  3 active torsions:
REMARK  status: ('A' for Active; 'I' for Inactive)
REMARK    1  A    between atoms: C3_4  and  C4_5 
REMARK    2  A    between atoms: C4_5  and  C5_6 
REMARK    3  A    between atoms: C5_6  and  C6_7 
ROOT
HETATM    1  C5  UNL     1    -110.165  44.350  29.538  1.00  0.00     0.037 C 
ENDROOT
BRANCH   1   2
HETATM    2  C4  UNL     1    -108.667  44.147  29.573  1.00  0.00     0.062 C 
BRANCH   2   3
HETATM    3  C3  UNL     1    -108.258  42.871  28.924  1.00  0.00     0.259 C 
HETATM    4  O1  UNL     1    -109.279  42.293  28.174  1.00  0.00    -0.361 OA
HETATM    5  C2  UNL     1    -108.868  41.827  26.951  1.00  0.00     0.173 C 
HETATM    6  C1  UNL     1    -107.576  41.052  26.999  1.00  0.00     0.053 C 
HETATM    7  C10 UNL     1    -106.616  41.698  27.954  1.00  0.00     0.173 C 
HETATM    8  O2  UNL     1    -107.091  43.010  28.180  1.00  0.00    -0.361 OA
ENDBRANCH   2   3
ENDBRANCH   1   2
BRANCH   1   9
HETATM    9  C6  UNL     1    -110.427  45.654  28.853  1.00  0.00     0.186 C 
HETATM   10  C7  UNL     1    -109.333  46.655  29.025  1.00  0.00     0.034 C 
HETATM   11  C8  UNL     1    -110.024  48.023  29.091  1.00  0.00     0.029 C 
HETATM   12  C9  UNL     1    -111.444  47.625  28.702  1.00  0.00     0.233 C 
HETATM   13  N1  UNL     1    -111.564  46.368  29.458  1.00  0.00    -0.071 N 
ATOM     14  H12 UNL     1    -112.468  45.899  29.424  1.00  0.00     0.277 HD
ATOM     15  H11 UNL     1    -111.566  46.445  30.475  1.00  0.00     0.277 HD
ENDBRANCH   1   9
TORSDOF 3
ENDMDL
MODEL 2
REMARK VINA RESULT: -5.895771227      0.284      1.342
REMARK  3 active torsions:
REMARK  status: ('A' for Active; 'I' for Inactive)
REMARK    1  A    between atoms: C3_4  and  C4_5 
REMARK    2  A    between atoms: C4_5  and  C5_6 
REMARK    3  A    between atoms: C5_6  and  C6_7 
ROOT
HETATM    1  C5  UNL     1    -110.326  44.331  29.590  1.00  0.00     0.037 C 
ENDROOT
BRANCH   1   2
HETATM    2  C4  UNL     1    -108.839  44.070  29.677  1.00  0.00     0.062 C 
BRANCH   2   3
HETATM    3  C3  UNL     1    -108.348  43.240  28.543  1.00  0.00     0.259 C 
HETATM    4  O1  UNL     1    -107.033  42.814  28.713  1.00  0.00    -0.361 OA
HETATM    5  C2  UNL     1    -106.834  41.496  28.390  1.00  0.00     0.173 C 
HETATM    6  C1  UNL     1    -107.492  41.081  27.098  1.00  0.00     0.053 C 
HETATM    7  C10 UNL     1    -108.841  41.725  26.970  1.00  0.00     0.173 C 
HETATM    8  O2  UNL     1    -109.199  42.177  28.260  1.00  0.00    -0.361 OA
ENDBRANCH   2   3
ENDBRANCH   1   2
BRANCH   1   9
HETATM    9  C6  UNL     1    -110.512  45.638  28.883  1.00  0.00     0.186 C 
HETATM   10  C7  UNL     1    -109.369  46.582  29.054  1.00  0.00     0.034 C 
HETATM   11  C8  UNL     1    -109.988  47.985  29.093  1.00  0.00     0.029 C 
HETATM   12  C9  UNL     1    -111.423  47.657  28.695  1.00  0.00     0.233 C 
HETATM   13  N1  UNL     1    -111.616  46.419  29.467  1.00  0.00    -0.071 N 
ATOM     14  H12 UNL     1    -112.543  45.997  29.431  1.00  0.00     0.277 HD
ATOM     15  H11 UNL     1    -111.624  46.511  30.483  1.00  0.00     0.277 HD
ENDBRANCH   1   9
TORSDOF 3
ENDMDL
MODEL 3
REMARK VINA RESULT: -5.891988701      2.532      5.727
REMARK  3 active torsions:
REMARK  status: ('A' for Active; 'I' for Inactive)
REMARK    1  A    between atoms: C3_4  and  C4_5 
REMARK    2  A    between atoms: C4_5  and  C5_6 
REMARK    3  A    between atoms: C5_6  and  C6_7 
ROOT
HETATM    1  C5  UNL     1    -107.878  43.545  28.979  1.00  0.00     0.037 C 
ENDROOT
BRANCH   1   2
HETATM    2  C4  UNL     1    -109.369  43.603  28.733  1.00  0.00     0.062 C 
BRANCH   2   3
HETATM    3  C3  UNL     1    -109.957  44.903  29.158  1.00  0.00     0.259 C 
HETATM    4  O1  UNL     1    -108.997  45.889  29.369  1.00  0.00    -0.361 OA
HETATM    5  C2  UNL     1    -109.333  47.109  28.838  1.00  0.00     0.173 C 
HETATM    6  C1  UNL     1    -110.759  47.518  29.111  1.00  0.00     0.053 C 
HETATM    7  C10 UNL     1    -111.673  46.332  28.994  1.00  0.00     0.173 C 
HETATM    8  O2  UNL     1    -110.956  45.336  28.292  1.00  0.00    -0.361 OA
ENDBRANCH   2   3
ENDBRANCH   1   2
BRANCH   1   9
HETATM    9  C6  UNL     1    -107.298  42.572  28.000  1.00  0.00     0.186 C 
HETATM   10  C7  UNL     1    -108.324  41.834  27.206  1.00  0.00     0.034 C 
HETATM   11  C8  UNL     1    -107.747  40.431  26.980  1.00  0.00     0.029 C 
HETATM   12  C9  UNL     1    -106.326  40.638  27.493  1.00  0.00     0.233 C 
HETATM   13  N1  UNL     1    -106.610  41.461  28.680  1.00  0.00    -0.071 N 
ATOM     14  H12 UNL     1    -105.814  41.707  29.266  1.00  0.00     0.277 HD
ATOM     15  H11 UNL     1    -107.116  41.007  29.440  1.00  0.00     0.277 HD
ENDBRANCH   1   9
TORSDOF 3
ENDMDL
MODEL 4
REMARK VINA RESULT: -5.891667966      2.496      5.698
REMARK  3 active torsions:
REMARK  status: ('A' for Active; 'I' for Inactive)
REMARK    1  A    between atoms: C3_4  and  C4_5 
REMARK    2  A    between atoms: C4_5  and  C5_6 
REMARK    3  A    between atoms: C5_6  and  C6_7 
ROOT
HETATM    1  C5  UNL     1    -109.163  43.010  28.291  1.00  0.00     0.037 C 
ENDROOT
BRANCH   1   2
HETATM    2  C4  UNL     1    -108.573  44.120  29.132  1.00  0.00     0.062 C 
BRANCH   2   3
HETATM    3  C3  UNL     1    -109.533  45.238  29.340  1.00  0.00     0.259 C 
HETATM    4  O1  UNL     1    -108.914  46.485  29.371  1.00  0.00    -0.361 OA
HETATM    5  C2  UNL     1    -109.572  47.446  28.647  1.00  0.00     0.173 C 
HETATM    6  C1  UNL     1    -111.065  47.454  28.864  1.00  0.00     0.053 C 
HETATM    7  C10 UNL     1    -111.585  46.049  28.958  1.00  0.00     0.173 C 
HETATM    8  O2  UNL     1    -110.581  45.209  28.425  1.00  0.00    -0.361 OA
ENDBRANCH   2   3
ENDBRANCH   1   2
BRANCH   1   9
HETATM    9  C6  UNL     1    -108.249  41.830  28.396  1.00  0.00     0.186 C 
HETATM   10  C7  UNL     1    -106.869  42.091  27.890  1.00  0.00     0.034 C 
HETATM   11  C8  UNL     1    -106.398  40.773  27.263  1.00  0.00     0.029 C 
HETATM   12  C9  UNL     1    -107.519  39.844  27.717  1.00  0.00     0.233 C 
HETATM   13  N1  UNL     1    -108.674  40.732  27.512  1.00  0.00    -0.071 N 
ATOM     14  H12 UNL     1    -109.595  40.333  27.690  1.00  0.00     0.277 HD
ATOM     15  H11 UNL     1    -108.894  40.981  26.548  1.00  0.00     0.277 HD
ENDBRANCH   1   9
TORSDOF 3
ENDMDL
MODEL 5
REMARK VINA RESULT: -5.750827646      2.571      5.627
REMARK  3 active torsions:
REMARK  status: ('A' for Active; 'I' for Inactive)
REMARK    1  A    between atoms: C3_4  and  C4_5 
REMARK    2  A    between atoms: C4_5  and  C5_6 
REMARK    3  A    between atoms: C5_6  and  C6_7 
ROOT
HETATM    1  C5  UNL     1    -107.888  43.444  28.967  1.00  0.00     0.037 C 
ENDROOT
BRANCH   1   2
HETATM    2  C4  UNL     1    -109.382  43.593  28.789  1.00  0.00     0.062 C 
BRANCH   2   3
HETATM    3  C3  UNL     1    -109.778  45.004  28.529  1.00  0.00     0.259 C 
HETATM    4  O1  UNL     1    -111.157  45.170  28.428  1.00  0.00    -0.361 OA
HETATM    5  C2  UNL     1    -111.632  46.265  29.105  1.00  0.00     0.173 C 
HETATM    6  C1  UNL     1    -110.808  47.511  28.899  1.00  0.00     0.053 C 
HETATM    7  C10 UNL     1    -109.346  47.173  28.881  1.00  0.00     0.173 C 
HETATM    8  O2  UNL     1    -109.221  45.886  29.451  1.00  0.00    -0.361 OA
ENDBRANCH   2   3
ENDBRANCH   1   2
BRANCH   1   9
HETATM    9  C6  UNL     1    -107.409  42.458  27.948  1.00  0.00     0.186 C 
HETATM   10  C7  UNL     1    -108.504  41.661  27.321  1.00  0.00     0.034 C 
HETATM   11  C8  UNL     1    -107.912  40.270  27.060  1.00  0.00     0.029 C 
HETATM   12  C9  UNL     1    -106.444  40.541  27.372  1.00  0.00     0.233 C 
HETATM   13  N1  UNL     1    -106.597  41.394  28.561  1.00  0.00    -0.071 N 
ATOM     14  H12 UNL     1    -105.739  41.685  29.028  1.00  0.00     0.277 HD
ATOM     15  H11 UNL     1    -106.980  40.949  29.395  1.00  0.00     0.277 HD
ENDBRANCH   1   9
TORSDOF 3
ENDMDL
