MODEL 1
REMARK VINA RESULT: -8.148265750      0.000      0.000
REMARK  8 active torsions:
REMARK  status: ('A' for Active; 'I' for Inactive)
REMARK    1  A    between atoms: C5_10  and  C6_11 
REMARK    2  A    between atoms: C6_11  and  C7_12 
REMARK    3  A    between atoms: C7_12  and  C8_13 
REMARK    4  A    between atoms: C8_13  and  O2_15 
REMARK    5  A    between atoms: O2_15  and  C9_16 
REMARK    6  A    between atoms: N2_18  and  C11_19 
REMARK    7  A    between atoms: C17_25  and  O3_26 
REMARK    8  A    between atoms: C18_28  and  O4_29 
ROOT
HETATM    1  C9  UNL     1      -0.692  48.282 -10.860  1.00  0.00     0.125 A 
HETATM    2  C10 UNL     1      -0.550  46.991 -11.419  1.00  0.00     0.133 A 
HETATM    3  N2  UNL     1      -1.711  46.502 -11.807  1.00  0.00    -0.328 N 
HETATM    4  C17 UNL     1      -2.633  47.432 -11.525  1.00  0.00     0.179 A 
HETATM    5  C18 UNL     1      -2.034  48.551 -10.935  1.00  0.00     0.152 A 
ENDROOT
BRANCH   1   6
HETATM    6  O2  UNL     1       0.327  49.048 -10.367  1.00  0.00    -0.308 OA
BRANCH   6   7
HETATM    7  C8  UNL     1       1.391  49.572 -11.072  1.00  0.00     0.337 C 
HETATM    8  F3  UNL     1       2.109  50.381 -10.171  1.00  0.00    -0.215 F 
BRANCH   7   9
HETATM    9  C7  UNL     1       2.315  48.494 -11.583  1.00  0.00     0.039 C 
BRANCH   9  10
HETATM   10  C6  UNL     1       3.102  47.901 -10.753  1.00  0.00     0.021 C 
BRANCH  10  11
HETATM   11  C5  UNL     1       2.832  46.768  -9.887  1.00  0.00     0.073 A 
HETATM   12  C1  UNL     1       2.634  46.886  -8.536  1.00  0.00     0.258 A 
HETATM   13  O1  UNL     1       2.670  47.990  -7.937  1.00  0.00    -0.267 OA
HETATM   14  N1  UNL     1       2.389  45.769  -7.810  1.00  0.00    -0.330 N 
HETATM   15  C2  UNL     1       2.324  44.536  -8.322  1.00  0.00     0.137 A 
ATOM     16  H1  UNL     1       2.245  45.876  -6.806  1.00  0.00     0.168 HD
HETATM   17  C3  UNL     1       2.521  44.401  -9.675  1.00  0.00     0.171 A 
HETATM   18  F1  UNL     1       2.456  43.140 -10.202  1.00  0.00    -0.201 F 
HETATM   19  C4  UNL     1       2.772  45.488 -10.460  1.00  0.00     0.172 A 
HETATM   20  F2  UNL     1       2.961  45.320 -11.784  1.00  0.00    -0.202 F 
ENDBRANCH  10  11
ENDBRANCH   9  10
ENDBRANCH   7   9
ENDBRANCH   6   7
ENDBRANCH   1   6
BRANCH   5  21
HETATM   21  O4  UNL     1      -2.712  49.691 -10.523  1.00  0.00    -0.354 OA
ATOM     22  H4  UNL     1      -3.302  50.241 -11.023  1.00  0.00     0.218 HD
ENDBRANCH   5  21
BRANCH   3  23
HETATM   23  C11 UNL     1      -2.050  45.239 -12.424  1.00  0.00     0.091 C 
HETATM   24  C12 UNL     1      -1.113  44.123 -12.006  1.00  0.00     0.026 C 
HETATM   25  C13 UNL     1      -1.857  42.834 -12.292  1.00  0.00     0.002 C 
HETATM   26  C14 UNL     1      -2.877  43.023 -13.379  1.00  0.00     0.000 C 
HETATM   27  C15 UNL     1      -2.402  43.963 -14.466  1.00  0.00     0.002 C 
HETATM   28  C16 UNL     1      -1.992  45.309 -13.935  1.00  0.00     0.026 C 
ENDBRANCH   3  23
BRANCH   4  29
HETATM   29  O3  UNL     1      -4.011  47.347 -11.765  1.00  0.00    -0.344 OA
ATOM     30  H3  UNL     1      -4.668  47.996 -11.540  1.00  0.00     0.219 HD
ENDBRANCH   4  29
TORSDOF 8
ENDMDL
MODEL 2
REMARK VINA RESULT: -8.067163019      2.872      6.761
REMARK  8 active torsions:
REMARK  status: ('A' for Active; 'I' for Inactive)
REMARK    1  A    between atoms: C5_10  and  C6_11 
REMARK    2  A    between atoms: C6_11  and  C7_12 
REMARK    3  A    between atoms: C7_12  and  C8_13 
REMARK    4  A    between atoms: C8_13  and  O2_15 
REMARK    5  A    between atoms: O2_15  and  C9_16 
REMARK    6  A    between atoms: N2_18  and  C11_19 
REMARK    7  A    between atoms: C17_25  and  O3_26 
REMARK    8  A    between atoms: C18_28  and  O4_29 
ROOT
HETATM    1  C9  UNL     1       1.048  43.925 -10.682  1.00  0.00     0.125 A 
HETATM    2  C10 UNL     1       2.075  44.851 -10.390  1.00  0.00     0.133 A 
HETATM    3  N2  UNL     1       2.797  44.462  -9.358  1.00  0.00    -0.328 N 
HETATM    4  C17 UNL     1       2.283  43.295  -8.947  1.00  0.00     0.179 A 
HETATM    5  C18 UNL     1       1.194  42.932  -9.748  1.00  0.00     0.152 A 
ENDROOT
BRANCH   1   6
HETATM    6  O2  UNL     1       0.134  44.047 -11.692  1.00  0.00    -0.308 OA
BRANCH   6   7
HETATM    7  C8  UNL     1      -0.162  45.185 -12.413  1.00  0.00     0.337 C 
HETATM    8  F3  UNL     1      -0.731  44.754 -13.627  1.00  0.00    -0.215 F 
BRANCH   7   9
HETATM    9  C7  UNL     1      -1.167  46.058 -11.703  1.00  0.00     0.039 C 
BRANCH   9  10
HETATM   10  C6  UNL     1      -1.292  47.287 -12.064  1.00  0.00     0.021 C 
BRANCH  10  11
HETATM   11  C5  UNL     1      -0.909  48.495 -11.355  1.00  0.00     0.073 A 
HETATM   12  C1  UNL     1      -1.816  49.387 -10.847  1.00  0.00     0.258 A 
HETATM   13  O1  UNL     1      -3.059  49.230 -10.954  1.00  0.00    -0.267 OA
HETATM   14  N1  UNL     1      -1.361  50.486 -10.200  1.00  0.00    -0.330 N 
HETATM   15  C2  UNL     1      -0.069  50.772 -10.015  1.00  0.00     0.137 A 
ATOM     16  H1  UNL     1      -2.051  51.139  -9.828  1.00  0.00     0.168 HD
HETATM   17  C3  UNL     1       0.853  49.887 -10.519  1.00  0.00     0.171 A 
HETATM   18  F1  UNL     1       2.178  50.177 -10.333  1.00  0.00    -0.201 F 
HETATM   19  C4  UNL     1       0.458  48.761 -11.181  1.00  0.00     0.172 A 
HETATM   20  F2  UNL     1       1.389  47.915 -11.663  1.00  0.00    -0.202 F 
ENDBRANCH  10  11
ENDBRANCH   9  10
ENDBRANCH   7   9
ENDBRANCH   6   7
ENDBRANCH   1   6
BRANCH   5  21
HETATM   21  O4  UNL     1       0.440  41.777  -9.588  1.00  0.00    -0.354 OA
ATOM     22  H4  UNL     1      -0.185  41.569  -8.904  1.00  0.00     0.218 HD
ENDBRANCH   5  21
BRANCH   3  23
HETATM   23  C11 UNL     1       3.934  45.077  -8.710  1.00  0.00     0.091 C 
HETATM   24  C12 UNL     1       4.005  46.570  -8.965  1.00  0.00     0.026 C 
HETATM   25  C13 UNL     1       4.882  47.133  -7.865  1.00  0.00     0.002 C 
HETATM   26  C14 UNL     1       5.828  46.091  -7.336  1.00  0.00     0.000 C 
HETATM   27  C15 UNL     1       6.348  45.172  -8.421  1.00  0.00     0.002 C 
HETATM   28  C16 UNL     1       5.246  44.494  -9.187  1.00  0.00     0.026 C 
ENDBRANCH   3  23
BRANCH   4  29
HETATM   29  O3  UNL     1       2.732  42.510  -7.877  1.00  0.00    -0.344 OA
ATOM     30  H3  UNL     1       2.460  41.624  -7.668  1.00  0.00     0.219 HD
ENDBRANCH   4  29
TORSDOF 8
ENDMDL
MODEL 3
REMARK VINA RESULT: -8.027809897      3.161      5.284
REMARK  8 active torsions:
REMARK  status: ('A' for Active; 'I' for Inactive)
REMARK    1  A    between atoms: C5_10  and  C6_11 
REMARK    2  A    between atoms: C6_11  and  C7_12 
REMARK    3  A    between atoms: C7_12  and  C8_13 
REMARK    4  A    between atoms: C8_13  and  O2_15 
REMARK    5  A    between atoms: O2_15  and  C9_16 
REMARK    6  A    between atoms: N2_18  and  C11_19 
REMARK    7  A    between atoms: C17_25  and  O3_26 
REMARK    8  A    between atoms: C18_28  and  O4_29 
ROOT
HETATM    1  C9  UNL     1      -0.852  47.342 -11.735  1.00  0.00     0.125 A 
HETATM    2  C10 UNL     1      -1.748  46.452 -12.369  1.00  0.00     0.133 A 
HETATM    3  N2  UNL     1      -1.378  45.197 -12.209  1.00  0.00    -0.328 N 
HETATM    4  C17 UNL     1      -0.253  45.218 -11.481  1.00  0.00     0.179 A 
HETATM    5  C18 UNL     1       0.102  46.536 -11.169  1.00  0.00     0.152 A 
ENDROOT
BRANCH   1   6
HETATM    6  O2  UNL     1      -0.964  48.705 -11.722  1.00  0.00    -0.308 OA
BRANCH   6   7
HETATM    7  C8  UNL     1      -1.503  49.486 -10.721  1.00  0.00     0.337 C 
HETATM    8  F3  UNL     1      -2.395  48.664 -10.006  1.00  0.00    -0.215 F 
BRANCH   7   9
HETATM    9  C7  UNL     1      -0.447  49.985  -9.764  1.00  0.00     0.039 C 
BRANCH   9  10
HETATM   10  C6  UNL     1       0.629  50.509 -10.239  1.00  0.00     0.021 C 
BRANCH  10  11
HETATM   11  C5  UNL     1       1.326  51.711  -9.818  1.00  0.00     0.073 A 
HETATM   12  C1  UNL     1       2.474  51.690  -9.071  1.00  0.00     0.258 A 
HETATM   13  O1  UNL     1       3.019  50.624  -8.689  1.00  0.00    -0.267 OA
HETATM   14  N1  UNL     1       3.052  52.865  -8.727  1.00  0.00    -0.330 N 
HETATM   15  C2  UNL     1       2.578  54.068  -9.067  1.00  0.00     0.137 A 
ATOM     16  H1  UNL     1       3.906  52.831  -8.170  1.00  0.00     0.168 HD
HETATM   17  C3  UNL     1       1.426  54.105  -9.816  1.00  0.00     0.171 A 
HETATM   18  F1  UNL     1       0.937  55.335 -10.166  1.00  0.00    -0.201 F 
HETATM   19  C4  UNL     1       0.797  52.955 -10.195  1.00  0.00     0.172 A 
HETATM   20  F2  UNL     1      -0.331  53.028 -10.929  1.00  0.00    -0.202 F 
ENDBRANCH  10  11
ENDBRANCH   9  10
ENDBRANCH   7   9
ENDBRANCH   6   7
ENDBRANCH   1   6
BRANCH   5  21
HETATM   21  O4  UNL     1       1.216  46.904 -10.427  1.00  0.00    -0.354 OA
ATOM     22  H4  UNL     1       1.302  46.971  -9.483  1.00  0.00     0.218 HD
ENDBRANCH   5  21
BRANCH   3  23
HETATM   23  C11 UNL     1      -1.976  43.965 -12.672  1.00  0.00     0.091 C 
HETATM   24  C12 UNL     1      -2.548  44.091 -14.070  1.00  0.00     0.026 C 
HETATM   25  C13 UNL     1      -2.660  42.675 -14.598  1.00  0.00     0.002 C 
HETATM   26  C14 UNL     1      -2.788  41.684 -13.474  1.00  0.00     0.000 C 
HETATM   27  C15 UNL     1      -3.625  42.209 -12.327  1.00  0.00     0.002 C 
HETATM   28  C16 UNL     1      -3.110  43.512 -11.779  1.00  0.00     0.026 C 
ENDBRANCH   3  23
BRANCH   4  29
HETATM   29  O3  UNL     1       0.498  44.112 -11.065  1.00  0.00    -0.344 OA
ATOM     30  H3  UNL     1       1.445  44.062 -10.990  1.00  0.00     0.219 HD
ENDBRANCH   4  29
TORSDOF 8
ENDMDL
MODEL 4
REMARK VINA RESULT: -8.024865349      1.591      1.988
REMARK  8 active torsions:
REMARK  status: ('A' for Active; 'I' for Inactive)
REMARK    1  A    between atoms: C5_10  and  C6_11 
REMARK    2  A    between atoms: C6_11  and  C7_12 
REMARK    3  A    between atoms: C7_12  and  C8_13 
REMARK    4  A    between atoms: C8_13  and  O2_15 
REMARK    5  A    between atoms: O2_15  and  C9_16 
REMARK    6  A    between atoms: N2_18  and  C11_19 
REMARK    7  A    between atoms: C17_25  and  O3_26 
REMARK    8  A    between atoms: C18_28  and  O4_29 
ROOT
HETATM    1  C9  UNL     1      -0.507  48.292 -10.882  1.00  0.00     0.125 A 
HETATM    2  C10 UNL     1      -0.412  47.017 -11.487  1.00  0.00     0.133 A 
HETATM    3  N2  UNL     1      -1.600  46.546 -11.810  1.00  0.00    -0.328 N 
HETATM    4  C17 UNL     1      -2.495  47.471 -11.439  1.00  0.00     0.179 A 
HETATM    5  C18 UNL     1      -1.850  48.569 -10.859  1.00  0.00     0.152 A 
ENDROOT
BRANCH   1   6
HETATM    6  O2  UNL     1       0.548  49.039 -10.437  1.00  0.00    -0.308 OA
BRANCH   6   7
HETATM    7  C8  UNL     1       1.848  48.616 -10.254  1.00  0.00     0.337 C 
HETATM    8  F3  UNL     1       2.650  49.773 -10.256  1.00  0.00    -0.215 F 
BRANCH   7   9
HETATM    9  C7  UNL     1       2.032  47.915  -8.930  1.00  0.00     0.039 C 
BRANCH   9  10
HETATM   10  C6  UNL     1       2.735  46.836  -8.887  1.00  0.00     0.021 C 
BRANCH  10  11
HETATM   11  C5  UNL     1       2.348  45.477  -9.220  1.00  0.00     0.073 A 
HETATM   12  C1  UNL     1       2.522  44.930 -10.463  1.00  0.00     0.258 A 
HETATM   13  O1  UNL     1       3.032  45.564 -11.421  1.00  0.00    -0.267 OA
HETATM   14  N1  UNL     1       2.129  43.652 -10.677  1.00  0.00    -0.330 N 
HETATM   15  C2  UNL     1       1.574  42.867  -9.747  1.00  0.00     0.137 A 
ATOM     16  H1  UNL     1       2.265  43.261 -11.609  1.00  0.00     0.168 HD
HETATM   17  C3  UNL     1       1.393  43.402  -8.495  1.00  0.00     0.171 A 
HETATM   18  F1  UNL     1       0.824  42.603  -7.540  1.00  0.00    -0.201 F 
HETATM   19  C4  UNL     1       1.768  44.684  -8.217  1.00  0.00     0.172 A 
HETATM   20  F2  UNL     1       1.576  45.177  -6.978  1.00  0.00    -0.202 F 
ENDBRANCH  10  11
ENDBRANCH   9  10
ENDBRANCH   7   9
ENDBRANCH   6   7
ENDBRANCH   1   6
BRANCH   5  21
HETATM   21  O4  UNL     1      -2.490  49.700 -10.369  1.00  0.00    -0.354 OA
ATOM     22  H4  UNL     1      -2.559  49.997  -9.469  1.00  0.00     0.218 HD
ENDBRANCH   5  21
BRANCH   3  23
HETATM   23  C11 UNL     1      -1.988  45.303 -12.439  1.00  0.00     0.091 C 
HETATM   24  C12 UNL     1      -1.093  44.148 -12.036  1.00  0.00     0.026 C 
HETATM   25  C13 UNL     1      -1.885  42.891 -12.332  1.00  0.00     0.002 C 
HETATM   26  C14 UNL     1      -2.901  43.131 -13.414  1.00  0.00     0.000 C 
HETATM   27  C15 UNL     1      -2.394  44.063 -14.493  1.00  0.00     0.002 C 
HETATM   28  C16 UNL     1      -1.932  45.387 -13.948  1.00  0.00     0.026 C 
ENDBRANCH   3  23
BRANCH   4  29
HETATM   29  O3  UNL     1      -3.886  47.400 -11.587  1.00  0.00    -0.344 OA
ATOM     30  H3  UNL     1      -4.377  47.473 -12.397  1.00  0.00     0.219 HD
ENDBRANCH   4  29
TORSDOF 8
ENDMDL
MODEL 5
REMARK VINA RESULT: -7.982356550      2.566      6.629
REMARK  8 active torsions:
REMARK  status: ('A' for Active; 'I' for Inactive)
REMARK    1  A    between atoms: C5_10  and  C6_11 
REMARK    2  A    between atoms: C6_11  and  C7_12 
REMARK    3  A    between atoms: C7_12  and  C8_13 
REMARK    4  A    between atoms: C8_13  and  O2_15 
REMARK    5  A    between atoms: O2_15  and  C9_16 
REMARK    6  A    between atoms: N2_18  and  C11_19 
REMARK    7  A    between atoms: C17_25  and  O3_26 
REMARK    8  A    between atoms: C18_28  and  O4_29 
ROOT
HETATM    1  C9  UNL     1       0.559  44.222 -10.078  1.00  0.00     0.125 A 
HETATM    2  C10 UNL     1       1.336  45.401 -10.131  1.00  0.00     0.133 A 
HETATM    3  N2  UNL     1       2.372  45.334  -9.317  1.00  0.00    -0.328 N 
HETATM    4  C17 UNL     1       2.312  44.138  -8.717  1.00  0.00     0.179 A 
HETATM    5  C18 UNL     1       1.197  43.421  -9.166  1.00  0.00     0.152 A 
ENDROOT
BRANCH   1   6
HETATM    6  O2  UNL     1      -0.576  43.987 -10.803  1.00  0.00    -0.308 OA
BRANCH   6   7
HETATM    7  C8  UNL     1      -0.938  44.577 -11.996  1.00  0.00     0.337 C 
HETATM    8  F3  UNL     1      -1.691  43.622 -12.705  1.00  0.00    -0.215 F 
BRANCH   7   9
HETATM    9  C7  UNL     1      -1.799  45.798 -11.785  1.00  0.00     0.039 C 
BRANCH   9  10
HETATM   10  C6  UNL     1      -1.379  46.940 -12.205  1.00  0.00     0.021 C 
BRANCH  10  11
HETATM   11  C5  UNL     1      -1.123  48.156 -11.453  1.00  0.00     0.073 A 
HETATM   12  C1  UNL     1      -2.115  48.900 -10.870  1.00  0.00     0.258 A 
HETATM   13  O1  UNL     1      -3.331  48.589 -10.940  1.00  0.00    -0.267 OA
HETATM   14  N1  UNL     1      -1.777  50.020 -10.188  1.00  0.00    -0.330 N 
HETATM   15  C2  UNL     1      -0.525  50.463 -10.036  1.00  0.00     0.137 A 
ATOM     16  H1  UNL     1      -2.528  50.563  -9.761  1.00  0.00     0.168 HD
HETATM   17  C3  UNL     1       0.481  49.727 -10.615  1.00  0.00     0.171 A 
HETATM   18  F1  UNL     1       1.764  50.177 -10.462  1.00  0.00    -0.201 F 
HETATM   19  C4  UNL     1       0.204  48.589 -11.315  1.00  0.00     0.172 A 
HETATM   20  F2  UNL     1       1.215  47.891 -11.870  1.00  0.00    -0.202 F 
ENDBRANCH  10  11
ENDBRANCH   9  10
ENDBRANCH   7   9
ENDBRANCH   6   7
ENDBRANCH   1   6
BRANCH   5  21
HETATM   21  O4  UNL     1       0.847  42.146  -8.741  1.00  0.00    -0.354 OA
ATOM     22  H4  UNL     1       0.635  41.385  -9.267  1.00  0.00     0.218 HD
ENDBRANCH   5  21
BRANCH   3  23
HETATM   23  C11 UNL     1       3.425  46.286  -9.041  1.00  0.00     0.091 C 
HETATM   24  C12 UNL     1       2.884  47.645  -8.643  1.00  0.00     0.026 C 
HETATM   25  C13 UNL     1       4.017  48.341  -7.917  1.00  0.00     0.002 C 
HETATM   26  C14 UNL     1       5.353  47.807  -8.354  1.00  0.00     0.000 C 
HETATM   27  C15 UNL     1       5.394  47.478  -9.830  1.00  0.00     0.002 C 
HETATM   28  C16 UNL     1       4.318  46.511 -10.242  1.00  0.00     0.026 C 
ENDBRANCH   3  23
BRANCH   4  29
HETATM   29  O3  UNL     1       3.209  43.629  -7.769  1.00  0.00    -0.344 OA
ATOM     30  H3  UNL     1       3.113  42.827  -7.267  1.00  0.00     0.219 HD
ENDBRANCH   4  29
TORSDOF 8
ENDMDL
