MODEL 1
REMARK VINA RESULT: -7.183404646      0.000      0.000
REMARK  9 active torsions:
REMARK  status: ('A' for Active; 'I' for Inactive)
REMARK    1  A    between atoms: C2_2  and  C4_4 
REMARK    2  A    between atoms: C5_5  and  C6_6 
REMARK    3  A    between atoms: C7_8  and  N1_9 
REMARK    4  A    between atoms: C8_11  and  C9_12 
REMARK    5  A    between atoms: C9_12  and  C10_13 
REMARK    6  A    between atoms: C10_13  and  O1_14 
REMARK    7  A    between atoms: C10_13  and  N2_16 
REMARK    8  A    between atoms: N2_16  and  O2_18 
REMARK    9  A    between atoms: C11_20  and  C12_21 
REMARK       I    between atoms: C12_21  and  N3_23 
ROOT
HETATM    1  C6  UNL     1       0.352  47.885 -11.108  1.00  0.00     0.083 A 
HETATM    2  S1  UNL     1      -1.095  47.250 -11.721  1.00  0.00    -0.060 SA
HETATM    3  C7  UNL     1      -0.689  45.610 -11.780  1.00  0.00     0.092 A 
HETATM    4  C11 UNL     1       0.621  45.580 -11.302  1.00  0.00     0.090 A 
HETATM    5  C13 UNL     1       1.144  46.774 -10.958  1.00  0.00     0.078 A 
HETATM    6 CL2  UNL     1       2.822  47.019 -10.354  1.00  0.00    -0.081 Cl
ENDROOT
BRANCH   3   7
HETATM    7  N1  UNL     1      -1.500  44.499 -12.216  1.00  0.00    -0.363 N 
HETATM    8  C8  UNL     1      -2.681  44.406 -11.747  1.00  0.00     0.070 C 
ATOM      9  H1  UNL     1      -1.140  43.812 -12.879  1.00  0.00     0.165 HD
BRANCH   8  10
HETATM   10  C9  UNL     1      -3.626  43.314 -12.109  1.00  0.00     0.130 C 
BRANCH  10  11
HETATM   11  C10 UNL     1      -2.860  42.169 -12.624  1.00  0.00     0.140 C 
BRANCH  11  12
HETATM   12  O1  UNL     1      -2.581  42.078 -13.970  1.00  0.00    -0.348 OA
ATOM     13  H1  UNL     1      -1.720  42.316 -14.293  1.00  0.00     0.219 HD
ENDBRANCH  11  12
BRANCH  11  14
HETATM   14  N2  UNL     1      -2.443  41.244 -11.835  1.00  0.00    -0.251 N 
ATOM     15  H2  UNL     1      -3.094  40.541 -11.485  1.00  0.00     0.196 HD
BRANCH  14  16
HETATM   16  O2  UNL     1      -1.102  41.202 -11.458  1.00  0.00    -0.288 OA
ATOM     17  H2  UNL     1      -0.649  40.368 -11.404  1.00  0.00     0.244 HD
ENDBRANCH  14  16
ENDBRANCH  11  14
ENDBRANCH  10  11
ENDBRANCH   8  10
ENDBRANCH   3   7
BRANCH   4  18
HETATM   18  C12 UNL     1       1.301  44.256 -11.257  1.00  0.00     0.270 C 
HETATM   19  O3  UNL     1       0.737  43.275 -10.648  1.00  0.00    -0.266 OA
HETATM   20  N3  UNL     1       2.544  43.951 -11.824  1.00  0.00    -0.264 N 
HETATM   21 CL1  UNL     1       3.240  42.344 -11.710  1.00  0.00     0.013 Cl
ATOM     22  H3  UNL     1       3.058  44.682 -12.316  1.00  0.00     0.183 HD
ENDBRANCH   4  18
BRANCH   1  23
HETATM   23  C5  UNL     1       0.692  49.279 -10.806  1.00  0.00    -0.057 C 
HETATM   24  C4  UNL     1       0.970  50.431 -10.580  1.00  0.00    -0.096 C 
BRANCH  24  25
HETATM   25  C2  UNL     1       1.331  51.821 -10.311  1.00  0.00     0.057 C 
HETATM   26  C1  UNL     1       0.058  52.594  -9.947  1.00  0.00     0.023 C 
HETATM   27  C3  UNL     1       2.199  51.818  -9.067  1.00  0.00     0.023 C 
ENDBRANCH  24  25
ENDBRANCH   1  23
TORSDOF 9
ENDMDL
MODEL 2
REMARK VINA RESULT: -7.001986145      1.323      1.371
REMARK  9 active torsions:
REMARK  status: ('A' for Active; 'I' for Inactive)
REMARK    1  A    between atoms: C2_2  and  C4_4 
REMARK    2  A    between atoms: C5_5  and  C6_6 
REMARK    3  A    between atoms: C7_8  and  N1_9 
REMARK    4  A    between atoms: C8_11  and  C9_12 
REMARK    5  A    between atoms: C9_12  and  C10_13 
REMARK    6  A    between atoms: C10_13  and  O1_14 
REMARK    7  A    between atoms: C10_13  and  N2_16 
REMARK    8  A    between atoms: N2_16  and  O2_18 
REMARK    9  A    between atoms: C11_20  and  C12_21 
REMARK       I    between atoms: C12_21  and  N3_23 
ROOT
HETATM    1  C6  UNL     1       0.670  48.489 -10.814  1.00  0.00     0.083 A 
HETATM    2  S1  UNL     1      -0.722  47.684 -11.352  1.00  0.00    -0.060 SA
HETATM    3  C7  UNL     1      -0.155  46.091 -11.345  1.00  0.00     0.092 A 
HETATM    4  C11 UNL     1       1.163  46.214 -10.905  1.00  0.00     0.090 A 
HETATM    5  C13 UNL     1       1.572  47.470 -10.635  1.00  0.00     0.078 A 
HETATM    6 CL2  UNL     1       3.233  47.909 -10.094  1.00  0.00    -0.081 Cl
ENDROOT
BRANCH   3   7
HETATM    7  N1  UNL     1      -0.862  44.885 -11.702  1.00  0.00    -0.363 N 
HETATM    8  C8  UNL     1      -1.292  44.781 -12.898  1.00  0.00     0.070 C 
ATOM      9  H1  UNL     1      -1.013  44.141 -11.021  1.00  0.00     0.165 HD
BRANCH   8  10
HETATM   10  C9  UNL     1      -2.035  43.594 -13.403  1.00  0.00     0.130 C 
BRANCH  10  11
HETATM   11  C10 UNL     1      -2.653  42.895 -12.266  1.00  0.00     0.140 C 
BRANCH  11  12
HETATM   12  O1  UNL     1      -3.455  43.589 -11.387  1.00  0.00    -0.348 OA
ATOM     13  H1  UNL     1      -3.439  43.376 -10.461  1.00  0.00     0.219 HD
ENDBRANCH  11  12
BRANCH  11  14
HETATM   14  N2  UNL     1      -2.457  41.639 -12.076  1.00  0.00    -0.251 N 
ATOM     15  H2  UNL     1      -3.196  40.970 -12.291  1.00  0.00     0.196 HD
BRANCH  14  16
HETATM   16  O2  UNL     1      -1.235  41.191 -11.577  1.00  0.00    -0.288 OA
ATOM     17  H2  UNL     1      -0.659  40.671 -12.125  1.00  0.00     0.244 HD
ENDBRANCH  14  16
ENDBRANCH  11  14
ENDBRANCH  10  11
ENDBRANCH   8  10
ENDBRANCH   3   7
BRANCH   4  18
HETATM   18  C12 UNL     1       1.972  44.968 -10.817  1.00  0.00     0.270 C 
HETATM   19  O3  UNL     1       2.111  44.228 -11.858  1.00  0.00    -0.266 OA
HETATM   20  N3  UNL     1       2.623  44.490  -9.672  1.00  0.00    -0.264 N 
HETATM   21 CL1  UNL     1       3.558  43.006  -9.697  1.00  0.00     0.013 Cl
ATOM     22  H3  UNL     1       2.551  45.018  -8.803  1.00  0.00     0.183 HD
ENDBRANCH   4  18
BRANCH   1  23
HETATM   23  C5  UNL     1       0.876  49.923 -10.589  1.00  0.00    -0.057 C 
HETATM   24  C4  UNL     1       1.045  51.107 -10.428  1.00  0.00    -0.096 C 
BRANCH  24  25
HETATM   25  C2  UNL     1       1.276  52.536 -10.234  1.00  0.00     0.057 C 
HETATM   26  C1  UNL     1      -0.082  53.242 -10.145  1.00  0.00     0.023 C 
HETATM   27  C3  UNL     1       1.930  52.697  -8.876  1.00  0.00     0.023 C 
ENDBRANCH  24  25
ENDBRANCH   1  23
TORSDOF 9
ENDMDL
MODEL 3
REMARK VINA RESULT: -6.808102487      6.055      9.143
REMARK  9 active torsions:
REMARK  status: ('A' for Active; 'I' for Inactive)
REMARK    1  A    between atoms: C2_2  and  C4_4 
REMARK    2  A    between atoms: C5_5  and  C6_6 
REMARK    3  A    between atoms: C7_8  and  N1_9 
REMARK    4  A    between atoms: C8_11  and  C9_12 
REMARK    5  A    between atoms: C9_12  and  C10_13 
REMARK    6  A    between atoms: C10_13  and  O1_14 
REMARK    7  A    between atoms: C10_13  and  N2_16 
REMARK    8  A    between atoms: N2_16  and  O2_18 
REMARK    9  A    between atoms: C11_20  and  C12_21 
REMARK       I    between atoms: C12_21  and  N3_23 
ROOT
HETATM    1  C6  UNL     1       0.035  48.568 -10.863  1.00  0.00     0.083 A 
HETATM    2  S1  UNL     1       1.611  48.509 -10.241  1.00  0.00    -0.060 SA
HETATM    3  C7  UNL     1       1.791  50.118  -9.756  1.00  0.00     0.092 A 
HETATM    4  C11 UNL     1       0.571  50.702 -10.098  1.00  0.00     0.090 A 
HETATM    5  C13 UNL     1      -0.327  49.878 -10.673  1.00  0.00     0.078 A 
HETATM    6 CL2  UNL     1      -1.958  50.386 -11.247  1.00  0.00    -0.081 Cl
ENDROOT
BRANCH   3   7
HETATM    7  N1  UNL     1       2.931  50.746  -9.131  1.00  0.00    -0.363 N 
HETATM    8  C8  UNL     1       3.206  50.416  -7.931  1.00  0.00     0.070 C 
ATOM      9  H1  UNL     1       3.497  51.430  -9.633  1.00  0.00     0.165 HD
BRANCH   8  10
HETATM   10  C9  UNL     1       4.351  50.982  -7.166  1.00  0.00     0.130 C 
BRANCH  10  11
HETATM   11  C10 UNL     1       3.853  52.032  -6.264  1.00  0.00     0.140 C 
BRANCH  11  12
HETATM   12  O1  UNL     1       3.136  53.092  -6.774  1.00  0.00    -0.348 OA
ATOM     13  H1  UNL     1       3.326  53.976  -6.484  1.00  0.00     0.219 HD
ENDBRANCH  11  12
BRANCH  11  14
HETATM   14  N2  UNL     1       4.075  51.977  -4.999  1.00  0.00    -0.251 N 
ATOM     15  H2  UNL     1       4.942  52.356  -4.617  1.00  0.00     0.196 HD
BRANCH  14  16
HETATM   16  O2  UNL     1       3.133  51.400  -4.149  1.00  0.00    -0.288 OA
ATOM     17  H2  UNL     1       3.411  50.992  -3.338  1.00  0.00     0.244 HD
ENDBRANCH  14  16
ENDBRANCH  11  14
ENDBRANCH  10  11
ENDBRANCH   8  10
ENDBRANCH   3   7
BRANCH   4  18
HETATM   18  C12 UNL     1       0.411  52.157  -9.828  1.00  0.00     0.270 C 
HETATM   19  O3  UNL     1       0.550  52.597  -8.629  1.00  0.00    -0.266 OA
HETATM   20  N3  UNL     1       0.106  53.140 -10.777  1.00  0.00    -0.264 N 
HETATM   21 CL1  UNL     1      -0.050  54.831 -10.334  1.00  0.00     0.013 Cl
ATOM     22  H3  UNL     1      -0.029  52.867 -11.750  1.00  0.00     0.183 HD
ENDBRANCH   4  18
BRANCH   1  23
HETATM   23  C5  UNL     1      -0.761  47.491 -11.460  1.00  0.00    -0.057 C 
HETATM   24  C4  UNL     1      -1.397  46.591 -11.950  1.00  0.00    -0.096 C 
BRANCH  24  25
HETATM   25  C2  UNL     1      -2.160  45.508 -12.567  1.00  0.00     0.057 C 
HETATM   26  C1  UNL     1      -1.841  45.481 -14.067  1.00  0.00     0.023 C 
HETATM   27  C3  UNL     1      -1.625  44.210 -11.994  1.00  0.00     0.023 C 
ENDBRANCH  24  25
ENDBRANCH   1  23
TORSDOF 9
ENDMDL
MODEL 4
REMARK VINA RESULT: -6.688167540      5.456      8.742
REMARK  9 active torsions:
REMARK  status: ('A' for Active; 'I' for Inactive)
REMARK    1  A    between atoms: C2_2  and  C4_4 
REMARK    2  A    between atoms: C5_5  and  C6_6 
REMARK    3  A    between atoms: C7_8  and  N1_9 
REMARK    4  A    between atoms: C8_11  and  C9_12 
REMARK    5  A    between atoms: C9_12  and  C10_13 
REMARK    6  A    between atoms: C10_13  and  O1_14 
REMARK    7  A    between atoms: C10_13  and  N2_16 
REMARK    8  A    between atoms: N2_16  and  O2_18 
REMARK    9  A    between atoms: C11_20  and  C12_21 
REMARK       I    between atoms: C12_21  and  N3_23 
ROOT
HETATM    1  C6  UNL     1       0.481  47.333 -11.031  1.00  0.00     0.083 A 
HETATM    2  S1  UNL     1       2.012  47.309 -10.303  1.00  0.00    -0.060 SA
HETATM    3  C7  UNL     1       2.172  48.946  -9.914  1.00  0.00     0.092 A 
HETATM    4  C11 UNL     1       0.983  49.510 -10.374  1.00  0.00     0.090 A 
HETATM    5  C13 UNL     1       0.117  48.654 -10.953  1.00  0.00     0.078 A 
HETATM    6 CL2  UNL     1      -1.467  49.128 -11.666  1.00  0.00    -0.081 Cl
ENDROOT
BRANCH   3   7
HETATM    7  N1  UNL     1       3.273  49.609  -9.257  1.00  0.00    -0.363 N 
HETATM    8  C8  UNL     1       3.447  49.382  -8.015  1.00  0.00     0.070 C 
ATOM      9  H1  UNL     1       3.891  50.238  -9.770  1.00  0.00     0.165 HD
BRANCH   8  10
HETATM   10  C9  UNL     1       4.541  49.996  -7.213  1.00  0.00     0.130 C 
BRANCH  10  11
HETATM   11  C10 UNL     1       4.108  51.323  -6.749  1.00  0.00     0.140 C 
BRANCH  11  12
HETATM   12  O1  UNL     1       3.644  52.251  -7.655  1.00  0.00    -0.348 OA
ATOM     13  H1  UNL     1       3.970  53.143  -7.630  1.00  0.00     0.219 HD
ENDBRANCH  11  12
BRANCH  11  14
HETATM   14  N2  UNL     1       4.154  51.635  -5.502  1.00  0.00    -0.251 N 
ATOM     15  H2  UNL     1       4.939  52.177  -5.141  1.00  0.00     0.196 HD
BRANCH  14  16
HETATM   16  O2  UNL     1       3.132  51.232  -4.644  1.00  0.00    -0.288 OA
ATOM     17  H2  UNL     1       2.558  51.879  -4.251  1.00  0.00     0.244 HD
ENDBRANCH  14  16
ENDBRANCH  11  14
ENDBRANCH  10  11
ENDBRANCH   8  10
ENDBRANCH   3   7
BRANCH   4  18
HETATM   18  C12 UNL     1       0.816  50.981 -10.211  1.00  0.00     0.270 C 
HETATM   19  O3  UNL     1       1.855  51.736 -10.184  1.00  0.00    -0.266 OA
HETATM   20  N3  UNL     1      -0.401  51.659 -10.071  1.00  0.00    -0.264 N 
HETATM   21 CL1  UNL     1      -0.468  53.404  -9.894  1.00  0.00     0.013 Cl
ATOM     22  H3  UNL     1      -1.270  51.126 -10.074  1.00  0.00     0.183 HD
ENDBRANCH   4  18
BRANCH   1  23
HETATM   23  C5  UNL     1      -0.283  46.222 -11.609  1.00  0.00    -0.057 C 
HETATM   24  C4  UNL     1      -0.898  45.310 -12.104  1.00  0.00    -0.096 C 
BRANCH  24  25
HETATM   25  C2  UNL     1      -1.660  44.223 -12.713  1.00  0.00     0.057 C 
HETATM   26  C1  UNL     1      -2.971  44.052 -11.937  1.00  0.00     0.023 C 
HETATM   27  C3  UNL     1      -2.046  44.682 -14.106  1.00  0.00     0.023 C 
ENDBRANCH  24  25
ENDBRANCH   1  23
TORSDOF 9
ENDMDL
MODEL 5
REMARK VINA RESULT: -6.662667718      1.632      2.066
REMARK  9 active torsions:
REMARK  status: ('A' for Active; 'I' for Inactive)
REMARK    1  A    between atoms: C2_2  and  C4_4 
REMARK    2  A    between atoms: C5_5  and  C6_6 
REMARK    3  A    between atoms: C7_8  and  N1_9 
REMARK    4  A    between atoms: C8_11  and  C9_12 
REMARK    5  A    between atoms: C9_12  and  C10_13 
REMARK    6  A    between atoms: C10_13  and  O1_14 
REMARK    7  A    between atoms: C10_13  and  N2_16 
REMARK    8  A    between atoms: N2_16  and  O2_18 
REMARK    9  A    between atoms: C11_20  and  C12_21 
REMARK       I    between atoms: C12_21  and  N3_23 
ROOT
HETATM    1  C6  UNL     1       0.771  48.592 -10.709  1.00  0.00     0.083 A 
HETATM    2  S1  UNL     1      -0.523  47.792 -11.457  1.00  0.00    -0.060 SA
HETATM    3  C7  UNL     1       0.001  46.192 -11.305  1.00  0.00     0.092 A 
HETATM    4  C11 UNL     1       1.225  46.309 -10.648  1.00  0.00     0.090 A 
HETATM    5  C13 UNL     1       1.607  47.566 -10.347  1.00  0.00     0.078 A 
HETATM    6 CL2  UNL     1       3.158  47.998  -9.539  1.00  0.00    -0.081 Cl
ENDROOT
BRANCH   3   7
HETATM    7  N1  UNL     1      -0.658  44.985 -11.746  1.00  0.00    -0.363 N 
HETATM    8  C8  UNL     1      -1.853  45.085 -12.176  1.00  0.00     0.070 C 
ATOM      9  H1  UNL     1      -0.182  44.083 -11.713  1.00  0.00     0.165 HD
BRANCH   8  10
HETATM   10  C9  UNL     1      -2.651  43.926 -12.661  1.00  0.00     0.130 C 
BRANCH  10  11
HETATM   11  C10 UNL     1      -2.615  43.899 -14.131  1.00  0.00     0.140 C 
BRANCH  11  12
HETATM   12  O1  UNL     1      -2.730  42.701 -14.800  1.00  0.00    -0.348 OA
ATOM     13  H1  UNL     1      -2.953  42.693 -15.723  1.00  0.00     0.219 HD
ENDBRANCH  11  12
BRANCH  11  14
HETATM   14  N2  UNL     1      -2.478  44.983 -14.809  1.00  0.00    -0.251 N 
ATOM     15  H2  UNL     1      -1.803  45.689 -14.510  1.00  0.00     0.196 HD
BRANCH  14  16
HETATM   16  O2  UNL     1      -3.250  45.195 -15.949  1.00  0.00    -0.288 OA
ATOM     17  H2  UNL     1      -3.076  45.944 -16.509  1.00  0.00     0.244 HD
ENDBRANCH  14  16
ENDBRANCH  11  14
ENDBRANCH  10  11
ENDBRANCH   8  10
ENDBRANCH   3   7
BRANCH   4  18
HETATM   18  C12 UNL     1       1.982  45.054 -10.385  1.00  0.00     0.270 C 
HETATM   19  O3  UNL     1       1.475  44.158  -9.617  1.00  0.00    -0.266 OA
HETATM   20  N3  UNL     1       3.244  44.732 -10.900  1.00  0.00    -0.264 N 
HETATM   21 CL1  UNL     1       4.033  43.211 -10.522  1.00  0.00     0.013 Cl
ATOM     22  H3  UNL     1       3.716  45.399 -11.510  1.00  0.00     0.183 HD
ENDBRANCH   4  18
BRANCH   1  23
HETATM   23  C5  UNL     1       0.964  50.030 -10.493  1.00  0.00    -0.057 C 
HETATM   24  C4  UNL     1       1.122  51.216 -10.340  1.00  0.00    -0.096 C 
BRANCH  24  25
HETATM   25  C2  UNL     1       1.340  52.648 -10.155  1.00  0.00     0.057 C 
HETATM   26  C1  UNL     1      -0.022  53.351 -10.144  1.00  0.00     0.023 C 
HETATM   27  C3  UNL     1       1.925  52.830  -8.768  1.00  0.00     0.023 C 
ENDBRANCH  24  25
ENDBRANCH   1  23
TORSDOF 9
ENDMDL
