MODEL 1
REMARK VINA RESULT: -7.291918681      0.000      0.000
REMARK  6 active torsions:
REMARK  status: ('A' for Active; 'I' for Inactive)
REMARK    1  A    between atoms: C2_2  and  C3_3 
REMARK    2  A    between atoms: C3_3  and  O1_4 
REMARK    3  A    between atoms: C13_17  and  C14_18 
REMARK    4  A    between atoms: C14_18  and  O2_19 
REMARK    5  A    between atoms: O2_19  and  C15_20 
REMARK    6  A    between atoms: C18_27  and  N3_28 
ROOT
HETATM    1  C3  UNL     1       2.685  44.663 -11.045  1.00  0.00     0.071 C 
HETATM    2  C4  UNL     1       3.712  44.449  -9.907  1.00  0.00     0.078 C 
HETATM    3  C5  UNL     1       3.983  45.702  -9.198  1.00  0.00    -0.011 C 
HETATM    4  C6  UNL     1       5.224  46.040  -8.880  1.00  0.00     0.194 C 
HETATM    5  F1  UNL     1       6.250  45.230  -9.208  1.00  0.00    -0.219 F 
HETATM    6  C7  UNL     1       2.790  46.544  -8.871  1.00  0.00     0.130 C 
HETATM    7  F2  UNL     1       2.891  46.871  -7.537  1.00  0.00    -0.238 F 
HETATM    8  C8  UNL     1       2.795  47.720  -9.775  1.00  0.00     0.057 C 
HETATM    9  C9  UNL     1       1.631  47.841 -10.687  1.00  0.00    -0.043 C 
HETATM   10  C10 UNL     1       0.510  48.568  -9.938  1.00  0.00     0.015 C 
HETATM   11  C11 UNL     1       2.045  48.801 -11.815  1.00  0.00     0.015 C 
HETATM   12  C12 UNL     1       1.150  46.596 -11.325  1.00  0.00     0.023 C 
HETATM   13  C13 UNL     1       1.460  45.323 -10.563  1.00  0.00     0.017 C 
HETATM   14  C19 UNL     1       1.607  45.630  -9.063  1.00  0.00     0.063 C 
ENDROOT
BRANCH  13  15
HETATM   15  C14 UNL     1       0.195  44.484 -10.622  1.00  0.00     0.190 C 
BRANCH  15  16
HETATM   16  O2  UNL     1      -0.626  44.943 -11.715  1.00  0.00    -0.332 OA
BRANCH  16  17
HETATM   17  C15 UNL     1      -1.366  43.945 -12.339  1.00  0.00     0.187 A 
HETATM   18  N1  UNL     1      -1.615  42.738 -11.810  1.00  0.00    -0.343 N 
HETATM   19  C16 UNL     1      -2.338  41.791 -12.444  1.00  0.00     0.107 A 
ATOM     20  H1  UNL     1      -1.239  42.525 -10.886  1.00  0.00     0.167 HD
HETATM   21  C17 UNL     1      -2.852  42.059 -13.692  1.00  0.00     0.107 A 
HETATM   22  N2  UNL     1      -2.623  43.244 -14.241  1.00  0.00    -0.348 N 
HETATM   23  C18 UNL     1      -1.904  44.181 -13.605  1.00  0.00     0.151 A 
ATOM     24  H2  UNL     1      -3.002  43.448 -15.166  1.00  0.00     0.167 HD
BRANCH  23  25
HETATM   25  N3  UNL     1      -1.719  45.307 -14.193  1.00  0.00    -0.382 N 
ATOM     26  H32 UNL     1      -1.256  46.052 -13.673  1.00  0.00     0.157 HD
ATOM     27  H31 UNL     1      -2.031  45.448 -15.155  1.00  0.00     0.157 HD
ENDBRANCH  23  25
ENDBRANCH  16  17
ENDBRANCH  15  16
ENDBRANCH  13  15
BRANCH   1  28
HETATM   28  C2  UNL     1       2.569  43.317 -11.674  1.00  0.00     0.034 C 
HETATM   29  C1  UNL     1       3.749  42.418 -11.531  1.00  0.00     0.008 C 
ENDBRANCH   1  28
BRANCH   1  30
HETATM   30  O1  UNL     1       3.423  45.453 -11.965  1.00  0.00    -0.389 OA
ATOM     31  H1  UNL     1       4.185  45.758 -11.486  1.00  0.00     0.210 HD
ENDBRANCH   1  30
TORSDOF 6
ENDMDL
MODEL 2
REMARK VINA RESULT: -7.173731314      1.432      3.203
REMARK  6 active torsions:
REMARK  status: ('A' for Active; 'I' for Inactive)
REMARK    1  A    between atoms: C2_2  and  C3_3 
REMARK    2  A    between atoms: C3_3  and  O1_4 
REMARK    3  A    between atoms: C13_17  and  C14_18 
REMARK    4  A    between atoms: C14_18  and  O2_19 
REMARK    5  A    between atoms: O2_19  and  C15_20 
REMARK    6  A    between atoms: C18_27  and  N3_28 
ROOT
HETATM    1  C3  UNL     1       2.068  46.626 -10.580  1.00  0.00     0.071 C 
HETATM    2  C4  UNL     1       3.602  46.621 -10.790  1.00  0.00     0.078 C 
HETATM    3  C5  UNL     1       4.226  45.494 -10.092  1.00  0.00    -0.011 C 
HETATM    4  C6  UNL     1       5.341  45.667  -9.398  1.00  0.00     0.194 C 
HETATM    5  F1  UNL     1       5.911  46.886  -9.327  1.00  0.00    -0.219 F 
HETATM    6  C7  UNL     1       3.531  44.175 -10.221  1.00  0.00     0.130 C 
HETATM    7  F2  UNL     1       4.491  43.256 -10.582  1.00  0.00    -0.238 F 
HETATM    8  C8  UNL     1       2.874  43.873  -8.925  1.00  0.00     0.057 C 
HETATM    9  C9  UNL     1       1.396  43.751  -8.961  1.00  0.00    -0.043 C 
HETATM   10  C10 UNL     1       1.043  42.311  -9.342  1.00  0.00     0.015 C 
HETATM   11  C11 UNL     1       0.900  43.914  -7.514  1.00  0.00     0.015 C 
HETATM   12  C12 UNL     1       0.665  44.736  -9.788  1.00  0.00     0.023 C 
HETATM   13  C13 UNL     1       1.462  45.331 -10.931  1.00  0.00     0.017 C 
HETATM   14  C19 UNL     1       2.568  44.355 -11.366  1.00  0.00     0.063 C 
ENDROOT
BRANCH  13  15
HETATM   15  C14 UNL     1       0.525  45.347 -12.127  1.00  0.00     0.190 C 
BRANCH  15  16
HETATM   16  O2  UNL     1      -0.826  45.131 -11.673  1.00  0.00    -0.332 OA
BRANCH  16  17
HETATM   17  C15 UNL     1      -1.486  44.081 -12.302  1.00  0.00     0.187 A 
HETATM   18  N1  UNL     1      -1.570  42.834 -11.814  1.00  0.00    -0.343 N 
HETATM   19  C16 UNL     1      -2.219  41.837 -12.451  1.00  0.00     0.107 A 
ATOM     20  H1  UNL     1      -1.122  42.630 -10.921  1.00  0.00     0.167 HD
HETATM   21  C17 UNL     1      -2.829  42.093 -13.658  1.00  0.00     0.107 A 
HETATM   22  N2  UNL     1      -2.763  43.317 -14.165  1.00  0.00    -0.348 N 
HETATM   23  C18 UNL     1      -2.116  44.304 -13.526  1.00  0.00     0.151 A 
ATOM     24  H2  UNL     1      -3.214  43.512 -15.060  1.00  0.00     0.167 HD
BRANCH  23  25
HETATM   25  N3  UNL     1      -2.090  45.465 -14.073  1.00  0.00    -0.382 N 
ATOM     26  H32 UNL     1      -1.277  46.057 -13.907  1.00  0.00     0.157 HD
ATOM     27  H31 UNL     1      -2.865  45.781 -14.657  1.00  0.00     0.157 HD
ENDBRANCH  23  25
ENDBRANCH  16  17
ENDBRANCH  15  16
ENDBRANCH  13  15
BRANCH   1  28
HETATM   28  C2  UNL     1       1.616  47.845 -11.308  1.00  0.00     0.034 C 
HETATM   29  C1  UNL     1       0.552  48.653 -10.646  1.00  0.00     0.008 C 
ENDBRANCH   1  28
BRANCH   1  30
HETATM   30  O1  UNL     1       1.958  46.941  -9.201  1.00  0.00    -0.389 OA
ATOM     31  H1  UNL     1       2.807  46.741  -8.824  1.00  0.00     0.210 HD
ENDBRANCH   1  30
TORSDOF 6
ENDMDL
MODEL 3
REMARK VINA RESULT: -7.155376877      2.966      5.283
REMARK  6 active torsions:
REMARK  status: ('A' for Active; 'I' for Inactive)
REMARK    1  A    between atoms: C2_2  and  C3_3 
REMARK    2  A    between atoms: C3_3  and  O1_4 
REMARK    3  A    between atoms: C13_17  and  C14_18 
REMARK    4  A    between atoms: C14_18  and  O2_19 
REMARK    5  A    between atoms: O2_19  and  C15_20 
REMARK    6  A    between atoms: C18_27  and  N3_28 
ROOT
HETATM    1  C3  UNL     1       1.672  44.799 -10.915  1.00  0.00     0.071 C 
HETATM    2  C4  UNL     1       0.745  44.133  -9.870  1.00  0.00     0.078 C 
HETATM    3  C5  UNL     1       1.412  44.015  -8.571  1.00  0.00    -0.011 C 
HETATM    4  C6  UNL     1       1.323  42.897  -7.868  1.00  0.00     0.194 C 
HETATM    5  F1  UNL     1       0.614  41.854  -8.344  1.00  0.00    -0.219 F 
HETATM    6  C7  UNL     1       2.178  45.218  -8.115  1.00  0.00     0.130 C 
HETATM    7  F2  UNL     1       1.779  45.472  -6.821  1.00  0.00    -0.238 F 
HETATM    8  C8  UNL     1       3.626  44.917  -8.243  1.00  0.00     0.057 C 
HETATM    9  C9  UNL     1       4.386  45.781  -9.180  1.00  0.00    -0.043 C 
HETATM   10  C10 UNL     1       4.833  47.033  -8.421  1.00  0.00     0.015 C 
HETATM   11  C11 UNL     1       5.687  45.034  -9.519  1.00  0.00     0.015 C 
HETATM   12  C12 UNL     1       3.727  46.118 -10.461  1.00  0.00     0.023 C 
HETATM   13  C13 UNL     1       2.213  46.081 -10.433  1.00  0.00     0.017 C 
HETATM   14  C19 UNL     1       1.706  46.338  -9.004  1.00  0.00     0.063 C 
ENDROOT
BRANCH  13  15
HETATM   15  C14 UNL     1       1.752  47.314 -11.191  1.00  0.00     0.190 C 
BRANCH  15  16
HETATM   16  O2  UNL     1       0.530  47.803 -10.600  1.00  0.00    -0.332 OA
BRANCH  16  17
HETATM   17  C15 UNL     1       0.480  49.183 -10.437  1.00  0.00     0.187 A 
HETATM   18  N1  UNL     1       1.554  49.986 -10.411  1.00  0.00    -0.343 N 
HETATM   19  C16 UNL     1       1.470  51.323 -10.250  1.00  0.00     0.107 A 
ATOM     20  H1  UNL     1       2.478  49.567 -10.519  1.00  0.00     0.167 HD
HETATM   21  C17 UNL     1       0.232  51.908 -10.104  1.00  0.00     0.107 A 
HETATM   22  N2  UNL     1      -0.848  51.139 -10.124  1.00  0.00    -0.348 N 
HETATM   23  C18 UNL     1      -0.757  49.810 -10.285  1.00  0.00     0.151 A 
ATOM     24  H2  UNL     1      -1.768  51.567 -10.016  1.00  0.00     0.167 HD
BRANCH  23  25
HETATM   25  N3  UNL     1      -1.842  49.125 -10.295  1.00  0.00    -0.382 N 
ATOM     26  H32 UNL     1      -2.250  48.883 -11.198  1.00  0.00     0.157 HD
ATOM     27  H31 UNL     1      -2.281  48.835  -9.421  1.00  0.00     0.157 HD
ENDBRANCH  23  25
ENDBRANCH  16  17
ENDBRANCH  15  16
ENDBRANCH  13  15
BRANCH   1  28
HETATM   28  C2  UNL     1       0.859  44.793 -12.164  1.00  0.00     0.034 C 
HETATM   29  C1  UNL     1      -0.594  44.499 -12.004  1.00  0.00     0.008 C 
ENDBRANCH   1  28
BRANCH   1  30
HETATM   30  O1  UNL     1       2.669  43.806 -11.103  1.00  0.00    -0.389 OA
ATOM     31  H1  UNL     1       2.955  43.563 -10.230  1.00  0.00     0.210 HD
ENDBRANCH   1  30
TORSDOF 6
ENDMDL
MODEL 4
REMARK VINA RESULT: -7.121628550      1.280      1.830
REMARK  6 active torsions:
REMARK  status: ('A' for Active; 'I' for Inactive)
REMARK    1  A    between atoms: C2_2  and  C3_3 
REMARK    2  A    between atoms: C3_3  and  O1_4 
REMARK    3  A    between atoms: C13_17  and  C14_18 
REMARK    4  A    between atoms: C14_18  and  O2_19 
REMARK    5  A    between atoms: O2_19  and  C15_20 
REMARK    6  A    between atoms: C18_27  and  N3_28 
ROOT
HETATM    1  C3  UNL     1       3.230  43.551 -10.462  1.00  0.00     0.071 C 
HETATM    2  C4  UNL     1       3.730  43.428  -9.003  1.00  0.00     0.078 C 
HETATM    3  C5  UNL     1       3.556  44.689  -8.278  1.00  0.00    -0.011 C 
HETATM    4  C6  UNL     1       4.520  45.156  -7.498  1.00  0.00     0.194 C 
HETATM    5  F1  UNL     1       5.673  44.471  -7.366  1.00  0.00    -0.219 F 
HETATM    6  C7  UNL     1       2.247  45.387  -8.479  1.00  0.00     0.130 C 
HETATM    7  F2  UNL     1       1.769  45.697  -7.225  1.00  0.00    -0.238 F 
HETATM    8  C8  UNL     1       2.486  46.575  -9.336  1.00  0.00     0.057 C 
HETATM    9  C9  UNL     1       1.780  46.584 -10.640  1.00  0.00    -0.043 C 
HETATM   10  C10 UNL     1       0.381  47.168 -10.424  1.00  0.00     0.015 C 
HETATM   11  C11 UNL     1       2.505  47.606 -11.532  1.00  0.00     0.015 C 
HETATM   12  C12 UNL     1       1.736  45.307 -11.385  1.00  0.00     0.023 C 
HETATM   13  C13 UNL     1       1.851  44.061 -10.529  1.00  0.00     0.017 C 
HETATM   14  C19 UNL     1       1.349  44.352  -9.105  1.00  0.00     0.063 C 
ENDROOT
BRANCH  13  15
HETATM   15  C14 UNL     1       0.816  43.089 -11.069  1.00  0.00     0.190 C 
BRANCH  15  16
HETATM   16  O2  UNL     1      -0.494  43.682 -10.956  1.00  0.00    -0.332 OA
BRANCH  16  17
HETATM   17  C15 UNL     1      -1.225  43.697 -12.139  1.00  0.00     0.187 A 
HETATM   18  N1  UNL     1      -1.252  44.722 -13.004  1.00  0.00    -0.343 N 
HETATM   19  C16 UNL     1      -1.973  44.703 -14.145  1.00  0.00     0.107 A 
ATOM     20  H1  UNL     1      -0.703  45.554 -12.790  1.00  0.00     0.167 HD
HETATM   21  C17 UNL     1      -2.721  43.589 -14.451  1.00  0.00     0.107 A 
HETATM   22  N2  UNL     1      -2.714  42.560 -13.615  1.00  0.00    -0.348 N 
HETATM   23  C18 UNL     1      -1.995  42.585 -12.482  1.00  0.00     0.151 A 
ATOM     24  H2  UNL     1      -3.267  41.732 -13.837  1.00  0.00     0.167 HD
BRANCH  23  25
HETATM   25  N3  UNL     1      -2.033  41.555 -11.718  1.00  0.00    -0.382 N 
ATOM     26  H32 UNL     1      -1.163  41.242 -11.287  1.00  0.00     0.157 HD
ATOM     27  H31 UNL     1      -2.912  41.066 -11.549  1.00  0.00     0.157 HD
ENDBRANCH  23  25
ENDBRANCH  16  17
ENDBRANCH  15  16
ENDBRANCH  13  15
BRANCH   1  28
HETATM   28  C2  UNL     1       3.524  42.213 -11.050  1.00  0.00     0.034 C 
HETATM   29  C1  UNL     1       4.964  41.854 -11.187  1.00  0.00     0.008 C 
ENDBRANCH   1  28
BRANCH   1  30
HETATM   30  O1  UNL     1       4.184  44.435 -11.030  1.00  0.00    -0.389 OA
ATOM     31  H1  UNL     1       4.905  44.464 -10.412  1.00  0.00     0.210 HD
ENDBRANCH   1  30
TORSDOF 6
ENDMDL
MODEL 5
REMARK VINA RESULT: -6.895217864      4.375      7.596
REMARK  6 active torsions:
REMARK  status: ('A' for Active; 'I' for Inactive)
REMARK    1  A    between atoms: C2_2  and  C3_3 
REMARK    2  A    between atoms: C3_3  and  O1_4 
REMARK    3  A    between atoms: C13_17  and  C14_18 
REMARK    4  A    between atoms: C14_18  and  O2_19 
REMARK    5  A    between atoms: O2_19  and  C15_20 
REMARK    6  A    between atoms: C18_27  and  N3_28 
ROOT
HETATM    1  C3  UNL     1       2.932  46.420 -10.484  1.00  0.00     0.071 C 
HETATM    2  C4  UNL     1       1.384  46.392 -10.508  1.00  0.00     0.078 C 
HETATM    3  C5  UNL     1       0.878  45.034 -10.293  1.00  0.00    -0.011 C 
HETATM    4  C6  UNL     1      -0.112  44.560 -11.035  1.00  0.00     0.194 C 
HETATM    5  F1  UNL     1      -0.662  45.326 -11.997  1.00  0.00    -0.219 F 
HETATM    6  C7  UNL     1       1.543  44.249  -9.206  1.00  0.00     0.130 C 
HETATM    7  F2  UNL     1       0.537  43.730  -8.422  1.00  0.00    -0.238 F 
HETATM    8  C8  UNL     1       2.397  43.215  -9.842  1.00  0.00     0.057 C 
HETATM    9  C9  UNL     1       3.851  43.315  -9.562  1.00  0.00    -0.043 C 
HETATM   10  C10 UNL     1       4.138  42.578  -8.251  1.00  0.00     0.015 C 
HETATM   11  C11 UNL     1       4.571  42.495 -10.646  1.00  0.00     0.015 C 
HETATM   12  C12 UNL     1       4.442  44.671  -9.574  1.00  0.00     0.023 C 
HETATM   13  C13 UNL     1       3.474  45.796  -9.266  1.00  0.00     0.017 C 
HETATM   14  C19 UNL     1       2.312  45.270  -8.407  1.00  0.00     0.063 C 
ENDROOT
BRANCH  13  15
HETATM   15  C14 UNL     1       4.208  46.730  -8.320  1.00  0.00     0.190 C 
BRANCH  15  16
HETATM   16  O2  UNL     1       5.567  46.273  -8.163  1.00  0.00    -0.332 OA
BRANCH  16  17
HETATM   17  C15 UNL     1       6.175  46.665  -6.977  1.00  0.00     0.187 A 
HETATM   18  N1  UNL     1       6.774  47.850  -6.784  1.00  0.00    -0.343 N 
HETATM   19  C16 UNL     1       7.356  48.200  -5.618  1.00  0.00     0.107 A 
ATOM     20  H1  UNL     1       6.791  48.518  -7.555  1.00  0.00     0.167 HD
HETATM   21  C17 UNL     1       7.344  47.313  -4.566  1.00  0.00     0.107 A 
HETATM   22  N2  UNL     1       6.760  46.133  -4.726  1.00  0.00    -0.348 N 
HETATM   23  C18 UNL     1       6.183  45.792  -5.889  1.00  0.00     0.151 A 
ATOM     24  H2  UNL     1       6.748  45.472  -3.950  1.00  0.00     0.167 HD
BRANCH  23  25
HETATM   25  N3  UNL     1       5.635  44.635  -5.976  1.00  0.00    -0.382 N 
ATOM     26  H32 UNL     1       6.241  43.823  -6.096  1.00  0.00     0.157 HD
ATOM     27  H31 UNL     1       4.621  44.535  -5.928  1.00  0.00     0.157 HD
ENDBRANCH  23  25
ENDBRANCH  16  17
ENDBRANCH  15  16
ENDBRANCH  13  15
BRANCH   1  28
HETATM   28  C2  UNL     1       3.263  47.847 -10.762  1.00  0.00     0.034 C 
HETATM   29  C1  UNL     1       2.171  48.677 -11.345  1.00  0.00     0.008 C 
ENDBRANCH   1  28
BRANCH   1  30
HETATM   30  O1  UNL     1       3.260  45.714 -11.670  1.00  0.00    -0.389 OA
ATOM     31  H1  UNL     1       2.607  45.028 -11.749  1.00  0.00     0.210 HD
ENDBRANCH   1  30
TORSDOF 6
ENDMDL
