MODEL 1
REMARK VINA RESULT: -7.803705664      0.000      0.000
REMARK  5 active torsions:
REMARK  status: ('A' for Active; 'I' for Inactive)
REMARK    1  A    between atoms: O1_2  and  C2_3 
REMARK    2  A    between atoms: C4_5  and  N1_6 
REMARK    3  A    between atoms: C5_7  and  O2_8 
REMARK    4  A    between atoms: C8_12  and  O3_13 
REMARK    5  A    between atoms: C17_25  and  O4_26 
ROOT
HETATM    1  N1  UNL     1       0.474  48.299 -10.762  1.00  0.00    -0.270 N 
HETATM    2  C5  UNL     1      -0.862  48.188 -10.860  1.00  0.00     0.156 A 
HETATM    3  C6  UNL     1      -1.227  47.049 -11.547  1.00  0.00     0.005 A 
HETATM    4  C7  UNL     1      -0.045  46.429 -11.889  1.00  0.00     0.013 A 
HETATM    5  C8  UNL     1       0.973  47.221 -11.392  1.00  0.00     0.157 A 
HETATM    6  C9  UNL     1      -0.295  45.189 -12.635  1.00  0.00     0.060 A 
HETATM    7  C10 UNL     1      -0.351  44.028 -11.746  1.00  0.00    -0.078 A 
HETATM    8  C11 UNL     1       0.671  43.233 -11.004  1.00  0.00     0.044 C 
HETATM    9  C12 UNL     1      -1.670  43.915 -11.828  1.00  0.00    -0.018 A 
HETATM   10  C13 UNL     1      -1.776  45.071 -12.732  1.00  0.00     0.025 A 
HETATM   11  C14 UNL     1      -2.395  46.245 -12.055  1.00  0.00     0.053 A 
ENDROOT
BRANCH   1  12
HETATM   12  C4  UNL     1       1.206  49.352 -10.116  1.00  0.00     0.071 A 
HETATM   13  C3  UNL     1       1.056  50.661 -10.530  1.00  0.00     0.071 A 
HETATM   14  C2  UNL     1       1.762  51.690  -9.906  1.00  0.00     0.106 A 
HETATM   15  C17 UNL     1       2.630  51.438  -8.865  1.00  0.00     0.142 A 
HETATM   16  C16 UNL     1       2.781  50.130  -8.451  1.00  0.00     0.176 A 
HETATM   17  C15 UNL     1       2.079  49.124  -9.072  1.00  0.00     0.102 A 
HETATM   18  F1  UNL     1       3.642  49.878  -7.416  1.00  0.00    -0.201 F 
HETATM   19 CL1  UNL     1       2.302  47.481  -8.514  1.00  0.00    -0.079 Cl
BRANCH  14  20
HETATM   20  O1  UNL     1       1.629  53.017 -10.303  1.00  0.00    -0.353 OA
HETATM   21  C1  UNL     1       0.332  53.573 -10.305  1.00  0.00     0.210 C 
ENDBRANCH  14  20
BRANCH  15  22
HETATM   22  O4  UNL     1       3.324  52.489  -8.261  1.00  0.00    -0.350 OA
HETATM   23  C18 UNL     1       2.832  53.071  -7.073  1.00  0.00     0.210 C 
ENDBRANCH  15  22
ENDBRANCH   1  12
BRANCH   2  24
HETATM   24  O2  UNL     1      -1.755  49.122 -10.323  1.00  0.00    -0.345 OA
ATOM     25  H2  UNL     1      -2.134  49.834 -10.826  1.00  0.00     0.219 HD
ENDBRANCH   2  24
BRANCH   5  26
HETATM   26  O3  UNL     1       2.355  47.003 -11.490  1.00  0.00    -0.345 OA
ATOM     27  H3  UNL     1       2.874  47.404 -12.178  1.00  0.00     0.219 HD
ENDBRANCH   5  26
TORSDOF 5
ENDMDL
MODEL 2
REMARK VINA RESULT: -7.571819145      3.562      4.370
REMARK  5 active torsions:
REMARK  status: ('A' for Active; 'I' for Inactive)
REMARK    1  A    between atoms: O1_2  and  C2_3 
REMARK    2  A    between atoms: C4_5  and  N1_6 
REMARK    3  A    between atoms: C5_7  and  O2_8 
REMARK    4  A    between atoms: C8_12  and  O3_13 
REMARK    5  A    between atoms: C17_25  and  O4_26 
ROOT
HETATM    1  N1  UNL     1       1.881  45.873 -10.800  1.00  0.00    -0.270 N 
HETATM    2  C5  UNL     1       0.884  46.773 -10.743  1.00  0.00     0.156 A 
HETATM    3  C6  UNL     1      -0.168  46.416 -11.561  1.00  0.00     0.005 A 
HETATM    4  C7  UNL     1       0.210  45.230 -12.152  1.00  0.00     0.013 A 
HETATM    5  C8  UNL     1       1.467  44.930 -11.664  1.00  0.00     0.157 A 
HETATM    6  C9  UNL     1      -0.834  44.736 -13.060  1.00  0.00     0.060 A 
HETATM    7  C10 UNL     1      -1.744  43.812 -12.382  1.00  0.00    -0.078 A 
HETATM    8  C11 UNL     1      -1.640  42.396 -11.924  1.00  0.00     0.044 C 
HETATM    9  C12 UNL     1      -2.731  44.694 -12.311  1.00  0.00    -0.018 A 
HETATM   10  C13 UNL     1      -1.936  45.734 -12.984  1.00  0.00     0.025 A 
HETATM   11  C14 UNL     1      -1.537  46.818 -12.043  1.00  0.00     0.053 A 
ENDROOT
BRANCH   1  12
HETATM   12  C4  UNL     1       3.126  45.921 -10.084  1.00  0.00     0.071 A 
HETATM   13  C3  UNL     1       4.186  46.654 -10.577  1.00  0.00     0.071 A 
HETATM   14  C2  UNL     1       5.398  46.706  -9.887  1.00  0.00     0.106 A 
HETATM   15  C17 UNL     1       5.577  46.030  -8.699  1.00  0.00     0.142 A 
HETATM   16  C16 UNL     1       4.518  45.295  -8.206  1.00  0.00     0.176 A 
HETATM   17  C15 UNL     1       3.328  45.253  -8.894  1.00  0.00     0.102 A 
HETATM   18  F1  UNL     1       4.694  44.623  -7.025  1.00  0.00    -0.201 F 
HETATM   19 CL1  UNL     1       2.012  44.309  -8.232  1.00  0.00    -0.079 Cl
BRANCH  14  20
HETATM   20  O1  UNL     1       6.482  47.437 -10.361  1.00  0.00    -0.353 OA
HETATM   21  C1  UNL     1       6.532  48.813 -10.046  1.00  0.00     0.210 C 
ENDBRANCH  14  20
BRANCH  15  22
HETATM   22  O4  UNL     1       6.802  46.099  -8.031  1.00  0.00    -0.350 OA
HETATM   23  C18 UNL     1       6.938  46.917  -6.889  1.00  0.00     0.210 C 
ENDBRANCH  15  22
ENDBRANCH   1  12
BRANCH   2  24
HETATM   24  O2  UNL     1       0.926  47.922  -9.944  1.00  0.00    -0.345 OA
ATOM     25  H2  UNL     1       0.972  47.899  -8.996  1.00  0.00     0.219 HD
ENDBRANCH   2  24
BRANCH   5  26
HETATM   26  O3  UNL     1       2.265  43.819 -11.974  1.00  0.00    -0.345 OA
ATOM     27  H3  UNL     1       2.827  43.414 -11.323  1.00  0.00     0.219 HD
ENDBRANCH   5  26
TORSDOF 5
ENDMDL
MODEL 3
REMARK VINA RESULT: -7.521382607      3.806      6.117
REMARK  5 active torsions:
REMARK  status: ('A' for Active; 'I' for Inactive)
REMARK    1  A    between atoms: O1_2  and  C2_3 
REMARK    2  A    between atoms: C4_5  and  N1_6 
REMARK    3  A    between atoms: C5_7  and  O2_8 
REMARK    4  A    between atoms: C8_12  and  O3_13 
REMARK    5  A    between atoms: C17_25  and  O4_26 
ROOT
HETATM    1  N1  UNL     1       2.102  46.657  -9.843  1.00  0.00    -0.270 N 
HETATM    2  C5  UNL     1       1.874  47.822  -9.213  1.00  0.00     0.156 A 
HETATM    3  C6  UNL     1       0.904  48.564  -9.855  1.00  0.00     0.005 A 
HETATM    4  C7  UNL     1       0.519  47.808 -10.940  1.00  0.00     0.013 A 
HETATM    5  C8  UNL     1       1.272  46.650 -10.900  1.00  0.00     0.157 A 
HETATM    6  C9  UNL     1      -0.521  48.492 -11.719  1.00  0.00     0.060 A 
HETATM    7  C10 UNL     1      -1.863  48.097 -11.291  1.00  0.00    -0.078 A 
HETATM    8  C11 UNL     1      -2.698  46.874 -11.476  1.00  0.00     0.044 C 
HETATM    9  C12 UNL     1      -2.095  49.238 -10.658  1.00  0.00    -0.018 A 
HETATM   10  C13 UNL     1      -0.772  49.777 -11.011  1.00  0.00     0.025 A 
HETATM   11  C14 UNL     1       0.126  49.853  -9.824  1.00  0.00     0.053 A 
ENDROOT
BRANCH   1  12
HETATM   12  C4  UNL     1       3.040  45.639  -9.458  1.00  0.00     0.071 A 
HETATM   13  C3  UNL     1       4.391  45.820  -9.672  1.00  0.00     0.071 A 
HETATM   14  C2  UNL     1       5.309  44.836  -9.299  1.00  0.00     0.106 A 
HETATM   15  C17 UNL     1       4.900  43.658  -8.711  1.00  0.00     0.142 A 
HETATM   16  C16 UNL     1       3.548  43.477  -8.498  1.00  0.00     0.176 A 
HETATM   17  C15 UNL     1       2.654  44.454  -8.868  1.00  0.00     0.102 A 
HETATM   18  F1  UNL     1       3.141  42.307  -7.913  1.00  0.00    -0.201 F 
HETATM   19 CL1  UNL     1       0.951  44.180  -8.578  1.00  0.00    -0.079 Cl
BRANCH  14  20
HETATM   20  O1  UNL     1       6.676  44.992  -9.503  1.00  0.00    -0.353 OA
HETATM   21  C1  UNL     1       7.359  45.917  -8.684  1.00  0.00     0.210 C 
ENDBRANCH  14  20
BRANCH  15  22
HETATM   22  O4  UNL     1       5.841  42.691  -8.350  1.00  0.00    -0.350 OA
HETATM   23  C18 UNL     1       6.241  42.562  -7.003  1.00  0.00     0.210 C 
ENDBRANCH  15  22
ENDBRANCH   1  12
BRANCH   2  24
HETATM   24  O2  UNL     1       2.545  48.215  -8.049  1.00  0.00    -0.345 OA
ATOM     25  H2  UNL     1       2.414  49.056  -7.627  1.00  0.00     0.219 HD
ENDBRANCH   2  24
BRANCH   5  26
HETATM   26  O3  UNL     1       1.237  45.572 -11.798  1.00  0.00    -0.345 OA
ATOM     27  H3  UNL     1       1.186  45.709 -12.736  1.00  0.00     0.219 HD
ENDBRANCH   5  26
TORSDOF 5
ENDMDL
MODEL 4
REMARK VINA RESULT: -7.519897425      3.451      6.306
REMARK  5 active torsions:
REMARK  status: ('A' for Active; 'I' for Inactive)
REMARK    1  A    between atoms: O1_2  and  C2_3 
REMARK    2  A    between atoms: C4_5  and  N1_6 
REMARK    3  A    between atoms: C5_7  and  O2_8 
REMARK    4  A    between atoms: C8_12  and  O3_13 
REMARK    5  A    between atoms: C17_25  and  O4_26 
ROOT
HETATM    1  N1  UNL     1       1.844  46.828  -9.874  1.00  0.00    -0.270 N 
HETATM    2  C5  UNL     1       1.802  48.040  -9.294  1.00  0.00     0.156 A 
HETATM    3  C6  UNL     1       0.890  48.868  -9.915  1.00  0.00     0.005 A 
HETATM    4  C7  UNL     1       0.344  48.117 -10.934  1.00  0.00     0.013 A 
HETATM    5  C8  UNL     1       0.951  46.878 -10.878  1.00  0.00     0.157 A 
HETATM    6  C9  UNL     1      -0.654  48.891 -11.684  1.00  0.00     0.060 A 
HETATM    7  C10 UNL     1      -2.003  48.687 -11.154  1.00  0.00    -0.078 A 
HETATM    8  C11 UNL     1      -2.991  47.571 -11.223  1.00  0.00     0.044 C 
HETATM    9  C12 UNL     1      -2.051  49.876 -10.570  1.00  0.00    -0.018 A 
HETATM   10  C13 UNL     1      -0.699  50.228 -11.031  1.00  0.00     0.025 A 
HETATM   11  C14 UNL     1       0.279  50.245  -9.906  1.00  0.00     0.053 A 
ENDROOT
BRANCH   1  12
HETATM   12  C4  UNL     1       2.674  45.720  -9.492  1.00  0.00     0.071 A 
HETATM   13  C3  UNL     1       2.124  44.622  -8.863  1.00  0.00     0.071 A 
HETATM   14  C2  UNL     1       2.924  43.540  -8.490  1.00  0.00     0.106 A 
HETATM   15  C17 UNL     1       4.280  43.532  -8.733  1.00  0.00     0.142 A 
HETATM   16  C16 UNL     1       4.831  44.631  -9.362  1.00  0.00     0.176 A 
HETATM   17  C15 UNL     1       4.033  45.690  -9.726  1.00  0.00     0.102 A 
HETATM   18  F1  UNL     1       6.179  44.624  -9.605  1.00  0.00    -0.201 F 
HETATM   19 CL1  UNL     1       4.775  47.061 -10.520  1.00  0.00    -0.079 Cl
BRANCH  14  20
HETATM   20  O1  UNL     1       2.395  42.421  -7.854  1.00  0.00    -0.353 OA
HETATM   21  C1  UNL     1       0.989  42.299  -7.805  1.00  0.00     0.210 C 
ENDBRANCH  14  20
BRANCH  15  22
HETATM   22  O4  UNL     1       5.055  42.437  -8.347  1.00  0.00    -0.350 OA
HETATM   23  C18 UNL     1       5.763  42.467  -7.126  1.00  0.00     0.210 C 
ENDBRANCH  15  22
ENDBRANCH   1  12
BRANCH   2  24
HETATM   24  O2  UNL     1       2.593  48.399  -8.196  1.00  0.00    -0.345 OA
ATOM     25  H2  UNL     1       2.304  48.995  -7.515  1.00  0.00     0.219 HD
ENDBRANCH   2  24
BRANCH   5  26
HETATM   26  O3  UNL     1       0.724  45.773 -11.712  1.00  0.00    -0.345 OA
ATOM     27  H3  UNL     1       0.682  45.865 -12.657  1.00  0.00     0.219 HD
ENDBRANCH   5  26
TORSDOF 5
ENDMDL
MODEL 5
REMARK VINA RESULT: -7.518857526      4.347      7.116
REMARK  5 active torsions:
REMARK  status: ('A' for Active; 'I' for Inactive)
REMARK    1  A    between atoms: O1_2  and  C2_3 
REMARK    2  A    between atoms: C4_5  and  N1_6 
REMARK    3  A    between atoms: C5_7  and  O2_8 
REMARK    4  A    between atoms: C8_12  and  O3_13 
REMARK    5  A    between atoms: C17_25  and  O4_26 
ROOT
HETATM    1  N1  UNL     1       2.819  45.608  -9.864  1.00  0.00    -0.270 N 
HETATM    2  C5  UNL     1       3.977  46.058 -10.378  1.00  0.00     0.156 A 
HETATM    3  C6  UNL     1       4.995  46.016  -9.448  1.00  0.00     0.005 A 
HETATM    4  C7  UNL     1       4.425  45.512  -8.299  1.00  0.00     0.013 A 
HETATM    5  C8  UNL     1       3.096  45.274  -8.591  1.00  0.00     0.157 A 
HETATM    6  C9  UNL     1       5.414  45.416  -7.218  1.00  0.00     0.060 A 
HETATM    7  C10 UNL     1       6.044  44.095  -7.179  1.00  0.00    -0.078 A 
HETATM    8  C11 UNL     1       5.601  42.742  -6.733  1.00  0.00     0.044 C 
HETATM    9  C12 UNL     1       7.187  44.526  -7.695  1.00  0.00    -0.018 A 
HETATM   10  C13 UNL     1       6.693  45.909  -7.798  1.00  0.00     0.025 A 
HETATM   11  C14 UNL     1       6.454  46.304  -9.215  1.00  0.00     0.053 A 
ENDROOT
BRANCH   1  12
HETATM   12  C4  UNL     1       1.557  45.509 -10.541  1.00  0.00     0.071 A 
HETATM   13  C3  UNL     1       0.846  46.648 -10.860  1.00  0.00     0.071 A 
HETATM   14  C2  UNL     1      -0.381  46.560 -11.520  1.00  0.00     0.106 A 
HETATM   15  C17 UNL     1      -0.922  45.342 -11.871  1.00  0.00     0.142 A 
HETATM   16  C16 UNL     1      -0.212  44.202 -11.551  1.00  0.00     0.176 A 
HETATM   17  C15 UNL     1       0.996  44.301 -10.902  1.00  0.00     0.102 A 
HETATM   18  F1  UNL     1      -0.749  42.991 -11.899  1.00  0.00    -0.201 F 
HETATM   19 CL1  UNL     1       1.861  42.830 -10.517  1.00  0.00    -0.079 Cl
BRANCH  14  20
HETATM   20  O1  UNL     1      -1.118  47.692 -11.854  1.00  0.00    -0.353 OA
HETATM   21  C1  UNL     1      -1.620  48.482 -10.796  1.00  0.00     0.210 C 
ENDBRANCH  14  20
BRANCH  15  22
HETATM   22  O4  UNL     1      -2.153  45.285 -12.529  1.00  0.00    -0.350 OA
HETATM   23  C18 UNL     1      -2.199  45.073 -13.924  1.00  0.00     0.210 C 
ENDBRANCH  15  22
ENDBRANCH   1  12
BRANCH   2  24
HETATM   24  O2  UNL     1       4.113  46.507 -11.697  1.00  0.00    -0.345 OA
ATOM     25  H2  UNL     1       4.950  46.705 -12.099  1.00  0.00     0.219 HD
ENDBRANCH   2  24
BRANCH   5  26
HETATM   26  O3  UNL     1       2.108  44.760  -7.737  1.00  0.00    -0.345 OA
ATOM     27  H3  UNL     1       2.332  44.208  -6.996  1.00  0.00     0.219 HD
ENDBRANCH   5  26
TORSDOF 5
ENDMDL
