MODEL 1
REMARK VINA RESULT: -7.218746050      0.000      0.000
REMARK  4 active torsions:
REMARK  status: ('A' for Active; 'I' for Inactive)
REMARK    1  A    between atoms: S1_2  and  C2_3 
REMARK    2  A    between atoms: C3_5  and  C4_6 
REMARK       I    between atoms: C4_6  and  N1_8 
REMARK    3  A    between atoms: N1_8  and  C5_10 
REMARK    4  A    between atoms: C5_10  and  C6_11 
ROOT
HETATM    1  C4  UNL     1      -0.437  49.827 -10.689  1.00  0.00     0.261 C 
HETATM    2  O1  UNL     1      -1.620  50.320 -10.620  1.00  0.00    -0.267 OA
HETATM    3  N1  UNL     1      -0.228  48.563 -11.276  1.00  0.00    -0.356 N 
ATOM      4  H1  UNL     1       0.705  48.155 -11.340  1.00  0.00     0.162 HD
ENDROOT
BRANCH   3   5
HETATM    5  C5  UNL     1      -1.395  47.866 -11.787  1.00  0.00     0.127 C 
BRANCH   5   6
HETATM    6  C6  UNL     1      -1.268  46.374 -11.661  1.00  0.00     0.008 C 
HETATM    7  C7  UNL     1      -1.938  45.637 -12.802  1.00  0.00     0.036 C 
HETATM    8  C8  UNL     1      -1.997  44.197 -12.426  1.00  0.00     0.019 C 
HETATM    9  C9  UNL     1      -3.266  44.006 -11.584  1.00  0.00     0.037 C 
HETATM   10  C10 UNL     1      -2.234  43.353 -13.686  1.00  0.00     0.037 C 
HETATM   11  N2  UNL     1      -0.915  43.665 -11.729  1.00  0.00    -0.405 N 
HETATM   12  C11 UNL     1       0.174  44.439 -11.351  1.00  0.00     0.019 C 
ATOM     13  H2  UNL     1      -0.923  42.675 -11.488  1.00  0.00     0.154 HD
HETATM   14  C12 UNL     1       1.441  43.856 -11.997  1.00  0.00     0.037 C 
HETATM   15  C13 UNL     1       0.363  44.305  -9.833  1.00  0.00     0.037 C 
HETATM   16  C14 UNL     1       0.159  45.894 -11.668  1.00  0.00     0.036 C 
ENDBRANCH   5   6
ENDBRANCH   3   5
BRANCH   1  17
HETATM   17  C3  UNL     1       0.629  50.676 -10.118  1.00  0.00     0.115 A 
HETATM   18  S2  UNL     1       2.006  50.123  -9.263  1.00  0.00    -0.071 SA
HETATM   19  C2  UNL     1       2.747  51.613  -8.929  1.00  0.00     0.083 A 
HETATM   20  C16 UNL     1       1.895  52.522  -9.496  1.00  0.00     0.180 A 
HETATM   21  C15 UNL     1       0.792  52.031 -10.115  1.00  0.00     0.179 A 
HETATM   22  F2  UNL     1       2.165  53.897  -9.432  1.00  0.00    -0.201 F 
HETATM   23  F1  UNL     1      -0.123  52.907 -10.718  1.00  0.00    -0.201 F 
BRANCH  19  24
HETATM   24  S1  UNL     1       4.288  51.968  -8.041  1.00  0.00    -0.124 SA
HETATM   25  C1  UNL     1       4.002  51.445  -6.308  1.00  0.00     0.096 C 
ENDBRANCH  19  24
ENDBRANCH   1  17
TORSDOF 4
ENDMDL
MODEL 2
REMARK VINA RESULT: -7.130797198      2.959      3.852
REMARK  4 active torsions:
REMARK  status: ('A' for Active; 'I' for Inactive)
REMARK    1  A    between atoms: S1_2  and  C2_3 
REMARK    2  A    between atoms: C3_5  and  C4_6 
REMARK       I    between atoms: C4_6  and  N1_8 
REMARK    3  A    between atoms: N1_8  and  C5_10 
REMARK    4  A    between atoms: C5_10  and  C6_11 
ROOT
HETATM    1  C4  UNL     1       1.998  45.621 -10.344  1.00  0.00     0.261 C 
HETATM    2  O1  UNL     1       2.750  45.209 -11.299  1.00  0.00    -0.267 OA
HETATM    3  N1  UNL     1       0.807  44.935 -10.031  1.00  0.00    -0.356 N 
ATOM      4  H1  UNL     1       0.197  45.247  -9.275  1.00  0.00     0.162 HD
ENDROOT
BRANCH   3   5
HETATM    5  C5  UNL     1       0.486  43.765 -10.829  1.00  0.00     0.127 C 
BRANCH   5   6
HETATM    6  C6  UNL     1      -0.764  43.956 -11.642  1.00  0.00     0.008 C 
HETATM    7  C7  UNL     1      -0.537  44.840 -12.852  1.00  0.00     0.036 C 
HETATM    8  C8  UNL     1      -1.876  45.185 -13.404  1.00  0.00     0.019 C 
HETATM    9  C9  UNL     1      -2.378  46.411 -12.628  1.00  0.00     0.037 C 
HETATM   10  C10 UNL     1      -1.717  45.677 -14.850  1.00  0.00     0.037 C 
HETATM   11  N2  UNL     1      -2.863  44.203 -13.373  1.00  0.00    -0.405 N 
HETATM   12  C11 UNL     1      -2.643  42.951 -12.814  1.00  0.00     0.019 C 
ATOM     13  H2  UNL     1      -3.778  44.410 -13.773  1.00  0.00     0.154 HD
HETATM   14  C12 UNL     1      -2.862  41.883 -13.898  1.00  0.00     0.037 C 
HETATM   15  C13 UNL     1      -3.713  42.702 -11.741  1.00  0.00     0.037 C 
HETATM   16  C14 UNL     1      -1.319  42.670 -12.193  1.00  0.00     0.036 C 
ENDBRANCH   5   6
ENDBRANCH   3   5
BRANCH   1  17
HETATM   17  C3  UNL     1       2.484  46.827  -9.641  1.00  0.00     0.115 A 
HETATM   18  S2  UNL     1       3.777  46.886  -8.519  1.00  0.00    -0.071 SA
HETATM   19  C2  UNL     1       3.751  48.541  -8.146  1.00  0.00     0.083 A 
HETATM   20  C16 UNL     1       2.722  49.020  -8.912  1.00  0.00     0.180 A 
HETATM   21  C15 UNL     1       2.064  48.124  -9.690  1.00  0.00     0.179 A 
HETATM   22  F2  UNL     1       2.377  50.379  -8.884  1.00  0.00    -0.201 F 
HETATM   23  F1  UNL     1       1.000  48.548 -10.500  1.00  0.00    -0.201 F 
BRANCH  19  24
HETATM   24  S1  UNL     1       4.804  49.492  -7.017  1.00  0.00    -0.124 SA
HETATM   25  C1  UNL     1       6.152  48.357  -6.510  1.00  0.00     0.096 C 
ENDBRANCH  19  24
ENDBRANCH   1  17
TORSDOF 4
ENDMDL
MODEL 3
REMARK VINA RESULT: -7.048419384      1.632      1.712
REMARK  4 active torsions:
REMARK  status: ('A' for Active; 'I' for Inactive)
REMARK    1  A    between atoms: S1_2  and  C2_3 
REMARK    2  A    between atoms: C3_5  and  C4_6 
REMARK       I    between atoms: C4_6  and  N1_8 
REMARK    3  A    between atoms: N1_8  and  C5_10 
REMARK    4  A    between atoms: C5_10  and  C6_11 
ROOT
HETATM    1  C4  UNL     1      -0.587  50.016 -10.653  1.00  0.00     0.261 C 
HETATM    2  O1  UNL     1      -1.737  50.567 -10.799  1.00  0.00    -0.267 OA
HETATM    3  N1  UNL     1      -0.390  48.674 -11.037  1.00  0.00    -0.356 N 
ATOM      4  H1  UNL     1       0.517  48.218 -10.929  1.00  0.00     0.162 HD
ENDROOT
BRANCH   3   5
HETATM    5  C5  UNL     1      -1.530  47.967 -11.592  1.00  0.00     0.127 C 
BRANCH   5   6
HETATM    6  C6  UNL     1      -1.339  46.476 -11.577  1.00  0.00     0.008 C 
HETATM    7  C7  UNL     1      -1.966  45.800 -12.779  1.00  0.00     0.036 C 
HETATM    8  C8  UNL     1      -1.964  44.335 -12.514  1.00  0.00     0.019 C 
HETATM    9  C9  UNL     1      -3.231  44.025 -11.704  1.00  0.00     0.037 C 
HETATM   10  C10 UNL     1      -2.152  43.579 -13.837  1.00  0.00     0.037 C 
HETATM   11  N2  UNL     1      -0.866  43.799 -11.845  1.00  0.00    -0.405 N 
HETATM   12  C11 UNL     1       0.184  44.588 -11.396  1.00  0.00     0.019 C 
ATOM     13  H2  UNL     1      -0.833  42.793 -11.680  1.00  0.00     0.154 HD
HETATM   14  C12 UNL     1       1.481  44.111 -12.068  1.00  0.00     0.037 C 
HETATM   15  C13 UNL     1       0.365  44.348  -9.890  1.00  0.00     0.037 C 
HETATM   16  C14 UNL     1       0.108  46.061 -11.602  1.00  0.00     0.036 C 
ENDBRANCH   5   6
ENDBRANCH   3   5
BRANCH   1  17
HETATM   17  C3  UNL     1       0.455  50.887 -10.072  1.00  0.00     0.115 A 
HETATM   18  S2  UNL     1       0.326  52.575  -9.812  1.00  0.00    -0.071 SA
HETATM   19  C2  UNL     1       1.855  52.875  -9.140  1.00  0.00     0.083 A 
HETATM   20  C16 UNL     1       2.443  51.638  -9.133  1.00  0.00     0.180 A 
HETATM   21  C15 UNL     1       1.711  50.604  -9.618  1.00  0.00     0.179 A 
HETATM   22  F2  UNL     1       3.745  51.464  -8.641  1.00  0.00    -0.201 F 
HETATM   23  F1  UNL     1       2.252  49.310  -9.640  1.00  0.00    -0.201 F 
BRANCH  19  24
HETATM   24  S1  UNL     1       2.582  54.431  -8.560  1.00  0.00    -0.124 SA
HETATM   25  C1  UNL     1       2.238  54.507  -6.760  1.00  0.00     0.096 C 
ENDBRANCH  19  24
ENDBRANCH   1  17
TORSDOF 4
ENDMDL
MODEL 4
REMARK VINA RESULT: -6.986870445      3.200      4.218
REMARK  4 active torsions:
REMARK  status: ('A' for Active; 'I' for Inactive)
REMARK    1  A    between atoms: S1_2  and  C2_3 
REMARK    2  A    between atoms: C3_5  and  C4_6 
REMARK       I    between atoms: C4_6  and  N1_8 
REMARK    3  A    between atoms: N1_8  and  C5_10 
REMARK    4  A    between atoms: C5_10  and  C6_11 
ROOT
HETATM    1  C4  UNL     1       1.996  45.782 -10.358  1.00  0.00     0.261 C 
HETATM    2  O1  UNL     1       2.767  45.355 -11.291  1.00  0.00    -0.267 OA
HETATM    3  N1  UNL     1       0.804  45.094 -10.050  1.00  0.00    -0.356 N 
ATOM      4  H1  UNL     1       0.179  45.418  -9.312  1.00  0.00     0.162 HD
ENDROOT
BRANCH   3   5
HETATM    5  C5  UNL     1       0.504  43.905 -10.828  1.00  0.00     0.127 C 
BRANCH   5   6
HETATM    6  C6  UNL     1      -0.751  44.056 -11.639  1.00  0.00     0.008 C 
HETATM    7  C7  UNL     1      -0.544  44.913 -12.871  1.00  0.00     0.036 C 
HETATM    8  C8  UNL     1      -1.891  45.223 -13.426  1.00  0.00     0.019 C 
HETATM    9  C9  UNL     1      -2.409  46.460 -12.678  1.00  0.00     0.037 C 
HETATM   10  C10 UNL     1      -1.747  45.682 -14.884  1.00  0.00     0.037 C 
HETATM   11  N2  UNL     1      -2.862  44.227 -13.365  1.00  0.00    -0.405 N 
HETATM   12  C11 UNL     1      -2.620  42.993 -12.777  1.00  0.00     0.019 C 
ATOM     13  H2  UNL     1      -3.782  44.410 -13.766  1.00  0.00     0.154 HD
HETATM   14  C12 UNL     1      -2.827  41.895 -13.833  1.00  0.00     0.037 C 
HETATM   15  C13 UNL     1      -3.681  42.753 -11.693  1.00  0.00     0.037 C 
HETATM   16  C14 UNL     1      -1.289  42.749 -12.156  1.00  0.00     0.036 C 
ENDBRANCH   5   6
ENDBRANCH   3   5
BRANCH   1  17
HETATM   17  C3  UNL     1       2.460  47.007  -9.674  1.00  0.00     0.115 A 
HETATM   18  S2  UNL     1       1.963  48.608 -10.029  1.00  0.00    -0.071 SA
HETATM   19  C2  UNL     1       2.884  49.450  -8.879  1.00  0.00     0.083 A 
HETATM   20  C16 UNL     1       3.569  48.455  -8.234  1.00  0.00     0.180 A 
HETATM   21  C15 UNL     1       3.346  47.183  -8.651  1.00  0.00     0.179 A 
HETATM   22  F2  UNL     1       4.458  48.753  -7.192  1.00  0.00    -0.201 F 
HETATM   23  F1  UNL     1       4.014  46.115  -8.034  1.00  0.00    -0.201 F 
BRANCH  19  24
HETATM   24  S1  UNL     1       2.976  51.230  -8.546  1.00  0.00    -0.124 SA
HETATM   25  C1  UNL     1       1.674  52.004  -9.579  1.00  0.00     0.096 C 
ENDBRANCH  19  24
ENDBRANCH   1  17
TORSDOF 4
ENDMDL
MODEL 5
REMARK VINA RESULT: -6.978609931      3.535      4.509
REMARK  4 active torsions:
REMARK  status: ('A' for Active; 'I' for Inactive)
REMARK    1  A    between atoms: S1_2  and  C2_3 
REMARK    2  A    between atoms: C3_5  and  C4_6 
REMARK       I    between atoms: C4_6  and  N1_8 
REMARK    3  A    between atoms: N1_8  and  C5_10 
REMARK    4  A    between atoms: C5_10  and  C6_11 
ROOT
HETATM    1  C4  UNL     1       1.781  45.211  -9.328  1.00  0.00     0.261 C 
HETATM    2  O1  UNL     1       1.558  44.369  -8.386  1.00  0.00    -0.267 OA
HETATM    3  N1  UNL     1       1.298  44.965 -10.629  1.00  0.00    -0.356 N 
ATOM      4  H1  UNL     1       1.465  45.623 -11.391  1.00  0.00     0.162 HD
ENDROOT
BRANCH   3   5
HETATM    5  C5  UNL     1       0.552  43.737 -10.840  1.00  0.00     0.127 C 
BRANCH   5   6
HETATM    6  C6  UNL     1      -0.704  43.962 -11.633  1.00  0.00     0.008 C 
HETATM    7  C7  UNL     1      -0.473  44.843 -12.843  1.00  0.00     0.036 C 
HETATM    8  C8  UNL     1      -1.811  45.224 -13.375  1.00  0.00     0.019 C 
HETATM    9  C9  UNL     1      -2.270  46.460 -12.588  1.00  0.00     0.037 C 
HETATM   10  C10 UNL     1      -1.661  45.716 -14.821  1.00  0.00     0.037 C 
HETATM   11  N2  UNL     1      -2.822  44.267 -13.331  1.00  0.00    -0.405 N 
HETATM   12  C11 UNL     1      -2.626  43.009 -12.780  1.00  0.00     0.019 C 
ATOM     13  H2  UNL     1      -3.737  44.499 -13.717  1.00  0.00     0.154 HD
HETATM   14  C12 UNL     1      -2.888  41.950 -13.863  1.00  0.00     0.037 C 
HETATM   15  C13 UNL     1      -3.685  42.783 -11.691  1.00  0.00     0.037 C 
HETATM   16  C14 UNL     1      -1.300  42.692 -12.179  1.00  0.00     0.036 C 
ENDBRANCH   5   6
ENDBRANCH   3   5
BRANCH   1  17
HETATM   17  C3  UNL     1       2.558  46.404  -8.931  1.00  0.00     0.115 A 
HETATM   18  S2  UNL     1       2.133  48.033  -9.250  1.00  0.00    -0.071 SA
HETATM   19  C2  UNL     1       3.450  48.815  -8.521  1.00  0.00     0.083 A 
HETATM   20  C16 UNL     1       4.205  47.779  -8.038  1.00  0.00     0.180 A 
HETATM   21  C15 UNL     1       3.736  46.524  -8.253  1.00  0.00     0.179 A 
HETATM   22  F2  UNL     1       5.404  48.021  -7.354  1.00  0.00    -0.201 F 
HETATM   23  F1  UNL     1       4.458  45.416  -7.786  1.00  0.00    -0.201 F 
BRANCH  19  24
HETATM   24  S1  UNL     1       3.818  50.586  -8.387  1.00  0.00    -0.124 SA
HETATM   25  C1  UNL     1       3.975  50.933  -6.594  1.00  0.00     0.096 C 
ENDBRANCH  19  24
ENDBRANCH   1  17
TORSDOF 4
ENDMDL
