MODEL 1
REMARK VINA RESULT: -8.405990853      0.000      0.000
REMARK  4 active torsions:
REMARK  status: ('A' for Active; 'I' for Inactive)
REMARK    1  A    between atoms: C3_4  and  C4_5 
REMARK       I    between atoms: C4_5  and  N1_7 
REMARK    2  A    between atoms: N1_7  and  C5_9 
REMARK    3  A    between atoms: C5_9  and  C6_10 
REMARK    4  A    between atoms: C5_9  and  C12_16 
ROOT
HETATM    1  C5  UNL     1      -4.092   2.798  14.736  1.00  0.00     0.048 C 
ENDROOT
BRANCH   1   2
HETATM    2  N1  UNL     1      -3.750   4.156  14.512  1.00  0.00    -0.323 N 
HETATM    3  C4  UNL     1      -2.581   4.704  13.951  1.00  0.00     0.279 C 
HETATM    4  O2  UNL     1      -1.613   4.032  13.563  1.00  0.00    -0.265 OA
ATOM      5  H1  UNL     1      -4.453   4.836  14.801  1.00  0.00     0.169 HD
BRANCH   3   6
HETATM    6  C3  UNL     1      -2.439   6.179  13.788  1.00  0.00     0.146 A 
HETATM    7  O1  UNL     1      -1.900   7.009  14.654  1.00  0.00    -0.307 OA
HETATM    8  C2  UNL     1      -1.933   8.230  14.207  1.00  0.00     0.088 A 
HETATM    9  C1  UNL     1      -1.436   9.483  14.855  1.00  0.00     0.080 C 
HETATM   10  C17 UNL     1      -2.527   8.227  12.966  1.00  0.00     0.148 A 
HETATM   11  C16 UNL     1      -2.849   6.913  12.703  1.00  0.00     0.087 A 
HETATM   12  F1  UNL     1      -2.759   9.300  12.147  1.00  0.00    -0.203 F 
ENDBRANCH   3   6
ENDBRANCH   1   2
BRANCH   1  13
HETATM   13  C6  UNL     1      -4.885   2.448  15.938  1.00  0.00     0.036 C 
HETATM   14  C7  UNL     1      -5.298   1.015  16.064  1.00  0.00     0.010 C 
HETATM   15  C8  UNL     1      -5.797   0.760  17.473  1.00  0.00     0.001 C 
HETATM   16  C9  UNL     1      -6.427   2.029  18.036  1.00  0.00     0.000 C 
HETATM   17  C10 UNL     1      -7.167   2.691  16.920  1.00  0.00     0.001 C 
HETATM   18  C11 UNL     1      -6.122   3.338  15.994  1.00  0.00     0.010 C 
ENDBRANCH   1  13
BRANCH   1  19
HETATM   19  C12 UNL     1      -4.569   2.062  13.538  1.00  0.00     0.306 C 
HETATM   20  O3  UNL     1      -3.534   1.294  12.946  1.00  0.00    -0.356 OA
HETATM   21  C13 UNL     1      -4.108   0.253  12.197  1.00  0.00     0.173 C 
HETATM   22  C14 UNL     1      -5.021   0.896  11.173  1.00  0.00     0.053 C 
HETATM   23  C15 UNL     1      -4.814   2.391  11.257  1.00  0.00     0.173 C 
HETATM   24  O4  UNL     1      -5.018   2.899  12.519  1.00  0.00    -0.356 OA
ENDBRANCH   1  19
TORSDOF 4
ENDMDL
MODEL 2
REMARK VINA RESULT: -8.305655668      0.846      1.162
REMARK  4 active torsions:
REMARK  status: ('A' for Active; 'I' for Inactive)
REMARK    1  A    between atoms: C3_4  and  C4_5 
REMARK       I    between atoms: C4_5  and  N1_7 
REMARK    2  A    between atoms: N1_7  and  C5_9 
REMARK    3  A    between atoms: C5_9  and  C6_10 
REMARK    4  A    between atoms: C5_9  and  C12_16 
ROOT
HETATM    1  C5  UNL     1      -4.097   2.863  14.708  1.00  0.00     0.048 C 
ENDROOT
BRANCH   1   2
HETATM    2  N1  UNL     1      -3.765   4.221  14.468  1.00  0.00    -0.323 N 
HETATM    3  C4  UNL     1      -2.600   4.771  13.902  1.00  0.00     0.279 C 
HETATM    4  O2  UNL     1      -1.626   4.102  13.524  1.00  0.00    -0.265 OA
ATOM      5  H1  UNL     1      -4.475   4.898  14.747  1.00  0.00     0.169 HD
BRANCH   3   6
HETATM    6  C3  UNL     1      -2.470   6.245  13.720  1.00  0.00     0.146 A 
HETATM    7  O1  UNL     1      -2.579   6.901  12.586  1.00  0.00    -0.307 OA
HETATM    8  C2  UNL     1      -2.411   8.178  12.772  1.00  0.00     0.088 A 
HETATM    9  C1  UNL     1      -2.450   9.287  11.770  1.00  0.00     0.080 C 
HETATM   10  C17 UNL     1      -2.176   8.399  14.109  1.00  0.00     0.148 A 
HETATM   11  C16 UNL     1      -2.215   7.160  14.711  1.00  0.00     0.087 A 
HETATM   12  F1  UNL     1      -1.948   9.598  14.732  1.00  0.00    -0.203 F 
ENDBRANCH   3   6
ENDBRANCH   1   2
BRANCH   1  13
HETATM   13  C6  UNL     1      -4.884   2.521  15.917  1.00  0.00     0.036 C 
HETATM   14  C7  UNL     1      -5.280   1.085  16.064  1.00  0.00     0.010 C 
HETATM   15  C8  UNL     1      -5.774   0.844  17.478  1.00  0.00     0.001 C 
HETATM   16  C9  UNL     1      -6.417   2.115  18.024  1.00  0.00     0.000 C 
HETATM   17  C10 UNL     1      -7.166   2.752  16.901  1.00  0.00     0.001 C 
HETATM   18  C11 UNL     1      -6.131   3.398  15.964  1.00  0.00     0.010 C 
ENDBRANCH   1  13
BRANCH   1  19
HETATM   19  C12 UNL     1      -4.572   2.109  13.521  1.00  0.00     0.306 C 
HETATM   20  O3  UNL     1      -3.538   1.328  12.945  1.00  0.00    -0.356 OA
HETATM   21  C13 UNL     1      -4.113   0.277  12.211  1.00  0.00     0.173 C 
HETATM   22  C14 UNL     1      -5.020   0.907  11.173  1.00  0.00     0.053 C 
HETATM   23  C15 UNL     1      -4.808   2.403  11.234  1.00  0.00     0.173 C 
HETATM   24  O4  UNL     1      -5.014   2.932  12.487  1.00  0.00    -0.356 OA
ENDBRANCH   1  19
TORSDOF 4
ENDMDL
MODEL 3
REMARK VINA RESULT: -8.262522085      0.642      1.206
REMARK  4 active torsions:
REMARK  status: ('A' for Active; 'I' for Inactive)
REMARK    1  A    between atoms: C3_4  and  C4_5 
REMARK       I    between atoms: C4_5  and  N1_7 
REMARK    2  A    between atoms: N1_7  and  C5_9 
REMARK    3  A    between atoms: C5_9  and  C6_10 
REMARK    4  A    between atoms: C5_9  and  C12_16 
ROOT
HETATM    1  C5  UNL     1      -4.379   2.491  14.338  1.00  0.00     0.048 C 
ENDROOT
BRANCH   1   2
HETATM    2  N1  UNL     1      -4.026   3.842  14.088  1.00  0.00    -0.323 N 
HETATM    3  C4  UNL     1      -2.827   4.522  14.373  1.00  0.00     0.279 C 
HETATM    4  O2  UNL     1      -1.850   4.005  14.937  1.00  0.00    -0.265 OA
ATOM      5  H1  UNL     1      -4.748   4.404  13.636  1.00  0.00     0.169 HD
BRANCH   3   6
HETATM    6  C3  UNL     1      -2.661   5.955  13.998  1.00  0.00     0.146 A 
HETATM    7  O1  UNL     1      -2.054   6.879  14.710  1.00  0.00    -0.307 OA
HETATM    8  C2  UNL     1      -2.085   8.028  14.099  1.00  0.00     0.088 A 
HETATM    9  C1  UNL     1      -1.522   9.342  14.537  1.00  0.00     0.080 C 
HETATM   10  C17 UNL     1      -2.751   7.872  12.905  1.00  0.00     0.148 A 
HETATM   11  C16 UNL     1      -3.118   6.544  12.846  1.00  0.00     0.087 A 
HETATM   12  F1  UNL     1      -3.007   8.828  11.958  1.00  0.00    -0.203 F 
ENDBRANCH   3   6
ENDBRANCH   1   2
BRANCH   1  13
HETATM   13  C6  UNL     1      -5.412   2.197  15.359  1.00  0.00     0.036 C 
HETATM   14  C7  UNL     1      -5.867   3.355  16.191  1.00  0.00     0.010 C 
HETATM   15  C8  UNL     1      -7.132   2.969  16.936  1.00  0.00     0.001 C 
HETATM   16  C9  UNL     1      -7.119   1.474  17.234  1.00  0.00     0.000 C 
HETATM   17  C10 UNL     1      -5.716   1.101  17.581  1.00  0.00     0.001 C 
HETATM   18  C11 UNL     1      -4.906   1.085  16.272  1.00  0.00     0.010 C 
ENDBRANCH   1  13
BRANCH   1  19
HETATM   19  C12 UNL     1      -4.559   1.651  13.127  1.00  0.00     0.306 C 
HETATM   20  O3  UNL     1      -3.319   1.342  12.512  1.00  0.00    -0.356 OA
HETATM   21  C13 UNL     1      -3.468   0.175  11.744  1.00  0.00     0.173 C 
HETATM   22  C14 UNL     1      -4.571   0.444  10.739  1.00  0.00     0.053 C 
HETATM   23  C15 UNL     1      -4.943   1.905  10.856  1.00  0.00     0.173 C 
HETATM   24  O4  UNL     1      -5.306   2.275  12.130  1.00  0.00    -0.356 OA
ENDBRANCH   1  19
TORSDOF 4
ENDMDL
MODEL 4
REMARK VINA RESULT: -7.999778159      1.013      1.660
REMARK  4 active torsions:
REMARK  status: ('A' for Active; 'I' for Inactive)
REMARK    1  A    between atoms: C3_4  and  C4_5 
REMARK       I    between atoms: C4_5  and  N1_7 
REMARK    2  A    between atoms: N1_7  and  C5_9 
REMARK    3  A    between atoms: C5_9  and  C6_10 
REMARK    4  A    between atoms: C5_9  and  C12_16 
ROOT
HETATM    1  C5  UNL     1      -4.477   2.564  14.321  1.00  0.00     0.048 C 
ENDROOT
BRANCH   1   2
HETATM    2  N1  UNL     1      -4.127   3.918  14.082  1.00  0.00    -0.323 N 
HETATM    3  C4  UNL     1      -2.893   4.467  13.685  1.00  0.00     0.279 C 
HETATM    4  O2  UNL     1      -1.864   3.802  13.494  1.00  0.00    -0.265 OA
ATOM      5  H1  UNL     1      -4.880   4.592  14.216  1.00  0.00     0.169 HD
BRANCH   3   6
HETATM    6  C3  UNL     1      -2.753   5.935  13.466  1.00  0.00     0.146 A 
HETATM    7  O1  UNL     1      -3.003   6.581  12.349  1.00  0.00    -0.307 OA
HETATM    8  C2  UNL     1      -2.780   7.855  12.491  1.00  0.00     0.088 A 
HETATM    9  C1  UNL     1      -2.931   8.955  11.490  1.00  0.00     0.080 C 
HETATM   10  C17 UNL     1      -2.355   8.084  13.780  1.00  0.00     0.148 A 
HETATM   11  C16 UNL     1      -2.339   6.853  14.399  1.00  0.00     0.087 A 
HETATM   12  F1  UNL     1      -2.012   9.283  14.347  1.00  0.00    -0.203 F 
ENDBRANCH   3   6
ENDBRANCH   1   2
BRANCH   1  13
HETATM   13  C6  UNL     1      -5.471   2.258  15.377  1.00  0.00     0.036 C 
HETATM   14  C7  UNL     1      -5.890   3.403  16.244  1.00  0.00     0.010 C 
HETATM   15  C8  UNL     1      -7.126   3.009  17.031  1.00  0.00     0.001 C 
HETATM   16  C9  UNL     1      -7.107   1.509  17.305  1.00  0.00     0.000 C 
HETATM   17  C10 UNL     1      -5.693   1.127  17.591  1.00  0.00     0.001 C 
HETATM   18  C11 UNL     1      -4.934   1.129  16.252  1.00  0.00     0.010 C 
ENDBRANCH   1  13
BRANCH   1  19
HETATM   19  C12 UNL     1      -4.709   1.746  13.104  1.00  0.00     0.306 C 
HETATM   20  O3  UNL     1      -3.523   1.101  12.670  1.00  0.00    -0.356 OA
HETATM   21  C13 UNL     1      -3.869  -0.020  11.898  1.00  0.00     0.173 C 
HETATM   22  C14 UNL     1      -4.721   0.479  10.748  1.00  0.00     0.053 C 
HETATM   23  C15 UNL     1      -4.710   1.990  10.799  1.00  0.00     0.173 C 
HETATM   24  O4  UNL     1      -5.128   2.498  12.008  1.00  0.00    -0.356 OA
ENDBRANCH   1  19
TORSDOF 4
ENDMDL
MODEL 5
REMARK VINA RESULT: -7.810724739      2.514      3.294
REMARK  4 active torsions:
REMARK  status: ('A' for Active; 'I' for Inactive)
REMARK    1  A    between atoms: C3_4  and  C4_5 
REMARK       I    between atoms: C4_5  and  N1_7 
REMARK    2  A    between atoms: N1_7  and  C5_9 
REMARK    3  A    between atoms: C5_9  and  C6_10 
REMARK    4  A    between atoms: C5_9  and  C12_16 
ROOT
HETATM    1  C5  UNL     1      -4.253   2.672  13.506  1.00  0.00     0.048 C 
ENDROOT
BRANCH   1   2
HETATM    2  N1  UNL     1      -4.851   3.744  12.795  1.00  0.00    -0.323 N 
HETATM    3  C4  UNL     1      -4.246   4.752  12.020  1.00  0.00     0.279 C 
HETATM    4  O2  UNL     1      -3.022   4.863  11.854  1.00  0.00    -0.265 OA
ATOM      5  H1  UNL     1      -5.868   3.792  12.854  1.00  0.00     0.169 HD
BRANCH   3   6
HETATM    6  C3  UNL     1      -5.078   5.780  11.332  1.00  0.00     0.146 A 
HETATM    7  O1  UNL     1      -5.802   5.597  10.250  1.00  0.00    -0.307 OA
HETATM    8  C2  UNL     1      -6.407   6.697   9.907  1.00  0.00     0.088 A 
HETATM    9  C1  UNL     1      -7.324   6.946   8.752  1.00  0.00     0.080 C 
HETATM   10  C17 UNL     1      -6.074   7.680  10.810  1.00  0.00     0.148 A 
HETATM   11  C16 UNL     1      -5.224   7.089  11.719  1.00  0.00     0.087 A 
HETATM   12  F1  UNL     1      -6.492   8.985  10.818  1.00  0.00    -0.203 F 
ENDBRANCH   3   6
ENDBRANCH   1   2
BRANCH   1  13
HETATM   13  C6  UNL     1      -4.689   2.404  14.897  1.00  0.00     0.036 C 
HETATM   14  C7  UNL     1      -4.808   0.964  15.287  1.00  0.00     0.010 C 
HETATM   15  C8  UNL     1      -4.933   0.864  16.796  1.00  0.00     0.001 C 
HETATM   16  C9  UNL     1      -5.636   2.103  17.340  1.00  0.00     0.000 C 
HETATM   17  C10 UNL     1      -6.706   2.471  16.366  1.00  0.00     0.001 C 
HETATM   18  C11 UNL     1      -6.020   3.108  15.145  1.00  0.00     0.010 C 
ENDBRANCH   1  13
BRANCH   1  19
HETATM   19  C12 UNL     1      -4.094   1.413  12.735  1.00  0.00     0.306 C 
HETATM   20  O3  UNL     1      -3.010   1.487  11.825  1.00  0.00    -0.356 OA
HETATM   21  C13 UNL     1      -2.573   0.185  11.528  1.00  0.00     0.173 C 
HETATM   22  C14 UNL     1      -3.763  -0.564  10.963  1.00  0.00     0.053 C 
HETATM   23  C15 UNL     1      -4.885   0.435  10.789  1.00  0.00     0.173 C 
HETATM   24  O4  UNL     1      -5.202   1.107  11.946  1.00  0.00    -0.356 OA
ENDBRANCH   1  19
TORSDOF 4
ENDMDL
