MODEL 1
REMARK VINA RESULT: -7.628059184      0.000      0.000
REMARK  5 active torsions:
REMARK  status: ('A' for Active; 'I' for Inactive)
REMARK    1  A    between atoms: C7_8  and  C8_9 
REMARK    2  A    between atoms: C10_14  and  C11_15 
REMARK    3  A    between atoms: C11_15  and  N3_16 
REMARK       I    between atoms: N3_16  and  C12_18 
REMARK    4  A    between atoms: C12_18  and  C13_20 
REMARK    5  A    between atoms: C13_20  and  C14_21 
ROOT
HETATM    1  C8  UNL     1      -4.150   3.124  15.134  1.00  0.00     0.161 A 
HETATM    2  N2  UNL     1      -3.025   3.847  15.228  1.00  0.00    -0.312 N 
ATOM      3  H2  UNL     1      -2.393   3.813  16.028  1.00  0.00     0.170 HD
HETATM    4  C9  UNL     1      -2.832   4.599  14.179  1.00  0.00     0.225 A 
HETATM    5  F1  UNL     1      -1.837   5.491  13.836  1.00  0.00    -0.183 F 
HETATM    6  C10 UNL     1      -3.985   4.325  13.338  1.00  0.00     0.148 A 
HETATM    7  O2  UNL     1      -4.674   3.462  13.996  1.00  0.00    -0.289 OA
ENDROOT
BRANCH   6   8
HETATM    8  C11 UNL     1      -4.089   4.960  12.095  1.00  0.00     0.133 C 
BRANCH   8   9
HETATM    9  N3  UNL     1      -4.161   6.204  11.506  1.00  0.00    -0.334 N 
HETATM   10  C12 UNL     1      -5.074   6.302  10.394  1.00  0.00     0.222 C 
HETATM   11  O1  UNL     1      -5.690   5.234  10.068  1.00  0.00    -0.273 OA
ATOM     12  H3  UNL     1      -3.608   6.998  11.833  1.00  0.00     0.168 HD
BRANCH  10  13
HETATM   13  C13 UNL     1      -5.319   7.526   9.677  1.00  0.00     0.111 C 
BRANCH  13  14
HETATM   14  C14 UNL     1      -6.566   8.198  10.288  1.00  0.00    -0.043 C 
HETATM   15  C15 UNL     1      -7.621   8.047   9.241  1.00  0.00     0.015 C 
HETATM   16  C16 UNL     1      -7.027   7.602  11.565  1.00  0.00     0.015 C 
HETATM   17  C17 UNL     1      -6.244   9.674  10.484  1.00  0.00     0.015 C 
ENDBRANCH  13  14
ENDBRANCH  10  13
ENDBRANCH   8   9
ENDBRANCH   6   8
BRANCH   1  18
HETATM   18  C7  UNL     1      -4.582   2.154  16.160  1.00  0.00     0.303 C 
HETATM   19  N1  UNL     1      -4.474   0.801  16.201  1.00  0.00     0.102 N 
HETATM   20  C1  UNL     1      -4.437   0.009  15.017  1.00  0.00     0.311 C 
HETATM   21  C2  UNL     1      -5.819   0.785  16.854  1.00  0.00     0.230 C 
HETATM   22  C3  UNL     1      -5.886   1.375  18.227  1.00  0.00     0.036 C 
HETATM   23  C6  UNL     1      -6.133   1.931  15.942  1.00  0.00     0.060 C 
HETATM   24  C4  UNL     1      -6.475   2.780  18.113  1.00  0.00     0.003 C 
HETATM   25  C5  UNL     1      -6.906   2.951  16.682  1.00  0.00     0.009 C 
ENDBRANCH   1  18
TORSDOF 5
ENDMDL
MODEL 2
REMARK VINA RESULT: -7.422477438      2.492      7.360
REMARK  5 active torsions:
REMARK  status: ('A' for Active; 'I' for Inactive)
REMARK    1  A    between atoms: C7_8  and  C8_9 
REMARK    2  A    between atoms: C10_14  and  C11_15 
REMARK    3  A    between atoms: C11_15  and  N3_16 
REMARK       I    between atoms: N3_16  and  C12_18 
REMARK    4  A    between atoms: C12_18  and  C13_20 
REMARK    5  A    between atoms: C13_20  and  C14_21 
ROOT
HETATM    1  C8  UNL     1      -4.369   3.225  11.122  1.00  0.00     0.161 A 
HETATM    2  N2  UNL     1      -4.760   2.093  10.522  1.00  0.00    -0.312 N 
ATOM      3  H2  UNL     1      -5.023   2.032   9.538  1.00  0.00     0.170 HD
HETATM    4  C9  UNL     1      -4.764   1.076  11.341  1.00  0.00     0.225 A 
HETATM    5  F1  UNL     1      -5.086  -0.256  11.179  1.00  0.00    -0.183 F 
HETATM    6  C10 UNL     1      -4.343   1.649  12.608  1.00  0.00     0.148 A 
HETATM    7  O2  UNL     1      -4.146   2.894  12.357  1.00  0.00    -0.289 OA
ENDROOT
BRANCH   6   8
HETATM    8  C11 UNL     1      -4.214   0.814  13.725  1.00  0.00     0.133 C 
BRANCH   8   9
HETATM    9  N3  UNL     1      -4.815   0.489  14.921  1.00  0.00    -0.334 N 
HETATM   10  C12 UNL     1      -4.526   1.385  16.013  1.00  0.00     0.222 C 
HETATM   11  O1  UNL     1      -3.736   2.355  15.759  1.00  0.00    -0.273 OA
ATOM     12  H3  UNL     1      -5.421  -0.325  15.027  1.00  0.00     0.168 HD
BRANCH  10  13
HETATM   13  C13 UNL     1      -5.093   1.238  17.328  1.00  0.00     0.111 C 
BRANCH  13  14
HETATM   14  C14 UNL     1      -6.424   2.017  17.367  1.00  0.00    -0.043 C 
HETATM   15  C15 UNL     1      -6.518   2.526  18.768  1.00  0.00     0.015 C 
HETATM   16  C16 UNL     1      -6.509   3.146  16.408  1.00  0.00     0.015 C 
HETATM   17  C17 UNL     1      -7.547   1.022  17.104  1.00  0.00     0.015 C 
ENDBRANCH  13  14
ENDBRANCH  10  13
ENDBRANCH   8   9
ENDBRANCH   6   8
BRANCH   1  18
HETATM   18  C7  UNL     1      -4.226   4.514  10.414  1.00  0.00     0.303 C 
HETATM   19  N1  UNL     1      -3.262   4.957   9.568  1.00  0.00     0.102 N 
HETATM   20  C1  UNL     1      -1.918   4.490   9.640  1.00  0.00     0.311 C 
HETATM   21  C2  UNL     1      -3.430   6.304  10.195  1.00  0.00     0.230 C 
HETATM   22  C3  UNL     1      -4.740   6.983   9.945  1.00  0.00     0.036 C 
HETATM   23  C6  UNL     1      -3.645   5.542  11.467  1.00  0.00     0.060 C 
HETATM   24  C4  UNL     1      -5.611   6.810  11.189  1.00  0.00     0.003 C 
HETATM   25  C5  UNL     1      -4.743   6.166  12.235  1.00  0.00     0.009 C 
ENDBRANCH   1  18
TORSDOF 5
ENDMDL
MODEL 3
REMARK VINA RESULT: -7.382122215      1.552      7.641
REMARK  5 active torsions:
REMARK  status: ('A' for Active; 'I' for Inactive)
REMARK    1  A    between atoms: C7_8  and  C8_9 
REMARK    2  A    between atoms: C10_14  and  C11_15 
REMARK    3  A    between atoms: C11_15  and  N3_16 
REMARK       I    between atoms: N3_16  and  C12_18 
REMARK    4  A    between atoms: C12_18  and  C13_20 
REMARK    5  A    between atoms: C13_20  and  C14_21 
ROOT
HETATM    1  C8  UNL     1      -4.795   5.859  11.583  1.00  0.00     0.161 A 
HETATM    2  N2  UNL     1      -4.557   6.341  12.810  1.00  0.00    -0.312 N 
ATOM      3  H2  UNL     1      -4.483   7.335  13.027  1.00  0.00     0.170 HD
HETATM    4  C9  UNL     1      -4.429   5.391  13.697  1.00  0.00     0.225 A 
HETATM    5  F1  UNL     1      -4.182   5.404  15.055  1.00  0.00    -0.183 F 
HETATM    6  C10 UNL     1      -4.590   4.170  12.925  1.00  0.00     0.148 A 
HETATM    7  O2  UNL     1      -4.792   4.568  11.720  1.00  0.00    -0.289 OA
ENDROOT
BRANCH   6   8
HETATM    8  C11 UNL     1      -4.532   2.935  13.582  1.00  0.00     0.133 C 
BRANCH   8   9
HETATM    9  N3  UNL     1      -5.209   2.148  14.489  1.00  0.00    -0.334 N 
HETATM   10  C12 UNL     1      -4.574   2.020  15.778  1.00  0.00     0.222 C 
HETATM   11  O1  UNL     1      -3.461   2.624  15.927  1.00  0.00    -0.273 OA
ATOM     12  H3  UNL     1      -6.092   1.689  14.265  1.00  0.00     0.168 HD
BRANCH  10  13
HETATM   13  C13 UNL     1      -5.146   1.276  16.870  1.00  0.00     0.111 C 
BRANCH  13  14
HETATM   14  C14 UNL     1      -6.420   2.011  17.337  1.00  0.00    -0.043 C 
HETATM   15  C15 UNL     1      -6.249   2.151  18.815  1.00  0.00     0.015 C 
HETATM   16  C16 UNL     1      -6.627   3.343  16.720  1.00  0.00     0.015 C 
HETATM   17  C17 UNL     1      -7.608   1.105  17.041  1.00  0.00     0.015 C 
ENDBRANCH  13  14
ENDBRANCH  10  13
ENDBRANCH   8   9
ENDBRANCH   6   8
BRANCH   1  18
HETATM   18  C7  UNL     1      -5.029   6.716  10.404  1.00  0.00     0.303 C 
HETATM   19  N1  UNL     1      -4.177   7.507   9.701  1.00  0.00     0.102 N 
HETATM   20  C1  UNL     1      -3.031   8.104  10.300  1.00  0.00     0.311 C 
HETATM   21  C2  UNL     1      -5.309   8.473   9.553  1.00  0.00     0.230 C 
HETATM   22  C3  UNL     1      -6.457   8.011   8.711  1.00  0.00     0.036 C 
HETATM   23  C6  UNL     1      -5.678   8.055  10.943  1.00  0.00     0.060 C 
HETATM   24  C4  UNL     1      -7.579   7.557   9.643  1.00  0.00     0.003 C 
HETATM   25  C5  UNL     1      -7.146   7.909  11.040  1.00  0.00     0.009 C 
ENDBRANCH   1  18
TORSDOF 5
ENDMDL
MODEL 4
REMARK VINA RESULT: -7.374682752      3.528      7.925
REMARK  5 active torsions:
REMARK  status: ('A' for Active; 'I' for Inactive)
REMARK    1  A    between atoms: C7_8  and  C8_9 
REMARK    2  A    between atoms: C10_14  and  C11_15 
REMARK    3  A    between atoms: C11_15  and  N3_16 
REMARK       I    between atoms: N3_16  and  C12_18 
REMARK    4  A    between atoms: C12_18  and  C13_20 
REMARK    5  A    between atoms: C13_20  and  C14_21 
ROOT
HETATM    1  C8  UNL     1      -2.192   2.425  10.727  1.00  0.00     0.161 A 
HETATM    2  N2  UNL     1      -2.303   1.098  10.583  1.00  0.00    -0.312 N 
ATOM      3  H2  UNL     1      -1.865   0.568   9.829  1.00  0.00     0.170 HD
HETATM    4  C9  UNL     1      -3.035   0.559  11.521  1.00  0.00     0.225 A 
HETATM    5  F1  UNL     1      -3.418  -0.741  11.779  1.00  0.00    -0.183 F 
HETATM    6  C10 UNL     1      -3.444   1.691  12.336  1.00  0.00     0.148 A 
HETATM    7  O2  UNL     1      -2.899   2.711  11.777  1.00  0.00    -0.289 OA
ENDROOT
BRANCH   6   8
HETATM    8  C11 UNL     1      -4.238   1.465  13.467  1.00  0.00     0.133 C 
BRANCH   8   9
HETATM    9  N3  UNL     1      -4.454   1.904  14.755  1.00  0.00    -0.334 N 
HETATM   10  C12 UNL     1      -4.841   0.879  15.693  1.00  0.00     0.222 C 
HETATM   11  O1  UNL     1      -4.960  -0.302  15.227  1.00  0.00    -0.273 OA
ATOM     12  H3  UNL     1      -4.349   2.883  15.025  1.00  0.00     0.168 HD
BRANCH  10  13
HETATM   13  C13 UNL     1      -5.070   1.132  17.091  1.00  0.00     0.111 C 
BRANCH  13  14
HETATM   14  C14 UNL     1      -6.373   1.948  17.225  1.00  0.00    -0.043 C 
HETATM   15  C15 UNL     1      -6.393   2.388  18.652  1.00  0.00     0.015 C 
HETATM   16  C16 UNL     1      -6.461   3.125  16.327  1.00  0.00     0.015 C 
HETATM   17  C17 UNL     1      -7.536   1.001  16.962  1.00  0.00     0.015 C 
ENDBRANCH  13  14
ENDBRANCH  10  13
ENDBRANCH   8   9
ENDBRANCH   6   8
BRANCH   1  18
HETATM   18  C7  UNL     1      -1.381   3.275   9.833  1.00  0.00     0.303 C 
HETATM   19  N1  UNL     1      -0.111   3.737   9.962  1.00  0.00     0.102 N 
HETATM   20  C1  UNL     1       0.486   3.964  11.236  1.00  0.00     0.311 C 
HETATM   21  C2  UNL     1      -0.581   5.003   9.322  1.00  0.00     0.230 C 
HETATM   22  C3  UNL     1      -0.987   4.898   7.885  1.00  0.00     0.036 C 
HETATM   23  C6  UNL     1      -1.850   4.766  10.083  1.00  0.00     0.060 C 
HETATM   24  C4  UNL     1      -2.513   4.848   7.824  1.00  0.00     0.003 C 
HETATM   25  C5  UNL     1      -3.008   5.090   9.223  1.00  0.00     0.009 C 
ENDBRANCH   1  18
TORSDOF 5
ENDMDL
MODEL 5
REMARK VINA RESULT: -7.288608605      2.175      7.260
REMARK  5 active torsions:
REMARK  status: ('A' for Active; 'I' for Inactive)
REMARK    1  A    between atoms: C7_8  and  C8_9 
REMARK    2  A    between atoms: C10_14  and  C11_15 
REMARK    3  A    between atoms: C11_15  and  N3_16 
REMARK       I    between atoms: N3_16  and  C12_18 
REMARK    4  A    between atoms: C12_18  and  C13_20 
REMARK    5  A    between atoms: C13_20  and  C14_21 
ROOT
HETATM    1  C8  UNL     1      -4.320   4.249  11.426  1.00  0.00     0.161 A 
HETATM    2  N2  UNL     1      -4.540   3.235  10.579  1.00  0.00    -0.312 N 
ATOM      3  H2  UNL     1      -4.691   3.353   9.576  1.00  0.00     0.170 HD
HETATM    4  C9  UNL     1      -4.539   2.077  11.183  1.00  0.00     0.225 A 
HETATM    5  F1  UNL     1      -4.720   0.785  10.733  1.00  0.00    -0.183 F 
HETATM    6  C10 UNL     1      -4.308   2.413  12.578  1.00  0.00     0.148 A 
HETATM    7  O2  UNL     1      -4.201   3.694  12.593  1.00  0.00    -0.289 OA
ENDROOT
BRANCH   6   8
HETATM    8  C11 UNL     1      -4.223   1.383  13.522  1.00  0.00     0.133 C 
BRANCH   8   9
HETATM    9  N3  UNL     1      -4.832   0.886  14.654  1.00  0.00    -0.334 N 
HETATM   10  C12 UNL     1      -4.492   1.566  15.880  1.00  0.00     0.222 C 
HETATM   11  O1  UNL     1      -3.658   2.527  15.784  1.00  0.00    -0.273 OA
ATOM     12  H3  UNL     1      -5.475   0.094  14.627  1.00  0.00     0.168 HD
BRANCH  10  13
HETATM   13  C13 UNL     1      -5.056   1.222  17.158  1.00  0.00     0.111 C 
BRANCH  13  14
HETATM   14  C14 UNL     1      -6.380   1.998  17.323  1.00  0.00    -0.043 C 
HETATM   15  C15 UNL     1      -6.396   2.406  18.760  1.00  0.00     0.015 C 
HETATM   16  C16 UNL     1      -6.508   3.193  16.454  1.00  0.00     0.015 C 
HETATM   17  C17 UNL     1      -7.520   1.027  17.051  1.00  0.00     0.015 C 
ENDBRANCH  13  14
ENDBRANCH  10  13
ENDBRANCH   8   9
ENDBRANCH   6   8
BRANCH   1  18
HETATM   18  C7  UNL     1      -4.221   5.659  11.000  1.00  0.00     0.303 C 
HETATM   19  N1  UNL     1      -3.146   6.483  10.909  1.00  0.00     0.102 N 
HETATM   20  C1  UNL     1      -2.001   6.328  11.741  1.00  0.00     0.311 C 
HETATM   21  C2  UNL     1      -4.042   7.586  11.375  1.00  0.00     0.230 C 
HETATM   22  C3  UNL     1      -5.129   7.990  10.430  1.00  0.00     0.036 C 
HETATM   23  C6  UNL     1      -4.672   6.535  12.238  1.00  0.00     0.060 C 
HETATM   24  C4  UNL     1      -6.435   7.356  10.908  1.00  0.00     0.003 C 
HETATM   25  C5  UNL     1      -6.140   6.711  12.234  1.00  0.00     0.009 C 
ENDBRANCH   1  18
TORSDOF 5
ENDMDL
