MODEL 1
REMARK VINA RESULT: -7.692488564      0.000      0.000
REMARK  4 active torsions:
REMARK  status: ('A' for Active; 'I' for Inactive)
REMARK    1  A    between atoms: C6_7  and  N1_8 
REMARK       I    between atoms: N1_8  and  C7_10 
REMARK    2  A    between atoms: C7_10  and  C8_12 
REMARK    3  A    between atoms: C11_17  and  O2_18 
REMARK    4  A    between atoms: O2_18  and  C12_19 
ROOT
HETATM    1  C8  UNL     1      -2.762   1.826  11.332  1.00  0.00     0.118 A 
HETATM    2  C9  UNL     1      -2.713   0.536  10.874  1.00  0.00     0.123 A 
HETATM    3  N2  UNL     1      -3.391  -0.470  11.476  1.00  0.00    -0.369 N 
ATOM      4  H2  UNL     1      -3.332  -1.421  11.111  1.00  0.00     0.164 HD
HETATM    5  C10 UNL     1      -4.136  -0.205  12.552  1.00  0.00     0.143 A 
HETATM    6  C11 UNL     1      -4.209   1.080  13.039  1.00  0.00     0.159 A 
HETATM    7  N3  UNL     1      -3.529   2.061  12.428  1.00  0.00    -0.330 N 
ATOM      8  H3  UNL     1      -3.589   3.010  12.797  1.00  0.00     0.168 HD
ENDROOT
BRANCH   1   9
HETATM    9  C7  UNL     1      -2.047   2.934  10.712  1.00  0.00     0.270 C 
HETATM   10  N1  UNL     1      -0.755   3.312  11.094  1.00  0.00    -0.348 N 
ATOM     11  H1  UNL     1      -0.281   2.798  11.836  1.00  0.00     0.163 HD
HETATM   12  O1  UNL     1      -2.644   3.582   9.776  1.00  0.00    -0.266 OA
BRANCH  10  13
HETATM   13  C6  UNL     1      -0.078   4.417  10.454  1.00  0.00     0.124 C 
HETATM   14  C2  UNL     1       0.077   5.587  11.400  1.00  0.00     0.120 C 
HETATM   15  C1  UNL     1      -0.487   6.825  10.742  1.00  0.00     0.054 C 
HETATM   16  F1  UNL     1      -0.519   5.346  12.619  1.00  0.00    -0.241 F 
HETATM   17  C3  UNL     1       1.554   5.798  11.616  1.00  0.00     0.045 C 
HETATM   18  C4  UNL     1       2.111   4.403  11.307  1.00  0.00     0.006 C 
HETATM   19  C5  UNL     1       1.337   4.059  10.060  1.00  0.00     0.028 C 
ENDBRANCH  10  13
ENDBRANCH   1   9
BRANCH   6  20
HETATM   20  O2  UNL     1      -4.993   1.340  14.166  1.00  0.00    -0.329 OA
BRANCH  20  21
HETATM   21  C12 UNL     1      -4.618   2.410  15.025  1.00  0.00     0.130 C 
HETATM   22  C13 UNL     1      -4.299   1.828  16.374  1.00  0.00     0.032 C 
HETATM   23  C14 UNL     1      -5.407   0.890  16.753  1.00  0.00     0.002 C 
HETATM   24  C15 UNL     1      -6.713   1.606  16.744  1.00  0.00     0.000 C 
HETATM   25  C16 UNL     1      -6.641   3.044  16.363  1.00  0.00     0.002 C 
HETATM   26  C17 UNL     1      -5.809   3.318  15.148  1.00  0.00     0.032 C 
ENDBRANCH  20  21
ENDBRANCH   6  20
TORSDOF 4
ENDMDL
MODEL 2
REMARK VINA RESULT: -7.565611536      1.800      2.384
REMARK  4 active torsions:
REMARK  status: ('A' for Active; 'I' for Inactive)
REMARK    1  A    between atoms: C6_7  and  N1_8 
REMARK       I    between atoms: N1_8  and  C7_10 
REMARK    2  A    between atoms: C7_10  and  C8_12 
REMARK    3  A    between atoms: C11_17  and  O2_18 
REMARK    4  A    between atoms: O2_18  and  C12_19 
ROOT
HETATM    1  C8  UNL     1      -2.430   1.725  11.507  1.00  0.00     0.118 A 
HETATM    2  C9  UNL     1      -2.609   0.529  10.864  1.00  0.00     0.123 A 
HETATM    3  N2  UNL     1      -3.544  -0.368  11.256  1.00  0.00    -0.369 N 
ATOM      4  H2  UNL     1      -3.652  -1.251  10.756  1.00  0.00     0.164 HD
HETATM    5  C10 UNL     1      -4.323  -0.087  12.304  1.00  0.00     0.143 A 
HETATM    6  C11 UNL     1      -4.170   1.105  12.974  1.00  0.00     0.159 A 
HETATM    7  N3  UNL     1      -3.237   1.979  12.569  1.00  0.00    -0.330 N 
ATOM      8  H3  UNL     1      -3.131   2.860  13.073  1.00  0.00     0.168 HD
ENDROOT
BRANCH   1   9
HETATM    9  C7  UNL     1      -1.435   2.715  11.116  1.00  0.00     0.270 C 
HETATM   10  N1  UNL     1      -1.546   3.485   9.953  1.00  0.00    -0.348 N 
ATOM     11  H1  UNL     1      -2.354   3.358   9.343  1.00  0.00     0.163 HD
HETATM   12  O1  UNL     1      -0.416   2.875  11.884  1.00  0.00    -0.266 OA
BRANCH  10  13
HETATM   13  C6  UNL     1      -0.538   4.458   9.599  1.00  0.00     0.124 C 
HETATM   14  C2  UNL     1       0.082   4.142   8.256  1.00  0.00     0.120 C 
HETATM   15  C1  UNL     1       1.585   4.088   8.412  1.00  0.00     0.054 C 
HETATM   16  F1  UNL     1      -0.413   2.971   7.722  1.00  0.00    -0.241 F 
HETATM   17  C3  UNL     1      -0.256   5.280   7.327  1.00  0.00     0.045 C 
HETATM   18  C4  UNL     1      -1.527   5.839   7.977  1.00  0.00     0.006 C 
HETATM   19  C5  UNL     1      -1.124   5.840   9.429  1.00  0.00     0.028 C 
ENDBRANCH  10  13
ENDBRANCH   1   9
BRANCH   6  20
HETATM   20  O2  UNL     1      -4.993   1.384  14.069  1.00  0.00    -0.329 OA
BRANCH  20  21
HETATM   21  C12 UNL     1      -4.624   2.442  14.946  1.00  0.00     0.130 C 
HETATM   22  C13 UNL     1      -4.284   1.836  16.280  1.00  0.00     0.032 C 
HETATM   23  C14 UNL     1      -5.376   0.876  16.650  1.00  0.00     0.002 C 
HETATM   24  C15 UNL     1      -6.691   1.573  16.668  1.00  0.00     0.000 C 
HETATM   25  C16 UNL     1      -6.643   3.020  16.316  1.00  0.00     0.002 C 
HETATM   26  C17 UNL     1      -5.827   3.330  15.099  1.00  0.00     0.032 C 
ENDBRANCH  20  21
ENDBRANCH   6  20
TORSDOF 4
ENDMDL
MODEL 3
REMARK VINA RESULT: -7.523498396      3.549      4.375
REMARK  4 active torsions:
REMARK  status: ('A' for Active; 'I' for Inactive)
REMARK    1  A    between atoms: C6_7  and  N1_8 
REMARK       I    between atoms: N1_8  and  C7_10 
REMARK    2  A    between atoms: C7_10  and  C8_12 
REMARK    3  A    between atoms: C11_17  and  O2_18 
REMARK    4  A    between atoms: O2_18  and  C12_19 
ROOT
HETATM    1  C8  UNL     1      -4.172   3.218  11.159  1.00  0.00     0.118 A 
HETATM    2  C9  UNL     1      -3.458   2.113  10.780  1.00  0.00     0.123 A 
HETATM    3  N2  UNL     1      -3.411   0.990  11.535  1.00  0.00    -0.369 N 
ATOM      4  H2  UNL     1      -2.869   0.183  11.225  1.00  0.00     0.164 HD
HETATM    5  C10 UNL     1      -4.080   0.949  12.690  1.00  0.00     0.143 A 
HETATM    6  C11 UNL     1      -4.808   2.042  13.102  1.00  0.00     0.159 A 
HETATM    7  N3  UNL     1      -4.840   3.144  12.339  1.00  0.00    -0.330 N 
ATOM      8  H3  UNL     1      -5.382   3.949  12.653  1.00  0.00     0.168 HD
ENDROOT
BRANCH   1   9
HETATM    9  C7  UNL     1      -4.246   4.444  10.375  1.00  0.00     0.270 C 
HETATM   10  N1  UNL     1      -4.888   5.601  10.831  1.00  0.00    -0.348 N 
ATOM     11  H1  UNL     1      -5.327   5.599  11.752  1.00  0.00     0.163 HD
HETATM   12  O1  UNL     1      -3.692   4.446   9.214  1.00  0.00    -0.266 OA
BRANCH  10  13
HETATM   13  C6  UNL     1      -4.940   6.798  10.023  1.00  0.00     0.124 C 
HETATM   14  C2  UNL     1      -6.238   6.884   9.253  1.00  0.00     0.120 C 
HETATM   15  C1  UNL     1      -5.925   7.084   7.788  1.00  0.00     0.054 C 
HETATM   16  F1  UNL     1      -7.031   5.775   9.453  1.00  0.00    -0.241 F 
HETATM   17  C3  UNL     1      -6.974   8.102   9.749  1.00  0.00     0.045 C 
HETATM   18  C4  UNL     1      -6.381   8.268  11.154  1.00  0.00     0.006 C 
HETATM   19  C5  UNL     1      -4.917   8.050  10.869  1.00  0.00     0.028 C 
ENDBRANCH  10  13
ENDBRANCH   1   9
BRANCH   6  20
HETATM   20  O2  UNL     1      -5.503   1.983  14.314  1.00  0.00    -0.329 OA
BRANCH  20  21
HETATM   21  C12 UNL     1      -5.074   2.814  15.386  1.00  0.00     0.130 C 
HETATM   22  C13 UNL     1      -4.601   1.922  16.499  1.00  0.00     0.032 C 
HETATM   23  C14 UNL     1      -5.636   0.857  16.718  1.00  0.00     0.002 C 
HETATM   24  C15 UNL     1      -6.957   1.476  17.016  1.00  0.00     0.000 C 
HETATM   25  C16 UNL     1      -6.968   2.966  17.022  1.00  0.00     0.002 C 
HETATM   26  C17 UNL     1      -6.274   3.591  15.850  1.00  0.00     0.032 C 
ENDBRANCH  20  21
ENDBRANCH   6  20
TORSDOF 4
ENDMDL
MODEL 4
REMARK VINA RESULT: -7.487215261      1.088      1.493
REMARK  4 active torsions:
REMARK  status: ('A' for Active; 'I' for Inactive)
REMARK    1  A    between atoms: C6_7  and  N1_8 
REMARK       I    between atoms: N1_8  and  C7_10 
REMARK    2  A    between atoms: C7_10  and  C8_12 
REMARK    3  A    between atoms: C11_17  and  O2_18 
REMARK    4  A    between atoms: O2_18  and  C12_19 
ROOT
HETATM    1  C8  UNL     1      -2.622   1.624  11.365  1.00  0.00     0.118 A 
HETATM    2  C9  UNL     1      -2.693   0.347  10.876  1.00  0.00     0.123 A 
HETATM    3  N2  UNL     1      -3.488  -0.597  11.434  1.00  0.00    -0.369 N 
ATOM      4  H2  UNL     1      -3.518  -1.540  11.046  1.00  0.00     0.164 HD
HETATM    5  C10 UNL     1      -4.231  -0.281  12.498  1.00  0.00     0.143 A 
HETATM    6  C11 UNL     1      -4.184   0.993  13.016  1.00  0.00     0.159 A 
HETATM    7  N3  UNL     1      -3.390   1.912  12.448  1.00  0.00    -0.330 N 
ATOM      8  H3  UNL     1      -3.362   2.853  12.840  1.00  0.00     0.168 HD
ENDROOT
BRANCH   1   9
HETATM    9  C7  UNL     1      -1.780   2.666  10.793  1.00  0.00     0.270 C 
HETATM   10  N1  UNL     1      -1.443   3.836  11.484  1.00  0.00    -0.348 N 
ATOM     11  H1  UNL     1      -1.795   3.978  12.430  1.00  0.00     0.163 HD
HETATM   12  O1  UNL     1      -1.335   2.487   9.600  1.00  0.00    -0.266 OA
BRANCH  10  13
HETATM   13  C6  UNL     1      -0.603   4.846  10.881  1.00  0.00     0.124 C 
HETATM   14  C2  UNL     1      -1.428   5.988  10.330  1.00  0.00     0.120 C 
HETATM   15  C1  UNL     1      -1.055   6.207   8.882  1.00  0.00     0.054 C 
HETATM   16  F1  UNL     1      -2.781   5.763  10.475  1.00  0.00    -0.241 F 
HETATM   17  C3  UNL     1      -1.057   7.225  11.106  1.00  0.00     0.045 C 
HETATM   18  C4  UNL     1      -0.541   6.621  12.418  1.00  0.00     0.006 C 
HETATM   19  C5  UNL     1       0.312   5.495  11.894  1.00  0.00     0.028 C 
ENDBRANCH  10  13
ENDBRANCH   1   9
BRANCH   6  20
HETATM   20  O2  UNL     1      -4.969   1.306  14.130  1.00  0.00    -0.329 OA
BRANCH  20  21
HETATM   21  C12 UNL     1      -4.586   2.410  14.943  1.00  0.00     0.130 C 
HETATM   22  C13 UNL     1      -4.264   1.882  16.313  1.00  0.00     0.032 C 
HETATM   23  C14 UNL     1      -5.375   0.965  16.734  1.00  0.00     0.002 C 
HETATM   24  C15 UNL     1      -6.678   1.684  16.701  1.00  0.00     0.000 C 
HETATM   25  C16 UNL     1      -6.603   3.105  16.261  1.00  0.00     0.002 C 
HETATM   26  C17 UNL     1      -5.774   3.326  15.033  1.00  0.00     0.032 C 
ENDBRANCH  20  21
ENDBRANCH   6  20
TORSDOF 4
ENDMDL
MODEL 5
REMARK VINA RESULT: -7.486396864      1.502      1.967
REMARK  4 active torsions:
REMARK  status: ('A' for Active; 'I' for Inactive)
REMARK    1  A    between atoms: C6_7  and  N1_8 
REMARK       I    between atoms: N1_8  and  C7_10 
REMARK    2  A    between atoms: C7_10  and  C8_12 
REMARK    3  A    between atoms: C11_17  and  O2_18 
REMARK    4  A    between atoms: O2_18  and  C12_19 
ROOT
HETATM    1  C8  UNL     1      -2.743   2.153  11.501  1.00  0.00     0.118 A 
HETATM    2  C9  UNL     1      -2.666   0.871  11.025  1.00  0.00     0.123 A 
HETATM    3  N2  UNL     1      -3.380  -0.144  11.565  1.00  0.00    -0.369 N 
ATOM      4  H2  UNL     1      -3.300  -1.089  11.187  1.00  0.00     0.164 HD
HETATM    5  C10 UNL     1      -4.191   0.103  12.597  1.00  0.00     0.143 A 
HETATM    6  C11 UNL     1      -4.293   1.379  13.102  1.00  0.00     0.159 A 
HETATM    7  N3  UNL     1      -3.576   2.370  12.551  1.00  0.00    -0.330 N 
ATOM      8  H3  UNL     1      -3.658   3.312  12.932  1.00  0.00     0.168 HD
ENDROOT
BRANCH   1   9
HETATM    9  C7  UNL     1      -1.990   3.271  10.947  1.00  0.00     0.270 C 
HETATM   10  N1  UNL     1      -1.405   3.237   9.676  1.00  0.00    -0.348 N 
ATOM     11  H1  UNL     1      -1.502   2.399   9.102  1.00  0.00     0.163 HD
HETATM   12  O1  UNL     1      -1.868   4.326  11.670  1.00  0.00    -0.266 OA
BRANCH  10  13
HETATM   13  C6  UNL     1      -0.665   4.367   9.161  1.00  0.00     0.124 C 
HETATM   14  C2  UNL     1       0.825   4.156   9.297  1.00  0.00     0.120 C 
HETATM   15  C1  UNL     1       1.423   5.340  10.022  1.00  0.00     0.054 C 
HETATM   16  F1  UNL     1       1.122   2.970   9.937  1.00  0.00    -0.241 F 
HETATM   17  C3  UNL     1       1.402   4.113   7.906  1.00  0.00     0.045 C 
HETATM   18  C4  UNL     1       0.184   3.678   7.082  1.00  0.00     0.006 C 
HETATM   19  C5  UNL     1      -0.887   4.556   7.678  1.00  0.00     0.028 C 
ENDBRANCH  10  13
ENDBRANCH   1   9
BRANCH   6  20
HETATM   20  O2  UNL     1      -5.146   1.620  14.182  1.00  0.00    -0.329 OA
BRANCH  20  21
HETATM   21  C12 UNL     1      -4.760   2.588  15.151  1.00  0.00     0.130 C 
HETATM   22  C13 UNL     1      -4.389   1.855  16.411  1.00  0.00     0.032 C 
HETATM   23  C14 UNL     1      -5.471   0.858  16.708  1.00  0.00     0.002 C 
HETATM   24  C15 UNL     1      -6.787   1.544  16.824  1.00  0.00     0.000 C 
HETATM   25  C16 UNL     1      -6.750   3.019  16.616  1.00  0.00     0.002 C 
HETATM   26  C17 UNL     1      -5.962   3.451  15.418  1.00  0.00     0.032 C 
ENDBRANCH  20  21
ENDBRANCH   6  20
TORSDOF 4
ENDMDL
