MODEL 1
REMARK VINA RESULT: -7.372560425      0.000      0.000
REMARK  4 active torsions:
REMARK  status: ('A' for Active; 'I' for Inactive)
REMARK    1  A    between atoms: C4_4  and  N1_5 
REMARK    2  A    between atoms: C7_8  and  N2_9 
REMARK    3  A    between atoms: N2_9  and  C8_11 
REMARK    4  A    between atoms: C15_21  and  C16_22 
ROOT
HETATM    1  N1  UNL     1      -4.480   5.634  12.309  1.00  0.00    -0.367 N 
HETATM    2  C5  UNL     1      -4.148   6.080  13.629  1.00  0.00     0.130 C 
HETATM    3  C6  UNL     1      -3.327   5.095  14.434  1.00  0.00     0.072 C 
HETATM    4  C7  UNL     1      -3.829   3.693  14.375  1.00  0.00    -0.015 C 
HETATM    5  C13 UNL     1      -4.696   3.411  13.138  1.00  0.00     0.072 C 
HETATM    6  C14 UNL     1      -4.283   4.260  11.962  1.00  0.00     0.130 C 
ENDROOT
BRANCH   1   7
HETATM    7  C4  UNL     1      -5.003   6.564  11.362  1.00  0.00     0.106 A 
HETATM    8  C3  UNL     1      -4.557   7.894  11.380  1.00  0.00     0.073 A 
HETATM    9  C2  UNL     1      -5.054   8.826  10.494  1.00  0.00     0.010 A 
HETATM   10  C1  UNL     1      -4.551  10.228  10.532  1.00  0.00     0.068 C 
HETATM   11  N4  UNL     1      -5.983   8.429   9.601  1.00  0.00    -0.349 N 
HETATM   12  C15 UNL     1      -6.420   7.137   9.583  1.00  0.00     0.086 A 
ATOM     13  H4  UNL     1      -6.362   9.101   8.934  1.00  0.00     0.167 HD
HETATM   14  N3  UNL     1      -5.921   6.256  10.454  1.00  0.00    -0.332 N 
ATOM     15  H3  UNL     1      -6.263   5.296  10.419  1.00  0.00     0.168 HD
BRANCH  12  16
HETATM   16  C16 UNL     1      -7.448   6.815   8.551  1.00  0.00     0.045 C 
HETATM   17  C17 UNL     1      -6.880   6.745   7.176  1.00  0.00     0.017 C 
HETATM   18  C18 UNL     1      -8.609   7.770   8.544  1.00  0.00     0.017 C 
ENDBRANCH  12  16
ENDBRANCH   1   7
BRANCH   4  19
HETATM   19  N2  UNL     1      -4.323   3.096  15.513  1.00  0.00    -0.392 N 
ATOM     20  H2  UNL     1      -3.871   3.344  16.393  1.00  0.00     0.159 HD
BRANCH  19  21
HETATM   21  C8  UNL     1      -5.370   2.194  15.587  1.00  0.00     0.083 C 
HETATM   22  C9  UNL     1      -6.552   2.793  16.370  1.00  0.00     0.028 C 
HETATM   23  C10 UNL     1      -7.291   1.591  16.914  1.00  0.00     0.039 C 
HETATM   24  C11 UNL     1      -6.178   0.673  17.302  1.00  0.00     0.172 C 
HETATM   25  F1  UNL     1      -5.609   0.939  18.518  1.00  0.00    -0.249 F 
HETATM   26  C12 UNL     1      -5.192   0.845  16.146  1.00  0.00     0.062 C 
ENDBRANCH  19  21
ENDBRANCH   4  19
TORSDOF 4
ENDMDL
MODEL 2
REMARK VINA RESULT: -7.355351011      4.005      5.899
REMARK  4 active torsions:
REMARK  status: ('A' for Active; 'I' for Inactive)
REMARK    1  A    between atoms: C4_4  and  N1_5 
REMARK    2  A    between atoms: C7_8  and  N2_9 
REMARK    3  A    between atoms: N2_9  and  C8_11 
REMARK    4  A    between atoms: C15_21  and  C16_22 
ROOT
HETATM    1  N1  UNL     1      -1.920   4.231  12.396  1.00  0.00    -0.367 N 
HETATM    2  C5  UNL     1      -2.881   3.175  12.294  1.00  0.00     0.130 C 
HETATM    3  C6  UNL     1      -4.145   3.399  13.096  1.00  0.00     0.072 C 
HETATM    4  C7  UNL     1      -3.907   3.870  14.489  1.00  0.00    -0.015 C 
HETATM    5  C13 UNL     1      -2.538   4.543  14.675  1.00  0.00     0.072 C 
HETATM    6  C14 UNL     1      -2.076   5.225  13.412  1.00  0.00     0.130 C 
ENDROOT
BRANCH   1   7
HETATM    7  C4  UNL     1      -0.821   4.275  11.486  1.00  0.00     0.106 A 
HETATM    8  C3  UNL     1      -1.031   3.966  10.134  1.00  0.00     0.073 A 
HETATM    9  C2  UNL     1       0.008   3.978   9.229  1.00  0.00     0.010 A 
HETATM   10  C1  UNL     1      -0.250   3.656   7.798  1.00  0.00     0.068 C 
HETATM   11  N4  UNL     1       1.240   4.299   9.673  1.00  0.00    -0.349 N 
HETATM   12  C15 UNL     1       1.447   4.598  10.987  1.00  0.00     0.086 A 
ATOM     13  H4  UNL     1       2.024   4.318   9.021  1.00  0.00     0.167 HD
HETATM   14  N3  UNL     1       0.421   4.577  11.842  1.00  0.00    -0.332 N 
ATOM     15  H3  UNL     1       0.601   4.806  12.819  1.00  0.00     0.168 HD
BRANCH  12  16
HETATM   16  C16 UNL     1       2.851   4.938  11.362  1.00  0.00     0.045 C 
HETATM   17  C17 UNL     1       2.927   6.034  12.368  1.00  0.00     0.017 C 
HETATM   18  C18 UNL     1       3.712   5.304  10.186  1.00  0.00     0.017 C 
ENDBRANCH  12  16
ENDBRANCH   1   7
BRANCH   4  19
HETATM   19  N2  UNL     1      -4.246   3.062  15.551  1.00  0.00    -0.392 N 
ATOM     20  H2  UNL     1      -3.644   3.110  16.373  1.00  0.00     0.159 HD
BRANCH  19  21
HETATM   21  C8  UNL     1      -5.320   2.192  15.619  1.00  0.00     0.083 C 
HETATM   22  C9  UNL     1      -6.502   2.841  16.361  1.00  0.00     0.028 C 
HETATM   23  C10 UNL     1      -7.288   1.673  16.912  1.00  0.00     0.039 C 
HETATM   24  C11 UNL     1      -6.212   0.732  17.346  1.00  0.00     0.172 C 
HETATM   25  F1  UNL     1      -5.663   1.008  18.569  1.00  0.00    -0.249 F 
HETATM   26  C12 UNL     1      -5.195   0.851  16.210  1.00  0.00     0.062 C 
ENDBRANCH  19  21
ENDBRANCH   4  19
TORSDOF 4
ENDMDL
MODEL 3
REMARK VINA RESULT: -7.306621182      4.047      5.979
REMARK  4 active torsions:
REMARK  status: ('A' for Active; 'I' for Inactive)
REMARK    1  A    between atoms: C4_4  and  N1_5 
REMARK    2  A    between atoms: C7_8  and  N2_9 
REMARK    3  A    between atoms: N2_9  and  C8_11 
REMARK    4  A    between atoms: C15_21  and  C16_22 
ROOT
HETATM    1  N1  UNL     1      -2.308   3.378  11.681  1.00  0.00    -0.367 N 
HETATM    2  C5  UNL     1      -2.873   2.066  11.599  1.00  0.00     0.130 C 
HETATM    3  C6  UNL     1      -4.277   1.954  12.154  1.00  0.00     0.072 C 
HETATM    4  C7  UNL     1      -4.463   2.613  13.477  1.00  0.00    -0.015 C 
HETATM    5  C13 UNL     1      -3.420   3.704  13.762  1.00  0.00     0.072 C 
HETATM    6  C14 UNL     1      -2.945   4.368  12.494  1.00  0.00     0.130 C 
ENDROOT
BRANCH   1   7
HETATM    7  C4  UNL     1      -1.118   3.680  10.953  1.00  0.00     0.106 A 
HETATM    8  C3  UNL     1      -1.094   3.499   9.562  1.00  0.00     0.073 A 
HETATM    9  C2  UNL     1       0.043   3.761   8.828  1.00  0.00     0.010 A 
HETATM   10  C1  UNL     1       0.033   3.570   7.351  1.00  0.00     0.068 C 
HETATM   11  N4  UNL     1       1.139   4.199   9.478  1.00  0.00    -0.349 N 
HETATM   12  C15 UNL     1       1.119   4.374  10.831  1.00  0.00     0.086 A 
ATOM     13  H4  UNL     1       1.990   4.403   8.955  1.00  0.00     0.167 HD
HETATM   14  N3  UNL     1       0.003   4.112  11.517  1.00  0.00    -0.332 N 
ATOM     15  H3  UNL     1       0.014   4.252  12.527  1.00  0.00     0.168 HD
BRANCH  12  16
HETATM   16  C16 UNL     1       2.390   4.864  11.441  1.00  0.00     0.045 C 
HETATM   17  C17 UNL     1       2.226   6.171  12.135  1.00  0.00     0.017 C 
HETATM   18  C18 UNL     1       3.520   4.980  10.457  1.00  0.00     0.017 C 
ENDBRANCH  12  16
ENDBRANCH   1   7
BRANCH   4  19
HETATM   19  N2  UNL     1      -4.747   1.850  14.587  1.00  0.00    -0.392 N 
ATOM     20  H2  UNL     1      -4.674   0.839  14.478  1.00  0.00     0.159 HD
BRANCH  19  21
HETATM   21  C8  UNL     1      -5.119   2.314  15.837  1.00  0.00     0.083 C 
HETATM   22  C9  UNL     1      -5.005   1.196  16.889  1.00  0.00     0.028 C 
HETATM   23  C10 UNL     1      -5.988   1.593  17.968  1.00  0.00     0.039 C 
HETATM   24  C11 UNL     1      -7.137   2.130  17.180  1.00  0.00     0.172 C 
HETATM   25  F1  UNL     1      -7.987   1.181  16.681  1.00  0.00    -0.249 F 
HETATM   26  C12 UNL     1      -6.436   2.924  16.076  1.00  0.00     0.062 C 
ENDBRANCH  19  21
ENDBRANCH   4  19
TORSDOF 4
ENDMDL
MODEL 4
REMARK VINA RESULT: -7.290607087      4.084      5.370
REMARK  4 active torsions:
REMARK  status: ('A' for Active; 'I' for Inactive)
REMARK    1  A    between atoms: C4_4  and  N1_5 
REMARK    2  A    between atoms: C7_8  and  N2_9 
REMARK    3  A    between atoms: N2_9  and  C8_11 
REMARK    4  A    between atoms: C15_21  and  C16_22 
ROOT
HETATM    1  N1  UNL     1      -2.426   3.020  11.431  1.00  0.00    -0.367 N 
HETATM    2  C5  UNL     1      -2.790   1.640  11.544  1.00  0.00     0.130 C 
HETATM    3  C6  UNL     1      -4.185   1.402  12.081  1.00  0.00     0.072 C 
HETATM    4  C7  UNL     1      -4.522   2.218  13.281  1.00  0.00    -0.015 C 
HETATM    5  C13 UNL     1      -3.662   3.485  13.414  1.00  0.00     0.072 C 
HETATM    6  C14 UNL     1      -3.236   4.013  12.067  1.00  0.00     0.130 C 
ENDROOT
BRANCH   1   7
HETATM    7  C4  UNL     1      -1.263   3.384  10.689  1.00  0.00     0.106 A 
HETATM    8  C3  UNL     1      -0.127   3.848  11.369  1.00  0.00     0.073 A 
HETATM    9  C2  UNL     1       1.008   4.229  10.687  1.00  0.00     0.010 A 
HETATM   10  C1  UNL     1       2.202   4.706  11.439  1.00  0.00     0.068 C 
HETATM   11  N4  UNL     1       1.006   4.143   9.342  1.00  0.00    -0.349 N 
HETATM   12  C15 UNL     1      -0.099   3.694   8.678  1.00  0.00     0.086 A 
ATOM     13  H4  UNL     1       1.836   4.415   8.816  1.00  0.00     0.167 HD
HETATM   14  N3  UNL     1      -1.184   3.333   9.366  1.00  0.00    -0.332 N 
ATOM     15  H3  UNL     1      -1.996   3.000   8.846  1.00  0.00     0.168 HD
BRANCH  12  16
HETATM   16  C16 UNL     1       0.015   3.642   7.191  1.00  0.00     0.045 C 
HETATM   17  C17 UNL     1       1.429   3.608   6.724  1.00  0.00     0.017 C 
HETATM   18  C18 UNL     1      -0.694   4.771   6.496  1.00  0.00     0.017 C 
ENDBRANCH  12  16
ENDBRANCH   1   7
BRANCH   4  19
HETATM   19  N2  UNL     1      -4.739   1.598  14.491  1.00  0.00    -0.392 N 
ATOM     20  H2  UNL     1      -4.628   0.584  14.511  1.00  0.00     0.159 HD
BRANCH  19  21
HETATM   21  C8  UNL     1      -5.091   2.207  15.682  1.00  0.00     0.083 C 
HETATM   22  C9  UNL     1      -4.978   1.217  16.855  1.00  0.00     0.028 C 
HETATM   23  C10 UNL     1      -5.943   1.749  17.891  1.00  0.00     0.039 C 
HETATM   24  C11 UNL     1      -7.096   2.207  17.058  1.00  0.00     0.172 C 
HETATM   25  F1  UNL     1      -7.963   1.218  16.680  1.00  0.00    -0.249 F 
HETATM   26  C12 UNL     1      -6.398   2.858  15.863  1.00  0.00     0.062 C 
ENDBRANCH  19  21
ENDBRANCH   4  19
TORSDOF 4
ENDMDL
MODEL 5
REMARK VINA RESULT: -7.257572586      0.841      1.170
REMARK  4 active torsions:
REMARK  status: ('A' for Active; 'I' for Inactive)
REMARK    1  A    between atoms: C4_4  and  N1_5 
REMARK    2  A    between atoms: C7_8  and  N2_9 
REMARK    3  A    between atoms: N2_9  and  C8_11 
REMARK    4  A    between atoms: C15_21  and  C16_22 
ROOT
HETATM    1  N1  UNL     1      -4.703   5.451  12.075  1.00  0.00    -0.367 N 
HETATM    2  C5  UNL     1      -4.903   5.640  13.480  1.00  0.00     0.130 C 
HETATM    3  C6  UNL     1      -4.116   4.691  14.357  1.00  0.00     0.072 C 
HETATM    4  C7  UNL     1      -4.175   3.267  13.921  1.00  0.00    -0.015 C 
HETATM    5  C13 UNL     1      -4.534   3.103  12.436  1.00  0.00     0.072 C 
HETATM    6  C14 UNL     1      -4.046   4.268  11.612  1.00  0.00     0.130 C 
ENDROOT
BRANCH   1   7
HETATM    7  C4  UNL     1      -5.163   6.444  11.158  1.00  0.00     0.106 A 
HETATM    8  C3  UNL     1      -4.697   7.761  11.276  1.00  0.00     0.073 A 
HETATM    9  C2  UNL     1      -5.133   8.752  10.421  1.00  0.00     0.010 A 
HETATM   10  C1  UNL     1      -4.611  10.139  10.565  1.00  0.00     0.068 C 
HETATM   11  N4  UNL     1      -6.021   8.424   9.461  1.00  0.00    -0.349 N 
HETATM   12  C15 UNL     1      -6.477   7.144   9.347  1.00  0.00     0.086 A 
ATOM     13  H4  UNL     1      -6.355   9.140   8.816  1.00  0.00     0.167 HD
HETATM   14  N3  UNL     1      -6.037   6.205  10.189  1.00  0.00    -0.332 N 
ATOM     15  H3  UNL     1      -6.392   5.255  10.081  1.00  0.00     0.168 HD
BRANCH  12  16
HETATM   16  C16 UNL     1      -7.456   6.900   8.247  1.00  0.00     0.045 C 
HETATM   17  C17 UNL     1      -6.853   7.065   6.895  1.00  0.00     0.017 C 
HETATM   18  C18 UNL     1      -8.683   7.764   8.336  1.00  0.00     0.017 C 
ENDBRANCH  12  16
ENDBRANCH   1   7
BRANCH   4  19
HETATM   19  N2  UNL     1      -4.795   2.333  14.721  1.00  0.00    -0.392 N 
ATOM     20  H2  UNL     1      -4.994   1.428  14.296  1.00  0.00     0.159 HD
BRANCH  19  21
HETATM   21  C8  UNL     1      -5.175   2.496  16.041  1.00  0.00     0.083 C 
HETATM   22  C9  UNL     1      -4.968   1.192  16.833  1.00  0.00     0.028 C 
HETATM   23  C10 UNL     1      -5.956   1.284  17.974  1.00  0.00     0.039 C 
HETATM   24  C11 UNL     1      -7.153   1.895  17.322  1.00  0.00     0.172 C 
HETATM   25  F1  UNL     1      -7.947   1.017  16.636  1.00  0.00    -0.249 F 
HETATM   26  C12 UNL     1      -6.525   2.949  16.409  1.00  0.00     0.062 C 
ENDBRANCH  19  21
ENDBRANCH   4  19
TORSDOF 4
ENDMDL
