MODEL 1
REMARK VINA RESULT: -8.014003066      0.000      0.000
REMARK  12 active torsions:
REMARK  status: ('A' for Active; 'I' for Inactive)
REMARK    1  A    between atoms: C2_2  and  C3_3 
REMARK    2  A    between atoms: C3_3  and  N1_4 
REMARK    3  A    between atoms: N1_4  and  C4_5 
REMARK    4  A    between atoms: N1_4  and  C6_8 
REMARK    5  A    between atoms: C4_5  and  C5_6 
REMARK    6  A    between atoms: C7_11  and  O1_12 
REMARK    7  A    between atoms: C8_14  and  C9_15 
REMARK    8  A    between atoms: C9_15  and  C10_16 
REMARK    9  A    between atoms: C9_15  and  C18_33 
REMARK   10  A    between atoms: C11_18  and  C12_19 
REMARK   11  A    between atoms: C15_28  and  O2_29 
REMARK   12  A    between atoms: C18_33  and  O3_34 
ROOT
HETATM    1  C18 UNL     1      -6.079  29.560 -13.206  1.00  0.00     0.238 C 
HETATM    2  C19 UNL     1      -5.026  28.645 -13.708  1.00  0.00     0.092 C 
HETATM    3  N6  UNL     1      -4.190  27.942 -14.111  1.00  0.00    -0.194 NA
ENDROOT
BRANCH   1   4
HETATM    4  C9  UNL     1      -7.412  28.966 -13.428  1.00  0.00     0.113 C 
BRANCH   4   5
HETATM    5  C8  UNL     1      -7.607  28.176 -14.657  1.00  0.00     0.049 A 
HETATM    6  C7  UNL     1      -7.799  28.551 -15.965  1.00  0.00     0.156 A 
HETATM    7  N2  UNL     1      -7.956  27.608 -16.835  1.00  0.00    -0.317 N 
HETATM    8  C6  UNL     1      -7.938  26.350 -16.515  1.00  0.00     0.149 A 
ATOM      9  H2  UNL     1      -8.100  27.862 -17.812  1.00  0.00     0.170 HD
HETATM   10  S2  UNL     1      -7.669  26.479 -14.792  1.00  0.00    -0.053 SA
BRANCH   6  11
HETATM   11  O1  UNL     1      -7.826  29.920 -16.353  1.00  0.00    -0.345 OA
ATOM     12  H1  UNL     1      -8.628  30.428 -16.308  1.00  0.00     0.219 HD
ENDBRANCH   6  11
BRANCH   8  13
HETATM   13  N1  UNL     1      -8.100  25.116 -17.244  1.00  0.00    -0.360 N 
BRANCH  13  14
HETATM   14  C3  UNL     1      -7.044  24.132 -17.363  1.00  0.00     0.124 C 
BRANCH  14  15
HETATM   15  C2  UNL     1      -5.675  24.645 -17.551  1.00  0.00     0.015 C 
HETATM   16  C1  UNL     1      -5.215  24.518 -18.961  1.00  0.00     0.006 C 
ENDBRANCH  14  15
ENDBRANCH  13  14
BRANCH  13  17
HETATM   17  C4  UNL     1      -9.335  24.854 -17.948  1.00  0.00     0.140 C 
BRANCH  17  18
HETATM   18  C5  UNL     1      -9.269  24.740 -19.414  1.00  0.00     0.134 C 
HETATM   19 CL1  UNL     1      -8.344  26.013 -20.230  1.00  0.00    -0.129 Cl
ENDBRANCH  17  18
ENDBRANCH  13  17
ENDBRANCH   8  13
ENDBRANCH   4   5
BRANCH   4  20
HETATM   20  C10 UNL     1      -8.555  29.914 -13.157  1.00  0.00     0.005 A 
HETATM   21  S1  UNL     1      -8.608  31.589 -13.476  1.00  0.00    -0.087 SA
HETATM   22  C11 UNL     1     -10.221  31.933 -12.926  1.00  0.00     0.084 A 
HETATM   23  C15 UNL     1     -10.644  30.715 -12.513  1.00  0.00     0.093 A 
HETATM   24  C16 UNL     1      -9.776  29.671 -12.637  1.00  0.00    -0.013 A 
HETATM   25  C17 UNL     1     -10.147  28.267 -12.182  1.00  0.00     0.052 C 
BRANCH  22  26
HETATM   26  C12 UNL     1     -10.810  33.263 -13.000  1.00  0.00     0.141 A 
HETATM   27  N3  UNL     1     -12.165  33.500 -13.020  1.00  0.00    -0.283 N 
HETATM   28  N4  UNL     1     -12.416  34.783 -13.109  1.00  0.00    -0.288 N 
ATOM     29  H3  UNL     1     -12.879  32.773 -12.972  1.00  0.00     0.188 HD
HETATM   30  C13 UNL     1     -11.263  35.427 -13.149  1.00  0.00     0.093 A 
ATOM     31  H4  UNL     1     -13.342  35.210 -13.141  1.00  0.00     0.188 HD
HETATM   32  C14 UNL     1     -11.086  36.886 -13.249  1.00  0.00     0.090 C 
HETATM   33  N5  UNL     1     -10.270  34.473 -13.079  1.00  0.00    -0.329 N 
ATOM     34  H5  UNL     1      -9.269  34.668 -13.088  1.00  0.00     0.168 HD
ENDBRANCH  22  26
BRANCH  23  35
HETATM   35  O2  UNL     1     -11.938  30.529 -11.973  1.00  0.00    -0.359 OA
ATOM     36  H2  UNL     1     -12.495  29.815 -12.258  1.00  0.00     0.217 HD
ENDBRANCH  23  35
ENDBRANCH   4  20
ENDBRANCH   1   4
BRANCH   1  37
HETATM   37  O3  UNL     1      -5.878  29.551 -11.801  1.00  0.00    -0.380 OA
ATOM     38  H3  UNL     1      -6.689  29.866 -11.419  1.00  0.00     0.211 HD
ENDBRANCH   1  37
TORSDOF 12
ENDMDL
MODEL 2
REMARK VINA RESULT: -8.013231969      1.240      1.675
REMARK  12 active torsions:
REMARK  status: ('A' for Active; 'I' for Inactive)
REMARK    1  A    between atoms: C2_2  and  C3_3 
REMARK    2  A    between atoms: C3_3  and  N1_4 
REMARK    3  A    between atoms: N1_4  and  C4_5 
REMARK    4  A    between atoms: N1_4  and  C6_8 
REMARK    5  A    between atoms: C4_5  and  C5_6 
REMARK    6  A    between atoms: C7_11  and  O1_12 
REMARK    7  A    between atoms: C8_14  and  C9_15 
REMARK    8  A    between atoms: C9_15  and  C10_16 
REMARK    9  A    between atoms: C9_15  and  C18_33 
REMARK   10  A    between atoms: C11_18  and  C12_19 
REMARK   11  A    between atoms: C15_28  and  O2_29 
REMARK   12  A    between atoms: C18_33  and  O3_34 
ROOT
HETATM    1  C18 UNL     1      -6.184  29.510 -13.282  1.00  0.00     0.238 C 
HETATM    2  C19 UNL     1      -5.029  28.673 -13.686  1.00  0.00     0.092 C 
HETATM    3  N6  UNL     1      -4.114  28.031 -14.013  1.00  0.00    -0.194 NA
ENDROOT
BRANCH   1   4
HETATM    4  C9  UNL     1      -7.446  28.788 -13.541  1.00  0.00     0.113 C 
BRANCH   4   5
HETATM    5  C8  UNL     1      -7.577  28.093 -14.835  1.00  0.00     0.049 A 
HETATM    6  C7  UNL     1      -7.769  28.565 -16.111  1.00  0.00     0.156 A 
HETATM    7  N2  UNL     1      -7.859  27.689 -17.058  1.00  0.00    -0.317 N 
HETATM    8  C6  UNL     1      -7.776  26.412 -16.842  1.00  0.00     0.149 A 
ATOM      9  H2  UNL     1      -8.002  28.015 -18.014  1.00  0.00     0.170 HD
HETATM   10  S2  UNL     1      -7.541  26.412 -15.109  1.00  0.00    -0.053 SA
BRANCH   6  11
HETATM   11  O1  UNL     1      -7.867  29.957 -16.386  1.00  0.00    -0.345 OA
ATOM     12  H1  UNL     1      -8.163  30.569 -15.722  1.00  0.00     0.219 HD
ENDBRANCH   6  11
BRANCH   8  13
HETATM   13  N1  UNL     1      -7.857  25.236 -17.673  1.00  0.00    -0.360 N 
BRANCH  13  14
HETATM   14  C3  UNL     1      -7.807  23.892 -17.135  1.00  0.00     0.124 C 
BRANCH  14  15
HETATM   15  C2  UNL     1      -9.014  23.408 -16.442  1.00  0.00     0.015 C 
HETATM   16  C1  UNL     1      -9.009  21.928 -16.271  1.00  0.00     0.006 C 
ENDBRANCH  14  15
ENDBRANCH  13  14
BRANCH  13  17
HETATM   17  C4  UNL     1      -7.925  25.374 -19.110  1.00  0.00     0.140 C 
BRANCH  17  18
HETATM   18  C5  UNL     1      -9.249  25.618 -19.705  1.00  0.00     0.134 C 
HETATM   19 CL1  UNL     1     -10.332  24.215 -19.743  1.00  0.00    -0.129 Cl
ENDBRANCH  17  18
ENDBRANCH  13  17
ENDBRANCH   8  13
ENDBRANCH   4   5
BRANCH   4  20
HETATM   20  C10 UNL     1      -8.682  29.571 -13.172  1.00  0.00     0.005 A 
HETATM   21  S1  UNL     1      -8.992  31.220 -13.476  1.00  0.00    -0.087 SA
HETATM   22  C11 UNL     1     -10.586  31.342 -12.794  1.00  0.00     0.084 A 
HETATM   23  C15 UNL     1     -10.802  30.080 -12.355  1.00  0.00     0.093 A 
HETATM   24  C16 UNL     1      -9.812  29.165 -12.555  1.00  0.00    -0.013 A 
HETATM   25  C17 UNL     1      -9.946  27.725 -12.079  1.00  0.00     0.052 C 
BRANCH  22  26
HETATM   26  C12 UNL     1     -11.357  32.578 -12.811  1.00  0.00     0.141 A 
HETATM   27  N3  UNL     1     -10.959  33.719 -13.467  1.00  0.00    -0.283 N 
HETATM   28  N4  UNL     1     -11.830  34.684 -13.302  1.00  0.00    -0.288 N 
ATOM     29  H3  UNL     1     -10.100  33.803 -14.010  1.00  0.00     0.188 HD
HETATM   30  C13 UNL     1     -12.814  34.226 -12.548  1.00  0.00     0.093 A 
ATOM     31  H4  UNL     1     -11.760  35.625 -13.689  1.00  0.00     0.188 HD
HETATM   32  C14 UNL     1     -14.002  34.982 -12.116  1.00  0.00     0.090 C 
HETATM   33  N5  UNL     1     -12.511  32.915 -12.249  1.00  0.00    -0.329 N 
ATOM     34  H5  UNL     1     -13.088  32.295 -11.680  1.00  0.00     0.168 HD
ENDBRANCH  22  26
BRANCH  23  35
HETATM   35  O2  UNL     1     -12.010  29.720 -11.711  1.00  0.00    -0.359 OA
ATOM     36  H2  UNL     1     -12.658  29.176 -12.144  1.00  0.00     0.217 HD
ENDBRANCH  23  35
ENDBRANCH   4  20
ENDBRANCH   1   4
BRANCH   1  37
HETATM   37  O3  UNL     1      -6.058  29.580 -11.870  1.00  0.00    -0.380 OA
ATOM     38  H3  UNL     1      -5.417  28.920 -11.632  1.00  0.00     0.211 HD
ENDBRANCH   1  37
TORSDOF 12
ENDMDL
MODEL 3
REMARK VINA RESULT: -8.009980822      0.562      1.517
REMARK  12 active torsions:
REMARK  status: ('A' for Active; 'I' for Inactive)
REMARK    1  A    between atoms: C2_2  and  C3_3 
REMARK    2  A    between atoms: C3_3  and  N1_4 
REMARK    3  A    between atoms: N1_4  and  C4_5 
REMARK    4  A    between atoms: N1_4  and  C6_8 
REMARK    5  A    between atoms: C4_5  and  C5_6 
REMARK    6  A    between atoms: C7_11  and  O1_12 
REMARK    7  A    between atoms: C8_14  and  C9_15 
REMARK    8  A    between atoms: C9_15  and  C10_16 
REMARK    9  A    between atoms: C9_15  and  C18_33 
REMARK   10  A    between atoms: C11_18  and  C12_19 
REMARK   11  A    between atoms: C15_28  and  O2_29 
REMARK   12  A    between atoms: C18_33  and  O3_34 
ROOT
HETATM    1  C18 UNL     1      -6.054  29.551 -13.207  1.00  0.00     0.238 C 
HETATM    2  C19 UNL     1      -4.995  28.642 -13.707  1.00  0.00     0.092 C 
HETATM    3  N6  UNL     1      -4.155  27.944 -14.109  1.00  0.00    -0.194 NA
ENDROOT
BRANCH   1   4
HETATM    4  C9  UNL     1      -7.384  28.953 -13.438  1.00  0.00     0.113 C 
BRANCH   4   5
HETATM    5  C8  UNL     1      -7.570  28.169 -14.673  1.00  0.00     0.049 A 
HETATM    6  C7  UNL     1      -7.781  28.550 -15.976  1.00  0.00     0.156 A 
HETATM    7  N2  UNL     1      -7.923  27.610 -16.852  1.00  0.00    -0.317 N 
HETATM    8  C6  UNL     1      -7.872  26.351 -16.544  1.00  0.00     0.149 A 
ATOM      9  H2  UNL     1      -8.080  27.869 -17.826  1.00  0.00     0.170 HD
HETATM   10  S2  UNL     1      -7.593  26.472 -14.821  1.00  0.00    -0.053 SA
BRANCH   6  11
HETATM   11  O1  UNL     1      -7.843  29.921 -16.352  1.00  0.00    -0.345 OA
ATOM     12  H1  UNL     1      -8.588  30.462 -16.117  1.00  0.00     0.219 HD
ENDBRANCH   6  11
BRANCH   8  13
HETATM   13  N1  UNL     1      -8.011  25.120 -17.282  1.00  0.00    -0.360 N 
BRANCH  13  14
HETATM   14  C3  UNL     1      -9.262  24.699 -17.878  1.00  0.00     0.124 C 
BRANCH  14  15
HETATM   15  C2  UNL     1      -9.623  25.313 -19.168  1.00  0.00     0.015 C 
HETATM   16  C1  UNL     1      -9.115  24.528 -20.327  1.00  0.00     0.006 C 
ENDBRANCH  14  15
ENDBRANCH  13  14
BRANCH  13  17
HETATM   17  C4  UNL     1      -6.887  24.217 -17.391  1.00  0.00     0.140 C 
BRANCH  17  18
HETATM   18  C5  UNL     1      -5.617  24.772 -17.887  1.00  0.00     0.134 C 
HETATM   19 CL1  UNL     1      -5.725  25.654 -19.421  1.00  0.00    -0.129 Cl
ENDBRANCH  17  18
ENDBRANCH  13  17
ENDBRANCH   8  13
ENDBRANCH   4   5
BRANCH   4  20
HETATM   20  C10 UNL     1      -8.532  29.895 -13.167  1.00  0.00     0.005 A 
HETATM   21  S1  UNL     1      -8.591  31.570 -13.480  1.00  0.00    -0.087 SA
HETATM   22  C11 UNL     1     -10.207  31.906 -12.935  1.00  0.00     0.084 A 
HETATM   23  C15 UNL     1     -10.626  30.684 -12.528  1.00  0.00     0.093 A 
HETATM   24  C16 UNL     1      -9.754  29.644 -12.653  1.00  0.00    -0.013 A 
HETATM   25  C17 UNL     1     -10.120  28.237 -12.205  1.00  0.00     0.052 C 
BRANCH  22  26
HETATM   26  C12 UNL     1     -10.802  33.233 -13.005  1.00  0.00     0.141 A 
HETATM   27  N3  UNL     1     -12.158  33.464 -13.026  1.00  0.00    -0.283 N 
HETATM   28  N4  UNL     1     -12.415  34.746 -13.111  1.00  0.00    -0.288 N 
ATOM     29  H3  UNL     1     -12.869  32.734 -12.981  1.00  0.00     0.188 HD
HETATM   30  C13 UNL     1     -11.264  35.396 -13.148  1.00  0.00     0.093 A 
ATOM     31  H4  UNL     1     -13.342  35.170 -13.143  1.00  0.00     0.188 HD
HETATM   32  C14 UNL     1     -11.093  36.856 -13.244  1.00  0.00     0.090 C 
HETATM   33  N5  UNL     1     -10.267  34.445 -13.081  1.00  0.00    -0.329 N 
ATOM     34  H5  UNL     1      -9.267  34.644 -13.088  1.00  0.00     0.168 HD
ENDBRANCH  22  26
BRANCH  23  35
HETATM   35  O2  UNL     1     -11.922  30.490 -11.994  1.00  0.00    -0.359 OA
ATOM     36  H2  UNL     1     -12.674  30.961 -12.334  1.00  0.00     0.217 HD
ENDBRANCH  23  35
ENDBRANCH   4  20
ENDBRANCH   1   4
BRANCH   1  37
HETATM   37  O3  UNL     1      -5.860  29.536 -11.801  1.00  0.00    -0.380 OA
ATOM     38  H3  UNL     1      -5.609  30.421 -11.563  1.00  0.00     0.211 HD
ENDBRANCH   1  37
TORSDOF 12
ENDMDL
MODEL 4
REMARK VINA RESULT: -7.527280694      3.317      8.714
REMARK  12 active torsions:
REMARK  status: ('A' for Active; 'I' for Inactive)
REMARK    1  A    between atoms: C2_2  and  C3_3 
REMARK    2  A    between atoms: C3_3  and  N1_4 
REMARK    3  A    between atoms: N1_4  and  C4_5 
REMARK    4  A    between atoms: N1_4  and  C6_8 
REMARK    5  A    between atoms: C4_5  and  C5_6 
REMARK    6  A    between atoms: C7_11  and  O1_12 
REMARK    7  A    between atoms: C8_14  and  C9_15 
REMARK    8  A    between atoms: C9_15  and  C10_16 
REMARK    9  A    between atoms: C9_15  and  C18_33 
REMARK   10  A    between atoms: C11_18  and  C12_19 
REMARK   11  A    between atoms: C15_28  and  O2_29 
REMARK   12  A    between atoms: C18_33  and  O3_34 
ROOT
HETATM    1  C18 UNL     1      -8.660  29.000 -10.810  1.00  0.00     0.238 C 
HETATM    2  C19 UNL     1      -8.886  29.752  -9.553  1.00  0.00     0.092 C 
HETATM    3  N6  UNL     1      -9.081  30.337  -8.565  1.00  0.00    -0.194 NA
ENDROOT
BRANCH   1   4
HETATM    4  C9  UNL     1      -7.998  29.866 -11.806  1.00  0.00     0.113 C 
BRANCH   4   5
HETATM    5  C8  UNL     1      -8.672  31.127 -12.164  1.00  0.00     0.049 A 
HETATM    6  C7  UNL     1      -8.207  32.416 -12.270  1.00  0.00     0.156 A 
HETATM    7  N2  UNL     1      -9.062  33.329 -12.596  1.00  0.00    -0.317 N 
HETATM    8  C6  UNL     1     -10.314  33.069 -12.820  1.00  0.00     0.149 A 
ATOM      9  H2  UNL     1      -8.740  34.293 -12.682  1.00  0.00     0.170 HD
HETATM   10  S2  UNL     1     -10.319  31.341 -12.546  1.00  0.00    -0.053 SA
BRANCH   6  11
HETATM   11  O1  UNL     1      -6.842  32.738 -12.032  1.00  0.00    -0.345 OA
ATOM     12  H1  UNL     1      -6.499  32.803 -11.148  1.00  0.00     0.219 HD
ENDBRANCH   6  11
BRANCH   8  13
HETATM   13  N1  UNL     1     -11.467  33.861 -13.170  1.00  0.00    -0.360 N 
BRANCH  13  14
HETATM   14  C3  UNL     1     -12.753  33.702 -12.523  1.00  0.00     0.124 C 
BRANCH  14  15
HETATM   15  C2  UNL     1     -13.526  34.930 -12.268  1.00  0.00     0.015 C 
HETATM   16  C1  UNL     1     -14.615  34.714 -11.275  1.00  0.00     0.006 C 
ENDBRANCH  14  15
ENDBRANCH  13  14
BRANCH  13  17
HETATM   17  C4  UNL     1     -11.382  34.816 -14.252  1.00  0.00     0.140 C 
BRANCH  17  18
HETATM   18  C5  UNL     1     -10.431  35.929 -14.101  1.00  0.00     0.134 C 
HETATM   19 CL1  UNL     1     -10.969  37.243 -13.040  1.00  0.00    -0.129 Cl
ENDBRANCH  17  18
ENDBRANCH  13  17
ENDBRANCH   8  13
ENDBRANCH   4   5
BRANCH   4  20
HETATM   20  C10 UNL     1      -7.476  29.122 -13.010  1.00  0.00     0.005 A 
HETATM   21  S1  UNL     1      -8.388  28.420 -14.269  1.00  0.00    -0.087 SA
HETATM   22  C11 UNL     1      -7.094  27.804 -15.252  1.00  0.00     0.084 A 
HETATM   23  C15 UNL     1      -6.001  28.176 -14.544  1.00  0.00     0.093 A 
HETATM   24  C16 UNL     1      -6.205  28.861 -13.383  1.00  0.00    -0.013 A 
HETATM   25  C17 UNL     1      -5.045  29.304 -12.503  1.00  0.00     0.052 C 
BRANCH  22  26
HETATM   26  C12 UNL     1      -7.324  27.111 -16.512  1.00  0.00     0.141 A 
HETATM   27  N3  UNL     1      -6.333  26.837 -17.426  1.00  0.00    -0.283 N 
HETATM   28  N4  UNL     1      -6.820  26.223 -18.476  1.00  0.00    -0.288 N 
ATOM     29  H3  UNL     1      -5.350  27.080 -17.303  1.00  0.00     0.188 HD
HETATM   30  C13 UNL     1      -8.120  26.071 -18.299  1.00  0.00     0.093 A 
ATOM     31  H4  UNL     1      -6.287  25.915 -19.290  1.00  0.00     0.188 HD
HETATM   32  C14 UNL     1      -9.057  25.430 -19.238  1.00  0.00     0.090 C 
HETATM   33  N5  UNL     1      -8.424  26.625 -17.073  1.00  0.00    -0.329 N 
ATOM     34  H5  UNL     1      -9.355  26.658 -16.659  1.00  0.00     0.168 HD
ENDBRANCH  22  26
BRANCH  23  35
HETATM   35  O2  UNL     1      -4.694  27.867 -14.989  1.00  0.00    -0.359 OA
ATOM     36  H2  UNL     1      -4.483  27.014 -15.349  1.00  0.00     0.217 HD
ENDBRANCH  23  35
ENDBRANCH   4  20
ENDBRANCH   1   4
BRANCH   1  37
HETATM   37  O3  UNL     1      -7.697  28.026 -10.440  1.00  0.00    -0.380 OA
ATOM     38  H3  UNL     1      -7.432  27.601 -11.248  1.00  0.00     0.211 HD
ENDBRANCH   1  37
TORSDOF 12
ENDMDL
MODEL 5
REMARK VINA RESULT: -7.476977411      4.072      6.000
REMARK  12 active torsions:
REMARK  status: ('A' for Active; 'I' for Inactive)
REMARK    1  A    between atoms: C2_2  and  C3_3 
REMARK    2  A    between atoms: C3_3  and  N1_4 
REMARK    3  A    between atoms: N1_4  and  C4_5 
REMARK    4  A    between atoms: N1_4  and  C6_8 
REMARK    5  A    between atoms: C4_5  and  C5_6 
REMARK    6  A    between atoms: C7_11  and  O1_12 
REMARK    7  A    between atoms: C8_14  and  C9_15 
REMARK    8  A    between atoms: C9_15  and  C10_16 
REMARK    9  A    between atoms: C9_15  and  C18_33 
REMARK   10  A    between atoms: C11_18  and  C12_19 
REMARK   11  A    between atoms: C15_28  and  O2_29 
REMARK   12  A    between atoms: C18_33  and  O3_34 
ROOT
HETATM    1  C18 UNL     1      -7.671  27.428 -14.767  1.00  0.00     0.238 C 
HETATM    2  C19 UNL     1      -6.259  27.480 -15.215  1.00  0.00     0.092 C 
HETATM    3  N6  UNL     1      -5.152  27.503 -15.574  1.00  0.00    -0.194 NA
ENDROOT
BRANCH   1   4
HETATM    4  C9  UNL     1      -7.782  27.938 -13.385  1.00  0.00     0.113 C 
BRANCH   4   5
HETATM    5  C8  UNL     1      -8.615  27.168 -12.443  1.00  0.00     0.049 A 
HETATM    6  C7  UNL     1      -9.299  25.985 -12.582  1.00  0.00     0.156 A 
HETATM    7  N2  UNL     1      -9.966  25.562 -11.558  1.00  0.00    -0.317 N 
HETATM    8  C6  UNL     1     -10.005  26.207 -10.433  1.00  0.00     0.149 A 
ATOM      9  H2  UNL     1     -10.481  24.686 -11.638  1.00  0.00     0.170 HD
HETATM   10  S2  UNL     1      -8.992  27.576 -10.832  1.00  0.00    -0.053 SA
BRANCH   6  11
HETATM   11  O1  UNL     1      -9.280  25.251 -13.801  1.00  0.00    -0.345 OA
ATOM     12  H1  UNL     1      -8.461  25.013 -14.218  1.00  0.00     0.219 HD
ENDBRANCH   6  11
BRANCH   8  13
HETATM   13  N1  UNL     1     -10.658  25.995  -9.165  1.00  0.00    -0.360 N 
BRANCH  13  14
HETATM   14  C3  UNL     1     -12.063  25.662  -9.053  1.00  0.00     0.124 C 
BRANCH  14  15
HETATM   15  C2  UNL     1     -12.402  24.230  -8.963  1.00  0.00     0.015 C 
HETATM   16  C1  UNL     1     -13.292  23.792 -10.073  1.00  0.00     0.006 C 
ENDBRANCH  14  15
ENDBRANCH  13  14
BRANCH  13  17
HETATM   17  C4  UNL     1      -9.920  26.181  -7.936  1.00  0.00     0.140 C 
BRANCH  17  18
HETATM   18  C5  UNL     1      -8.758  25.307  -7.704  1.00  0.00     0.134 C 
HETATM   19 CL1  UNL     1      -9.121  23.574  -7.623  1.00  0.00    -0.129 Cl
ENDBRANCH  17  18
ENDBRANCH  13  17
ENDBRANCH   8  13
ENDBRANCH   4   5
BRANCH   4  20
HETATM   20  C10 UNL     1      -8.028  29.424 -13.302  1.00  0.00     0.005 A 
HETATM   21  S1  UNL     1      -9.520  30.237 -13.450  1.00  0.00    -0.087 SA
HETATM   22  C11 UNL     1      -8.981  31.871 -13.210  1.00  0.00     0.084 A 
HETATM   23  C15 UNL     1      -7.650  31.705 -13.027  1.00  0.00     0.093 A 
HETATM   24  C16 UNL     1      -7.161  30.433 -13.074  1.00  0.00    -0.013 A 
HETATM   25  C17 UNL     1      -5.677  30.141 -12.902  1.00  0.00     0.052 C 
BRANCH  22  26
HETATM   26  C12 UNL     1      -9.891  33.008 -13.211  1.00  0.00     0.141 A 
HETATM   27  N3  UNL     1     -11.261  32.891 -13.183  1.00  0.00    -0.283 N 
HETATM   28  N4  UNL     1     -11.834  34.069 -13.211  1.00  0.00    -0.288 N 
ATOM     29  H3  UNL     1     -11.765  32.005 -13.147  1.00  0.00     0.188 HD
HETATM   30  C13 UNL     1     -10.885  34.988 -13.255  1.00  0.00     0.093 A 
ATOM     31  H4  UNL     1     -12.839  34.247 -13.199  1.00  0.00     0.188 HD
HETATM   32  C14 UNL     1     -11.089  36.446 -13.298  1.00  0.00     0.090 C 
HETATM   33  N5  UNL     1      -9.680  34.318 -13.254  1.00  0.00    -0.329 N 
ATOM     34  H5  UNL     1      -8.763  34.762 -13.282  1.00  0.00     0.168 HD
ENDBRANCH  22  26
BRANCH  23  35
HETATM   35  O2  UNL     1      -6.795  32.808 -12.795  1.00  0.00    -0.359 OA
ATOM     36  H2  UNL     1      -5.851  32.704 -12.761  1.00  0.00     0.217 HD
ENDBRANCH  23  35
ENDBRANCH   4  20
ENDBRANCH   1   4
BRANCH   1  37
HETATM   37  O3  UNL     1      -8.312  28.391 -15.589  1.00  0.00    -0.380 OA
ATOM     38  H3  UNL     1      -8.370  27.999 -16.453  1.00  0.00     0.211 HD
ENDBRANCH   1  37
TORSDOF 12
ENDMDL
