MODEL 1
REMARK VINA RESULT: -7.976613882      0.000      0.000
REMARK  11 active torsions:
REMARK  status: ('A' for Active; 'I' for Inactive)
REMARK    1  A    between atoms: C3_3  and  C4_4 
REMARK    2  A    between atoms: C7_8  and  N1_9 
REMARK       I    between atoms: N1_9  and  C8_11 
REMARK    3  A    between atoms: C8_11  and  C9_13 
REMARK    4  A    between atoms: C9_13  and  N2_14 
REMARK    5  A    between atoms: C10_18  and  C11_19 
REMARK    6  A    between atoms: C11_19  and  C12_21 
REMARK    7  A    between atoms: C12_21  and  S2_22 
REMARK    8  A    between atoms: S2_22  and  C13_23 
REMARK    9  A    between atoms: N4_26  and  N5_27 
REMARK   10  A    between atoms: N6_32  and  N7_33 
REMARK       I    between atoms: N7_33  and  C15_35 
REMARK   11  A    between atoms: C15_35  and  C16_37 
ROOT
HETATM    1  C11 UNL     1      -7.759  28.423 -13.500  1.00  0.00     0.172 C 
HETATM    2  O2  UNL     1      -6.647  28.744 -12.925  1.00  0.00    -0.291 OA
ENDROOT
BRANCH   1   3
HETATM    3  C10 UNL     1      -8.922  28.271 -12.598  1.00  0.00     0.052 A 
HETATM    4  C2  UNL     1      -9.567  27.113 -12.345  1.00  0.00    -0.028 A 
HETATM    5  C1  UNL     1      -9.270  25.771 -12.979  1.00  0.00     0.050 C 
HETATM    6  C3  UNL     1     -10.665  27.139 -11.491  1.00  0.00     0.015 A 
HETATM    7  S1  UNL     1     -10.764  28.773 -11.079  1.00  0.00    -0.071 SA
HETATM    8  C7  UNL     1      -9.433  29.383 -11.974  1.00  0.00     0.091 A 
BRANCH   6   9
HETATM    9  C4  UNL     1     -11.459  25.992 -10.912  1.00  0.00    -0.070 C 
HETATM   10  C5  UNL     1     -11.340  25.856  -9.433  1.00  0.00     0.044 C 
HETATM   11  C6  UNL     1     -12.719  25.618 -11.553  1.00  0.00     0.044 C 
ENDBRANCH   6   9
BRANCH   8  12
HETATM   12  N1  UNL     1      -9.053  30.768 -11.918  1.00  0.00    -0.319 N 
HETATM   13  C8  UNL     1      -9.831  31.732 -12.632  1.00  0.00     0.248 C 
HETATM   14  O1  UNL     1     -10.842  31.316 -13.274  1.00  0.00    -0.271 OA
ATOM     15  H1  UNL     1      -8.239  31.060 -11.377  1.00  0.00     0.169 HD
BRANCH  13  16
HETATM   16  C9  UNL     1      -9.492  33.143 -12.639  1.00  0.00     0.332 C 
BRANCH  16  17
HETATM   17  N2  UNL     1      -8.996  33.470 -13.996  1.00  0.00    -0.071 N 
ATOM     18  H23 UNL     1      -8.977  34.473 -14.183  1.00  0.00     0.274 HD
ATOM     19  H22 UNL     1      -7.997  33.297 -14.108  1.00  0.00     0.274 HD
ATOM     20  H21 UNL     1      -9.568  32.951 -14.661  1.00  0.00     0.274 HD
ENDBRANCH  16  17
ENDBRANCH  13  16
ENDBRANCH   8  12
ENDBRANCH   1   3
BRANCH   1  21
HETATM   21  C12 UNL     1      -7.779  28.233 -14.948  1.00  0.00     0.166 C 
BRANCH  21  22
HETATM   22  S2  UNL     1      -6.392  27.161 -15.510  1.00  0.00    -0.083 SA
BRANCH  22  23
HETATM   23  C13 UNL     1      -7.074  25.951 -16.662  1.00  0.00     0.185 A 
HETATM   24  N3  UNL     1      -8.070  25.113 -16.408  1.00  0.00    -0.255 N 
HETATM   25  N4  UNL     1      -8.235  24.328 -17.417  1.00  0.00    -0.171 N 
ATOM     26  H3  UNL     1      -8.619  25.092 -15.548  1.00  0.00     0.191 HD
HETATM   27  C14 UNL     1      -7.298  24.683 -18.360  1.00  0.00     0.237 A 
HETATM   28  S3  UNL     1      -7.189  23.893 -19.765  1.00  0.00    -0.035 SA
HETATM   29  N6  UNL     1      -6.564  25.691 -17.919  1.00  0.00    -0.200 N 
BRANCH  25  30
HETATM   30  N5  UNL     1      -9.145  23.247 -17.605  1.00  0.00    -0.321 N 
ATOM     31  H52 UNL     1      -9.610  22.777 -16.828  1.00  0.00     0.179 HD
ATOM     32  H51 UNL     1      -9.487  22.814 -18.463  1.00  0.00     0.179 HD
ENDBRANCH  25  30
BRANCH  29  33
HETATM   33  N7  UNL     1      -5.512  26.435 -18.448  1.00  0.00    -0.258 N 
HETATM   34  C15 UNL     1      -4.140  26.217 -18.401  1.00  0.00     0.250 C 
HETATM   35  O3  UNL     1      -3.576  25.256 -17.855  1.00  0.00    -0.271 OA
ATOM     36  H7  UNL     1      -5.794  27.275 -18.952  1.00  0.00     0.190 HD
BRANCH  34  37
HETATM   37  C16 UNL     1      -3.233  27.248 -19.072  1.00  0.00     0.219 C 
HETATM   38 CL1  UNL     1      -1.661  27.277 -18.305  1.00  0.00    -0.121 Cl
ENDBRANCH  34  37
ENDBRANCH  29  33
ENDBRANCH  22  23
ENDBRANCH  21  22
ENDBRANCH   1  21
TORSDOF 11
ENDMDL
MODEL 2
REMARK VINA RESULT: -7.875337162      3.875      8.241
REMARK  11 active torsions:
REMARK  status: ('A' for Active; 'I' for Inactive)
REMARK    1  A    between atoms: C3_3  and  C4_4 
REMARK    2  A    between atoms: C7_8  and  N1_9 
REMARK       I    between atoms: N1_9  and  C8_11 
REMARK    3  A    between atoms: C8_11  and  C9_13 
REMARK    4  A    between atoms: C9_13  and  N2_14 
REMARK    5  A    between atoms: C10_18  and  C11_19 
REMARK    6  A    between atoms: C11_19  and  C12_21 
REMARK    7  A    between atoms: C12_21  and  S2_22 
REMARK    8  A    between atoms: S2_22  and  C13_23 
REMARK    9  A    between atoms: N4_26  and  N5_27 
REMARK   10  A    between atoms: N6_32  and  N7_33 
REMARK       I    between atoms: N7_33  and  C15_35 
REMARK   11  A    between atoms: C15_35  and  C16_37 
ROOT
HETATM    1  C11 UNL     1      -6.166  27.607 -15.598  1.00  0.00     0.172 C 
HETATM    2  O2  UNL     1      -4.926  27.569 -15.231  1.00  0.00    -0.291 OA
ENDROOT
BRANCH   1   3
HETATM    3  C10 UNL     1      -6.577  26.564 -16.563  1.00  0.00     0.052 A 
HETATM    4  C2  UNL     1      -7.584  25.685 -16.380  1.00  0.00    -0.028 A 
HETATM    5  C1  UNL     1      -8.438  25.556 -15.137  1.00  0.00     0.050 C 
HETATM    6  C3  UNL     1      -7.829  24.742 -17.372  1.00  0.00     0.015 A 
HETATM    7  S1  UNL     1      -6.645  25.106 -18.518  1.00  0.00    -0.071 SA
HETATM    8  C7  UNL     1      -5.878  26.428 -17.738  1.00  0.00     0.091 A 
BRANCH   6   9
HETATM    9  C4  UNL     1      -8.972  23.763 -17.506  1.00  0.00    -0.070 C 
HETATM   10  C5  UNL     1      -9.724  23.878 -18.788  1.00  0.00     0.044 C 
HETATM   11  C6  UNL     1      -8.844  22.447 -16.882  1.00  0.00     0.044 C 
ENDBRANCH   6   9
BRANCH   8  12
HETATM   12  N1  UNL     1      -4.795  27.147 -18.353  1.00  0.00    -0.319 N 
HETATM   13  C8  UNL     1      -3.493  26.557 -18.377  1.00  0.00     0.248 C 
HETATM   14  O1  UNL     1      -3.358  25.405 -17.864  1.00  0.00    -0.271 OA
ATOM     15  H1  UNL     1      -4.953  28.066 -18.766  1.00  0.00     0.169 HD
BRANCH  13  16
HETATM   16  C9  UNL     1      -2.350  27.235 -18.960  1.00  0.00     0.332 C 
BRANCH  16  17
HETATM   17  N2  UNL     1      -1.336  27.386 -17.890  1.00  0.00    -0.071 N 
ATOM     18  H23 UNL     1      -1.744  27.597 -16.980  1.00  0.00     0.274 HD
ATOM     19  H22 UNL     1      -0.892  26.505 -17.635  1.00  0.00     0.274 HD
ATOM     20  H21 UNL     1      -0.669  28.093 -18.202  1.00  0.00     0.274 HD
ENDBRANCH  16  17
ENDBRANCH  13  16
ENDBRANCH   8  12
ENDBRANCH   1   3
BRANCH   1  21
HETATM   21  C12 UNL     1      -7.034  28.649 -15.055  1.00  0.00     0.166 C 
BRANCH  21  22
HETATM   22  S2  UNL     1      -7.012  28.656 -13.214  1.00  0.00    -0.083 SA
BRANCH  22  23
HETATM   23  C13 UNL     1      -5.542  29.564 -12.693  1.00  0.00     0.185 A 
HETATM   24  N3  UNL     1      -4.304  29.088 -12.670  1.00  0.00    -0.255 N 
HETATM   25  N4  UNL     1      -3.518  29.971 -12.155  1.00  0.00    -0.171 N 
ATOM     26  H3  UNL     1      -4.019  28.168 -13.006  1.00  0.00     0.191 HD
HETATM   27  C14 UNL     1      -4.292  31.062 -11.835  1.00  0.00     0.237 A 
HETATM   28  S3  UNL     1      -3.645  32.368 -11.140  1.00  0.00    -0.035 SA
HETATM   29  N6  UNL     1      -5.554  30.838 -12.160  1.00  0.00    -0.200 N 
BRANCH  25  30
HETATM   30  N5  UNL     1      -2.119  29.913 -11.886  1.00  0.00    -0.321 N 
ATOM     31  H52 UNL     1      -1.682  29.125 -11.409  1.00  0.00     0.179 HD
ATOM     32  H51 UNL     1      -1.374  30.568 -12.124  1.00  0.00     0.179 HD
ENDBRANCH  25  30
BRANCH  29  33
HETATM   33  N7  UNL     1      -6.729  31.581 -12.072  1.00  0.00    -0.258 N 
HETATM   34  C15 UNL     1      -7.372  32.367 -13.022  1.00  0.00     0.250 C 
HETATM   35  O3  UNL     1      -6.995  32.547 -14.191  1.00  0.00    -0.271 OA
ATOM     36  H7  UNL     1      -7.193  31.542 -11.166  1.00  0.00     0.190 HD
BRANCH  34  37
HETATM   37  C16 UNL     1      -8.655  33.083 -12.602  1.00  0.00     0.219 C 
HETATM   38 CL1  UNL     1      -9.284  34.042 -13.923  1.00  0.00    -0.121 Cl
ENDBRANCH  34  37
ENDBRANCH  29  33
ENDBRANCH  22  23
ENDBRANCH  21  22
ENDBRANCH   1  21
TORSDOF 11
ENDMDL
MODEL 3
REMARK VINA RESULT: -7.811624667      2.902      3.896
REMARK  11 active torsions:
REMARK  status: ('A' for Active; 'I' for Inactive)
REMARK    1  A    between atoms: C3_3  and  C4_4 
REMARK    2  A    between atoms: C7_8  and  N1_9 
REMARK       I    between atoms: N1_9  and  C8_11 
REMARK    3  A    between atoms: C8_11  and  C9_13 
REMARK    4  A    between atoms: C9_13  and  N2_14 
REMARK    5  A    between atoms: C10_18  and  C11_19 
REMARK    6  A    between atoms: C11_19  and  C12_21 
REMARK    7  A    between atoms: C12_21  and  S2_22 
REMARK    8  A    between atoms: S2_22  and  C13_23 
REMARK    9  A    between atoms: N4_26  and  N5_27 
REMARK   10  A    between atoms: N6_32  and  N7_33 
REMARK       I    between atoms: N7_33  and  C15_35 
REMARK   11  A    between atoms: C15_35  and  C16_37 
ROOT
HETATM    1  C11 UNL     1      -7.464  29.612 -14.782  1.00  0.00     0.172 C 
HETATM    2  O2  UNL     1      -7.556  30.489 -15.728  1.00  0.00    -0.291 OA
ENDROOT
BRANCH   1   3
HETATM    3  C10 UNL     1      -6.782  30.072 -13.552  1.00  0.00     0.052 A 
HETATM    4  C2  UNL     1      -5.592  29.620 -13.104  1.00  0.00    -0.028 A 
HETATM    5  C1  UNL     1      -4.764  28.519 -13.732  1.00  0.00     0.050 C 
HETATM    6  C3  UNL     1      -5.094  30.134 -11.912  1.00  0.00     0.015 A 
HETATM    7  S1  UNL     1      -6.302  31.219 -11.453  1.00  0.00    -0.071 SA
HETATM    8  C7  UNL     1      -7.394  31.012 -12.760  1.00  0.00     0.091 A 
BRANCH   6   9
HETATM    9  C4  UNL     1      -3.740  29.936 -11.271  1.00  0.00    -0.070 C 
HETATM   10  C5  UNL     1      -2.891  31.161 -11.254  1.00  0.00     0.044 C 
HETATM   11  C6  UNL     1      -3.618  28.982 -10.171  1.00  0.00     0.044 C 
ENDBRANCH   6   9
BRANCH   8  12
HETATM   12  N1  UNL     1      -8.606  31.779 -12.864  1.00  0.00    -0.319 N 
HETATM   13  C8  UNL     1      -8.578  33.036 -13.544  1.00  0.00     0.248 C 
HETATM   14  O1  UNL     1      -7.475  33.411 -14.045  1.00  0.00    -0.271 OA
ATOM     15  H1  UNL     1      -9.475  31.431 -12.457  1.00  0.00     0.169 HD
BRANCH  13  16
HETATM   16  C9  UNL     1      -9.757  33.873 -13.666  1.00  0.00     0.332 C 
BRANCH  16  17
HETATM   17  N2  UNL     1     -10.907  33.091 -13.155  1.00  0.00    -0.071 N 
ATOM     18  H23 UNL     1     -10.644  32.161 -12.829  1.00  0.00     0.274 HD
ATOM     19  H22 UNL     1     -11.266  33.445 -12.268  1.00  0.00     0.274 HD
ATOM     20  H21 UNL     1     -11.612  33.071 -13.891  1.00  0.00     0.274 HD
ENDBRANCH  16  17
ENDBRANCH  13  16
ENDBRANCH   8  12
ENDBRANCH   1   3
BRANCH   1  21
HETATM   21  C12 UNL     1      -8.017  28.277 -14.996  1.00  0.00     0.166 C 
BRANCH  21  22
HETATM   22  S2  UNL     1      -6.725  27.092 -15.560  1.00  0.00    -0.083 SA
BRANCH  22  23
HETATM   23  C13 UNL     1      -7.447  26.088 -16.874  1.00  0.00     0.185 A 
HETATM   24  N3  UNL     1      -8.497  25.289 -16.751  1.00  0.00    -0.255 N 
HETATM   25  N4  UNL     1      -8.682  24.654 -17.858  1.00  0.00    -0.171 N 
ATOM     26  H3  UNL     1      -9.070  25.190 -15.912  1.00  0.00     0.191 HD
HETATM   27  C14 UNL     1      -7.701  25.070 -18.729  1.00  0.00     0.237 A 
HETATM   28  S3  UNL     1      -7.601  24.464 -20.223  1.00  0.00    -0.035 SA
HETATM   29  N6  UNL     1      -6.920  25.963 -18.145  1.00  0.00    -0.200 N 
BRANCH  25  30
HETATM   30  N5  UNL     1      -9.650  23.666 -18.204  1.00  0.00    -0.321 N 
ATOM     31  H52 UNL     1      -9.407  22.688 -18.362  1.00  0.00     0.179 HD
ATOM     32  H51 UNL     1     -10.662  23.743 -18.311  1.00  0.00     0.179 HD
ENDBRANCH  25  30
BRANCH  29  33
HETATM   33  N7  UNL     1      -5.812  26.702 -18.551  1.00  0.00    -0.258 N 
HETATM   34  C15 UNL     1      -4.454  26.464 -18.374  1.00  0.00     0.250 C 
HETATM   35  O3  UNL     1      -3.958  25.484 -17.796  1.00  0.00    -0.271 OA
ATOM     36  H7  UNL     1      -6.033  27.556 -19.062  1.00  0.00     0.190 HD
BRANCH  34  37
HETATM   37  C16 UNL     1      -3.473  27.495 -18.930  1.00  0.00     0.219 C 
HETATM   38 CL1  UNL     1      -1.866  27.219 -18.295  1.00  0.00    -0.121 Cl
ENDBRANCH  34  37
ENDBRANCH  29  33
ENDBRANCH  22  23
ENDBRANCH  21  22
ENDBRANCH   1  21
TORSDOF 11
ENDMDL
MODEL 4
REMARK VINA RESULT: -7.794740861      1.735      1.848
REMARK  11 active torsions:
REMARK  status: ('A' for Active; 'I' for Inactive)
REMARK    1  A    between atoms: C3_3  and  C4_4 
REMARK    2  A    between atoms: C7_8  and  N1_9 
REMARK       I    between atoms: N1_9  and  C8_11 
REMARK    3  A    between atoms: C8_11  and  C9_13 
REMARK    4  A    between atoms: C9_13  and  N2_14 
REMARK    5  A    between atoms: C10_18  and  C11_19 
REMARK    6  A    between atoms: C11_19  and  C12_21 
REMARK    7  A    between atoms: C12_21  and  S2_22 
REMARK    8  A    between atoms: S2_22  and  C13_23 
REMARK    9  A    between atoms: N4_26  and  N5_27 
REMARK   10  A    between atoms: N6_32  and  N7_33 
REMARK       I    between atoms: N7_33  and  C15_35 
REMARK   11  A    between atoms: C15_35  and  C16_37 
ROOT
HETATM    1  C11 UNL     1      -8.200  27.897 -13.978  1.00  0.00     0.172 C 
HETATM    2  O2  UNL     1      -8.661  28.970 -14.533  1.00  0.00    -0.291 OA
ENDROOT
BRANCH   1   3
HETATM    3  C10 UNL     1      -8.321  27.840 -12.505  1.00  0.00     0.052 A 
HETATM    4  C2  UNL     1      -9.041  26.931 -11.815  1.00  0.00    -0.028 A 
HETATM    5  C1  UNL     1      -9.909  25.844 -12.413  1.00  0.00     0.050 C 
HETATM    6  C3  UNL     1      -9.078  27.028 -10.429  1.00  0.00     0.015 A 
HETATM    7  S1  UNL     1      -8.118  28.384 -10.135  1.00  0.00    -0.071 SA
HETATM    8  C7  UNL     1      -7.688  28.794 -11.745  1.00  0.00     0.091 A 
BRANCH   6   9
HETATM    9  C4  UNL     1      -9.657  26.071  -9.414  1.00  0.00    -0.070 C 
HETATM   10  C5  UNL     1      -8.809  25.885  -8.201  1.00  0.00     0.044 C 
HETATM   11  C6  UNL     1     -11.110  25.991  -9.274  1.00  0.00     0.044 C 
ENDBRANCH   6   9
BRANCH   8  12
HETATM   12  N1  UNL     1      -6.807  29.891 -12.039  1.00  0.00    -0.319 N 
HETATM   13  C8  UNL     1      -7.363  31.189 -12.265  1.00  0.00     0.248 C 
HETATM   14  O1  UNL     1      -8.622  31.315 -12.176  1.00  0.00    -0.271 OA
ATOM     15  H1  UNL     1      -5.798  29.746 -12.086  1.00  0.00     0.169 HD
BRANCH  13  16
HETATM   16  C9  UNL     1      -6.535  32.336 -12.588  1.00  0.00     0.332 C 
BRANCH  16  17
HETATM   17  N2  UNL     1      -6.718  32.618 -14.031  1.00  0.00    -0.071 N 
ATOM     18  H23 UNL     1      -5.954  33.162 -14.432  1.00  0.00     0.274 HD
ATOM     19  H22 UNL     1      -6.611  31.789 -14.616  1.00  0.00     0.274 HD
ATOM     20  H21 UNL     1      -7.628  33.067 -14.140  1.00  0.00     0.274 HD
ENDBRANCH  16  17
ENDBRANCH  13  16
ENDBRANCH   8  12
ENDBRANCH   1   3
BRANCH   1  21
HETATM   21  C12 UNL     1      -7.608  26.861 -14.821  1.00  0.00     0.166 C 
BRANCH  21  22
HETATM   22  S2  UNL     1      -7.242  27.492 -16.512  1.00  0.00    -0.083 SA
BRANCH  22  23
HETATM   23  C13 UNL     1      -7.766  26.227 -17.687  1.00  0.00     0.185 A 
HETATM   24  N3  UNL     1      -8.970  25.675 -17.748  1.00  0.00    -0.255 N 
HETATM   25  N4  UNL     1      -8.969  24.745 -18.641  1.00  0.00    -0.171 N 
ATOM     26  H3  UNL     1      -9.772  25.944 -17.177  1.00  0.00     0.191 HD
HETATM   27  C14 UNL     1      -7.702  24.702 -19.175  1.00  0.00     0.237 A 
HETATM   28  S3  UNL     1      -7.316  23.629 -20.319  1.00  0.00    -0.035 SA
HETATM   29  N6  UNL     1      -6.933  25.614 -18.603  1.00  0.00    -0.200 N 
BRANCH  25  30
HETATM   30  N5  UNL     1     -10.005  23.851 -19.041  1.00  0.00    -0.321 N 
ATOM     31  H52 UNL     1     -10.145  23.570 -20.012  1.00  0.00     0.179 HD
ATOM     32  H51 UNL     1     -10.701  23.356 -18.484  1.00  0.00     0.179 HD
ENDBRANCH  25  30
BRANCH  29  33
HETATM   33  N7  UNL     1      -5.607  26.007 -18.760  1.00  0.00    -0.258 N 
HETATM   34  C15 UNL     1      -4.439  25.479 -18.220  1.00  0.00     0.250 C 
HETATM   35  O3  UNL     1      -4.368  24.496 -17.466  1.00  0.00    -0.271 OA
ATOM     36  H7  UNL     1      -5.469  26.812 -19.370  1.00  0.00     0.190 HD
BRANCH  34  37
HETATM   37  C16 UNL     1      -3.120  26.163 -18.575  1.00  0.00     0.219 C 
HETATM   38 CL1  UNL     1      -3.377  27.863 -18.903  1.00  0.00    -0.121 Cl
ENDBRANCH  34  37
ENDBRANCH  29  33
ENDBRANCH  22  23
ENDBRANCH  21  22
ENDBRANCH   1  21
TORSDOF 11
ENDMDL
MODEL 5
REMARK VINA RESULT: -7.733840693      0.945      1.046
REMARK  11 active torsions:
REMARK  status: ('A' for Active; 'I' for Inactive)
REMARK    1  A    between atoms: C3_3  and  C4_4 
REMARK    2  A    between atoms: C7_8  and  N1_9 
REMARK       I    between atoms: N1_9  and  C8_11 
REMARK    3  A    between atoms: C8_11  and  C9_13 
REMARK    4  A    between atoms: C9_13  and  N2_14 
REMARK    5  A    between atoms: C10_18  and  C11_19 
REMARK    6  A    between atoms: C11_19  and  C12_21 
REMARK    7  A    between atoms: C12_21  and  S2_22 
REMARK    8  A    between atoms: S2_22  and  C13_23 
REMARK    9  A    between atoms: N4_26  and  N5_27 
REMARK   10  A    between atoms: N6_32  and  N7_33 
REMARK       I    between atoms: N7_33  and  C15_35 
REMARK   11  A    between atoms: C15_35  and  C16_37 
ROOT
HETATM    1  C11 UNL     1      -8.476  28.582 -14.032  1.00  0.00     0.172 C 
HETATM    2  O2  UNL     1      -8.883  29.613 -14.698  1.00  0.00    -0.291 OA
ENDROOT
BRANCH   1   3
HETATM    3  C10 UNL     1      -9.022  28.453 -12.663  1.00  0.00     0.052 A 
HETATM    4  C2  UNL     1      -9.356  27.292 -12.062  1.00  0.00    -0.028 A 
HETATM    5  C1  UNL     1      -9.298  25.916 -12.691  1.00  0.00     0.050 C 
HETATM    6  C3  UNL     1      -9.884  27.338 -10.777  1.00  0.00     0.015 A 
HETATM    7  S1  UNL     1      -9.906  28.995 -10.455  1.00  0.00    -0.071 SA
HETATM    8  C7  UNL     1      -9.250  29.589 -11.925  1.00  0.00     0.091 A 
BRANCH   6   9
HETATM    9  C4  UNL     1     -10.186  26.209  -9.821  1.00  0.00    -0.070 C 
HETATM   10  C5  UNL     1      -9.175  26.042  -8.738  1.00  0.00     0.044 C 
HETATM   11  C6  UNL     1     -11.583  25.890  -9.532  1.00  0.00     0.044 C 
ENDBRANCH   6   9
BRANCH   8  12
HETATM   12  N1  UNL     1      -9.012  30.991 -12.138  1.00  0.00    -0.319 N 
HETATM   13  C8  UNL     1     -10.060  31.801 -12.674  1.00  0.00     0.248 C 
HETATM   14  O1  UNL     1     -11.170  31.240 -12.924  1.00  0.00    -0.271 OA
ATOM     15  H1  UNL     1      -8.107  31.402 -11.909  1.00  0.00     0.169 HD
BRANCH  13  16
HETATM   16  C9  UNL     1      -9.883  33.217 -12.936  1.00  0.00     0.332 C 
BRANCH  16  17
HETATM   17  N2  UNL     1      -8.927  33.340 -14.061  1.00  0.00    -0.071 N 
ATOM     18  H23 UNL     1      -7.959  33.438 -13.754  1.00  0.00     0.274 HD
ATOM     19  H22 UNL     1      -8.812  32.472 -14.584  1.00  0.00     0.274 HD
ATOM     20  H21 UNL     1      -9.242  34.117 -14.643  1.00  0.00     0.274 HD
ENDBRANCH  16  17
ENDBRANCH  13  16
ENDBRANCH   8  12
ENDBRANCH   1   3
BRANCH   1  21
HETATM   21  C12 UNL     1      -7.535  27.659 -14.661  1.00  0.00     0.166 C 
BRANCH  21  22
HETATM   22  S2  UNL     1      -7.417  27.944 -16.476  1.00  0.00    -0.083 SA
BRANCH  22  23
HETATM   23  C13 UNL     1      -7.699  26.359 -17.293  1.00  0.00     0.185 A 
HETATM   24  N3  UNL     1      -8.688  25.517 -17.032  1.00  0.00    -0.255 N 
HETATM   25  N4  UNL     1      -8.532  24.445 -17.731  1.00  0.00    -0.171 N 
ATOM     26  H3  UNL     1      -9.454  25.689 -16.380  1.00  0.00     0.191 HD
HETATM   27  C14 UNL     1      -7.386  24.613 -18.473  1.00  0.00     0.237 A 
HETATM   28  S3  UNL     1      -6.856  23.450 -19.462  1.00  0.00    -0.035 SA
HETATM   29  N6  UNL     1      -6.848  25.795 -18.223  1.00  0.00    -0.200 N 
BRANCH  25  30
HETATM   30  N5  UNL     1      -9.307  23.248 -17.770  1.00  0.00    -0.321 N 
ATOM     31  H52 UNL     1      -9.601  22.756 -16.927  1.00  0.00     0.179 HD
ATOM     32  H51 UNL     1      -9.694  22.739 -18.564  1.00  0.00     0.179 HD
ENDBRANCH  25  30
BRANCH  29  33
HETATM   33  N7  UNL     1      -5.724  26.471 -18.690  1.00  0.00    -0.258 N 
HETATM   34  C15 UNL     1      -4.374  26.270 -18.423  1.00  0.00     0.250 C 
HETATM   35  O3  UNL     1      -3.904  25.389 -17.686  1.00  0.00    -0.271 OA
ATOM     36  H7  UNL     1      -5.922  27.239 -19.330  1.00  0.00     0.190 HD
BRANCH  34  37
HETATM   37  C16 UNL     1      -3.370  27.212 -19.086  1.00  0.00     0.219 C 
HETATM   38 CL1  UNL     1      -1.884  27.273 -18.165  1.00  0.00    -0.121 Cl
ENDBRANCH  34  37
ENDBRANCH  29  33
ENDBRANCH  22  23
ENDBRANCH  21  22
ENDBRANCH   1  21
TORSDOF 11
ENDMDL
