MODEL 1
REMARK VINA RESULT: -8.051046701      0.000      0.000
REMARK  11 active torsions:
REMARK  status: ('A' for Active; 'I' for Inactive)
REMARK    1  A    between atoms: C2_2  and  C3_3 
REMARK    2  A    between atoms: C3_3  and  N1_4 
REMARK    3  A    between atoms: C6_9  and  C7_10 
REMARK    4  A    between atoms: C7_10  and  C8_11 
REMARK    5  A    between atoms: C10_18  and  S1_19 
REMARK    6  A    between atoms: S1_19  and  C11_20 
REMARK    7  A    between atoms: C11_20  and  C12_21 
REMARK    8  A    between atoms: C12_21  and  C13_22 
REMARK    9  A    between atoms: C13_22  and  C14_23 
REMARK   10  A    between atoms: C14_23  and  C15_24 
REMARK   11  A    between atoms: C15_24  and  C16_25 
ROOT
HETATM    1  C8  UNL     1      -6.991  31.606 -12.239  1.00  0.00     0.162 A 
HETATM    2  N3  UNL     1      -6.832  33.000 -12.510  1.00  0.00    -0.099 NA
HETATM    3  N4  UNL     1      -6.337  32.787 -13.780  1.00  0.00    -0.050 NA
HETATM    4  N5  UNL     1      -6.619  31.444 -13.622  1.00  0.00    -0.163 NA
HETATM    5  C9  UNL     1      -7.776  30.971 -14.356  1.00  0.00     0.195 A 
HETATM    6  N6  UNL     1      -7.432  29.882 -15.085  1.00  0.00    -0.360 N 
ATOM      7  H6  UNL     1      -6.682  29.959 -15.772  1.00  0.00     0.162 HD
HETATM    8  C10 UNL     1      -8.017  28.774 -14.935  1.00  0.00     0.105 A 
HETATM    9  S2  UNL     1      -9.254  29.024 -13.667  1.00  0.00    -0.094 SA
HETATM   10  C18 UNL     1      -8.904  30.787 -13.436  1.00  0.00     0.136 A 
HETATM   11  C19 UNL     1      -8.415  31.127 -12.082  1.00  0.00     0.154 A 
HETATM   12  C20 UNL     1      -8.577  30.058 -11.054  1.00  0.00     0.057 C 
HETATM   13  F1  UNL     1      -9.147  32.236 -11.633  1.00  0.00    -0.238 F 
ENDROOT
BRANCH   8  14
HETATM   14  S1  UNL     1      -7.558  27.361 -15.892  1.00  0.00    -0.105 SA
BRANCH  14  15
HETATM   15  C11 UNL     1      -5.838  27.069 -15.987  1.00  0.00     0.081 C 
BRANCH  15  16
HETATM   16  C12 UNL     1      -5.525  25.623 -16.307  1.00  0.00     0.010 C 
BRANCH  16  17
HETATM   17  C13 UNL     1      -4.988  25.327 -17.645  1.00  0.00     0.001 C 
BRANCH  17  18
HETATM   18  C14 UNL     1      -5.821  25.611 -18.838  1.00  0.00     0.006 C 
BRANCH  18  19
HETATM   19  C15 UNL     1      -6.780  24.657 -19.367  1.00  0.00     0.060 C 
BRANCH  19  20
HETATM   20  C16 UNL     1      -7.619  23.860 -18.505  1.00  0.00     0.044 A 
HETATM   21  C17 UNL     1      -8.871  24.208 -17.981  1.00  0.00     0.135 A 
HETATM   22  N7  UNL     1      -9.272  23.176 -17.247  1.00  0.00    -0.296 N 
HETATM   23  N8  UNL     1      -8.376  22.210 -17.265  1.00  0.00    -0.243 N 
ATOM     24  H7  UNL     1     -10.154  23.137 -16.737  1.00  0.00     0.187 HD
HETATM   25  N9  UNL     1      -7.382  22.615 -18.020  1.00  0.00    -0.289 N 
ATOM     26  H8  UNL     1      -8.442  21.314 -16.782  1.00  0.00     0.208 HD
ATOM     27  H9  UNL     1      -6.544  22.068 -18.215  1.00  0.00     0.188 HD
ENDBRANCH  19  20
ENDBRANCH  18  19
ENDBRANCH  17  18
ENDBRANCH  16  17
ENDBRANCH  15  16
ENDBRANCH  14  15
ENDBRANCH   8  14
BRANCH   1  28
HETATM   28  C7  UNL     1      -6.039  30.982 -11.267  1.00  0.00     0.108 C 
BRANCH  28  29
HETATM   29  C6  UNL     1      -4.898  30.364 -12.009  1.00  0.00     0.033 A 
HETATM   30  N1  UNL     1      -3.690  30.900 -12.200  1.00  0.00    -0.297 N 
HETATM   31  N2  UNL     1      -2.991  30.042 -12.937  1.00  0.00    -0.310 N 
HETATM   32  C4  UNL     1      -3.702  28.958 -13.235  1.00  0.00     0.109 A 
ATOM     33  H2  UNL     1      -2.028  30.196 -13.236  1.00  0.00     0.186 HD
HETATM   34  C5  UNL     1      -4.931  29.139 -12.651  1.00  0.00     0.045 A 
BRANCH  30  35
HETATM   35  C3  UNL     1      -3.121  32.147 -11.719  1.00  0.00     0.148 C 
BRANCH  35  36
HETATM   36  C2  UNL     1      -2.189  31.822 -10.546  1.00  0.00     0.017 C 
HETATM   37  C1  UNL     1      -2.917  32.175  -9.247  1.00  0.00     0.007 C 
ENDBRANCH  35  36
ENDBRANCH  30  35
ENDBRANCH  28  29
ENDBRANCH   1  28
TORSDOF 11
ENDMDL
MODEL 2
REMARK VINA RESULT: -7.843941036      2.692      4.122
REMARK  11 active torsions:
REMARK  status: ('A' for Active; 'I' for Inactive)
REMARK    1  A    between atoms: C2_2  and  C3_3 
REMARK    2  A    between atoms: C3_3  and  N1_4 
REMARK    3  A    between atoms: C6_9  and  C7_10 
REMARK    4  A    between atoms: C7_10  and  C8_11 
REMARK    5  A    between atoms: C10_18  and  S1_19 
REMARK    6  A    between atoms: S1_19  and  C11_20 
REMARK    7  A    between atoms: C11_20  and  C12_21 
REMARK    8  A    between atoms: C12_21  and  C13_22 
REMARK    9  A    between atoms: C13_22  and  C14_23 
REMARK   10  A    between atoms: C14_23  and  C15_24 
REMARK   11  A    between atoms: C15_24  and  C16_25 
ROOT
HETATM    1  C8  UNL     1      -7.893  29.919 -11.531  1.00  0.00     0.162 A 
HETATM    2  N3  UNL     1      -6.918  30.236 -10.536  1.00  0.00    -0.099 NA
HETATM    3  N4  UNL     1      -6.113  29.162 -10.857  1.00  0.00    -0.050 NA
HETATM    4  N5  UNL     1      -6.945  28.910 -11.930  1.00  0.00    -0.163 NA
HETATM    5  C9  UNL     1      -6.403  29.274 -13.224  1.00  0.00     0.195 A 
HETATM    6  N6  UNL     1      -6.498  28.216 -14.066  1.00  0.00    -0.360 N 
ATOM      7  H6  UNL     1      -6.046  27.337 -13.815  1.00  0.00     0.162 HD
HETATM    8  C10 UNL     1      -7.134  28.293 -15.154  1.00  0.00     0.105 A 
HETATM    9  S2  UNL     1      -7.776  29.960 -15.248  1.00  0.00    -0.094 SA
HETATM   10  C18 UNL     1      -7.031  30.515 -13.691  1.00  0.00     0.136 A 
HETATM   11  C19 UNL     1      -8.019  30.911 -12.664  1.00  0.00     0.154 A 
HETATM   12  C20 UNL     1      -9.418  31.086 -13.152  1.00  0.00     0.057 C 
HETATM   13  F1  UNL     1      -7.614  32.147 -12.141  1.00  0.00    -0.238 F 
ENDROOT
BRANCH   8  14
HETATM   14  S1  UNL     1      -7.251  26.906 -16.242  1.00  0.00    -0.105 SA
BRANCH  14  15
HETATM   15  C11 UNL     1      -5.861  25.848 -16.233  1.00  0.00     0.081 C 
BRANCH  15  16
HETATM   16  C12 UNL     1      -5.072  25.935 -17.522  1.00  0.00     0.010 C 
BRANCH  16  17
HETATM   17  C13 UNL     1      -5.768  26.464 -18.706  1.00  0.00     0.001 C 
BRANCH  17  18
HETATM   18  C14 UNL     1      -6.081  25.548 -19.830  1.00  0.00     0.006 C 
BRANCH  18  19
HETATM   19  C15 UNL     1      -7.362  24.875 -19.957  1.00  0.00     0.060 C 
BRANCH  19  20
HETATM   20  C16 UNL     1      -7.900  24.052 -18.900  1.00  0.00     0.044 A 
HETATM   21  C17 UNL     1      -9.123  24.216 -18.236  1.00  0.00     0.135 A 
HETATM   22  N7  UNL     1      -9.203  23.234 -17.346  1.00  0.00    -0.296 N 
HETATM   23  N8  UNL     1      -8.132  22.468 -17.395  1.00  0.00    -0.243 N 
ATOM     24  H7  UNL     1      -9.987  23.092 -16.710  1.00  0.00     0.187 HD
HETATM   25  N9  UNL     1      -7.347  22.954 -18.327  1.00  0.00    -0.289 N 
ATOM     26  H8  UNL     1      -7.947  21.649 -16.816  1.00  0.00     0.208 HD
ATOM     27  H9  UNL     1      -6.443  22.559 -18.586  1.00  0.00     0.188 HD
ENDBRANCH  19  20
ENDBRANCH  18  19
ENDBRANCH  17  18
ENDBRANCH  16  17
ENDBRANCH  15  16
ENDBRANCH  14  15
ENDBRANCH   8  14
BRANCH   1  28
HETATM   28  C7  UNL     1      -9.207  29.380 -11.059  1.00  0.00     0.108 C 
BRANCH  28  29
HETATM   29  C6  UNL     1      -9.292  27.920 -11.373  1.00  0.00     0.033 A 
HETATM   30  N1  UNL     1      -9.105  26.911 -10.519  1.00  0.00    -0.297 N 
HETATM   31  N2  UNL     1      -9.236  25.782 -11.209  1.00  0.00    -0.310 N 
HETATM   32  C4  UNL     1      -9.505  26.019 -12.490  1.00  0.00     0.109 A 
ATOM     33  H2  UNL     1      -9.143  24.850 -10.806  1.00  0.00     0.186 HD
HETATM   34  C5  UNL     1      -9.546  27.384 -12.623  1.00  0.00     0.045 A 
BRANCH  30  35
HETATM   35  C3  UNL     1      -8.841  26.916  -9.091  1.00  0.00     0.148 C 
BRANCH  35  36
HETATM   36  C2  UNL     1      -9.302  25.570  -8.519  1.00  0.00     0.017 C 
HETATM   37  C1  UNL     1      -8.513  25.302  -7.236  1.00  0.00     0.007 C 
ENDBRANCH  35  36
ENDBRANCH  30  35
ENDBRANCH  28  29
ENDBRANCH   1  28
TORSDOF 11
ENDMDL
MODEL 3
REMARK VINA RESULT: -7.831990529      2.596      3.771
REMARK  11 active torsions:
REMARK  status: ('A' for Active; 'I' for Inactive)
REMARK    1  A    between atoms: C2_2  and  C3_3 
REMARK    2  A    between atoms: C3_3  and  N1_4 
REMARK    3  A    between atoms: C6_9  and  C7_10 
REMARK    4  A    between atoms: C7_10  and  C8_11 
REMARK    5  A    between atoms: C10_18  and  S1_19 
REMARK    6  A    between atoms: S1_19  and  C11_20 
REMARK    7  A    between atoms: C11_20  and  C12_21 
REMARK    8  A    between atoms: C12_21  and  C13_22 
REMARK    9  A    between atoms: C13_22  and  C14_23 
REMARK   10  A    between atoms: C14_23  and  C15_24 
REMARK   11  A    between atoms: C15_24  and  C16_25 
ROOT
HETATM    1  C8  UNL     1      -7.897  31.636 -13.807  1.00  0.00     0.162 A 
HETATM    2  N3  UNL     1      -7.668  31.571 -15.216  1.00  0.00    -0.099 NA
HETATM    3  N4  UNL     1      -7.964  30.226 -15.292  1.00  0.00    -0.050 NA
HETATM    4  N5  UNL     1      -8.347  30.275 -13.966  1.00  0.00    -0.163 NA
HETATM    5  C9  UNL     1      -9.778  30.235 -13.739  1.00  0.00     0.195 A 
HETATM    6  N6  UNL     1     -10.065  29.260 -12.843  1.00  0.00    -0.360 N 
ATOM      7  H6  UNL     1      -9.791  28.299 -13.048  1.00  0.00     0.162 HD
HETATM    8  C10 UNL     1     -10.663  29.512 -11.761  1.00  0.00     0.105 A 
HETATM    9  S2  UNL     1     -10.979  31.273 -11.757  1.00  0.00    -0.094 SA
HETATM   10  C18 UNL     1     -10.261  31.577 -13.394  1.00  0.00     0.136 A 
HETATM   11  C19 UNL     1      -9.081  32.468 -13.372  1.00  0.00     0.154 A 
HETATM   12  C20 UNL     1      -8.856  33.206 -12.096  1.00  0.00     0.057 C 
HETATM   13  F1  UNL     1      -9.261  33.433 -14.374  1.00  0.00    -0.238 F 
ENDROOT
BRANCH   8  14
HETATM   14  S1  UNL     1     -11.031  28.231 -10.601  1.00  0.00    -0.105 SA
BRANCH  14  15
HETATM   15  C11 UNL     1     -11.027  26.615 -11.268  1.00  0.00     0.081 C 
BRANCH  15  16
HETATM   16  C12 UNL     1      -9.634  26.027 -11.321  1.00  0.00     0.010 C 
BRANCH  16  17
HETATM   17  C13 UNL     1      -8.897  26.146 -12.590  1.00  0.00     0.001 C 
BRANCH  17  18
HETATM   18  C14 UNL     1      -9.269  25.269 -13.727  1.00  0.00     0.006 C 
BRANCH  18  19
HETATM   19  C15 UNL     1      -8.584  25.316 -15.006  1.00  0.00     0.060 C 
BRANCH  19  20
HETATM   20  C16 UNL     1      -8.927  24.426 -16.090  1.00  0.00     0.044 A 
HETATM   21  C17 UNL     1      -9.142  24.766 -17.432  1.00  0.00     0.135 A 
HETATM   22  N7  UNL     1      -9.431  23.635 -18.065  1.00  0.00    -0.296 N 
HETATM   23  N8  UNL     1      -9.418  22.613 -17.232  1.00  0.00    -0.243 N 
ATOM     24  H7  UNL     1      -9.637  23.566 -19.062  1.00  0.00     0.187 HD
HETATM   25  N9  UNL     1      -9.115  23.082 -16.045  1.00  0.00    -0.289 N 
ATOM     26  H8  UNL     1      -9.608  21.639 -17.467  1.00  0.00     0.208 HD
ATOM     27  H9  UNL     1      -9.032  22.514 -15.203  1.00  0.00     0.188 HD
ENDBRANCH  19  20
ENDBRANCH  18  19
ENDBRANCH  17  18
ENDBRANCH  16  17
ENDBRANCH  15  16
ENDBRANCH  14  15
ENDBRANCH   8  14
BRANCH   1  28
HETATM   28  C7  UNL     1      -6.700  31.790 -12.922  1.00  0.00     0.108 C 
BRANCH  28  29
HETATM   29  C6  UNL     1      -6.586  30.602 -12.022  1.00  0.00     0.033 A 
HETATM   30  N1  UNL     1      -5.850  29.509 -12.237  1.00  0.00    -0.297 N 
HETATM   31  N2  UNL     1      -6.058  28.686 -11.213  1.00  0.00    -0.310 N 
HETATM   32  C4  UNL     1      -6.907  29.206 -10.331  1.00  0.00     0.109 A 
ATOM     33  H2  UNL     1      -5.621  27.770 -11.116  1.00  0.00     0.186 HD
HETATM   34  C5  UNL     1      -7.261  30.436 -10.826  1.00  0.00     0.045 A 
BRANCH  30  35
HETATM   35  C3  UNL     1      -4.936  29.180 -13.317  1.00  0.00     0.148 C 
BRANCH  35  36
HETATM   36  C2  UNL     1      -3.545  28.961 -12.711  1.00  0.00     0.017 C 
HETATM   37  C1  UNL     1      -2.869  30.326 -12.563  1.00  0.00     0.007 C 
ENDBRANCH  35  36
ENDBRANCH  30  35
ENDBRANCH  28  29
ENDBRANCH   1  28
TORSDOF 11
ENDMDL
MODEL 4
REMARK VINA RESULT: -7.777217360      2.926      4.814
REMARK  11 active torsions:
REMARK  status: ('A' for Active; 'I' for Inactive)
REMARK    1  A    between atoms: C2_2  and  C3_3 
REMARK    2  A    between atoms: C3_3  and  N1_4 
REMARK    3  A    between atoms: C6_9  and  C7_10 
REMARK    4  A    between atoms: C7_10  and  C8_11 
REMARK    5  A    between atoms: C10_18  and  S1_19 
REMARK    6  A    between atoms: S1_19  and  C11_20 
REMARK    7  A    between atoms: C11_20  and  C12_21 
REMARK    8  A    between atoms: C12_21  and  C13_22 
REMARK    9  A    between atoms: C13_22  and  C14_23 
REMARK   10  A    between atoms: C14_23  and  C15_24 
REMARK   11  A    between atoms: C15_24  and  C16_25 
ROOT
HETATM    1  C8  UNL     1      -3.509  30.635 -10.520  1.00  0.00     0.162 A 
HETATM    2  N3  UNL     1      -2.582  29.645 -10.071  1.00  0.00    -0.099 NA
HETATM    3  N4  UNL     1      -3.567  28.830  -9.552  1.00  0.00    -0.050 NA
HETATM    4  N5  UNL     1      -4.505  29.680 -10.104  1.00  0.00    -0.163 NA
HETATM    5  C9  UNL     1      -5.174  29.170 -11.285  1.00  0.00     0.195 A 
HETATM    6  N6  UNL     1      -6.515  29.266 -11.120  1.00  0.00    -0.360 N 
ATOM      7  H6  UNL     1      -6.955  28.795 -10.329  1.00  0.00     0.162 HD
HETATM    8  C10 UNL     1      -7.234  29.924 -11.922  1.00  0.00     0.105 A 
HETATM    9  S2  UNL     1      -6.129  30.593 -13.159  1.00  0.00    -0.094 SA
HETATM   10  C18 UNL     1      -4.633  29.826 -12.481  1.00  0.00     0.136 A 
HETATM   11  C19 UNL     1      -3.620  30.799 -12.018  1.00  0.00     0.154 A 
HETATM   12  C20 UNL     1      -3.840  32.210 -12.450  1.00  0.00     0.057 C 
HETATM   13  F1  UNL     1      -2.381  30.402 -12.541  1.00  0.00    -0.238 F 
ENDROOT
BRANCH   8  14
HETATM   14  S1  UNL     1      -8.982  30.042 -11.695  1.00  0.00    -0.105 SA
BRANCH  14  15
HETATM   15  C11 UNL     1      -9.903  28.735 -12.401  1.00  0.00     0.081 C 
BRANCH  15  16
HETATM   16  C12 UNL     1      -9.009  27.686 -13.028  1.00  0.00     0.010 C 
BRANCH  16  17
HETATM   17  C13 UNL     1      -9.205  26.290 -12.606  1.00  0.00     0.001 C 
BRANCH  17  18
HETATM   18  C14 UNL     1      -9.198  25.217 -13.630  1.00  0.00     0.006 C 
BRANCH  18  19
HETATM   19  C15 UNL     1      -8.668  25.416 -14.967  1.00  0.00     0.060 C 
BRANCH  19  20
HETATM   20  C16 UNL     1      -8.942  24.493 -16.043  1.00  0.00     0.044 A 
HETATM   21  C17 UNL     1      -8.979  24.776 -17.415  1.00  0.00     0.135 A 
HETATM   22  N7  UNL     1      -9.268  23.634 -18.027  1.00  0.00    -0.296 N 
HETATM   23  N8  UNL     1      -9.417  22.658 -17.154  1.00  0.00    -0.243 N 
ATOM     24  H7  UNL     1      -9.362  23.526 -19.037  1.00  0.00     0.187 HD
HETATM   25  N9  UNL     1      -9.222  23.168 -15.962  1.00  0.00    -0.289 N 
ATOM     26  H8  UNL     1      -9.643  21.686 -17.366  1.00  0.00     0.208 HD
ATOM     27  H9  UNL     1      -9.274  22.640 -15.091  1.00  0.00     0.188 HD
ENDBRANCH  19  20
ENDBRANCH  18  19
ENDBRANCH  17  18
ENDBRANCH  16  17
ENDBRANCH  15  16
ENDBRANCH  14  15
ENDBRANCH   8  14
BRANCH   1  28
HETATM   28  C7  UNL     1      -3.547  31.931  -9.772  1.00  0.00     0.108 C 
BRANCH  28  29
HETATM   29  C6  UNL     1      -2.196  32.221  -9.202  1.00  0.00     0.033 A 
HETATM   30  N1  UNL     1      -1.813  32.050  -7.934  1.00  0.00    -0.297 N 
HETATM   31  N2  UNL     1      -0.552  32.461  -7.845  1.00  0.00    -0.310 N 
HETATM   32  C4  UNL     1      -0.094  32.895  -9.016  1.00  0.00     0.109 A 
ATOM     33  H2  UNL     1      -0.004  32.444  -6.985  1.00  0.00     0.186 HD
HETATM   34  C5  UNL     1      -1.129  32.752  -9.905  1.00  0.00     0.045 A 
BRANCH  30  35
HETATM   35  C3  UNL     1      -2.529  31.500  -6.796  1.00  0.00     0.148 C 
BRANCH  35  36
HETATM   36  C2  UNL     1      -2.950  32.665  -5.893  1.00  0.00     0.017 C 
HETATM   37  C1  UNL     1      -4.327  32.343  -5.309  1.00  0.00     0.007 C 
ENDBRANCH  35  36
ENDBRANCH  30  35
ENDBRANCH  28  29
ENDBRANCH   1  28
TORSDOF 11
ENDMDL
MODEL 5
REMARK VINA RESULT: -7.769371013      1.401      2.081
REMARK  11 active torsions:
REMARK  status: ('A' for Active; 'I' for Inactive)
REMARK    1  A    between atoms: C2_2  and  C3_3 
REMARK    2  A    between atoms: C3_3  and  N1_4 
REMARK    3  A    between atoms: C6_9  and  C7_10 
REMARK    4  A    between atoms: C7_10  and  C8_11 
REMARK    5  A    between atoms: C10_18  and  S1_19 
REMARK    6  A    between atoms: S1_19  and  C11_20 
REMARK    7  A    between atoms: C11_20  and  C12_21 
REMARK    8  A    between atoms: C12_21  and  C13_22 
REMARK    9  A    between atoms: C13_22  and  C14_23 
REMARK   10  A    between atoms: C14_23  and  C15_24 
REMARK   11  A    between atoms: C15_24  and  C16_25 
ROOT
HETATM    1  C8  UNL     1      -6.351  30.108 -11.863  1.00  0.00     0.162 A 
HETATM    2  N3  UNL     1      -6.215  31.518 -12.047  1.00  0.00    -0.099 NA
HETATM    3  N4  UNL     1      -5.884  31.401 -13.382  1.00  0.00    -0.050 NA
HETATM    4  N5  UNL     1      -6.157  30.051 -13.290  1.00  0.00    -0.163 NA
HETATM    5  C9  UNL     1      -7.401  29.634 -13.907  1.00  0.00     0.195 A 
HETATM    6  N6  UNL     1      -7.161  28.603 -14.753  1.00  0.00    -0.360 N 
ATOM      7  H6  UNL     1      -6.502  28.732 -15.521  1.00  0.00     0.162 HD
HETATM    8  C10 UNL     1      -7.733  27.487 -14.614  1.00  0.00     0.105 A 
HETATM    9  S2  UNL     1      -8.800  27.641 -13.185  1.00  0.00    -0.094 SA
HETATM   10  C18 UNL     1      -8.407  29.382 -12.869  1.00  0.00     0.136 A 
HETATM   11  C19 UNL     1      -7.749  29.618 -11.565  1.00  0.00     0.154 A 
HETATM   12  C20 UNL     1      -7.791  28.474 -10.608  1.00  0.00     0.057 C 
HETATM   13  F1  UNL     1      -8.409  30.690 -10.947  1.00  0.00    -0.238 F 
ENDROOT
BRANCH   8  14
HETATM   14  S1  UNL     1      -7.411  26.150 -15.723  1.00  0.00    -0.105 SA
BRANCH  14  15
HETATM   15  C11 UNL     1      -5.726  25.925 -16.129  1.00  0.00     0.081 C 
BRANCH  15  16
HETATM   16  C12 UNL     1      -5.388  26.502 -17.487  1.00  0.00     0.010 C 
BRANCH  16  17
HETATM   17  C13 UNL     1      -6.499  26.714 -18.428  1.00  0.00     0.001 C 
BRANCH  17  18
HETATM   18  C14 UNL     1      -6.488  26.008 -19.732  1.00  0.00     0.006 C 
BRANCH  18  19
HETATM   19  C15 UNL     1      -7.351  24.875 -20.014  1.00  0.00     0.060 C 
BRANCH  19  20
HETATM   20  C16 UNL     1      -7.908  24.058 -18.963  1.00  0.00     0.044 A 
HETATM   21  C17 UNL     1      -9.185  24.158 -18.397  1.00  0.00     0.135 A 
HETATM   22  N7  UNL     1      -9.262  23.209 -17.470  1.00  0.00    -0.296 N 
HETATM   23  N8  UNL     1      -8.138  22.523 -17.406  1.00  0.00    -0.243 N 
ATOM     24  H7  UNL     1     -10.080  23.036 -16.886  1.00  0.00     0.187 HD
HETATM   25  N9  UNL     1      -7.322  23.028 -18.301  1.00  0.00    -0.289 N 
ATOM     26  H8  UNL     1      -7.940  21.745 -16.778  1.00  0.00     0.208 HD
ATOM     27  H9  UNL     1      -6.375  22.692 -18.475  1.00  0.00     0.188 HD
ENDBRANCH  19  20
ENDBRANCH  18  19
ENDBRANCH  17  18
ENDBRANCH  16  17
ENDBRANCH  15  16
ENDBRANCH  14  15
ENDBRANCH   8  14
BRANCH   1  28
HETATM   28  C7  UNL     1      -5.292  29.412 -11.068  1.00  0.00     0.108 C 
BRANCH  28  29
HETATM   29  C6  UNL     1      -4.228  30.391 -10.685  1.00  0.00     0.033 A 
HETATM   30  N1  UNL     1      -3.067  30.590 -11.313  1.00  0.00    -0.297 N 
HETATM   31  N2  UNL     1      -2.404  31.518 -10.630  1.00  0.00    -0.310 N 
HETATM   32  C4  UNL     1      -3.094  31.935  -9.572  1.00  0.00     0.109 A 
ATOM     33  H2  UNL     1      -1.480  31.867 -10.886  1.00  0.00     0.186 HD
HETATM   34  C5  UNL     1      -4.270  31.228  -9.584  1.00  0.00     0.045 A 
BRANCH  30  35
HETATM   35  C3  UNL     1      -2.536  30.001 -12.530  1.00  0.00     0.148 C 
BRANCH  35  36
HETATM   36  C2  UNL     1      -1.391  29.059 -12.140  1.00  0.00     0.017 C 
HETATM   37  C1  UNL     1      -1.994  27.704 -11.764  1.00  0.00     0.007 C 
ENDBRANCH  35  36
ENDBRANCH  30  35
ENDBRANCH  28  29
ENDBRANCH   1  28
TORSDOF 11
ENDMDL
