MODEL 1
REMARK VINA RESULT: -7.184683131      0.000      0.000
REMARK  13 active torsions:
REMARK  status: ('A' for Active; 'I' for Inactive)
REMARK    1  A    between atoms: C2_2  and  O1_4 
REMARK    2  A    between atoms: O1_4  and  C4_5 
REMARK    3  A    between atoms: C4_5  and  C5_7 
REMARK    4  A    between atoms: C6_12  and  N3_13 
REMARK    5  A    between atoms: N4_15  and  C7_17 
REMARK    6  A    between atoms: C7_17  and  C8_18 
REMARK    7  A    between atoms: C8_18  and  C9_19 
REMARK    8  A    between atoms: C9_19  and  C10_20 
REMARK    9  A    between atoms: C11_21  and  C12_22 
REMARK   10  A    between atoms: C12_22  and  C13_24 
REMARK   11  A    between atoms: C14_29  and  C15_30 
REMARK   12  A    between atoms: C16_32  and  O6_33 
REMARK   13  A    between atoms: C17_35  and  C18_36 
ROOT
HETATM    1  C5  UNL     1     -16.063  -7.761  10.979  1.00  0.00     0.138 A 
HETATM    2  N1  UNL     1     -14.798  -7.217  10.996  1.00  0.00    -0.293 N 
ATOM      3  H1  UNL     1     -14.404  -6.954  11.899  1.00  0.00     0.187 HD
HETATM    4  N2  UNL     1     -14.077  -7.018   9.942  1.00  0.00    -0.281 N 
ATOM      5  H2  UNL     1     -13.148  -6.610  10.035  1.00  0.00     0.188 HD
HETATM    6  C6  UNL     1     -14.553  -7.352   8.700  1.00  0.00     0.169 A 
HETATM    7  C16 UNL     1     -15.801  -7.901   8.568  1.00  0.00     0.126 A 
HETATM    8  C17 UNL     1     -16.555  -8.100   9.747  1.00  0.00     0.050 A 
ENDROOT
BRANCH   6   9
HETATM    9  N3  UNL     1     -13.789  -7.121   7.739  1.00  0.00    -0.282 N 
HETATM   10  N4  UNL     1     -13.242  -7.599   6.686  1.00  0.00    -0.310 N 
ATOM     11  H4  UNL     1     -13.976  -8.033   6.125  1.00  0.00     0.186 HD
ATOM     12  H3  UNL     1     -13.472  -6.157   7.832  1.00  0.00     0.188 HD
BRANCH  10  13
HETATM   13  C7  UNL     1     -12.175  -7.739   6.083  1.00  0.00     0.107 C 
BRANCH  13  14
HETATM   14  C8  UNL     1     -10.916  -8.274   6.611  1.00  0.00     0.020 C 
BRANCH  14  15
HETATM   15  C9  UNL     1     -10.285  -7.727   7.589  1.00  0.00     0.018 C 
BRANCH  15  16
HETATM   16  C10 UNL     1      -9.622  -8.435   8.666  1.00  0.00     0.035 A 
HETATM   17  C11 UNL     1     -10.147  -9.158   9.691  1.00  0.00     0.115 A 
HETATM   18  N5  UNL     1      -9.032  -9.751  10.266  1.00  0.00    -0.256 N 
HETATM   19  O4  UNL     1      -7.974  -9.420   9.666  1.00  0.00    -0.233 OA
ATOM     20  H5  UNL     1      -9.065 -10.376  11.071  1.00  0.00     0.195 HD
HETATM   21  C14 UNL     1      -8.202  -8.616   8.669  1.00  0.00     0.148 A 
BRANCH  17  22
HETATM   22  C12 UNL     1     -11.484  -9.300  10.220  1.00  0.00     0.192 C 
HETATM   23  O3  UNL     1     -11.967  -8.659  11.183  1.00  0.00    -0.289 OA
BRANCH  22  24
HETATM   24  C13 UNL     1     -12.448 -10.284   9.623  1.00  0.00     0.200 C 
HETATM   25 CL1  UNL     1     -11.790 -11.878   9.472  1.00  0.00    -0.122 Cl
ENDBRANCH  22  24
ENDBRANCH  17  22
BRANCH  21  26
HETATM   26  C15 UNL     1      -7.274  -8.016   7.746  1.00  0.00     0.298 C 
HETATM   27  O5  UNL     1      -6.977  -8.388   6.600  1.00  0.00    -0.299 OA
ENDBRANCH  21  26
ENDBRANCH  15  16
ENDBRANCH  14  15
ENDBRANCH  13  14
ENDBRANCH  10  13
ENDBRANCH   6   9
BRANCH   7  28
HETATM   28  O6  UNL     1     -16.343  -8.259   7.358  1.00  0.00    -0.356 OA
ATOM     29  H6  UNL     1     -17.278  -8.280   7.190  1.00  0.00     0.218 HD
ENDBRANCH   7  28
BRANCH   8  30
HETATM   30  C18 UNL     1     -17.869  -8.676   9.595  1.00  0.00     0.097 C 
HETATM   31  N6  UNL     1     -18.137  -9.868   9.434  1.00  0.00    -0.407 N 
ATOM     32  H62 UNL     1     -17.336 -10.499   9.408  1.00  0.00     0.155 HD
ATOM     33  H61 UNL     1     -19.066 -10.275   9.326  1.00  0.00     0.155 HD
ENDBRANCH   8  30
BRANCH   1  34
HETATM   34  C4  UNL     1     -16.760  -7.930  12.217  1.00  0.00     0.312 C 
HETATM   35  O2  UNL     1     -16.334  -7.229  13.219  1.00  0.00    -0.258 OA
BRANCH  34  36
HETATM   36  O1  UNL     1     -17.812  -8.720  12.515  1.00  0.00    -0.312 OA
BRANCH  36  37
HETATM   37  C2  UNL     1     -18.925  -8.429  13.297  1.00  0.00     0.124 C 
HETATM   38  C1  UNL     1     -20.131  -9.106  12.690  1.00  0.00     0.040 C 
HETATM   39  C3  UNL     1     -18.800  -8.932  14.718  1.00  0.00     0.040 C 
ENDBRANCH  36  37
ENDBRANCH  34  36
ENDBRANCH   1  34
TORSDOF 13
ENDMDL
MODEL 2
REMARK VINA RESULT: -7.141286167      4.013      5.481
REMARK  13 active torsions:
REMARK  status: ('A' for Active; 'I' for Inactive)
REMARK    1  A    between atoms: C2_2  and  O1_4 
REMARK    2  A    between atoms: O1_4  and  C4_5 
REMARK    3  A    between atoms: C4_5  and  C5_7 
REMARK    4  A    between atoms: C6_12  and  N3_13 
REMARK    5  A    between atoms: N4_15  and  C7_17 
REMARK    6  A    between atoms: C7_17  and  C8_18 
REMARK    7  A    between atoms: C8_18  and  C9_19 
REMARK    8  A    between atoms: C9_19  and  C10_20 
REMARK    9  A    between atoms: C11_21  and  C12_22 
REMARK   10  A    between atoms: C12_22  and  C13_24 
REMARK   11  A    between atoms: C14_29  and  C15_30 
REMARK   12  A    between atoms: C16_32  and  O6_33 
REMARK   13  A    between atoms: C17_35  and  C18_36 
ROOT
HETATM    1  C5  UNL     1     -15.758  -9.193  10.616  1.00  0.00     0.138 A 
HETATM    2  N1  UNL     1     -14.454  -9.523  10.913  1.00  0.00    -0.293 N 
ATOM      3  H1  UNL     1     -14.111  -9.314  11.850  1.00  0.00     0.187 HD
HETATM    4  N2  UNL     1     -13.637 -10.080  10.081  1.00  0.00    -0.281 N 
ATOM      5  H2  UNL     1     -12.685 -10.295  10.375  1.00  0.00     0.188 HD
HETATM    6  C6  UNL     1     -14.041 -10.385   8.806  1.00  0.00     0.169 A 
HETATM    7  C16 UNL     1     -15.319 -10.098   8.405  1.00  0.00     0.126 A 
HETATM    8  C17 UNL     1     -16.179  -9.489   9.347  1.00  0.00     0.050 A 
ENDROOT
BRANCH   6   9
HETATM    9  N3  UNL     1     -13.184 -10.918   8.071  1.00  0.00    -0.282 N 
HETATM   10  N4  UNL     1     -12.977 -11.748   7.120  1.00  0.00    -0.310 N 
ATOM     11  H4  UNL     1     -13.626 -11.524   6.366  1.00  0.00     0.186 HD
ATOM     12  H3  UNL     1     -12.278 -10.534   8.338  1.00  0.00     0.188 HD
BRANCH  10  13
HETATM   13  C7  UNL     1     -12.299 -12.714   6.758  1.00  0.00     0.107 C 
BRANCH  13  14
HETATM   14  C8  UNL     1     -11.466 -12.818   5.557  1.00  0.00     0.020 C 
BRANCH  14  15
HETATM   15  C9  UNL     1     -11.943 -13.138   4.406  1.00  0.00     0.018 C 
BRANCH  15  16
HETATM   16  C10 UNL     1     -12.549 -12.221   3.461  1.00  0.00     0.035 A 
HETATM   17  C11 UNL     1     -12.239 -10.929   3.175  1.00  0.00     0.115 A 
HETATM   18  N5  UNL     1     -13.021 -10.653   2.061  1.00  0.00    -0.256 N 
HETATM   19  O4  UNL     1     -13.716 -11.651   1.729  1.00  0.00    -0.233 OA
ATOM     20  H5  UNL     1     -13.032  -9.756   1.575  1.00  0.00     0.195 HD
HETATM   21  C14 UNL     1     -13.517 -12.673   2.508  1.00  0.00     0.148 A 
BRANCH  17  22
HETATM   22  C12 UNL     1     -11.402  -9.944   3.820  1.00  0.00     0.192 C 
HETATM   23  O3  UNL     1     -10.167  -9.804   3.655  1.00  0.00    -0.289 OA
BRANCH  22  24
HETATM   24  C13 UNL     1     -11.981  -8.960   4.795  1.00  0.00     0.200 C 
HETATM   25 CL1  UNL     1     -13.706  -9.058   4.920  1.00  0.00    -0.122 Cl
ENDBRANCH  22  24
ENDBRANCH  17  22
BRANCH  21  26
HETATM   26  C15 UNL     1     -14.110 -13.985   2.467  1.00  0.00     0.298 C 
HETATM   27  O5  UNL     1     -14.875 -14.457   1.610  1.00  0.00    -0.299 OA
ENDBRANCH  21  26
ENDBRANCH  15  16
ENDBRANCH  14  15
ENDBRANCH  13  14
ENDBRANCH  10  13
ENDBRANCH   6   9
BRANCH   7  28
HETATM   28  O6  UNL     1     -15.794 -10.374   7.146  1.00  0.00    -0.356 OA
ATOM     29  H6  UNL     1     -16.223 -11.191   6.917  1.00  0.00     0.218 HD
ENDBRANCH   7  28
BRANCH   8  30
HETATM   30  C18 UNL     1     -17.522  -9.190   8.911  1.00  0.00     0.097 C 
HETATM   31  N6  UNL     1     -17.847  -8.560   7.904  1.00  0.00    -0.407 N 
ATOM     32  H62 UNL     1     -17.074  -8.222   7.329  1.00  0.00     0.155 HD
ATOM     33  H61 UNL     1     -18.796  -8.349   7.596  1.00  0.00     0.155 HD
ENDBRANCH   8  30
BRANCH   1  34
HETATM   34  C4  UNL     1     -16.563  -8.577  11.626  1.00  0.00     0.312 C 
HETATM   35  O2  UNL     1     -16.397  -7.305  11.799  1.00  0.00    -0.258 OA
BRANCH  34  36
HETATM   36  O1  UNL     1     -17.485  -9.121  12.446  1.00  0.00    -0.312 OA
BRANCH  36  37
HETATM   37  C2  UNL     1     -18.576  -8.511  13.057  1.00  0.00     0.124 C 
HETATM   38  C1  UNL     1     -19.839  -9.012  12.400  1.00  0.00     0.040 C 
HETATM   39  C3  UNL     1     -18.684  -8.829  14.531  1.00  0.00     0.040 C 
ENDBRANCH  36  37
ENDBRANCH  34  36
ENDBRANCH   1  34
TORSDOF 13
ENDMDL
MODEL 3
REMARK VINA RESULT: -7.042014243      2.682      4.511
REMARK  13 active torsions:
REMARK  status: ('A' for Active; 'I' for Inactive)
REMARK    1  A    between atoms: C2_2  and  O1_4 
REMARK    2  A    between atoms: O1_4  and  C4_5 
REMARK    3  A    between atoms: C4_5  and  C5_7 
REMARK    4  A    between atoms: C6_12  and  N3_13 
REMARK    5  A    between atoms: N4_15  and  C7_17 
REMARK    6  A    between atoms: C7_17  and  C8_18 
REMARK    7  A    between atoms: C8_18  and  C9_19 
REMARK    8  A    between atoms: C9_19  and  C10_20 
REMARK    9  A    between atoms: C11_21  and  C12_22 
REMARK   10  A    between atoms: C12_22  and  C13_24 
REMARK   11  A    between atoms: C14_29  and  C15_30 
REMARK   12  A    between atoms: C16_32  and  O6_33 
REMARK   13  A    between atoms: C17_35  and  C18_36 
ROOT
HETATM    1  C5  UNL     1     -19.124  -9.260  11.259  1.00  0.00     0.138 A 
HETATM    2  N1  UNL     1     -18.207  -9.141  10.239  1.00  0.00    -0.293 N 
ATOM      3  H1  UNL     1     -18.442  -9.555   9.336  1.00  0.00     0.187 HD
HETATM    4  N2  UNL     1     -17.069  -8.539  10.349  1.00  0.00    -0.281 N 
ATOM      5  H2  UNL     1     -16.442  -8.492   9.546  1.00  0.00     0.188 HD
HETATM    6  C6  UNL     1     -16.699  -7.962  11.537  1.00  0.00     0.169 A 
HETATM    7  C16 UNL     1     -17.536  -8.022  12.619  1.00  0.00     0.126 A 
HETATM    8  C17 UNL     1     -18.771  -8.691  12.454  1.00  0.00     0.050 A 
ENDROOT
BRANCH   6   9
HETATM    9  N3  UNL     1     -15.581  -7.406  11.552  1.00  0.00    -0.282 N 
HETATM   10  N4  UNL     1     -14.500  -7.188  10.904  1.00  0.00    -0.310 N 
ATOM     11  H4  UNL     1     -14.757  -6.862   9.972  1.00  0.00     0.186 HD
ATOM     12  H3  UNL     1     -15.494  -6.930  12.450  1.00  0.00     0.188 HD
BRANCH  10  13
HETATM   13  C7  UNL     1     -13.267  -7.218  10.965  1.00  0.00     0.107 C 
BRANCH  13  14
HETATM   14  C8  UNL     1     -12.383  -8.331  10.606  1.00  0.00     0.020 C 
BRANCH  14  15
HETATM   15  C9  UNL     1     -12.407  -8.892   9.449  1.00  0.00     0.018 C 
BRANCH  15  16
HETATM   16  C10 UNL     1     -12.351  -8.201   8.176  1.00  0.00     0.035 A 
HETATM   17  C11 UNL     1     -13.351  -7.665   7.427  1.00  0.00     0.115 A 
HETATM   18  N5  UNL     1     -12.669  -6.973   6.435  1.00  0.00    -0.256 N 
HETATM   19  O4  UNL     1     -11.421  -7.086   6.570  1.00  0.00    -0.233 OA
ATOM     20  H5  UNL     1     -13.122  -6.440   5.692  1.00  0.00     0.195 HD
HETATM   21  C14 UNL     1     -11.099  -7.815   7.598  1.00  0.00     0.148 A 
BRANCH  17  22
HETATM   22  C12 UNL     1     -14.791  -7.772   7.474  1.00  0.00     0.192 C 
HETATM   23  O3  UNL     1     -15.559  -7.074   8.177  1.00  0.00    -0.289 OA
BRANCH  22  24
HETATM   24  C13 UNL     1     -15.516  -8.787   6.638  1.00  0.00     0.200 C 
HETATM   25 CL1  UNL     1     -15.567  -8.376   4.957  1.00  0.00    -0.122 Cl
ENDBRANCH  22  24
ENDBRANCH  17  22
BRANCH  21  26
HETATM   26  C15 UNL     1      -9.796  -8.182   8.088  1.00  0.00     0.298 C 
HETATM   27  O5  UNL     1      -8.725  -8.239   7.462  1.00  0.00    -0.299 OA
ENDBRANCH  21  26
ENDBRANCH  15  16
ENDBRANCH  14  15
ENDBRANCH  13  14
ENDBRANCH  10  13
ENDBRANCH   6   9
BRANCH   7  28
HETATM   28  O6  UNL     1     -17.233  -7.468  13.839  1.00  0.00    -0.356 OA
ATOM     29  H6  UNL     1     -17.890  -7.138  14.440  1.00  0.00     0.218 HD
ENDBRANCH   7  28
BRANCH   8  30
HETATM   30  C18 UNL     1     -19.643  -8.749  13.602  1.00  0.00     0.097 C 
HETATM   31  N6  UNL     1     -19.344  -9.125  14.736  1.00  0.00    -0.407 N 
ATOM     32  H62 UNL     1     -18.376  -9.423  14.860  1.00  0.00     0.155 HD
ATOM     33  H61 UNL     1     -19.961  -9.167  15.547  1.00  0.00     0.155 HD
ENDBRANCH   8  30
BRANCH   1  34
HETATM   34  C4  UNL     1     -20.351  -9.953  11.010  1.00  0.00     0.312 C 
HETATM   35  O2  UNL     1     -20.682 -10.110   9.769  1.00  0.00    -0.258 OA
BRANCH  34  36
HETATM   36  O1  UNL     1     -21.237 -10.479  11.880  1.00  0.00    -0.312 OA
BRANCH  36  37
HETATM   37  C2  UNL     1     -22.478 -11.052  11.619  1.00  0.00     0.124 C 
HETATM   38  C1  UNL     1     -22.351 -12.551  11.734  1.00  0.00     0.040 C 
HETATM   39  C3  UNL     1     -23.548 -10.619  12.597  1.00  0.00     0.040 C 
ENDBRANCH  36  37
ENDBRANCH  34  36
ENDBRANCH   1  34
TORSDOF 13
ENDMDL
MODEL 4
REMARK VINA RESULT: -7.001815339      5.166      7.613
REMARK  13 active torsions:
REMARK  status: ('A' for Active; 'I' for Inactive)
REMARK    1  A    between atoms: C2_2  and  O1_4 
REMARK    2  A    between atoms: O1_4  and  C4_5 
REMARK    3  A    between atoms: C4_5  and  C5_7 
REMARK    4  A    between atoms: C6_12  and  N3_13 
REMARK    5  A    between atoms: N4_15  and  C7_17 
REMARK    6  A    between atoms: C7_17  and  C8_18 
REMARK    7  A    between atoms: C8_18  and  C9_19 
REMARK    8  A    between atoms: C9_19  and  C10_20 
REMARK    9  A    between atoms: C11_21  and  C12_22 
REMARK   10  A    between atoms: C12_22  and  C13_24 
REMARK   11  A    between atoms: C14_29  and  C15_30 
REMARK   12  A    between atoms: C16_32  and  O6_33 
REMARK   13  A    between atoms: C17_35  and  C18_36 
ROOT
HETATM    1  C5  UNL     1     -18.302 -11.225   3.643  1.00  0.00     0.138 A 
HETATM    2  N1  UNL     1     -16.938 -11.060   3.749  1.00  0.00    -0.293 N 
ATOM      3  H1  UNL     1     -16.352 -11.452   3.012  1.00  0.00     0.187 HD
HETATM    4  N2  UNL     1     -16.353 -10.440   4.720  1.00  0.00    -0.281 N 
ATOM      5  H2  UNL     1     -15.337 -10.358   4.728  1.00  0.00     0.188 HD
HETATM    6  C6  UNL     1     -17.088  -9.891   5.739  1.00  0.00     0.169 A 
HETATM    7  C16 UNL     1     -18.454  -9.997   5.734  1.00  0.00     0.126 A 
HETATM    8  C17 UNL     1     -19.053 -10.683   4.653  1.00  0.00     0.050 A 
ENDROOT
BRANCH   6   9
HETATM    9  N3  UNL     1     -16.439  -9.314   6.636  1.00  0.00    -0.282 N 
HETATM   10  N4  UNL     1     -16.111  -8.187   7.145  1.00  0.00    -0.310 N 
ATOM     11  H4  UNL     1     -16.966  -7.648   7.283  1.00  0.00     0.186 HD
ATOM     12  H3  UNL     1     -15.983 -10.039   7.191  1.00  0.00     0.188 HD
BRANCH  10  13
HETATM   13  C7  UNL     1     -15.165  -7.497   7.535  1.00  0.00     0.107 C 
BRANCH  13  14
HETATM   14  C8  UNL     1     -15.206  -6.382   8.485  1.00  0.00     0.020 C 
BRANCH  14  15
HETATM   15  C9  UNL     1     -15.120  -6.549   9.757  1.00  0.00     0.018 C 
BRANCH  15  16
HETATM   16  C10 UNL     1     -15.081  -7.828  10.439  1.00  0.00     0.035 A 
HETATM   17  C11 UNL     1     -16.066  -8.744  10.635  1.00  0.00     0.115 A 
HETATM   18  N5  UNL     1     -15.387  -9.833  11.164  1.00  0.00    -0.256 N 
HETATM   19  O4  UNL     1     -14.154  -9.595  11.277  1.00  0.00    -0.233 OA
ATOM     20  H5  UNL     1     -15.829 -10.714  11.428  1.00  0.00     0.195 HD
HETATM   21  C14 UNL     1     -13.842  -8.401  10.867  1.00  0.00     0.148 A 
BRANCH  17  22
HETATM   22  C12 UNL     1     -17.501  -8.709  10.468  1.00  0.00     0.192 C 
HETATM   23  O3  UNL     1     -18.116  -8.694   9.376  1.00  0.00    -0.289 OA
BRANCH  22  24
HETATM   24  C13 UNL     1     -18.415  -8.683  11.659  1.00  0.00     0.200 C 
HETATM   25 CL1  UNL     1     -17.674  -8.011  13.073  1.00  0.00    -0.122 Cl
ENDBRANCH  22  24
ENDBRANCH  17  22
BRANCH  21  26
HETATM   26  C15 UNL     1     -12.556  -7.752  10.832  1.00  0.00     0.298 C 
HETATM   27  O5  UNL     1     -11.466  -8.180  11.244  1.00  0.00    -0.299 OA
ENDBRANCH  21  26
ENDBRANCH  15  16
ENDBRANCH  14  15
ENDBRANCH  13  14
ENDBRANCH  10  13
ENDBRANCH   6   9
BRANCH   7  28
HETATM   28  O6  UNL     1     -19.255  -9.473   6.720  1.00  0.00    -0.356 OA
ATOM     29  H6  UNL     1     -19.483  -8.552   6.772  1.00  0.00     0.218 HD
ENDBRANCH   7  28
BRANCH   8  30
HETATM   30  C18 UNL     1     -20.491 -10.791   4.660  1.00  0.00     0.097 C 
HETATM   31  N6  UNL     1     -21.300  -9.863   4.609  1.00  0.00    -0.407 N 
ATOM     32  H62 UNL     1     -20.893  -8.928   4.557  1.00  0.00     0.155 HD
ATOM     33  H61 UNL     1     -22.317  -9.939   4.614  1.00  0.00     0.155 HD
ENDBRANCH   8  30
BRANCH   1  34
HETATM   34  C4  UNL     1     -18.827 -11.933   2.517  1.00  0.00     0.312 C 
HETATM   35  O2  UNL     1     -18.659 -11.381   1.358  1.00  0.00    -0.258 OA
BRANCH  34  36
HETATM   36  O1  UNL     1     -19.487 -13.109   2.467  1.00  0.00    -0.312 OA
BRANCH  36  37
HETATM   37  C2  UNL     1     -20.478 -13.514   1.581  1.00  0.00     0.124 C 
HETATM   38  C1  UNL     1     -20.617 -15.015   1.665  1.00  0.00     0.040 C 
HETATM   39  C3  UNL     1     -21.834 -12.923   1.897  1.00  0.00     0.040 C 
ENDBRANCH  36  37
ENDBRANCH  34  36
ENDBRANCH   1  34
TORSDOF 13
ENDMDL
MODEL 5
REMARK VINA RESULT: -6.992585763      4.571     10.508
REMARK  13 active torsions:
REMARK  status: ('A' for Active; 'I' for Inactive)
REMARK    1  A    between atoms: C2_2  and  O1_4 
REMARK    2  A    between atoms: O1_4  and  C4_5 
REMARK    3  A    between atoms: C4_5  and  C5_7 
REMARK    4  A    between atoms: C6_12  and  N3_13 
REMARK    5  A    between atoms: N4_15  and  C7_17 
REMARK    6  A    between atoms: C7_17  and  C8_18 
REMARK    7  A    between atoms: C8_18  and  C9_19 
REMARK    8  A    between atoms: C9_19  and  C10_20 
REMARK    9  A    between atoms: C11_21  and  C12_22 
REMARK   10  A    between atoms: C12_22  and  C13_24 
REMARK   11  A    between atoms: C14_29  and  C15_30 
REMARK   12  A    between atoms: C16_32  and  O6_33 
REMARK   13  A    between atoms: C17_35  and  C18_36 
ROOT
HETATM    1  C5  UNL     1     -15.861  -7.877   8.132  1.00  0.00     0.138 A 
HETATM    2  N1  UNL     1     -17.081  -8.385   7.743  1.00  0.00    -0.293 N 
ATOM      3  H1  UNL     1     -17.277  -8.442   6.743  1.00  0.00     0.187 HD
HETATM    4  N2  UNL     1     -17.994  -8.794   8.561  1.00  0.00    -0.281 N 
ATOM      5  H2  UNL     1     -18.873  -9.158   8.196  1.00  0.00     0.188 HD
HETATM    6  C6  UNL     1     -17.788  -8.743   9.916  1.00  0.00     0.169 A 
HETATM    7  C16 UNL     1     -16.609  -8.254  10.413  1.00  0.00     0.126 A 
HETATM    8  C17 UNL     1     -15.639  -7.817   9.482  1.00  0.00     0.050 A 
ENDROOT
BRANCH   6   9
HETATM    9  N3  UNL     1     -18.726  -9.156  10.630  1.00  0.00    -0.282 N 
HETATM   10  N4  UNL     1     -19.590  -8.847  11.521  1.00  0.00    -0.310 N 
ATOM     11  H4  UNL     1     -20.071  -8.003  11.209  1.00  0.00     0.186 HD
ATOM     12  H3  UNL     1     -18.856 -10.144  10.414  1.00  0.00     0.188 HD
BRANCH  10  13
HETATM   13  C7  UNL     1     -20.070  -9.172  12.612  1.00  0.00     0.107 C 
BRANCH  13  14
HETATM   14  C8  UNL     1     -21.373  -9.793  12.863  1.00  0.00     0.020 C 
BRANCH  14  15
HETATM   15  C9  UNL     1     -21.756 -10.868  12.271  1.00  0.00     0.018 C 
BRANCH  15  16
HETATM   16  C10 UNL     1     -22.937 -10.999  11.441  1.00  0.00     0.035 A 
HETATM   17  C11 UNL     1     -24.252 -10.870  11.764  1.00  0.00     0.115 A 
HETATM   18  N5  UNL     1     -24.887 -10.904  10.530  1.00  0.00    -0.256 N 
HETATM   19  O4  UNL     1     -24.059 -11.044   9.590  1.00  0.00    -0.233 OA
ATOM     20  H5  UNL     1     -25.896 -10.827  10.401  1.00  0.00     0.195 HD
HETATM   21  C14 UNL     1     -22.833 -11.115  10.018  1.00  0.00     0.148 A 
BRANCH  17  22
HETATM   22  C12 UNL     1     -24.961 -10.796  13.020  1.00  0.00     0.192 C 
HETATM   23  O3  UNL     1     -24.728 -11.486  14.040  1.00  0.00    -0.289 OA
BRANCH  22  24
HETATM   24  C13 UNL     1     -26.097  -9.832  13.208  1.00  0.00     0.200 C 
HETATM   25 CL1  UNL     1     -25.572  -8.207  13.494  1.00  0.00    -0.122 Cl
ENDBRANCH  22  24
ENDBRANCH  17  22
BRANCH  21  26
HETATM   26  C15 UNL     1     -21.611 -11.275   9.272  1.00  0.00     0.298 C 
HETATM   27  O5  UNL     1     -20.736 -10.426   9.036  1.00  0.00    -0.299 OA
ENDBRANCH  21  26
ENDBRANCH  15  16
ENDBRANCH  14  15
ENDBRANCH  13  14
ENDBRANCH  10  13
ENDBRANCH   6   9
BRANCH   7  28
HETATM   28  O6  UNL     1     -16.333  -8.172  11.756  1.00  0.00    -0.356 OA
ATOM     29  H6  UNL     1     -15.458  -8.039  12.101  1.00  0.00     0.218 HD
ENDBRANCH   7  28
BRANCH   8  30
HETATM   30  C18 UNL     1     -14.402  -7.302  10.017  1.00  0.00     0.097 C 
HETATM   31  N6  UNL     1     -14.268  -6.322  10.751  1.00  0.00    -0.407 N 
ATOM     32  H62 UNL     1     -15.131  -5.834  10.996  1.00  0.00     0.155 HD
ATOM     33  H61 UNL     1     -13.394  -5.957  11.130  1.00  0.00     0.155 HD
ENDBRANCH   8  30
BRANCH   1  34
HETATM   34  C4  UNL     1     -14.935  -7.456   7.127  1.00  0.00     0.312 C 
HETATM   35  O2  UNL     1     -14.806  -6.179   6.960  1.00  0.00    -0.258 OA
BRANCH  34  36
HETATM   36  O1  UNL     1     -14.158  -8.192   6.306  1.00  0.00    -0.312 OA
BRANCH  36  37
HETATM   37  C2  UNL     1     -14.542  -9.109   5.333  1.00  0.00     0.124 C 
HETATM   38  C1  UNL     1     -15.664  -8.509   4.521  1.00  0.00     0.040 C 
HETATM   39  C3  UNL     1     -13.428  -9.452   4.370  1.00  0.00     0.040 C 
ENDBRANCH  36  37
ENDBRANCH  34  36
ENDBRANCH   1  34
TORSDOF 13
ENDMDL
