MODEL 1
REMARK VINA RESULT: -7.016894626      0.000      0.000
REMARK  11 active torsions:
REMARK  status: ('A' for Active; 'I' for Inactive)
REMARK    1  A    between atoms: C2_2  and  S1_3 
REMARK    2  A    between atoms: S1_3  and  C3_4 
REMARK    3  A    between atoms: C5_7  and  N2_8 
REMARK    4  A    between atoms: C5_7  and  C7_17 
REMARK       I    between atoms: N2_8  and  C6_10 
REMARK       I    between atoms: C6_10  and  N3_12 
REMARK    5  A    between atoms: N3_12  and  N4_14 
REMARK    6  A    between atoms: C7_17  and  S2_18 
REMARK    7  A    between atoms: S2_18  and  C8_19 
REMARK    8  A    between atoms: C10_21  and  C11_22 
REMARK    9  A    between atoms: C11_22  and  C12_23 
REMARK   10  A    between atoms: C13_25  and  O5_26 
REMARK   11  A    between atoms: C14_28  and  O6_29 
ROOT
HETATM    1  C3  UNL     1     -16.294  -8.178   9.873  1.00  0.00     0.109 C 
HETATM    2  C4  UNL     1     -15.333  -7.881  10.879  1.00  0.00     0.109 C 
HETATM    3  N1  UNL     1     -14.571  -7.645  11.738  1.00  0.00    -0.191 NA
HETATM    4  C5  UNL     1     -16.144  -8.124   8.564  1.00  0.00     0.083 C 
ENDROOT
BRANCH   1   5
HETATM    5  S1  UNL     1     -17.922  -8.697  10.477  1.00  0.00    -0.117 SA
BRANCH   5   6
HETATM    6  C2  UNL     1     -17.958  -8.681  12.278  1.00  0.00     0.075 C 
HETATM    7  C1  UNL     1     -19.378  -8.729  12.827  1.00  0.00     0.016 C 
ENDBRANCH   5   6
ENDBRANCH   1   5
BRANCH   4   8
HETATM    8  N2  UNL     1     -17.244  -8.466   7.760  1.00  0.00    -0.304 N 
HETATM    9  C6  UNL     1     -17.366  -9.571   6.900  1.00  0.00     0.344 C 
HETATM   10  O1  UNL     1     -16.968 -10.690   7.267  1.00  0.00    -0.245 OA
HETATM   11  N3  UNL     1     -17.943  -9.403   5.619  1.00  0.00    -0.191 N 
ATOM     12  H3  UNL     1     -18.266  -8.480   5.330  1.00  0.00     0.198 HD
ATOM     13  H2  UNL     1     -18.047  -7.839   7.806  1.00  0.00     0.171 HD
BRANCH  11  14
HETATM   14  N4  UNL     1     -18.076 -10.486   4.745  1.00  0.00    -0.035 N 
HETATM   15  O2  UNL     1     -19.165 -11.092   4.741  1.00  0.00    -0.516 OA
HETATM   16  O3  UNL     1     -17.092 -10.922   3.897  1.00  0.00    -0.516 OA
ENDBRANCH  11  14
ENDBRANCH   4   8
BRANCH   4  17
HETATM   17  C7  UNL     1     -14.883  -7.731   7.894  1.00  0.00     0.064 C 
HETATM   18  C15 UNL     1     -14.606  -6.470   7.707  1.00  0.00     0.109 C 
HETATM   19  C16 UNL     1     -15.401  -5.282   8.072  1.00  0.00     0.084 C 
HETATM   20  F1  UNL     1     -13.381  -6.134   7.117  1.00  0.00    -0.210 F 
BRANCH  17  21
HETATM   21  S2  UNL     1     -13.761  -9.023   7.400  1.00  0.00    -0.117 SA
BRANCH  21  22
HETATM   22  C8  UNL     1     -13.247  -8.962   5.738  1.00  0.00     0.084 C 
HETATM   23  C9  UNL     1     -13.476 -10.239   4.923  1.00  0.00     0.026 C 
HETATM   24  C10 UNL     1     -12.818  -9.752   3.625  1.00  0.00     0.024 C 
HETATM   25  C13 UNL     1     -11.565  -9.064   4.103  1.00  0.00     0.152 C 
HETATM   26  C14 UNL     1     -11.690  -8.956   5.616  1.00  0.00     0.161 C 
BRANCH  24  27
HETATM   27  C11 UNL     1     -12.610 -10.838   2.640  1.00  0.00     0.076 C 
BRANCH  27  28
HETATM   28  C12 UNL     1     -13.413 -12.048   2.869  1.00  0.00     0.231 C 
HETATM   29  O4  UNL     1     -14.231 -12.358   2.006  1.00  0.00    -0.307 OA
ENDBRANCH  27  28
ENDBRANCH  24  27
BRANCH  25  30
HETATM   30  O5  UNL     1     -10.410  -9.742   3.733  1.00  0.00    -0.393 OA
ATOM     31  H5  UNL     1      -9.904 -10.034   4.482  1.00  0.00     0.210 HD
ENDBRANCH  25  30
BRANCH  26  32
HETATM   32  O6  UNL     1     -11.179 -10.066   6.247  1.00  0.00    -0.392 OA
ATOM     33  H6  UNL     1     -10.251 -10.137   6.057  1.00  0.00     0.210 HD
ENDBRANCH  26  32
ENDBRANCH  21  22
ENDBRANCH  17  21
ENDBRANCH   4  17
TORSDOF 11
ENDMDL
MODEL 2
REMARK VINA RESULT: -6.982331165      1.291      1.370
REMARK  11 active torsions:
REMARK  status: ('A' for Active; 'I' for Inactive)
REMARK    1  A    between atoms: C2_2  and  S1_3 
REMARK    2  A    between atoms: S1_3  and  C3_4 
REMARK    3  A    between atoms: C5_7  and  N2_8 
REMARK    4  A    between atoms: C5_7  and  C7_17 
REMARK       I    between atoms: N2_8  and  C6_10 
REMARK       I    between atoms: C6_10  and  N3_12 
REMARK    5  A    between atoms: N3_12  and  N4_14 
REMARK    6  A    between atoms: C7_17  and  S2_18 
REMARK    7  A    between atoms: S2_18  and  C8_19 
REMARK    8  A    between atoms: C10_21  and  C11_22 
REMARK    9  A    between atoms: C11_22  and  C12_23 
REMARK   10  A    between atoms: C13_25  and  O5_26 
REMARK   11  A    between atoms: C14_28  and  O6_29 
ROOT
HETATM    1  C3  UNL     1     -16.009  -8.089   9.671  1.00  0.00     0.109 C 
HETATM    2  C4  UNL     1     -15.130  -7.760  10.741  1.00  0.00     0.109 C 
HETATM    3  N1  UNL     1     -14.438  -7.499  11.650  1.00  0.00    -0.191 NA
HETATM    4  C5  UNL     1     -15.760  -8.062   8.376  1.00  0.00     0.083 C 
ENDROOT
BRANCH   1   5
HETATM    5  S1  UNL     1     -17.675  -8.609  10.160  1.00  0.00    -0.117 SA
BRANCH   5   6
HETATM    6  C2  UNL     1     -17.810  -8.677  11.956  1.00  0.00     0.075 C 
HETATM    7  C1  UNL     1     -19.248  -8.866  12.419  1.00  0.00     0.016 C 
ENDBRANCH   5   6
ENDBRANCH   1   5
BRANCH   4   8
HETATM    8  N2  UNL     1     -16.793  -8.431   7.499  1.00  0.00    -0.304 N 
HETATM    9  C6  UNL     1     -16.846  -9.563   6.666  1.00  0.00     0.344 C 
HETATM   10  O1  UNL     1     -16.478 -10.669   7.097  1.00  0.00    -0.245 OA
HETATM   11  N3  UNL     1     -17.320  -9.436   5.339  1.00  0.00    -0.191 N 
ATOM     12  H3  UNL     1     -17.619  -8.523   4.996  1.00  0.00     0.198 HD
ATOM     13  H2  UNL     1     -17.597  -7.806   7.462  1.00  0.00     0.171 HD
BRANCH  11  14
HETATM   14  N4  UNL     1     -17.383 -10.545   4.490  1.00  0.00    -0.035 N 
HETATM   15  O2  UNL     1     -18.506 -11.040   4.273  1.00  0.00    -0.516 OA
HETATM   16  O3  UNL     1     -16.296 -11.121   3.888  1.00  0.00    -0.516 OA
ENDBRANCH  11  14
ENDBRANCH   4   8
BRANCH   4  17
HETATM   17  C7  UNL     1     -14.454  -7.673   7.796  1.00  0.00     0.064 C 
HETATM   18  C15 UNL     1     -14.249  -6.444   7.410  1.00  0.00     0.109 C 
HETATM   19  C16 UNL     1     -15.171  -5.292   7.451  1.00  0.00     0.084 C 
HETATM   20  F1  UNL     1     -12.986  -6.100   6.914  1.00  0.00    -0.210 F 
BRANCH  17  21
HETATM   21  S2  UNL     1     -13.184  -8.917   7.686  1.00  0.00    -0.117 SA
BRANCH  21  22
HETATM   22  C8  UNL     1     -12.898  -9.543   6.088  1.00  0.00     0.084 C 
HETATM   23  C9  UNL     1     -12.246 -10.929   6.022  1.00  0.00     0.026 C 
HETATM   24  C10 UNL     1     -12.123 -11.004   4.494  1.00  0.00     0.024 C 
HETATM   25  C13 UNL     1     -11.631  -9.632   4.112  1.00  0.00     0.152 C 
HETATM   26  C14 UNL     1     -11.745  -8.775   5.365  1.00  0.00     0.161 C 
BRANCH  24  27
HETATM   27  C11 UNL     1     -11.278 -12.132   4.038  1.00  0.00     0.076 C 
BRANCH  27  28
HETATM   28  C12 UNL     1     -11.439 -13.378   4.801  1.00  0.00     0.231 C 
HETATM   29  O4  UNL     1     -10.490 -14.159   4.818  1.00  0.00    -0.307 OA
ENDBRANCH  27  28
ENDBRANCH  24  27
BRANCH  25  30
HETATM   30  O5  UNL     1     -10.331  -9.649   3.622  1.00  0.00    -0.393 OA
ATOM     31  H5  UNL     1     -10.103  -8.847   3.167  1.00  0.00     0.210 HD
ENDBRANCH  25  30
BRANCH  26  32
HETATM   32  O6  UNL     1     -10.604  -8.843   6.130  1.00  0.00    -0.392 OA
ATOM     33  H6  UNL     1     -10.258  -9.727   6.103  1.00  0.00     0.210 HD
ENDBRANCH  26  32
ENDBRANCH  21  22
ENDBRANCH  17  21
ENDBRANCH   4  17
TORSDOF 11
ENDMDL
MODEL 3
REMARK VINA RESULT: -6.912464480      3.913      7.352
REMARK  11 active torsions:
REMARK  status: ('A' for Active; 'I' for Inactive)
REMARK    1  A    between atoms: C2_2  and  S1_3 
REMARK    2  A    between atoms: S1_3  and  C3_4 
REMARK    3  A    between atoms: C5_7  and  N2_8 
REMARK    4  A    between atoms: C5_7  and  C7_17 
REMARK       I    between atoms: N2_8  and  C6_10 
REMARK       I    between atoms: C6_10  and  N3_12 
REMARK    5  A    between atoms: N3_12  and  N4_14 
REMARK    6  A    between atoms: C7_17  and  S2_18 
REMARK    7  A    between atoms: S2_18  and  C8_19 
REMARK    8  A    between atoms: C10_21  and  C11_22 
REMARK    9  A    between atoms: C11_22  and  C12_23 
REMARK   10  A    between atoms: C13_25  and  O5_26 
REMARK   11  A    between atoms: C14_28  and  O6_29 
ROOT
HETATM    1  C3  UNL     1     -16.334  -9.777   5.932  1.00  0.00     0.109 C 
HETATM    2  C4  UNL     1     -16.262 -10.717   4.867  1.00  0.00     0.109 C 
HETATM    3  N1  UNL     1     -16.170 -11.468   3.971  1.00  0.00    -0.191 NA
HETATM    4  C5  UNL     1     -17.122  -9.806   6.989  1.00  0.00     0.083 C 
ENDROOT
BRANCH   1   5
HETATM    5  S1  UNL     1     -15.199  -8.369   5.811  1.00  0.00    -0.117 SA
BRANCH   5   6
HETATM    6  C2  UNL     1     -13.503  -8.904   6.102  1.00  0.00     0.075 C 
HETATM    7  C1  UNL     1     -12.757  -9.186   4.804  1.00  0.00     0.016 C 
ENDBRANCH   5   6
ENDBRANCH   1   5
BRANCH   4   8
HETATM    8  N2  UNL     1     -17.017  -8.757   7.917  1.00  0.00    -0.304 N 
HETATM    9  C6  UNL     1     -16.498  -8.817   9.223  1.00  0.00     0.344 C 
HETATM   10  O1  UNL     1     -15.455  -9.454   9.448  1.00  0.00    -0.245 OA
HETATM   11  N3  UNL     1     -17.168  -8.148  10.275  1.00  0.00    -0.191 N 
ATOM     12  H3  UNL     1     -18.023  -7.628  10.078  1.00  0.00     0.198 HD
ATOM     13  H2  UNL     1     -17.356  -7.846   7.608  1.00  0.00     0.171 HD
BRANCH  11  14
HETATM   14  N4  UNL     1     -16.674  -8.192  11.582  1.00  0.00    -0.035 N 
HETATM   15  O2  UNL     1     -17.280  -8.906  12.404  1.00  0.00    -0.516 OA
HETATM   16  O3  UNL     1     -15.572  -7.501  12.017  1.00  0.00    -0.516 OA
ENDBRANCH  11  14
ENDBRANCH   4   8
BRANCH   4  17
HETATM   17  C7  UNL     1     -18.103 -10.882   7.257  1.00  0.00     0.064 C 
HETATM   18  C15 UNL     1     -17.701 -12.038   7.706  1.00  0.00     0.109 C 
HETATM   19  C16 UNL     1     -16.329 -12.491   8.007  1.00  0.00     0.084 C 
HETATM   20  F1  UNL     1     -18.662 -13.015   7.997  1.00  0.00    -0.210 F 
BRANCH  17  21
HETATM   21  S2  UNL     1     -19.827 -10.527   6.986  1.00  0.00    -0.117 SA
BRANCH  21  22
HETATM   22  C8  UNL     1     -20.541 -11.327   5.616  1.00  0.00     0.084 C 
HETATM   23  C9  UNL     1     -19.708 -11.315   4.329  1.00  0.00     0.026 C 
HETATM   24  C10 UNL     1     -20.736 -12.023   3.435  1.00  0.00     0.024 C 
HETATM   25  C13 UNL     1     -22.039 -11.362   3.807  1.00  0.00     0.152 C 
HETATM   26  C14 UNL     1     -21.752 -10.523   5.045  1.00  0.00     0.161 C 
BRANCH  24  27
HETATM   27  C11 UNL     1     -20.385 -11.970   1.998  1.00  0.00     0.076 C 
BRANCH  27  28
HETATM   28  C12 UNL     1     -19.127 -11.274   1.690  1.00  0.00     0.231 C 
HETATM   29  O4  UNL     1     -18.237 -11.924   1.146  1.00  0.00    -0.307 OA
ENDBRANCH  27  28
ENDBRANCH  24  27
BRANCH  25  30
HETATM   30  O5  UNL     1     -22.558 -10.590   2.776  1.00  0.00    -0.393 OA
ATOM     31  H5  UNL     1     -22.675  -9.681   3.025  1.00  0.00     0.210 HD
ENDBRANCH  25  30
BRANCH  26  32
HETATM   32  O6  UNL     1     -21.340  -9.254   4.711  1.00  0.00    -0.392 OA
ATOM     33  H6  UNL     1     -21.125  -8.775   5.502  1.00  0.00     0.210 HD
ENDBRANCH  26  32
ENDBRANCH  21  22
ENDBRANCH  17  21
ENDBRANCH   4  17
TORSDOF 11
ENDMDL
MODEL 4
REMARK VINA RESULT: -6.822889354      3.449      7.902
REMARK  11 active torsions:
REMARK  status: ('A' for Active; 'I' for Inactive)
REMARK    1  A    between atoms: C2_2  and  S1_3 
REMARK    2  A    between atoms: S1_3  and  C3_4 
REMARK    3  A    between atoms: C5_7  and  N2_8 
REMARK    4  A    between atoms: C5_7  and  C7_17 
REMARK       I    between atoms: N2_8  and  C6_10 
REMARK       I    between atoms: C6_10  and  N3_12 
REMARK    5  A    between atoms: N3_12  and  N4_14 
REMARK    6  A    between atoms: C7_17  and  S2_18 
REMARK    7  A    between atoms: S2_18  and  C8_19 
REMARK    8  A    between atoms: C10_21  and  C11_22 
REMARK    9  A    between atoms: C11_22  and  C12_23 
REMARK   10  A    between atoms: C13_25  and  O5_26 
REMARK   11  A    between atoms: C14_28  and  O6_29 
ROOT
HETATM    1  C3  UNL     1     -13.976 -10.252   5.935  1.00  0.00     0.109 C 
HETATM    2  C4  UNL     1     -15.131 -10.316   5.106  1.00  0.00     0.109 C 
HETATM    3  N1  UNL     1     -16.065 -10.405   4.404  1.00  0.00    -0.191 NA
HETATM    4  C5  UNL     1     -13.692  -9.362   6.866  1.00  0.00     0.083 C 
ENDROOT
BRANCH   1   5
HETATM    5  S1  UNL     1     -12.751 -11.561   5.672  1.00  0.00    -0.117 SA
BRANCH   5   6
HETATM    6  C2  UNL     1     -11.920 -11.334   4.089  1.00  0.00     0.075 C 
HETATM    7  C1  UNL     1     -11.416  -9.909   3.903  1.00  0.00     0.016 C 
ENDBRANCH   5   6
ENDBRANCH   1   5
BRANCH   4   8
HETATM    8  N2  UNL     1     -12.481  -9.502   7.563  1.00  0.00    -0.304 N 
HETATM    9  C6  UNL     1     -12.301  -9.640   8.950  1.00  0.00     0.344 C 
HETATM   10  O1  UNL     1     -13.050 -10.388   9.602  1.00  0.00    -0.245 OA
HETATM   11  N3  UNL     1     -11.265  -8.927   9.599  1.00  0.00    -0.191 N 
ATOM     12  H3  UNL     1     -10.656  -8.316   9.053  1.00  0.00     0.198 HD
ATOM     13  H2  UNL     1     -11.633  -9.503   6.996  1.00  0.00     0.171 HD
BRANCH  11  14
HETATM   14  N4  UNL     1     -11.065  -9.046  10.977  1.00  0.00    -0.035 N 
HETATM   15  O2  UNL     1      -9.992  -9.549  11.361  1.00  0.00    -0.516 OA
HETATM   16  O3  UNL     1     -11.969  -8.651  11.928  1.00  0.00    -0.516 OA
ENDBRANCH  11  14
ENDBRANCH   4   8
BRANCH   4  17
HETATM   17  C7  UNL     1     -14.579  -8.231   7.223  1.00  0.00     0.064 C 
HETATM   18  C15 UNL     1     -14.168  -7.003   7.069  1.00  0.00     0.109 C 
HETATM   19  C16 UNL     1     -12.869  -6.515   6.566  1.00  0.00     0.084 C 
HETATM   20  F1  UNL     1     -15.052  -5.959   7.368  1.00  0.00    -0.210 F 
BRANCH  17  21
HETATM   21  S2  UNL     1     -16.213  -8.607   7.824  1.00  0.00    -0.117 SA
BRANCH  21  22
HETATM   22  C8  UNL     1     -16.314  -8.952   9.526  1.00  0.00     0.084 C 
HETATM   23  C9  UNL     1     -17.659  -8.633  10.191  1.00  0.00     0.026 C 
HETATM   24  C10 UNL     1     -17.249  -9.002  11.624  1.00  0.00     0.024 C 
HETATM   25  C13 UNL     1     -15.878  -8.394  11.765  1.00  0.00     0.152 C 
HETATM   26  C14 UNL     1     -15.463  -7.950  10.370  1.00  0.00     0.161 C 
BRANCH  24  27
HETATM   27  C11 UNL     1     -18.241  -8.573  12.636  1.00  0.00     0.076 C 
BRANCH  27  28
HETATM   28  C12 UNL     1     -19.625  -8.993  12.369  1.00  0.00     0.231 C 
HETATM   29  O4  UNL     1     -20.384  -9.091  13.330  1.00  0.00    -0.307 OA
ENDBRANCH  27  28
ENDBRANCH  24  27
BRANCH  25  30
HETATM   30  O5  UNL     1     -15.853  -7.337  12.666  1.00  0.00    -0.393 OA
ATOM     31  H5  UNL     1     -15.759  -6.495  12.236  1.00  0.00     0.210 HD
ENDBRANCH  25  30
BRANCH  26  32
HETATM   32  O6  UNL     1     -15.875  -6.665  10.104  1.00  0.00    -0.392 OA
ATOM     33  H6  UNL     1     -15.144  -6.164   9.763  1.00  0.00     0.210 HD
ENDBRANCH  26  32
ENDBRANCH  21  22
ENDBRANCH  17  21
ENDBRANCH   4  17
TORSDOF 11
ENDMDL
MODEL 5
REMARK VINA RESULT: -6.783443046      3.446      7.550
REMARK  11 active torsions:
REMARK  status: ('A' for Active; 'I' for Inactive)
REMARK    1  A    between atoms: C2_2  and  S1_3 
REMARK    2  A    between atoms: S1_3  and  C3_4 
REMARK    3  A    between atoms: C5_7  and  N2_8 
REMARK    4  A    between atoms: C5_7  and  C7_17 
REMARK       I    between atoms: N2_8  and  C6_10 
REMARK       I    between atoms: C6_10  and  N3_12 
REMARK    5  A    between atoms: N3_12  and  N4_14 
REMARK    6  A    between atoms: C7_17  and  S2_18 
REMARK    7  A    between atoms: S2_18  and  C8_19 
REMARK    8  A    between atoms: C10_21  and  C11_22 
REMARK    9  A    between atoms: C11_22  and  C12_23 
REMARK   10  A    between atoms: C13_25  and  O5_26 
REMARK   11  A    between atoms: C14_28  and  O6_29 
ROOT
HETATM    1  C3  UNL     1     -12.840 -10.286   6.156  1.00  0.00     0.109 C 
HETATM    2  C4  UNL     1     -11.975 -11.401   6.339  1.00  0.00     0.109 C 
HETATM    3  N1  UNL     1     -11.271 -12.331   6.450  1.00  0.00    -0.191 NA
HETATM    4  C5  UNL     1     -13.137  -9.336   7.021  1.00  0.00     0.083 C 
ENDROOT
BRANCH   1   5
HETATM    5  S1  UNL     1     -13.626 -10.166   4.527  1.00  0.00    -0.117 SA
BRANCH   5   6
HETATM    6  C2  UNL     1     -12.417 -10.465   3.224  1.00  0.00     0.075 C 
HETATM    7  C1  UNL     1     -11.113  -9.716   3.466  1.00  0.00     0.016 C 
ENDBRANCH   5   6
ENDBRANCH   1   5
BRANCH   4   8
HETATM    8  N2  UNL     1     -14.026  -8.328   6.613  1.00  0.00    -0.304 N 
HETATM    9  C6  UNL     1     -14.065  -6.993   7.051  1.00  0.00     0.344 C 
HETATM   10  O1  UNL     1     -13.009  -6.352   7.189  1.00  0.00    -0.245 OA
HETATM   11  N3  UNL     1     -15.311  -6.383   7.332  1.00  0.00    -0.191 N 
ATOM     12  H3  UNL     1     -16.171  -6.918   7.215  1.00  0.00     0.198 HD
ATOM     13  H2  UNL     1     -14.723  -8.596   5.919  1.00  0.00     0.171 HD
BRANCH  11  14
HETATM   14  N4  UNL     1     -15.378  -5.056   7.768  1.00  0.00    -0.035 N 
HETATM   15  O2  UNL     1     -15.420  -4.165   6.898  1.00  0.00    -0.516 OA
HETATM   16  O3  UNL     1     -15.399  -4.674   9.084  1.00  0.00    -0.516 OA
ENDBRANCH  11  14
ENDBRANCH   4   8
BRANCH   4  17
HETATM   17  C7  UNL     1     -12.583  -9.268   8.393  1.00  0.00     0.064 C 
HETATM   18  C15 UNL     1     -11.399  -8.758   8.597  1.00  0.00     0.109 C 
HETATM   19  C16 UNL     1     -10.447  -8.202   7.616  1.00  0.00     0.084 C 
HETATM   20  F1  UNL     1     -10.929  -8.663   9.912  1.00  0.00    -0.210 F 
BRANCH  17  21
HETATM   21  S2  UNL     1     -13.594  -9.862   9.733  1.00  0.00    -0.117 SA
BRANCH  21  22
HETATM   22  C8  UNL     1     -15.082  -8.995   9.979  1.00  0.00     0.084 C 
HETATM   23  C9  UNL     1     -15.810  -9.283  11.297  1.00  0.00     0.026 C 
HETATM   24  C10 UNL     1     -17.038  -8.403  11.027  1.00  0.00     0.024 C 
HETATM   25  C13 UNL     1     -17.380  -8.707   9.591  1.00  0.00     0.152 C 
HETATM   26  C14 UNL     1     -16.215  -9.517   9.039  1.00  0.00     0.161 C 
BRANCH  24  27
HETATM   27  C11 UNL     1     -18.132  -8.623  12.001  1.00  0.00     0.076 C 
BRANCH  27  28
HETATM   28  C12 UNL     1     -17.944  -7.971  13.305  1.00  0.00     0.231 C 
HETATM   29  O4  UNL     1     -18.411  -8.534  14.293  1.00  0.00    -0.307 OA
ENDBRANCH  27  28
ENDBRANCH  24  27
BRANCH  25  30
HETATM   30  O5  UNL     1     -18.583  -9.391   9.463  1.00  0.00    -0.393 OA
ATOM     31  H5  UNL     1     -18.603  -9.953   8.697  1.00  0.00     0.210 HD
ENDBRANCH  25  30
BRANCH  26  32
HETATM   32  O6  UNL     1     -16.393 -10.865   9.244  1.00  0.00    -0.392 OA
ATOM     33  H6  UNL     1     -15.917 -11.350   8.581  1.00  0.00     0.210 HD
ENDBRANCH  26  32
ENDBRANCH  21  22
ENDBRANCH  17  21
ENDBRANCH   4  17
TORSDOF 11
ENDMDL
