MODEL 1
REMARK VINA RESULT: -7.397226582      0.000      0.000
REMARK  2 active torsions:
REMARK  status: ('A' for Active; 'I' for Inactive)
REMARK    1  A    between atoms: C1_2  and  C2_3 
REMARK       I    between atoms: C1_2  and  N1_5 
REMARK    2  A    between atoms: C5_8  and  C6_9 
REMARK       I    between atoms: C6_9  and  N2_11 
ROOT
HETATM    1  C6  UNL     1     -19.467  -4.042  13.754  1.00  0.00     0.224 C 
HETATM    2  O2  UNL     1     -18.438  -4.462  14.391  1.00  0.00    -0.273 OA
HETATM    3  N2  UNL     1     -20.018  -2.812  14.174  1.00  0.00    -0.351 N 
HETATM    4  C7  UNL     1     -19.507  -2.004  15.256  1.00  0.00     0.126 C 
HETATM    5  C8  UNL     1     -20.206  -0.692  15.201  1.00  0.00     0.031 C 
HETATM    6  C9  UNL     1     -21.250  -0.793  14.146  1.00  0.00    -0.020 C 
HETATM    7  C10 UNL     1     -22.634  -0.587  14.771  1.00  0.00     0.039 C 
HETATM    8  C11 UNL     1     -22.687   0.863  15.199  1.00  0.00     0.233 C 
HETATM    9  N3  UNL     1     -22.934   1.651  14.006  1.00  0.00    -0.075 N 
ATOM     10  H31 UNL     1     -22.578   2.602  14.109  1.00  0.00     0.277 HD
ATOM     11  H32 UNL     1     -23.927   1.862  13.901  1.00  0.00     0.277 HD
HETATM   12  C12 UNL     1     -22.404   1.018  12.819  1.00  0.00     0.233 C 
HETATM   13  C13 UNL     1     -21.114   0.271  13.078  1.00  0.00     0.039 C 
HETATM   14  C14 UNL     1     -21.176  -2.173  13.598  1.00  0.00     0.135 C 
ENDROOT
BRANCH   1  15
HETATM   15  C5  UNL     1     -20.007  -4.862  12.631  1.00  0.00     0.081 C 
HETATM   16  C4  UNL     1     -18.939  -5.460  11.765  1.00  0.00     0.034 C 
HETATM   17  C3  UNL     1     -19.272  -5.525  10.306  1.00  0.00     0.126 C 
HETATM   18  N1  UNL     1     -20.679  -5.618  10.077  1.00  0.00    -0.351 N 
HETATM   19  C1  UNL     1     -21.167  -6.549   9.119  1.00  0.00     0.229 C 
HETATM   20  C16 UNL     1     -21.604  -4.786  10.788  1.00  0.00     0.126 C 
HETATM   21  O1  UNL     1     -22.401  -6.610   8.907  1.00  0.00    -0.273 OA
HETATM   22  C15 UNL     1     -20.875  -3.926  11.779  1.00  0.00     0.034 C 
BRANCH  19  23
HETATM   23  C2  UNL     1     -20.258  -7.427   8.385  1.00  0.00     0.188 C 
HETATM   24 BR1  UNL     1     -20.297  -9.217   9.122  1.00  0.00    -0.087 Br
ENDBRANCH  19  23
ENDBRANCH   1  15
TORSDOF 2
ENDMDL
MODEL 2
REMARK VINA RESULT: -6.908233329      8.318     11.403
REMARK  2 active torsions:
REMARK  status: ('A' for Active; 'I' for Inactive)
REMARK    1  A    between atoms: C1_2  and  C2_3 
REMARK       I    between atoms: C1_2  and  N1_5 
REMARK    2  A    between atoms: C5_8  and  C6_9 
REMARK       I    between atoms: C6_9  and  N2_11 
ROOT
HETATM    1  C6  UNL     1     -12.033  -6.566  14.362  1.00  0.00     0.224 C 
HETATM    2  O2  UNL     1     -11.704  -5.449  14.897  1.00  0.00    -0.273 OA
HETATM    3  N2  UNL     1     -11.024  -7.549  14.265  1.00  0.00    -0.351 N 
HETATM    4  C7  UNL     1      -9.665  -7.386  14.725  1.00  0.00     0.126 C 
HETATM    5  C8  UNL     1      -9.014  -8.721  14.672  1.00  0.00     0.031 C 
HETATM    6  C9  UNL     1      -9.977  -9.657  14.032  1.00  0.00    -0.020 C 
HETATM    7  C10 UNL     1      -9.373 -10.211  12.736  1.00  0.00     0.039 C 
HETATM    8  C11 UNL     1      -8.227 -11.102  13.160  1.00  0.00     0.233 C 
HETATM    9  N3  UNL     1      -8.804 -12.354  13.612  1.00  0.00    -0.075 N 
ATOM     10  H31 UNL     1      -8.192 -12.825  14.279  1.00  0.00     0.277 HD
ATOM     11  H32 UNL     1      -8.800 -13.054  12.869  1.00  0.00     0.277 HD
HETATM   12  C12 UNL     1     -10.131 -12.173  14.156  1.00  0.00     0.233 C 
HETATM   13  C13 UNL     1     -10.291 -10.862  14.893  1.00  0.00     0.039 C 
HETATM   14  C14 UNL     1     -11.186  -8.861  13.691  1.00  0.00     0.135 C 
ENDROOT
BRANCH   1  15
HETATM   15  C5  UNL     1     -13.433  -6.753  13.884  1.00  0.00     0.081 C 
HETATM   16  C4  UNL     1     -14.181  -5.466  13.714  1.00  0.00     0.034 C 
HETATM   17  C3  UNL     1     -15.633  -5.526  14.077  1.00  0.00     0.126 C 
HETATM   18  N1  UNL     1     -16.179  -6.834  13.905  1.00  0.00    -0.351 N 
HETATM   19  C1  UNL     1     -17.446  -6.981  13.275  1.00  0.00     0.229 C 
HETATM   20  C16 UNL     1     -15.477  -7.998  14.360  1.00  0.00     0.126 C 
HETATM   21  O1  UNL     1     -17.930  -8.131  13.148  1.00  0.00    -0.273 OA
HETATM   22  C15 UNL     1     -14.148  -7.610  14.938  1.00  0.00     0.034 C 
BRANCH  19  23
HETATM   23  C2  UNL     1     -18.186  -5.821  12.782  1.00  0.00     0.188 C 
HETATM   24 BR1  UNL     1     -18.015  -5.671  10.859  1.00  0.00    -0.087 Br
ENDBRANCH  19  23
ENDBRANCH   1  15
TORSDOF 2
ENDMDL
MODEL 3
REMARK VINA RESULT: -6.619579104     11.437     14.615
REMARK  2 active torsions:
REMARK  status: ('A' for Active; 'I' for Inactive)
REMARK    1  A    between atoms: C1_2  and  C2_3 
REMARK       I    between atoms: C1_2  and  N1_5 
REMARK    2  A    between atoms: C5_8  and  C6_9 
REMARK       I    between atoms: C6_9  and  N2_11 
ROOT
HETATM    1  C6  UNL     1      -8.858 -10.929  13.224  1.00  0.00     0.224 C 
HETATM    2  O2  UNL     1      -8.589 -11.704  14.207  1.00  0.00    -0.273 OA
HETATM    3  N2  UNL     1      -7.907 -10.867  12.182  1.00  0.00    -0.351 N 
HETATM    4  C7  UNL     1      -6.670 -11.610  12.148  1.00  0.00     0.126 C 
HETATM    5  C8  UNL     1      -6.096 -11.457  10.785  1.00  0.00     0.031 C 
HETATM    6  C9  UNL     1      -6.952 -10.486  10.052  1.00  0.00    -0.020 C 
HETATM    7  C10 UNL     1      -6.119  -9.261   9.658  1.00  0.00     0.039 C 
HETATM    8  C11 UNL     1      -5.139  -9.744   8.611  1.00  0.00     0.233 C 
HETATM    9  N3  UNL     1      -5.867  -9.848   7.361  1.00  0.00    -0.075 N 
ATOM     10  H31 UNL     1      -5.436 -10.533   6.738  1.00  0.00     0.277 HD
ATOM     11  H32 UNL     1      -5.744  -9.011   6.790  1.00  0.00     0.277 HD
HETATM   12  C12 UNL     1      -7.267 -10.139   7.571  1.00  0.00     0.233 C 
HETATM   13  C13 UNL     1      -7.506 -11.045   8.759  1.00  0.00     0.039 C 
HETATM   14  C14 UNL     1      -8.016 -10.053  10.997  1.00  0.00     0.135 C 
ENDROOT
BRANCH   1  15
HETATM   15  C5  UNL     1     -10.135 -10.157  13.240  1.00  0.00     0.081 C 
HETATM   16  C4  UNL     1      -9.980  -8.764  13.771  1.00  0.00     0.034 C 
HETATM   17  C3  UNL     1     -11.136  -8.266  14.584  1.00  0.00     0.126 C 
HETATM   18  N1  UNL     1     -12.368  -8.880  14.203  1.00  0.00    -0.351 N 
HETATM   19  C1  UNL     1     -13.529  -8.072  14.051  1.00  0.00     0.229 C 
HETATM   20  C16 UNL     1     -12.456 -10.293  13.978  1.00  0.00     0.126 C 
HETATM   21  O1  UNL     1     -14.612  -8.621  13.738  1.00  0.00    -0.273 OA
HETATM   22  C15 UNL     1     -11.107 -10.930  14.140  1.00  0.00     0.034 C 
BRANCH  19  23
HETATM   23  C2  UNL     1     -13.477  -6.626  14.255  1.00  0.00     0.188 C 
HETATM   24 BR1  UNL     1     -14.927  -5.753  13.314  1.00  0.00    -0.087 Br
ENDBRANCH  19  23
ENDBRANCH   1  15
TORSDOF 2
ENDMDL
MODEL 4
REMARK VINA RESULT: -6.413834846     10.219     12.242
REMARK  2 active torsions:
REMARK  status: ('A' for Active; 'I' for Inactive)
REMARK    1  A    between atoms: C1_2  and  C2_3 
REMARK       I    between atoms: C1_2  and  N1_5 
REMARK    2  A    between atoms: C5_8  and  C6_9 
REMARK       I    between atoms: C6_9  and  N2_11 
ROOT
HETATM    1  C6  UNL     1     -10.203  -9.737  15.235  1.00  0.00     0.224 C 
HETATM    2  O2  UNL     1      -9.533 -10.055  16.280  1.00  0.00    -0.273 OA
HETATM    3  N2  UNL     1     -11.573  -9.450  15.419  1.00  0.00    -0.351 N 
HETATM    4  C7  UNL     1     -12.261  -9.486  16.688  1.00  0.00     0.126 C 
HETATM    5  C8  UNL     1     -13.603  -8.878  16.483  1.00  0.00     0.031 C 
HETATM    6  C9  UNL     1     -13.749  -8.609  15.027  1.00  0.00    -0.020 C 
HETATM    7  C10 UNL     1     -14.927  -9.418  14.471  1.00  0.00     0.039 C 
HETATM    8  C11 UNL     1     -16.172  -8.811  15.079  1.00  0.00     0.233 C 
HETATM    9  N3  UNL     1     -16.456  -7.592  14.345  1.00  0.00    -0.075 N 
ATOM     10  H31 UNL     1     -16.982  -6.930  14.916  1.00  0.00     0.277 HD
ATOM     11  H32 UNL     1     -17.146  -7.755  13.610  1.00  0.00     0.277 HD
HETATM   12  C12 UNL     1     -15.255  -6.989  13.812  1.00  0.00     0.233 C 
HETATM   13  C13 UNL     1     -14.058  -7.160  14.722  1.00  0.00     0.039 C 
HETATM   14  C14 UNL     1     -12.498  -9.082  14.376  1.00  0.00     0.135 C 
ENDROOT
BRANCH   1  15
HETATM   15  C5  UNL     1      -9.507  -9.691  13.917  1.00  0.00     0.081 C 
HETATM   16  C4  UNL     1      -9.434 -11.024  13.235  1.00  0.00     0.034 C 
HETATM   17  C3  UNL     1      -8.168 -11.276  12.475  1.00  0.00     0.126 C 
HETATM   18  N1  UNL     1      -7.572 -10.067  12.004  1.00  0.00    -0.351 N 
HETATM   19  C1  UNL     1      -7.081 -10.008  10.670  1.00  0.00     0.229 C 
HETATM   20  C16 UNL     1      -7.452  -8.918  12.852  1.00  0.00     0.126 C 
HETATM   21  O1  UNL     1      -6.538  -8.950  10.271  1.00  0.00    -0.273 OA
HETATM   22  C15 UNL     1      -8.082  -9.189  14.187  1.00  0.00     0.034 C 
BRANCH  19  23
HETATM   23  C2  UNL     1      -7.199 -11.152   9.768  1.00  0.00     0.188 C 
HETATM   24 BR1  UNL     1      -7.601 -10.562   7.969  1.00  0.00    -0.087 Br
ENDBRANCH  19  23
ENDBRANCH   1  15
TORSDOF 2
ENDMDL
MODEL 5
REMARK VINA RESULT: -6.313726978      4.110      6.950
REMARK  2 active torsions:
REMARK  status: ('A' for Active; 'I' for Inactive)
REMARK    1  A    between atoms: C1_2  and  C2_3 
REMARK       I    between atoms: C1_2  and  N1_5 
REMARK    2  A    between atoms: C5_8  and  C6_9 
REMARK       I    between atoms: C6_9  and  N2_11 
ROOT
HETATM    1  C6  UNL     1     -17.873  -5.022  13.693  1.00  0.00     0.224 C 
HETATM    2  O2  UNL     1     -18.310  -4.075  14.436  1.00  0.00    -0.273 OA
HETATM    3  N2  UNL     1     -16.566  -5.488  13.957  1.00  0.00    -0.351 N 
HETATM    4  C7  UNL     1     -15.702  -4.980  14.995  1.00  0.00     0.126 C 
HETATM    5  C8  UNL     1     -14.539  -5.901  15.098  1.00  0.00     0.031 C 
HETATM    6  C9  UNL     1     -14.663  -6.892  13.995  1.00  0.00    -0.020 C 
HETATM    7  C10 UNL     1     -13.454  -6.775  13.060  1.00  0.00     0.039 C 
HETATM    8  C11 UNL     1     -12.264  -7.264  13.857  1.00  0.00     0.233 C 
HETATM    9  N3  UNL     1     -12.320  -8.713  13.861  1.00  0.00    -0.075 N 
ATOM     10  H31 UNL     1     -11.845  -9.100  14.678  1.00  0.00     0.277 HD
ATOM     11  H32 UNL     1     -11.729  -9.109  13.129  1.00  0.00     0.277 HD
HETATM   12  C12 UNL     1     -13.676  -9.203  13.763  1.00  0.00     0.233 C 
HETATM   13  C13 UNL     1     -14.673  -8.324  14.486  1.00  0.00     0.039 C 
HETATM   14  C14 UNL     1     -15.889  -6.535  13.233  1.00  0.00     0.135 C 
ENDROOT
BRANCH   1  15
HETATM   15  C5  UNL     1     -18.754  -5.562  12.618  1.00  0.00     0.081 C 
HETATM   16  C4  UNL     1     -18.008  -5.946  11.375  1.00  0.00     0.034 C 
HETATM   17  C3  UNL     1     -18.735  -5.675  10.093  1.00  0.00     0.126 C 
HETATM   18  N1  UNL     1     -20.153  -5.714  10.258  1.00  0.00    -0.351 N 
HETATM   19  C1  UNL     1     -20.946  -6.401   9.299  1.00  0.00     0.229 C 
HETATM   20  C16 UNL     1     -20.790  -5.067  11.368  1.00  0.00     0.126 C 
HETATM   21  O1  UNL     1     -22.192  -6.412   9.437  1.00  0.00    -0.273 OA
HETATM   22  C15 UNL     1     -19.761  -4.457  12.275  1.00  0.00     0.034 C 
BRANCH  19  23
HETATM   23  C2  UNL     1     -20.334  -7.087   8.162  1.00  0.00     0.188 C 
HETATM   24 BR1  UNL     1     -20.721  -8.983   8.222  1.00  0.00    -0.087 Br
ENDBRANCH  19  23
ENDBRANCH   1  15
TORSDOF 2
ENDMDL
