MODEL 1
REMARK VINA RESULT: -5.877148270      0.000      0.000
REMARK  3 active torsions:
REMARK  status: ('A' for Active; 'I' for Inactive)
REMARK       I    between atoms: C2_2  and  N1_4 
REMARK    1  A    between atoms: C8_10  and  C9_11 
REMARK       I    between atoms: C9_11  and  N2_13 
REMARK    2  A    between atoms: N2_13  and  C10_15 
REMARK    3  A    between atoms: N3_18  and  S1_19 
ROOT
HETATM    1  C1  UNL     1      -7.335  -7.753  13.506  1.00  0.00     0.117 C 
HETATM    2  C2  UNL     1      -7.751  -6.837  14.601  1.00  0.00     0.215 C 
HETATM    3  O1  UNL     1      -7.029  -5.826  14.797  1.00  0.00    -0.274 OA
HETATM    4  N1  UNL     1      -8.911  -7.111  15.373  1.00  0.00    -0.352 N 
HETATM    5  C3  UNL     1      -9.397  -6.283  16.457  1.00  0.00     0.126 C 
HETATM    6  C4  UNL     1     -10.900  -6.276  16.157  1.00  0.00     0.031 C 
HETATM    7  C5  UNL     1     -11.178  -7.491  15.343  1.00  0.00    -0.021 C 
HETATM    8  C6  UNL     1     -11.600  -7.229  13.923  1.00  0.00     0.014 C 
HETATM    9  C7  UNL     1     -12.798  -6.359  13.802  1.00  0.00     0.036 C 
HETATM   10  C8  UNL     1     -14.127  -7.123  13.860  1.00  0.00     0.187 C 
HETATM   11  N3  UNL     1     -14.382  -7.761  15.081  1.00  0.00    -0.297 N 
HETATM   12  C13 UNL     1     -13.482  -7.603  16.159  1.00  0.00     0.137 C 
HETATM   13  C14 UNL     1     -12.238  -8.395  15.940  1.00  0.00     0.032 C 
HETATM   14  C15 UNL     1      -9.837  -8.218  15.274  1.00  0.00     0.135 C 
ENDROOT
BRANCH  10  15
HETATM   15  C9  UNL     1     -15.168  -6.084  13.522  1.00  0.00     0.242 C 
HETATM   16  O2  UNL     1     -14.952  -4.863  13.733  1.00  0.00    -0.271 OA
HETATM   17  N2  UNL     1     -16.423  -6.435  12.958  1.00  0.00    -0.342 N 
ATOM     18  H2  UNL     1     -16.619  -7.420  12.781  1.00  0.00     0.164 HD
BRANCH  17  19
HETATM   19  C10 UNL     1     -17.431  -5.467  12.625  1.00  0.00     0.177 C 
HETATM   20  C11 UNL     1     -18.679  -5.612  13.451  1.00  0.00     0.049 C 
HETATM   21 CL1  UNL     1     -17.903  -5.634  10.916  1.00  0.00    -0.103 Cl
ENDBRANCH  17  19
ENDBRANCH  10  15
BRANCH  11  22
HETATM   22  S1  UNL     1     -15.085  -9.300  15.056  1.00  0.00     0.225 S 
HETATM   23  C12 UNL     1     -15.138  -9.919  16.749  1.00  0.00     0.186 C 
HETATM   24  O3  UNL     1     -14.267 -10.303  14.291  1.00  0.00    -0.206 OA
HETATM   25  O4  UNL     1     -16.469  -9.349  14.463  1.00  0.00    -0.206 OA
ENDBRANCH  11  22
TORSDOF 3
ENDMDL
MODEL 2
REMARK VINA RESULT: -5.742934737      2.240      2.596
REMARK  3 active torsions:
REMARK  status: ('A' for Active; 'I' for Inactive)
REMARK       I    between atoms: C2_2  and  N1_4 
REMARK    1  A    between atoms: C8_10  and  C9_11 
REMARK       I    between atoms: C9_11  and  N2_13 
REMARK    2  A    between atoms: N2_13  and  C10_15 
REMARK    3  A    between atoms: N3_18  and  S1_19 
ROOT
HETATM    1  C1  UNL     1      -8.557  -4.008  13.360  1.00  0.00     0.117 C 
HETATM    2  C2  UNL     1      -9.453  -3.341  14.340  1.00  0.00     0.215 C 
HETATM    3  O1  UNL     1      -9.493  -2.084  14.306  1.00  0.00    -0.274 OA
HETATM    4  N1  UNL     1     -10.220  -4.107  15.258  1.00  0.00    -0.352 N 
HETATM    5  C3  UNL     1     -11.119  -3.552  16.248  1.00  0.00     0.126 C 
HETATM    6  C4  UNL     1     -12.317  -4.498  16.105  1.00  0.00     0.031 C 
HETATM    7  C5  UNL     1     -11.794  -5.761  15.517  1.00  0.00    -0.021 C 
HETATM    8  C6  UNL     1     -12.273  -6.067  14.125  1.00  0.00     0.014 C 
HETATM    9  C7  UNL     1     -13.752  -6.124  13.995  1.00  0.00     0.036 C 
HETATM   10  C8  UNL     1     -14.348  -7.504  14.304  1.00  0.00     0.187 C 
HETATM   11  N3  UNL     1     -14.178  -7.931  15.627  1.00  0.00    -0.297 N 
HETATM   12  C13 UNL     1     -13.569  -7.075  16.571  1.00  0.00     0.137 C 
HETATM   13  C14 UNL     1     -12.097  -6.992  16.350  1.00  0.00     0.032 C 
HETATM   14  C15 UNL     1     -10.286  -5.542  15.423  1.00  0.00     0.135 C 
ENDROOT
BRANCH  10  15
HETATM   15  C9  UNL     1     -15.803  -7.374  13.920  1.00  0.00     0.242 C 
HETATM   16  O2  UNL     1     -16.644  -8.238  14.277  1.00  0.00    -0.271 OA
HETATM   17  N2  UNL     1     -16.279  -6.283  13.146  1.00  0.00    -0.342 N 
ATOM     18  H2  UNL     1     -15.613  -5.572  12.844  1.00  0.00     0.164 HD
BRANCH  17  19
HETATM   19  C10 UNL     1     -17.657  -6.134  12.768  1.00  0.00     0.177 C 
HETATM   20  C11 UNL     1     -17.828  -5.640  11.357  1.00  0.00     0.049 C 
HETATM   21 CL1  UNL     1     -18.465  -4.965  13.841  1.00  0.00    -0.103 Cl
ENDBRANCH  17  19
ENDBRANCH  10  15
BRANCH  11  22
HETATM   22  S1  UNL     1     -13.807  -9.558  15.907  1.00  0.00     0.225 S 
HETATM   23  C12 UNL     1     -12.856 -10.166  14.501  1.00  0.00     0.186 C 
HETATM   24  O3  UNL     1     -15.029 -10.434  15.969  1.00  0.00    -0.206 OA
HETATM   25  O4  UNL     1     -13.041  -9.819  17.177  1.00  0.00    -0.206 OA
ENDBRANCH  11  22
TORSDOF 3
ENDMDL
MODEL 3
REMARK VINA RESULT: -5.640354246      0.887      1.073
REMARK  3 active torsions:
REMARK  status: ('A' for Active; 'I' for Inactive)
REMARK       I    between atoms: C2_2  and  N1_4 
REMARK    1  A    between atoms: C8_10  and  C9_11 
REMARK       I    between atoms: C9_11  and  N2_13 
REMARK    2  A    between atoms: N2_13  and  C10_15 
REMARK    3  A    between atoms: N3_18  and  S1_19 
ROOT
HETATM    1  C1  UNL     1      -7.303  -6.754  13.681  1.00  0.00     0.117 C 
HETATM    2  C2  UNL     1      -7.819  -5.990  14.846  1.00  0.00     0.215 C 
HETATM    3  O1  UNL     1      -7.216  -4.924  15.136  1.00  0.00    -0.274 OA
HETATM    4  N1  UNL     1      -8.942  -6.459  15.580  1.00  0.00    -0.352 N 
HETATM    5  C3  UNL     1      -9.518  -5.788  16.727  1.00  0.00     0.126 C 
HETATM    6  C4  UNL     1     -11.012  -5.924  16.413  1.00  0.00     0.031 C 
HETATM    7  C5  UNL     1     -11.151  -7.087  15.495  1.00  0.00    -0.021 C 
HETATM    8  C6  UNL     1     -11.600  -6.752  14.099  1.00  0.00     0.014 C 
HETATM    9  C7  UNL     1     -12.889  -6.015  14.042  1.00  0.00     0.036 C 
HETATM   10  C8  UNL     1     -14.123  -6.926  14.020  1.00  0.00     0.187 C 
HETATM   11  N3  UNL     1     -14.304  -7.692  15.179  1.00  0.00    -0.297 N 
HETATM   12  C13 UNL     1     -13.427  -7.529  16.276  1.00  0.00     0.137 C 
HETATM   13  C14 UNL     1     -12.102  -8.154  16.002  1.00  0.00     0.032 C 
HETATM   14  C15 UNL     1      -9.736  -7.650  15.377  1.00  0.00     0.135 C 
ENDROOT
BRANCH  10  15
HETATM   15  C9  UNL     1     -15.275  -5.985  13.763  1.00  0.00     0.242 C 
HETATM   16  O2  UNL     1     -15.296  -4.837  14.276  1.00  0.00    -0.271 OA
HETATM   17  N2  UNL     1     -16.373  -6.351  12.940  1.00  0.00    -0.342 N 
ATOM     18  H2  UNL     1     -16.376  -7.279  12.516  1.00  0.00     0.164 HD
BRANCH  17  19
HETATM   19  C10 UNL     1     -17.480  -5.475  12.677  1.00  0.00     0.177 C 
HETATM   20  C11 UNL     1     -18.691  -5.794  13.511  1.00  0.00     0.049 C 
HETATM   21 CL1  UNL     1     -17.966  -5.596  10.968  1.00  0.00    -0.103 Cl
ENDBRANCH  17  19
ENDBRANCH  10  15
BRANCH  11  22
HETATM   22  S1  UNL     1     -14.829  -9.292  15.014  1.00  0.00     0.225 S 
HETATM   23  C12 UNL     1     -13.796 -10.096  13.774  1.00  0.00     0.186 C 
HETATM   24  O3  UNL     1     -16.234  -9.394  14.488  1.00  0.00    -0.206 OA
HETATM   25  O4  UNL     1     -14.799 -10.099  16.286  1.00  0.00    -0.206 OA
ENDBRANCH  11  22
TORSDOF 3
ENDMDL
MODEL 4
REMARK VINA RESULT: -5.610857955      2.946      3.737
REMARK  3 active torsions:
REMARK  status: ('A' for Active; 'I' for Inactive)
REMARK       I    between atoms: C2_2  and  N1_4 
REMARK    1  A    between atoms: C8_10  and  C9_11 
REMARK       I    between atoms: C9_11  and  N2_13 
REMARK    2  A    between atoms: N2_13  and  C10_15 
REMARK    3  A    between atoms: N3_18  and  S1_19 
ROOT
HETATM    1  C1  UNL     1     -10.139  -1.272  15.646  1.00  0.00     0.117 C 
HETATM    2  C2  UNL     1     -11.103  -1.545  16.744  1.00  0.00     0.215 C 
HETATM    3  O1  UNL     1     -11.574  -0.545  17.345  1.00  0.00    -0.274 OA
HETATM    4  N1  UNL     1     -11.460  -2.878  17.080  1.00  0.00    -0.352 N 
HETATM    5  C3  UNL     1     -12.387  -3.246  18.130  1.00  0.00     0.126 C 
HETATM    6  C4  UNL     1     -13.196  -4.340  17.424  1.00  0.00     0.031 C 
HETATM    7  C5  UNL     1     -12.336  -4.866  16.329  1.00  0.00    -0.021 C 
HETATM    8  C6  UNL     1     -12.823  -4.578  14.936  1.00  0.00     0.014 C 
HETATM    9  C7  UNL     1     -14.199  -5.071  14.664  1.00  0.00     0.036 C 
HETATM   10  C8  UNL     1     -14.250  -6.526  14.181  1.00  0.00     0.187 C 
HETATM   11  N3  UNL     1     -13.807  -7.469  15.118  1.00  0.00    -0.297 N 
HETATM   12  C13 UNL     1     -13.433  -7.051  16.415  1.00  0.00     0.137 C 
HETATM   13  C14 UNL     1     -12.111  -6.364  16.398  1.00  0.00     0.032 C 
HETATM   14  C15 UNL     1     -11.013  -4.122  16.493  1.00  0.00     0.135 C 
ENDROOT
BRANCH  10  15
HETATM   15  C9  UNL     1     -15.692  -6.736  13.787  1.00  0.00     0.242 C 
HETATM   16  O2  UNL     1     -16.359  -7.691  14.263  1.00  0.00    -0.271 OA
HETATM   17  N2  UNL     1     -16.352  -5.873  12.872  1.00  0.00    -0.342 N 
ATOM     18  H2  UNL     1     -15.829  -5.094  12.474  1.00  0.00     0.164 HD
BRANCH  17  19
HETATM   19  C10 UNL     1     -17.723  -6.048  12.481  1.00  0.00     0.177 C 
HETATM   20  C11 UNL     1     -17.993  -5.600  11.071  1.00  0.00     0.049 C 
HETATM   21 CL1  UNL     1     -18.792  -5.107  13.551  1.00  0.00    -0.103 Cl
ENDBRANCH  17  19
ENDBRANCH  10  15
BRANCH  11  22
HETATM   22  S1  UNL     1     -12.874  -8.771  14.572  1.00  0.00     0.225 S 
HETATM   23  C12 UNL     1     -13.871  -9.728  13.414  1.00  0.00     0.186 C 
HETATM   24  O3  UNL     1     -12.511  -9.731  15.672  1.00  0.00    -0.206 OA
HETATM   25  O4  UNL     1     -11.577  -8.382  13.911  1.00  0.00    -0.206 OA
ENDBRANCH  11  22
TORSDOF 3
ENDMDL
MODEL 5
REMARK VINA RESULT: -5.560199109      2.533      3.114
REMARK  3 active torsions:
REMARK  status: ('A' for Active; 'I' for Inactive)
REMARK       I    between atoms: C2_2  and  N1_4 
REMARK    1  A    between atoms: C8_10  and  C9_11 
REMARK       I    between atoms: C9_11  and  N2_13 
REMARK    2  A    between atoms: N2_13  and  C10_15 
REMARK    3  A    between atoms: N3_18  and  S1_19 
ROOT
HETATM    1  C1  UNL     1      -9.491  -2.402  14.582  1.00  0.00     0.117 C 
HETATM    2  C2  UNL     1     -10.446  -2.330  15.719  1.00  0.00     0.215 C 
HETATM    3  O1  UNL     1     -10.721  -1.183  16.156  1.00  0.00    -0.274 OA
HETATM    4  N1  UNL     1     -11.010  -3.514  16.267  1.00  0.00    -0.352 N 
HETATM    5  C3  UNL     1     -11.946  -3.549  17.371  1.00  0.00     0.126 C 
HETATM    6  C4  UNL     1     -12.952  -4.585  16.856  1.00  0.00     0.031 C 
HETATM    7  C5  UNL     1     -12.232  -5.415  15.852  1.00  0.00    -0.021 C 
HETATM    8  C6  UNL     1     -12.715  -5.269  14.435  1.00  0.00     0.014 C 
HETATM    9  C7  UNL     1     -14.162  -5.556  14.259  1.00  0.00     0.036 C 
HETATM   10  C8  UNL     1     -14.474  -7.038  14.015  1.00  0.00     0.187 C 
HETATM   11  N3  UNL     1     -14.162  -7.885  15.087  1.00  0.00    -0.297 N 
HETATM   12  C13 UNL     1     -13.676  -7.340  16.297  1.00  0.00     0.137 C 
HETATM   13  C14 UNL     1     -12.259  -6.900  16.157  1.00  0.00     0.032 C 
HETATM   14  C15 UNL     1     -10.799  -4.892  15.882  1.00  0.00     0.135 C 
ENDROOT
BRANCH  10  15
HETATM   15  C9  UNL     1     -15.945  -7.057  13.673  1.00  0.00     0.242 C 
HETATM   16  O2  UNL     1     -16.689  -7.987  14.076  1.00  0.00    -0.271 OA
HETATM   17  N2  UNL     1     -16.545  -6.036  12.889  1.00  0.00    -0.342 N 
ATOM     18  H2  UNL     1     -15.958  -5.274  12.551  1.00  0.00     0.164 HD
BRANCH  17  19
HETATM   19  C10 UNL     1     -17.940  -6.028  12.550  1.00  0.00     0.177 C 
HETATM   20  C11 UNL     1     -18.200  -5.562  11.144  1.00  0.00     0.049 C 
HETATM   21 CL1  UNL     1     -18.832  -4.940  13.643  1.00  0.00    -0.103 Cl
ENDBRANCH  17  19
ENDBRANCH  10  15
BRANCH  11  22
HETATM   22  S1  UNL     1     -13.480  -9.396  14.748  1.00  0.00     0.225 S 
HETATM   23  C12 UNL     1     -11.786  -9.133  14.187  1.00  0.00     0.186 C 
HETATM   24  O3  UNL     1     -14.169 -10.106  13.615  1.00  0.00    -0.206 OA
HETATM   25  O4  UNL     1     -13.477 -10.359  15.906  1.00  0.00    -0.206 OA
ENDBRANCH  11  22
TORSDOF 3
ENDMDL
