MODEL 1
REMARK VINA RESULT: -5.021176646      0.000      0.000
REMARK  2 active torsions:
REMARK  status: ('A' for Active; 'I' for Inactive)
REMARK    1  A    between atoms: N1_2  and  S1_4 
REMARK    2  A    between atoms: S1_4  and  N2_7 
REMARK       I    between atoms: N3_14  and  C8_15 
REMARK       I    between atoms: C8_15  and  N4_17 
ROOT
HETATM    1  N2  UNL     1     -10.169  -9.484  15.229  1.00  0.00    -0.174 NA
HETATM    2  C2  UNL     1     -10.840 -10.241  14.224  1.00  0.00     0.111 C 
HETATM    3  C3  UNL     1     -12.229  -9.654  14.065  1.00  0.00     0.029 C 
HETATM    4  C4  UNL     1     -12.172  -8.448  14.961  1.00  0.00     0.007 C 
HETATM    5  C5  UNL     1     -11.455  -7.335  14.228  1.00  0.00     0.016 C 
HETATM    6  C6  UNL     1     -12.184  -6.026  14.483  1.00  0.00     0.021 C 
HETATM    7  C7  UNL     1     -13.548  -6.187  13.769  1.00  0.00     0.127 C 
HETATM    8  N3  UNL     1     -14.240  -7.213  14.508  1.00  0.00    -0.333 N 
HETATM    9  C8  UNL     1     -15.588  -7.481  14.325  1.00  0.00     0.320 C 
HETATM   10  O3  UNL     1     -16.078  -8.425  15.060  1.00  0.00    -0.247 OA
HETATM   11  N4  UNL     1     -16.508  -6.868  13.449  1.00  0.00    -0.334 N 
HETATM   12  C9  UNL     1     -17.923  -7.333  13.451  1.00  0.00     0.127 C 
HETATM   13  C10 UNL     1     -18.797  -6.118  13.575  1.00  0.00     0.020 C 
HETATM   14  C11 UNL     1     -18.651  -5.244  12.364  1.00  0.00     0.003 C 
HETATM   15  C12 UNL     1     -17.444  -5.670  11.583  1.00  0.00     0.020 C 
HETATM   16  C13 UNL     1     -16.241  -5.806  12.518  1.00  0.00     0.127 C 
HETATM   17  C14 UNL     1     -13.501  -8.022  15.500  1.00  0.00     0.139 C 
HETATM   18  C15 UNL     1     -11.233  -8.932  16.047  1.00  0.00     0.182 C 
HETATM   19 CL1  UNL     1     -12.050 -10.242  16.930  1.00  0.00    -0.107 Cl
ENDROOT
BRANCH   1  20
HETATM   20  S1  UNL     1      -9.046 -10.400  16.149  1.00  0.00     0.299 S 
HETATM   21  O1  UNL     1      -7.687 -10.377  15.513  1.00  0.00    -0.188 OA
HETATM   22  O2  UNL     1      -8.970  -9.983  17.572  1.00  0.00    -0.188 OA
BRANCH  20  23
HETATM   23  N1  UNL     1      -9.593 -12.051  16.111  1.00  0.00    -0.311 N 
HETATM   24  C1  UNL     1      -9.252 -12.721  17.347  1.00  0.00     0.160 C 
ATOM     25  H1  UNL     1     -10.083 -12.484  15.329  1.00  0.00     0.172 HD
ENDBRANCH  20  23
ENDBRANCH   1  20
TORSDOF 2
ENDMDL
MODEL 2
REMARK VINA RESULT: -4.963780920      1.279      1.629
REMARK  2 active torsions:
REMARK  status: ('A' for Active; 'I' for Inactive)
REMARK    1  A    between atoms: N1_2  and  S1_4 
REMARK    2  A    between atoms: S1_4  and  N2_7 
REMARK       I    between atoms: N3_14  and  C8_15 
REMARK       I    between atoms: C8_15  and  N4_17 
ROOT
HETATM    1  N2  UNL     1      -9.671  -8.896  15.330  1.00  0.00    -0.174 NA
HETATM    2  C2  UNL     1     -10.240  -9.660  14.270  1.00  0.00     0.111 C 
HETATM    3  C3  UNL     1     -11.681  -9.217  14.112  1.00  0.00     0.029 C 
HETATM    4  C4  UNL     1     -11.769  -8.066  15.075  1.00  0.00     0.007 C 
HETATM    5  C5  UNL     1     -11.165  -6.842  14.422  1.00  0.00     0.016 C 
HETATM    6  C6  UNL     1     -12.035  -5.636  14.733  1.00  0.00     0.021 C 
HETATM    7  C7  UNL     1     -13.361  -5.899  13.980  1.00  0.00     0.127 C 
HETATM    8  N3  UNL     1     -13.951  -7.035  14.645  1.00  0.00    -0.333 N 
HETATM    9  C8  UNL     1     -15.259  -7.434  14.418  1.00  0.00     0.320 C 
HETATM   10  O3  UNL     1     -15.657  -8.466  15.088  1.00  0.00    -0.247 OA
HETATM   11  N4  UNL     1     -16.226  -6.873  13.556  1.00  0.00    -0.334 N 
HETATM   12  C9  UNL     1     -17.581  -7.486  13.500  1.00  0.00     0.127 C 
HETATM   13  C10 UNL     1     -18.584  -6.380  13.672  1.00  0.00     0.020 C 
HETATM   14  C11 UNL     1     -18.513  -5.427  12.516  1.00  0.00     0.003 C 
HETATM   15  C12 UNL     1     -17.254  -5.676  11.739  1.00  0.00     0.020 C 
HETATM   16  C13 UNL     1     -16.059  -5.737  12.692  1.00  0.00     0.127 C 
HETATM   17  C14 UNL     1     -13.145  -7.816  15.607  1.00  0.00     0.139 C 
HETATM   18  C15 UNL     1     -10.802  -8.509  16.154  1.00  0.00     0.182 C 
HETATM   19 CL1  UNL     1     -11.487  -9.947  16.944  1.00  0.00    -0.107 Cl
ENDROOT
BRANCH   1  20
HETATM   20  S1  UNL     1      -8.472  -9.738  16.223  1.00  0.00     0.299 S 
HETATM   21  O1  UNL     1      -8.436  -9.266  17.649  1.00  0.00    -0.188 OA
HETATM   22  O2  UNL     1      -8.615 -11.214  16.160  1.00  0.00    -0.188 OA
BRANCH  20  23
HETATM   23  N1  UNL     1      -6.936  -9.325  15.518  1.00  0.00    -0.311 N 
HETATM   24  C1  UNL     1      -6.954  -7.961  15.037  1.00  0.00     0.160 C 
ATOM     25  H1  UNL     1      -6.137  -9.956  15.452  1.00  0.00     0.172 HD
ENDBRANCH  20  23
ENDBRANCH   1  20
TORSDOF 2
ENDMDL
MODEL 3
REMARK VINA RESULT: -4.915330474      2.413      3.290
REMARK  2 active torsions:
REMARK  status: ('A' for Active; 'I' for Inactive)
REMARK    1  A    between atoms: N1_2  and  S1_4 
REMARK    2  A    between atoms: S1_4  and  N2_7 
REMARK       I    between atoms: N3_14  and  C8_15 
REMARK       I    between atoms: C8_15  and  N4_17 
ROOT
HETATM    1  N2  UNL     1     -13.136  -8.244  15.643  1.00  0.00    -0.174 NA
HETATM    2  C2  UNL     1     -12.882  -8.756  14.337  1.00  0.00     0.111 C 
HETATM    3  C3  UNL     1     -14.134  -8.534  13.511  1.00  0.00     0.029 C 
HETATM    4  C4  UNL     1     -15.000  -7.740  14.448  1.00  0.00     0.007 C 
HETATM    5  C5  UNL     1     -14.546  -6.297  14.421  1.00  0.00     0.016 C 
HETATM    6  C6  UNL     1     -15.769  -5.395  14.409  1.00  0.00     0.021 C 
HETATM    7  C7  UNL     1     -16.436  -5.650  13.036  1.00  0.00     0.127 C 
HETATM    8  N3  UNL     1     -16.909  -7.010  13.096  1.00  0.00    -0.333 N 
HETATM    9  C8  UNL     1     -17.771  -7.541  12.148  1.00  0.00     0.320 C 
HETATM   10  O3  UNL     1     -18.118  -8.773  12.330  1.00  0.00    -0.247 OA
HETATM   11  N4  UNL     1     -18.329  -6.927  11.007  1.00  0.00    -0.334 N 
HETATM   12  C9  UNL     1     -19.249  -7.716  10.143  1.00  0.00     0.127 C 
HETATM   13  C10 UNL     1     -20.486  -6.891   9.929  1.00  0.00     0.020 C 
HETATM   14  C11 UNL     1     -20.158  -5.648   9.156  1.00  0.00     0.003 C 
HETATM   15  C12 UNL     1     -18.671  -5.448   9.139  1.00  0.00     0.020 C 
HETATM   16  C13 UNL     1     -18.113  -5.578  10.557  1.00  0.00     0.127 C 
HETATM   17  C14 UNL     1     -16.468  -7.888  14.200  1.00  0.00     0.139 C 
HETATM   18  C15 UNL     1     -14.579  -8.305  15.789  1.00  0.00     0.182 C 
HETATM   19 CL1  UNL     1     -15.103 -10.004  15.854  1.00  0.00    -0.107 Cl
ENDROOT
BRANCH   1  20
HETATM   20  S1  UNL     1     -12.317  -9.094  16.890  1.00  0.00     0.299 S 
HETATM   21  O1  UNL     1     -11.247  -8.240  17.506  1.00  0.00    -0.188 OA
HETATM   22  O2  UNL     1     -13.226  -9.634  17.932  1.00  0.00    -0.188 OA
BRANCH  20  23
HETATM   23  N1  UNL     1     -11.516 -10.442  16.138  1.00  0.00    -0.311 N 
HETATM   24  C1  UNL     1     -10.085 -10.350  16.335  1.00  0.00     0.160 C 
ATOM     25  H1  UNL     1     -11.987 -11.190  15.630  1.00  0.00     0.172 HD
ENDBRANCH  20  23
ENDBRANCH   1  20
TORSDOF 2
ENDMDL
MODEL 4
REMARK VINA RESULT: -4.869004547      3.944      7.670
REMARK  2 active torsions:
REMARK  status: ('A' for Active; 'I' for Inactive)
REMARK    1  A    between atoms: N1_2  and  S1_4 
REMARK    2  A    between atoms: S1_4  and  N2_7 
REMARK       I    between atoms: N3_14  and  C8_15 
REMARK       I    between atoms: C8_15  and  N4_17 
ROOT
HETATM    1  N2  UNL     1     -12.629  -9.034  15.919  1.00  0.00    -0.174 NA
HETATM    2  C2  UNL     1     -12.725  -8.099  14.847  1.00  0.00     0.111 C 
HETATM    3  C3  UNL     1     -11.411  -8.138  14.091  1.00  0.00     0.029 C 
HETATM    4  C4  UNL     1     -10.685  -9.266  14.768  1.00  0.00     0.007 C 
HETATM    5  C5  UNL     1     -11.209 -10.576  14.220  1.00  0.00     0.016 C 
HETATM    6  C6  UNL     1     -10.041 -11.521  13.996  1.00  0.00     0.021 C 
HETATM    7  C7  UNL     1      -9.229 -10.882  12.845  1.00  0.00     0.127 C 
HETATM    8  N3  UNL     1      -8.693  -9.662  13.396  1.00  0.00    -0.333 N 
HETATM    9  C8  UNL     1      -7.715  -8.921  12.751  1.00  0.00     0.320 C 
HETATM   10  O3  UNL     1      -7.323  -7.852  13.364  1.00  0.00    -0.247 OA
HETATM   11  N4  UNL     1      -7.080  -9.166  11.515  1.00  0.00    -0.334 N 
HETATM   12  C9  UNL     1      -6.039  -8.214  11.040  1.00  0.00     0.127 C 
HETATM   13  C10 UNL     1      -4.832  -9.021  10.654  1.00  0.00     0.020 C 
HETATM   14  C11 UNL     1      -5.148  -9.906   9.484  1.00  0.00     0.003 C 
HETATM   15  C12 UNL     1      -6.634  -9.964   9.288  1.00  0.00     0.020 C 
HETATM   16  C13 UNL     1      -7.322 -10.266  10.621  1.00  0.00     0.127 C 
HETATM   17  C14 UNL     1      -9.194  -9.167  14.695  1.00  0.00     0.139 C 
HETATM   18  C15 UNL     1     -11.206  -9.145  16.185  1.00  0.00     0.182 C 
HETATM   19 CL1  UNL     1     -10.602  -7.614  16.859  1.00  0.00    -0.107 Cl
ENDROOT
BRANCH   1  20
HETATM   20  S1  UNL     1     -13.520  -8.581  17.313  1.00  0.00     0.299 S 
HETATM   21  O1  UNL     1     -13.080  -9.373  18.511  1.00  0.00    -0.188 OA
HETATM   22  O2  UNL     1     -13.473  -7.125  17.598  1.00  0.00    -0.188 OA
BRANCH  20  23
HETATM   23  N1  UNL     1     -15.180  -9.006  17.010  1.00  0.00    -0.311 N 
HETATM   24  C1  UNL     1     -15.336 -10.445  16.996  1.00  0.00     0.160 C 
ATOM     25  H1  UNL     1     -15.935  -8.337  16.864  1.00  0.00     0.172 HD
ENDBRANCH  20  23
ENDBRANCH   1  20
TORSDOF 2
ENDMDL
MODEL 5
REMARK VINA RESULT: -4.813487612      2.251      3.084
REMARK  2 active torsions:
REMARK  status: ('A' for Active; 'I' for Inactive)
REMARK    1  A    between atoms: N1_2  and  S1_4 
REMARK    2  A    between atoms: S1_4  and  N2_7 
REMARK       I    between atoms: N3_14  and  C8_15 
REMARK       I    between atoms: C8_15  and  N4_17 
ROOT
HETATM    1  N2  UNL     1     -12.015  -9.482  18.079  1.00  0.00    -0.174 NA
HETATM    2  C2  UNL     1     -12.301  -8.109  18.337  1.00  0.00     0.111 C 
HETATM    3  C3  UNL     1     -13.112  -7.585  17.168  1.00  0.00     0.029 C 
HETATM    4  C4  UNL     1     -13.345  -8.829  16.357  1.00  0.00     0.007 C 
HETATM    5  C5  UNL     1     -14.477  -9.611  16.984  1.00  0.00     0.016 C 
HETATM    6  C6  UNL     1     -15.380 -10.143  15.884  1.00  0.00     0.021 C 
HETATM    7  C7  UNL     1     -16.034  -8.884  15.265  1.00  0.00     0.127 C 
HETATM    8  N3  UNL     1     -14.953  -8.175  14.626  1.00  0.00    -0.333 N 
HETATM    9  C8  UNL     1     -15.167  -7.115  13.759  1.00  0.00     0.320 C 
HETATM   10  O3  UNL     1     -14.105  -6.577  13.255  1.00  0.00    -0.247 OA
HETATM   11  N4  UNL     1     -16.385  -6.536  13.342  1.00  0.00    -0.334 N 
HETATM   12  C9  UNL     1     -16.349  -5.401  12.380  1.00  0.00     0.127 C 
HETATM   13  C10 UNL     1     -17.304  -5.723  11.266  1.00  0.00     0.020 C 
HETATM   14  C11 UNL     1     -18.711  -5.780  11.786  1.00  0.00     0.003 C 
HETATM   15  C12 UNL     1     -18.688  -5.842  13.284  1.00  0.00     0.020 C 
HETATM   16  C13 UNL     1     -17.709  -6.923  13.745  1.00  0.00     0.127 C 
HETATM   17  C14 UNL     1     -13.557  -8.577  14.897  1.00  0.00     0.139 C 
HETATM   18  C15 UNL     1     -12.072  -9.604  16.633  1.00  0.00     0.182 C 
HETATM   19 CL1  UNL     1     -10.720  -8.710  15.903  1.00  0.00    -0.107 Cl
ENDROOT
BRANCH   1  20
HETATM   20  S1  UNL     1     -10.513 -10.008  18.719  1.00  0.00     0.299 S 
HETATM   21  O1  UNL     1      -9.926 -11.104  17.877  1.00  0.00    -0.188 OA
HETATM   22  O2  UNL     1      -9.534  -8.908  18.909  1.00  0.00    -0.188 OA
BRANCH  20  23
HETATM   23  N1  UNL     1     -10.844 -10.695  20.282  1.00  0.00    -0.311 N 
HETATM   24  C1  UNL     1     -12.142 -11.336  20.284  1.00  0.00     0.160 C 
ATOM     25  H1  UNL     1     -10.214 -10.653  21.082  1.00  0.00     0.172 HD
ENDBRANCH  20  23
ENDBRANCH   1  20
TORSDOF 2
ENDMDL
