MODEL 1
REMARK VINA RESULT: -7.126479388      0.000      0.000
REMARK  7 active torsions:
REMARK  status: ('A' for Active; 'I' for Inactive)
REMARK    1  A    between atoms: C5_5  and  C6_6 
REMARK    2  A    between atoms: C7_11  and  S1_12 
REMARK    3  A    between atoms: S1_12  and  C8_13 
REMARK    4  A    between atoms: C8_13  and  C9_14 
REMARK    5  A    between atoms: C9_14  and  C10_15 
REMARK    6  A    between atoms: C10_15  and  C11_16 
REMARK    7  A    between atoms: C11_16  and  N3_17 
ROOT
HETATM    1  S1  UNL     1       9.517 -17.055   4.430  1.00  0.00    -0.085 SA
ENDROOT
BRANCH   1   2
HETATM    2  C7  UNL     1      10.032 -15.783   3.308  1.00  0.00     0.203 A 
HETATM    3  N2  UNL     1      10.416 -15.994   2.040  1.00  0.00    -0.272 N 
HETATM    4  N1  UNL     1      10.739 -14.847   1.462  1.00  0.00    -0.276 N 
ATOM      5  H2  UNL     1      10.454 -16.907   1.587  1.00  0.00     0.189 HD
HETATM    6  C6  UNL     1      10.543 -13.908   2.413  1.00  0.00     0.182 A 
ATOM      7  H1  UNL     1      11.066 -14.704   0.506  1.00  0.00     0.189 HD
HETATM    8  O1  UNL     1      10.127 -14.489   3.488  1.00  0.00    -0.267 OA
BRANCH   6   9
HETATM    9  C5  UNL     1      10.796 -12.472   2.159  1.00  0.00     0.058 A 
HETATM   10  C4  UNL     1      10.814 -11.451   3.079  1.00  0.00     0.024 A 
HETATM   11  C3  UNL     1      11.065 -10.219   2.620  1.00  0.00     0.015 A 
HETATM   12  C2  UNL     1      11.282 -10.074   1.278  1.00  0.00    -0.021 A 
HETATM   13  C1  UNL     1      11.582  -8.842   0.481  1.00  0.00     0.056 C 
HETATM   14  S2  UNL     1      11.130 -11.667   0.694  1.00  0.00    -0.091 SA
ENDBRANCH   6   9
ENDBRANCH   1   2
BRANCH   1  15
HETATM   15  C8  UNL     1      10.440 -17.029   5.974  1.00  0.00     0.083 C 
BRANCH  15  16
HETATM   16  C9  UNL     1      10.722 -15.704   6.543  1.00  0.00     0.012 C 
BRANCH  16  17
HETATM   17  C10 UNL     1       9.646 -14.881   7.130  1.00  0.00     0.031 C 
BRANCH  17  18
HETATM   18  C11 UNL     1       8.465 -15.599   7.697  1.00  0.00     0.272 C 
BRANCH  18  19
HETATM   19  N3  UNL     1       7.667 -14.912   8.661  1.00  0.00     0.092 N 
HETATM   20  C12 UNL     1       8.549 -14.039   9.424  1.00  0.00     0.305 C 
HETATM   21  C13 UNL     1       7.814 -13.428  10.598  1.00  0.00     0.214 C 
HETATM   22  C14 UNL     1       6.379 -13.093  10.281  1.00  0.00     0.037 C 
HETATM   23  N4  UNL     1       7.653 -14.526  11.561  1.00  0.00    -0.063 N 
HETATM   24  C15 UNL     1       5.566 -14.326  10.646  1.00  0.00     0.037 C 
HETATM   25  C16 UNL     1       6.671 -15.338  10.874  1.00  0.00     0.214 C 
HETATM   26  C17 UNL     1       7.150 -15.910   9.579  1.00  0.00     0.305 C 
ATOM     27  H42 UNL     1       8.512 -15.007  11.831  1.00  0.00     0.278 HD
ATOM     28  H41 UNL     1       7.409 -14.249  12.511  1.00  0.00     0.278 HD
ENDBRANCH  18  19
ENDBRANCH  17  18
ENDBRANCH  16  17
ENDBRANCH  15  16
ENDBRANCH   1  15
TORSDOF 7
ENDMDL
MODEL 2
REMARK VINA RESULT: -7.105124527      4.728      7.673
REMARK  7 active torsions:
REMARK  status: ('A' for Active; 'I' for Inactive)
REMARK    1  A    between atoms: C5_5  and  C6_6 
REMARK    2  A    between atoms: C7_11  and  S1_12 
REMARK    3  A    between atoms: S1_12  and  C8_13 
REMARK    4  A    between atoms: C8_13  and  C9_14 
REMARK    5  A    between atoms: C9_14  and  C10_15 
REMARK    6  A    between atoms: C10_15  and  C11_16 
REMARK    7  A    between atoms: C11_16  and  N3_17 
ROOT
HETATM    1  S1  UNL     1       9.657 -17.010   4.643  1.00  0.00    -0.085 SA
ENDROOT
BRANCH   1   2
HETATM    2  C7  UNL     1      10.095 -15.763   3.462  1.00  0.00     0.203 A 
HETATM    3  N2  UNL     1      10.369 -15.998   2.170  1.00  0.00    -0.272 N 
HETATM    4  N1  UNL     1      10.659 -14.865   1.549  1.00  0.00    -0.276 N 
ATOM      5  H2  UNL     1      10.355 -16.918   1.729  1.00  0.00     0.189 HD
HETATM    6  C6  UNL     1      10.557 -13.910   2.498  1.00  0.00     0.182 A 
ATOM      7  H1  UNL     1      10.906 -14.741   0.567  1.00  0.00     0.189 HD
HETATM    8  O1  UNL     1      10.224 -14.468   3.612  1.00  0.00    -0.267 OA
BRANCH   6   9
HETATM    9  C5  UNL     1      10.809 -12.482   2.201  1.00  0.00     0.058 A 
HETATM   10  C4  UNL     1      10.832 -11.434   3.091  1.00  0.00     0.024 A 
HETATM   11  C3  UNL     1      11.081 -10.216   2.595  1.00  0.00     0.015 A 
HETATM   12  C2  UNL     1      11.292 -10.110   1.248  1.00  0.00    -0.021 A 
HETATM   13  C1  UNL     1      11.588  -8.902   0.415  1.00  0.00     0.056 C 
HETATM   14  S2  UNL     1      11.137 -11.719   0.712  1.00  0.00    -0.091 SA
ENDBRANCH   6   9
ENDBRANCH   1   2
BRANCH   1  15
HETATM   15  C8  UNL     1       8.587 -18.276   3.944  1.00  0.00     0.083 C 
BRANCH  15  16
HETATM   16  C9  UNL     1       7.236 -17.848   3.557  1.00  0.00     0.012 C 
BRANCH  16  17
HETATM   17  C10 UNL     1       6.668 -18.210   2.244  1.00  0.00     0.031 C 
BRANCH  17  18
HETATM   18  C11 UNL     1       6.603 -19.662   1.901  1.00  0.00     0.272 C 
BRANCH  18  19
HETATM   19  N3  UNL     1       7.042 -20.061   0.603  1.00  0.00     0.092 N 
HETATM   20  C12 UNL     1       8.414 -19.598   0.437  1.00  0.00     0.305 C 
HETATM   21  C13 UNL     1       8.881 -19.805  -0.988  1.00  0.00     0.214 C 
HETATM   22  C14 UNL     1       8.351 -21.076  -1.600  1.00  0.00     0.037 C 
HETATM   23  N4  UNL     1       8.176 -18.783  -1.773  1.00  0.00    -0.063 N 
HETATM   24  C15 UNL     1       7.039 -20.704  -2.275  1.00  0.00     0.037 C 
HETATM   25  C16 UNL     1       6.826 -19.306  -1.733  1.00  0.00     0.214 C 
HETATM   26  C17 UNL     1       6.228 -19.347  -0.364  1.00  0.00     0.305 C 
ATOM     27  H42 UNL     1       8.287 -17.822  -1.450  1.00  0.00     0.278 HD
ATOM     28  H41 UNL     1       8.552 -18.603  -2.704  1.00  0.00     0.278 HD
ENDBRANCH  18  19
ENDBRANCH  17  18
ENDBRANCH  16  17
ENDBRANCH  15  16
ENDBRANCH   1  15
TORSDOF 7
ENDMDL
MODEL 3
REMARK VINA RESULT: -7.023503183      3.966      6.987
REMARK  7 active torsions:
REMARK  status: ('A' for Active; 'I' for Inactive)
REMARK    1  A    between atoms: C5_5  and  C6_6 
REMARK    2  A    between atoms: C7_11  and  S1_12 
REMARK    3  A    between atoms: S1_12  and  C8_13 
REMARK    4  A    between atoms: C8_13  and  C9_14 
REMARK    5  A    between atoms: C9_14  and  C10_15 
REMARK    6  A    between atoms: C10_15  and  C11_16 
REMARK    7  A    between atoms: C11_16  and  N3_17 
ROOT
HETATM    1  S1  UNL     1      10.272 -17.195   4.898  1.00  0.00    -0.085 SA
ENDROOT
BRANCH   1   2
HETATM    2  C7  UNL     1      10.404 -15.930   3.663  1.00  0.00     0.203 A 
HETATM    3  N2  UNL     1      10.326 -16.143   2.341  1.00  0.00    -0.272 N 
HETATM    4  N1  UNL     1      10.460 -15.002   1.684  1.00  0.00    -0.276 N 
ATOM      5  H2  UNL     1      10.182 -17.055   1.905  1.00  0.00     0.189 HD
HETATM    6  C6  UNL     1      10.625 -14.064   2.641  1.00  0.00     0.182 A 
ATOM      7  H1  UNL     1      10.443 -14.862   0.673  1.00  0.00     0.189 HD
HETATM    8  O1  UNL     1      10.588 -14.639   3.795  1.00  0.00    -0.267 OA
BRANCH   6   9
HETATM    9  C5  UNL     1      10.812 -12.633   2.311  1.00  0.00     0.058 A 
HETATM   10  C4  UNL     1      10.720 -11.559   3.164  1.00  0.00     0.024 A 
HETATM   11  C3  UNL     1      10.928 -10.344   2.642  1.00  0.00     0.015 A 
HETATM   12  C2  UNL     1      11.214 -10.267   1.308  1.00  0.00    -0.021 A 
HETATM   13  C1  UNL     1      11.491  -9.070   0.452  1.00  0.00     0.056 C 
HETATM   14  S2  UNL     1      11.185 -11.898   0.819  1.00  0.00    -0.091 SA
ENDBRANCH   6   9
ENDBRANCH   1   2
BRANCH   1  15
HETATM   15  C8  UNL     1       8.641 -17.256   5.653  1.00  0.00     0.083 C 
BRANCH  15  16
HETATM   16  C9  UNL     1       7.670 -18.170   5.037  1.00  0.00     0.012 C 
BRANCH  16  17
HETATM   17  C10 UNL     1       7.568 -18.298   3.570  1.00  0.00     0.031 C 
BRANCH  17  18
HETATM   18  C11 UNL     1       8.003 -19.591   2.962  1.00  0.00     0.272 C 
BRANCH  18  19
HETATM   19  N3  UNL     1       7.701 -19.816   1.585  1.00  0.00     0.092 N 
HETATM   20  C12 UNL     1       8.903 -19.525   0.815  1.00  0.00     0.305 C 
HETATM   21  C13 UNL     1       8.606 -19.544  -0.670  1.00  0.00     0.214 C 
HETATM   22  C14 UNL     1       7.607 -20.605  -1.053  1.00  0.00     0.037 C 
HETATM   23  N4  UNL     1       7.842 -18.315  -0.922  1.00  0.00    -0.063 N 
HETATM   24  C15 UNL     1       6.239 -19.946  -0.972  1.00  0.00     0.037 C 
HETATM   25  C16 UNL     1       6.589 -18.647  -0.277  1.00  0.00     0.214 C 
HETATM   26  C17 UNL     1       6.696 -18.842   1.201  1.00  0.00     0.305 C 
ATOM     27  H42 UNL     1       8.282 -17.449  -0.612  1.00  0.00     0.278 HD
ATOM     28  H41 UNL     1       7.773 -18.031  -1.899  1.00  0.00     0.278 HD
ENDBRANCH  18  19
ENDBRANCH  17  18
ENDBRANCH  16  17
ENDBRANCH  15  16
ENDBRANCH   1  15
TORSDOF 7
ENDMDL
MODEL 4
REMARK VINA RESULT: -7.018020841      4.777      7.583
REMARK  7 active torsions:
REMARK  status: ('A' for Active; 'I' for Inactive)
REMARK    1  A    between atoms: C5_5  and  C6_6 
REMARK    2  A    between atoms: C7_11  and  S1_12 
REMARK    3  A    between atoms: S1_12  and  C8_13 
REMARK    4  A    between atoms: C8_13  and  C9_14 
REMARK    5  A    between atoms: C9_14  and  C10_15 
REMARK    6  A    between atoms: C10_15  and  C11_16 
REMARK    7  A    between atoms: C11_16  and  N3_17 
ROOT
HETATM    1  S1  UNL     1       9.577 -17.002   4.605  1.00  0.00    -0.085 SA
ENDROOT
BRANCH   1   2
HETATM    2  C7  UNL     1      10.055 -15.755   3.439  1.00  0.00     0.203 A 
HETATM    3  N2  UNL     1      10.380 -15.992   2.160  1.00  0.00    -0.272 N 
HETATM    4  N1  UNL     1      10.690 -14.860   1.548  1.00  0.00    -0.276 N 
ATOM      5  H2  UNL     1      10.388 -16.913   1.721  1.00  0.00     0.189 HD
HETATM    6  C6  UNL     1      10.546 -13.902   2.490  1.00  0.00     0.182 A 
ATOM      7  H1  UNL     1      10.975 -14.736   0.576  1.00  0.00     0.189 HD
HETATM    8  O1  UNL     1      10.172 -14.459   3.591  1.00  0.00    -0.267 OA
BRANCH   6   9
HETATM    9  C5  UNL     1      10.803 -12.474   2.199  1.00  0.00     0.058 A 
HETATM   10  C4  UNL     1      10.829 -11.430   3.093  1.00  0.00     0.024 A 
HETATM   11  C3  UNL     1      11.081 -10.211   2.603  1.00  0.00     0.015 A 
HETATM   12  C2  UNL     1      11.293 -10.099   1.257  1.00  0.00    -0.021 A 
HETATM   13  C1  UNL     1      11.594  -8.888   0.429  1.00  0.00     0.056 C 
HETATM   14  S2  UNL     1      11.133 -11.705   0.714  1.00  0.00    -0.091 SA
ENDBRANCH   6   9
ENDBRANCH   1   2
BRANCH   1  15
HETATM   15  C8  UNL     1       8.640 -18.336   3.844  1.00  0.00     0.083 C 
BRANCH  15  16
HETATM   16  C9  UNL     1       7.430 -17.947   3.109  1.00  0.00     0.012 C 
BRANCH  16  17
HETATM   17  C10 UNL     1       6.214 -18.783   3.144  1.00  0.00     0.031 C 
BRANCH  17  18
HETATM   18  C11 UNL     1       6.034 -19.778   2.045  1.00  0.00     0.272 C 
BRANCH  18  19
HETATM   19  N3  UNL     1       6.859 -19.649   0.887  1.00  0.00     0.092 N 
HETATM   20  C12 UNL     1       5.987 -19.382  -0.250  1.00  0.00     0.305 C 
HETATM   21  C13 UNL     1       6.766 -19.433  -1.547  1.00  0.00     0.214 C 
HETATM   22  C14 UNL     1       8.159 -18.872  -1.416  1.00  0.00     0.037 C 
HETATM   23  N4  UNL     1       7.042 -20.859  -1.771  1.00  0.00    -0.063 N 
HETATM   24  C15 UNL     1       9.053 -20.046  -1.044  1.00  0.00     0.037 C 
HETATM   25  C16 UNL     1       8.016 -21.105  -0.729  1.00  0.00     0.214 C 
HETATM   26  C17 UNL     1       7.483 -20.938   0.657  1.00  0.00     0.305 C 
ATOM     27  H42 UNL     1       6.227 -21.473  -1.768  1.00  0.00     0.278 HD
ATOM     28  H41 UNL     1       7.333 -21.109  -2.716  1.00  0.00     0.278 HD
ENDBRANCH  18  19
ENDBRANCH  17  18
ENDBRANCH  16  17
ENDBRANCH  15  16
ENDBRANCH   1  15
TORSDOF 7
ENDMDL
MODEL 5
REMARK VINA RESULT: -6.995073738      0.858      1.399
REMARK  7 active torsions:
REMARK  status: ('A' for Active; 'I' for Inactive)
REMARK    1  A    between atoms: C5_5  and  C6_6 
REMARK    2  A    between atoms: C7_11  and  S1_12 
REMARK    3  A    between atoms: S1_12  and  C8_13 
REMARK    4  A    between atoms: C8_13  and  C9_14 
REMARK    5  A    between atoms: C9_14  and  C10_15 
REMARK    6  A    between atoms: C10_15  and  C11_16 
REMARK    7  A    between atoms: C11_16  and  N3_17 
ROOT
HETATM    1  S1  UNL     1       9.378 -16.988   4.402  1.00  0.00    -0.085 SA
ENDROOT
BRANCH   1   2
HETATM    2  C7  UNL     1       9.958 -15.739   3.284  1.00  0.00     0.203 A 
HETATM    3  N2  UNL     1      10.410 -15.977   2.044  1.00  0.00    -0.272 N 
HETATM    4  N1  UNL     1      10.768 -14.843   1.461  1.00  0.00    -0.276 N 
ATOM      5  H2  UNL     1      10.469 -16.899   1.611  1.00  0.00     0.189 HD
HETATM    6  C6  UNL     1      10.524 -13.885   2.381  1.00  0.00     0.182 A 
ATOM      7  H1  UNL     1      11.146 -14.720   0.522  1.00  0.00     0.189 HD
HETATM    8  O1  UNL     1      10.048 -14.442   3.443  1.00  0.00    -0.267 OA
BRANCH   6   9
HETATM    9  C5  UNL     1      10.795 -12.455   2.112  1.00  0.00     0.058 A 
HETATM   10  C4  UNL     1      10.834 -11.426   3.023  1.00  0.00     0.024 A 
HETATM   11  C3  UNL     1      11.099 -10.201   2.551  1.00  0.00     0.015 A 
HETATM   12  C2  UNL     1      11.309 -10.072   1.206  1.00  0.00    -0.021 A 
HETATM   13  C1  UNL     1      11.621  -8.851   0.397  1.00  0.00     0.056 C 
HETATM   14  S2  UNL     1      11.131 -11.667   0.638  1.00  0.00    -0.091 SA
ENDBRANCH   6   9
ENDBRANCH   1   2
BRANCH   1  15
HETATM   15  C8  UNL     1      10.231 -16.946   5.985  1.00  0.00     0.083 C 
BRANCH  15  16
HETATM   16  C9  UNL     1      10.842 -15.665   6.364  1.00  0.00     0.012 C 
BRANCH  16  17
HETATM   17  C10 UNL     1      10.023 -14.556   6.890  1.00  0.00     0.031 C 
BRANCH  17  18
HETATM   18  C11 UNL     1      10.176 -14.217   8.337  1.00  0.00     0.272 C 
BRANCH  18  19
HETATM   19  N3  UNL     1       9.100 -14.545   9.216  1.00  0.00     0.092 N 
HETATM   20  C12 UNL     1       7.947 -14.889   8.395  1.00  0.00     0.305 C 
HETATM   21  C13 UNL     1       6.708 -15.054   9.250  1.00  0.00     0.214 C 
HETATM   22  C14 UNL     1       7.000 -15.688  10.586  1.00  0.00     0.037 C 
HETATM   23  N4  UNL     1       6.335 -13.689   9.648  1.00  0.00    -0.063 N 
HETATM   24  C15 UNL     1       7.290 -14.542  11.544  1.00  0.00     0.037 C 
HETATM   25  C16 UNL     1       7.405 -13.384  10.575  1.00  0.00     0.214 C 
HETATM   26  C17 UNL     1       8.761 -13.340   9.950  1.00  0.00     0.305 C 
ATOM     27  H42 UNL     1       6.210 -13.025   8.884  1.00  0.00     0.278 HD
ATOM     28  H41 UNL     1       5.390 -13.579  10.013  1.00  0.00     0.278 HD
ENDBRANCH  18  19
ENDBRANCH  17  18
ENDBRANCH  16  17
ENDBRANCH  15  16
ENDBRANCH   1  15
TORSDOF 7
ENDMDL
