MODEL 1
REMARK VINA RESULT: -7.233827190      0.000      0.000
REMARK  7 active torsions:
REMARK  status: ('A' for Active; 'I' for Inactive)
REMARK    1  A    between atoms: C1_2  and  C2_4 
REMARK    2  A    between atoms: C4_7  and  C5_8 
REMARK    3  A    between atoms: C5_8  and  N1_9 
REMARK    4  A    between atoms: N1_9  and  C6_10 
REMARK    5  A    between atoms: N1_9  and  C12_21 
REMARK    6  A    between atoms: C6_10  and  C7_11 
REMARK    7  A    between atoms: C8_16  and  C9_17 
ROOT
HETATM    1  N1  UNL     1      11.459 -13.599   4.815  1.00  0.00    -0.278 NA
ENDROOT
BRANCH   1   2
HETATM    2  C5  UNL     1      10.347 -12.866   4.193  1.00  0.00     0.160 C 
BRANCH   2   3
HETATM    3  C4  UNL     1      10.761 -11.931   3.122  1.00  0.00     0.065 A 
HETATM    4  S1  UNL     1      10.775 -12.154   1.429  1.00  0.00    -0.085 SA
HETATM    5  C3  UNL     1      11.357 -10.620   0.964  1.00  0.00     0.088 A 
HETATM    6  C2  UNL     1      11.514  -9.998   2.185  1.00  0.00     0.117 A 
HETATM    7  N4  UNL     1      11.202 -10.698   3.238  1.00  0.00    -0.347 N 
ATOM      8  H4  UNL     1      11.300 -10.284   4.164  1.00  0.00     0.166 HD
BRANCH   6   9
HETATM    9  C1  UNL     1      12.012  -8.612   2.267  1.00  0.00     0.227 C 
HETATM   10  O1  UNL     1      11.852  -7.849   1.298  1.00  0.00    -0.643 OA
HETATM   11  O2  UNL     1      12.644  -8.166   3.394  1.00  0.00    -0.643 OA
ENDBRANCH   6   9
ENDBRANCH   2   3
ENDBRANCH   1   2
BRANCH   1  12
HETATM   12  C6  UNL     1      11.578 -13.172   6.145  1.00  0.00     0.118 C 
BRANCH  12  13
HETATM   13  C7  UNL     1      12.916 -12.903   6.695  1.00  0.00     0.174 A 
HETATM   14  N2  UNL     1      13.794 -12.028   6.114  1.00  0.00    -0.277 N 
HETATM   15  N3  UNL     1      14.891 -12.008   6.830  1.00  0.00    -0.281 N 
ATOM     16  H2  UNL     1      13.623 -11.485   5.267  1.00  0.00     0.189 HD
HETATM   17  C8  UNL     1      14.740 -12.843   7.850  1.00  0.00     0.144 A 
ATOM     18  H3  UNL     1      15.720 -11.447   6.636  1.00  0.00     0.189 HD
HETATM   19  O3  UNL     1      13.538 -13.356   7.724  1.00  0.00    -0.277 OA
BRANCH  17  20
HETATM   20  C9  UNL     1      15.687 -13.191   8.961  1.00  0.00     0.062 A 
HETATM   21  C10 UNL     1      16.698 -14.275   8.744  1.00  0.00     0.013 A 
HETATM   22  C11 UNL     1      17.125 -12.861   8.731  1.00  0.00     0.013 A 
ENDBRANCH  17  20
ENDBRANCH  12  13
ENDBRANCH   1  12
BRANCH   1  23
HETATM   23  C12 UNL     1      11.297 -14.950   4.471  1.00  0.00     0.063 C 
HETATM   24  C13 UNL     1      10.949 -15.684   5.789  1.00  0.00     0.020 C 
HETATM   25  C14 UNL     1       9.897 -16.743   5.554  1.00  0.00     0.002 C 
HETATM   26  C15 UNL     1      10.336 -17.617   4.414  1.00  0.00     0.000 C 
HETATM   27  C16 UNL     1      10.292 -16.804   3.169  1.00  0.00     0.002 C 
HETATM   28  C17 UNL     1      10.315 -15.298   3.410  1.00  0.00     0.020 C 
ENDBRANCH   1  23
TORSDOF 7
ENDMDL
MODEL 2
REMARK VINA RESULT: -7.166306466      3.871      6.663
REMARK  7 active torsions:
REMARK  status: ('A' for Active; 'I' for Inactive)
REMARK    1  A    between atoms: C1_2  and  C2_4 
REMARK    2  A    between atoms: C4_7  and  C5_8 
REMARK    3  A    between atoms: C5_8  and  N1_9 
REMARK    4  A    between atoms: N1_9  and  C6_10 
REMARK    5  A    between atoms: N1_9  and  C12_21 
REMARK    6  A    between atoms: C6_10  and  C7_11 
REMARK    7  A    between atoms: C8_16  and  C9_17 
ROOT
HETATM    1  N1  UNL     1      10.676 -13.685   3.701  1.00  0.00    -0.278 NA
ENDROOT
BRANCH   1   2
HETATM    2  C5  UNL     1      11.040 -14.957   3.063  1.00  0.00     0.160 C 
BRANCH   2   3
HETATM    3  C4  UNL     1      10.174 -16.097   3.444  1.00  0.00     0.065 A 
HETATM    4  S1  UNL     1      10.462 -17.354   4.562  1.00  0.00    -0.085 SA
HETATM    5  C3  UNL     1       8.986 -18.195   4.402  1.00  0.00     0.088 A 
HETATM    6  C2  UNL     1       8.330 -17.430   3.460  1.00  0.00     0.117 A 
HETATM    7  N4  UNL     1       8.968 -16.388   3.010  1.00  0.00    -0.347 N 
ATOM      8  H4  UNL     1       8.527 -15.791   2.312  1.00  0.00     0.166 HD
BRANCH   6   9
HETATM    9  C1  UNL     1       6.976 -17.796   3.002  1.00  0.00     0.227 C 
HETATM   10  O1  UNL     1       6.838 -18.376   1.911  1.00  0.00    -0.643 OA
HETATM   11  O2  UNL     1       5.881 -17.502   3.766  1.00  0.00    -0.643 OA
ENDBRANCH   6   9
ENDBRANCH   2   3
ENDBRANCH   1   2
BRANCH   1  12
HETATM   12  C6  UNL     1      11.551 -13.465   4.775  1.00  0.00     0.118 C 
BRANCH  12  13
HETATM   13  C7  UNL     1      11.093 -13.748   6.144  1.00  0.00     0.174 A 
HETATM   14  N2  UNL     1      11.813 -13.396   7.254  1.00  0.00    -0.277 N 
HETATM   15  N3  UNL     1      11.149 -13.783   8.316  1.00  0.00    -0.281 N 
ATOM     16  H2  UNL     1      12.712 -12.914   7.255  1.00  0.00     0.189 HD
HETATM   17  C8  UNL     1      10.028 -14.370   7.918  1.00  0.00     0.144 A 
ATOM     18  H3  UNL     1      11.445 -13.654   9.284  1.00  0.00     0.189 HD
HETATM   19  O3  UNL     1      10.041 -14.325   6.606  1.00  0.00    -0.277 OA
BRANCH  17  20
HETATM   20  C9  UNL     1       8.922 -14.985   8.724  1.00  0.00     0.062 A 
HETATM   21  C10 UNL     1       7.904 -14.093   9.365  1.00  0.00     0.013 A 
HETATM   22  C11 UNL     1       7.546 -14.864   8.158  1.00  0.00     0.013 A 
ENDBRANCH  17  20
ENDBRANCH  12  13
ENDBRANCH   1  12
BRANCH   1  23
HETATM   23  C12 UNL     1      10.501 -12.748   2.671  1.00  0.00     0.063 C 
HETATM   24  C13 UNL     1      10.521 -11.359   3.354  1.00  0.00     0.020 C 
HETATM   25  C14 UNL     1      11.268 -10.354   2.509  1.00  0.00     0.002 C 
HETATM   26  C15 UNL     1      10.717 -10.390   1.112  1.00  0.00     0.000 C 
HETATM   27  C16 UNL     1      11.088 -11.696   0.505  1.00  0.00     0.002 C 
HETATM   28  C17 UNL     1      11.447 -12.774   1.523  1.00  0.00     0.020 C 
ENDBRANCH   1  23
TORSDOF 7
ENDMDL
MODEL 3
REMARK VINA RESULT: -6.971206516      2.925      6.484
REMARK  7 active torsions:
REMARK  status: ('A' for Active; 'I' for Inactive)
REMARK    1  A    between atoms: C1_2  and  C2_4 
REMARK    2  A    between atoms: C4_7  and  C5_8 
REMARK    3  A    between atoms: C5_8  and  N1_9 
REMARK    4  A    between atoms: N1_9  and  C6_10 
REMARK    5  A    between atoms: N1_9  and  C12_21 
REMARK    6  A    between atoms: C6_10  and  C7_11 
REMARK    7  A    between atoms: C8_16  and  C9_17 
ROOT
HETATM    1  N1  UNL     1      11.035 -13.605   3.213  1.00  0.00    -0.278 NA
ENDROOT
BRANCH   1   2
HETATM    2  C5  UNL     1      10.146 -13.259   4.330  1.00  0.00     0.160 C 
BRANCH   2   3
HETATM    3  C4  UNL     1      10.728 -13.512   5.669  1.00  0.00     0.065 A 
HETATM    4  S1  UNL     1      10.143 -14.490   6.941  1.00  0.00    -0.085 SA
HETATM    5  C3  UNL     1      11.398 -14.235   8.069  1.00  0.00     0.088 A 
HETATM    6  C2  UNL     1      12.228 -13.379   7.375  1.00  0.00     0.117 A 
HETATM    7  N4  UNL     1      11.847 -13.046   6.175  1.00  0.00    -0.347 N 
ATOM      8  H4  UNL     1      12.425 -12.415   5.621  1.00  0.00     0.166 HD
BRANCH   6   9
HETATM    9  C1  UNL     1      13.475 -12.880   7.984  1.00  0.00     0.227 C 
HETATM   10  O1  UNL     1      13.662 -13.035   9.204  1.00  0.00    -0.643 OA
HETATM   11  O2  UNL     1      14.419 -12.254   7.220  1.00  0.00    -0.643 OA
ENDBRANCH   6   9
ENDBRANCH   2   3
ENDBRANCH   1   2
BRANCH   1  12
HETATM   12  C6  UNL     1      10.458 -14.670   2.505  1.00  0.00     0.118 C 
BRANCH  12  13
HETATM   13  C7  UNL     1      10.352 -15.987   3.152  1.00  0.00     0.174 A 
HETATM   14  N2  UNL     1       9.351 -16.876   2.862  1.00  0.00    -0.277 N 
HETATM   15  N3  UNL     1       9.526 -17.947   3.596  1.00  0.00    -0.281 N 
ATOM     16  H2  UNL     1       8.599 -16.730   2.189  1.00  0.00     0.189 HD
HETATM   17  C8  UNL     1      10.607 -17.770   4.345  1.00  0.00     0.144 A 
ATOM     18  H3  UNL     1       8.932 -18.776   3.592  1.00  0.00     0.189 HD
HETATM   19  O3  UNL     1      11.066 -16.577   4.042  1.00  0.00    -0.277 OA
BRANCH  17  20
HETATM   20  C9  UNL     1      11.243 -18.681   5.352  1.00  0.00     0.062 A 
HETATM   21  C10 UNL     1      10.935 -18.490   6.806  1.00  0.00     0.013 A 
HETATM   22  C11 UNL     1      10.326 -19.616   6.070  1.00  0.00     0.013 A 
ENDBRANCH  17  20
ENDBRANCH  12  13
ENDBRANCH   1  12
BRANCH   1  23
HETATM   23  C12 UNL     1      11.396 -12.399   2.592  1.00  0.00     0.063 C 
HETATM   24  C13 UNL     1      11.464 -12.707   1.076  1.00  0.00     0.020 C 
HETATM   25  C14 UNL     1      10.903 -11.560   0.268  1.00  0.00     0.002 C 
HETATM   26  C15 UNL     1      11.566 -10.287   0.709  1.00  0.00     0.000 C 
HETATM   27  C16 UNL     1      11.113  -9.988   2.094  1.00  0.00     0.002 C 
HETATM   28  C17 UNL     1      10.556 -11.197   2.838  1.00  0.00     0.020 C 
ENDBRANCH   1  23
TORSDOF 7
ENDMDL
MODEL 4
REMARK VINA RESULT: -6.944559531      3.719      6.637
REMARK  7 active torsions:
REMARK  status: ('A' for Active; 'I' for Inactive)
REMARK    1  A    between atoms: C1_2  and  C2_4 
REMARK    2  A    between atoms: C4_7  and  C5_8 
REMARK    3  A    between atoms: C5_8  and  N1_9 
REMARK    4  A    between atoms: N1_9  and  C6_10 
REMARK    5  A    between atoms: N1_9  and  C12_21 
REMARK    6  A    between atoms: C6_10  and  C7_11 
REMARK    7  A    between atoms: C8_16  and  C9_17 
ROOT
HETATM    1  N1  UNL     1      10.751 -13.981   4.219  1.00  0.00    -0.278 NA
ENDROOT
BRANCH   1   2
HETATM    2  C5  UNL     1      11.063 -15.377   3.884  1.00  0.00     0.160 C 
BRANCH   2   3
HETATM    3  C4  UNL     1      10.023 -16.347   4.299  1.00  0.00     0.065 A 
HETATM    4  S1  UNL     1       9.233 -17.552   3.383  1.00  0.00    -0.085 SA
HETATM    5  C3  UNL     1       8.235 -18.202   4.605  1.00  0.00     0.088 A 
HETATM    6  C2  UNL     1       8.580 -17.425   5.691  1.00  0.00     0.117 A 
HETATM    7  N4  UNL     1       9.481 -16.508   5.486  1.00  0.00    -0.347 N 
ATOM      8  H4  UNL     1       9.771 -15.906   6.256  1.00  0.00     0.166 HD
BRANCH   6   9
HETATM    9  C1  UNL     1       7.945 -17.641   7.005  1.00  0.00     0.227 C 
HETATM   10  O1  UNL     1       8.661 -17.827   8.004  1.00  0.00    -0.643 OA
HETATM   11  O2  UNL     1       6.584 -17.637   7.127  1.00  0.00    -0.643 OA
ENDBRANCH   6   9
ENDBRANCH   2   3
ENDBRANCH   1   2
BRANCH   1  12
HETATM   12  C6  UNL     1      11.655 -13.551   5.201  1.00  0.00     0.118 C 
BRANCH  12  13
HETATM   13  C7  UNL     1      11.276 -13.652   6.618  1.00  0.00     0.174 A 
HETATM   14  N2  UNL     1      12.081 -13.208   7.634  1.00  0.00    -0.277 N 
HETATM   15  N3  UNL     1      11.474 -13.438   8.772  1.00  0.00    -0.281 N 
ATOM     16  H2  UNL     1      12.997 -12.773   7.523  1.00  0.00     0.189 HD
HETATM   17  C8  UNL     1      10.306 -14.014   8.514  1.00  0.00     0.144 A 
ATOM     18  H3  UNL     1      11.837 -13.213   9.698  1.00  0.00     0.189 HD
HETATM   19  O3  UNL     1      10.235 -14.121   7.207  1.00  0.00    -0.277 OA
BRANCH  17  20
HETATM   20  C9  UNL     1       9.232 -14.479   9.452  1.00  0.00     0.062 A 
HETATM   21  C10 UNL     1       8.256 -13.480   9.996  1.00  0.00     0.013 A 
HETATM   22  C11 UNL     1       7.832 -14.417   8.936  1.00  0.00     0.013 A 
ENDBRANCH  17  20
ENDBRANCH  12  13
ENDBRANCH   1  12
BRANCH   1  23
HETATM   23  C12 UNL     1      10.582 -13.300   3.003  1.00  0.00     0.063 C 
HETATM   24  C13 UNL     1      10.435 -11.804   3.373  1.00  0.00     0.020 C 
HETATM   25  C14 UNL     1      11.162 -10.929   2.378  1.00  0.00     0.002 C 
HETATM   26  C15 UNL     1      10.727 -11.307   0.992  1.00  0.00     0.000 C 
HETATM   27  C16 UNL     1      11.249 -12.669   0.701  1.00  0.00     0.002 C 
HETATM   28  C17 UNL     1      11.613 -13.472   1.946  1.00  0.00     0.020 C 
ENDBRANCH   1  23
TORSDOF 7
ENDMDL
MODEL 5
REMARK VINA RESULT: -6.937326570      2.239      3.295
REMARK  7 active torsions:
REMARK  status: ('A' for Active; 'I' for Inactive)
REMARK    1  A    between atoms: C1_2  and  C2_4 
REMARK    2  A    between atoms: C4_7  and  C5_8 
REMARK    3  A    between atoms: C5_8  and  N1_9 
REMARK    4  A    between atoms: N1_9  and  C6_10 
REMARK    5  A    between atoms: N1_9  and  C12_21 
REMARK    6  A    between atoms: C6_10  and  C7_11 
REMARK    7  A    between atoms: C8_16  and  C9_17 
ROOT
HETATM    1  N1  UNL     1      11.362 -13.876   4.335  1.00  0.00    -0.278 NA
ENDROOT
BRANCH   1   2
HETATM    2  C5  UNL     1      10.334 -12.890   3.976  1.00  0.00     0.160 C 
BRANCH   2   3
HETATM    3  C4  UNL     1      10.754 -11.929   2.930  1.00  0.00     0.065 A 
HETATM    4  S1  UNL     1      10.802 -12.121   1.234  1.00  0.00    -0.085 SA
HETATM    5  C3  UNL     1      11.371 -10.570   0.808  1.00  0.00     0.088 A 
HETATM    6  C2  UNL     1      11.497  -9.969   2.043  1.00  0.00     0.117 A 
HETATM    7  N4  UNL     1      11.175 -10.693   3.076  1.00  0.00    -0.347 N 
ATOM      8  H4  UNL     1      11.251 -10.295   4.012  1.00  0.00     0.166 HD
BRANCH   6   9
HETATM    9  C1  UNL     1      11.974  -8.578   2.159  1.00  0.00     0.227 C 
HETATM   10  O1  UNL     1      11.813  -7.797   1.205  1.00  0.00    -0.643 OA
HETATM   11  O2  UNL     1      12.587  -8.147   3.303  1.00  0.00    -0.643 OA
ENDBRANCH   6   9
ENDBRANCH   2   3
ENDBRANCH   1   2
BRANCH   1  12
HETATM   12  C6  UNL     1      12.146 -13.339   5.366  1.00  0.00     0.118 C 
BRANCH  12  13
HETATM   13  C7  UNL     1      11.693 -13.475   6.758  1.00  0.00     0.174 A 
HETATM   14  N2  UNL     1      12.447 -13.068   7.827  1.00  0.00    -0.277 N 
HETATM   15  N3  UNL     1      11.779 -13.324   8.924  1.00  0.00    -0.281 N 
ATOM     16  H2  UNL     1      13.372 -12.639   7.776  1.00  0.00     0.189 HD
HETATM   17  C8  UNL     1      10.622 -13.880   8.590  1.00  0.00     0.144 A 
ATOM     18  H3  UNL     1      12.095 -13.128   9.874  1.00  0.00     0.189 HD
HETATM   19  O3  UNL     1      10.619 -13.950   7.279  1.00  0.00    -0.277 OA
BRANCH  17  20
HETATM   20  C9  UNL     1       9.496 -14.361   9.457  1.00  0.00     0.062 A 
HETATM   21  C10 UNL     1       8.476 -13.375   9.940  1.00  0.00     0.013 A 
HETATM   22  C11 UNL     1       8.131 -14.314   8.854  1.00  0.00     0.013 A 
ENDBRANCH  17  20
ENDBRANCH  12  13
ENDBRANCH   1  12
BRANCH   1  23
HETATM   23  C12 UNL     1      10.713 -15.115   4.452  1.00  0.00     0.063 C 
HETATM   24  C13 UNL     1      10.030 -15.366   3.086  1.00  0.00     0.020 C 
HETATM   25  C14 UNL     1      10.140 -16.819   2.686  1.00  0.00     0.002 C 
HETATM   26  C15 UNL     1       9.661 -17.672   3.826  1.00  0.00     0.000 C 
HETATM   27  C16 UNL     1      10.639 -17.544   4.939  1.00  0.00     0.002 C 
HETATM   28  C17 UNL     1      11.518 -16.300   4.853  1.00  0.00     0.020 C 
ENDBRANCH   1  23
TORSDOF 7
ENDMDL
