MODEL 1
REMARK VINA RESULT: -7.261500691      0.000      0.000
REMARK  7 active torsions:
REMARK  status: ('A' for Active; 'I' for Inactive)
REMARK    1  A    between atoms: C6_11  and  C7_12 
REMARK    2  A    between atoms: N4_17  and  C11_18 
REMARK    3  A    between atoms: C11_18  and  C12_19 
REMARK    4  A    between atoms: C12_19  and  C13_20 
REMARK    5  A    between atoms: C13_20  and  C14_21 
REMARK    6  A    between atoms: C14_21  and  C15_22 
REMARK    7  A    between atoms: C15_22  and  N5_23 
ROOT
HETATM    1  N1  UNL     1      10.972 -12.601  -0.322  1.00  0.00    -0.100 NA
HETATM    2  C1  UNL     1      10.915 -12.216   1.031  1.00  0.00     0.078 A 
HETATM    3  C2  UNL     1      10.956 -10.879   1.366  1.00  0.00     0.046 A 
HETATM    4  C3  UNL     1      10.900 -10.485   2.708  1.00  0.00     0.091 A 
HETATM    5  N2  UNL     1      10.805 -11.407   3.684  1.00  0.00    -0.350 N 
ATOM      6  H2  UNL     1      10.765 -11.104   4.658  1.00  0.00     0.166 HD
HETATM    7  C4  UNL     1      10.762 -12.725   3.396  1.00  0.00     0.138 A 
HETATM    8  C5  UNL     1      10.818 -13.106   2.077  1.00  0.00     0.103 A 
HETATM    9  N3  UNL     1      10.759 -14.439   2.102  1.00  0.00    -0.337 N 
ATOM     10  H3  UNL     1      10.778 -15.046   1.283  1.00  0.00     0.168 HD
HETATM   11  C6  UNL     1      10.670 -14.864   3.412  1.00  0.00     0.127 A 
HETATM   12  N4  UNL     1      10.670 -13.817   4.210  1.00  0.00    -0.316 N 
ENDROOT
BRANCH  12  13
HETATM   13  C11 UNL     1      10.584 -13.723   5.650  1.00  0.00     0.132 C 
BRANCH  13  14
HETATM   14  C12 UNL     1      11.914 -13.358   6.267  1.00  0.00     0.020 C 
BRANCH  14  15
HETATM   15  C13 UNL     1      11.906 -13.363   7.750  1.00  0.00     0.003 C 
BRANCH  15  16
HETATM   16  C14 UNL     1      11.103 -14.456   8.394  1.00  0.00     0.030 C 
BRANCH  16  17
HETATM   17  C15 UNL     1      10.237 -13.830   9.482  1.00  0.00     0.272 C 
BRANCH  17  18
HETATM   18  N5  UNL     1       8.870 -13.697   9.023  1.00  0.00     0.092 N 
HETATM   19  C16 UNL     1       8.048 -13.323  10.149  1.00  0.00     0.298 C 
HETATM   20  C17 UNL     1       6.623 -13.808   9.963  1.00  0.00     0.198 C 
HETATM   21  O1  UNL     1       6.541 -15.179   9.883  1.00  0.00    -0.388 OA
HETATM   22  C18 UNL     1       7.728 -15.777   9.472  1.00  0.00     0.198 C 
HETATM   23  C19 UNL     1       8.395 -14.917   8.417  1.00  0.00     0.298 C 
ENDBRANCH  17  18
ENDBRANCH  16  17
ENDBRANCH  15  16
ENDBRANCH  14  15
ENDBRANCH  13  14
ENDBRANCH  12  13
BRANCH  11  24
HETATM   24  C7  UNL     1      10.586 -16.305   3.738  1.00  0.00     0.049 A 
HETATM   25  C8  UNL     1      11.302 -17.115   4.547  1.00  0.00     0.023 A 
HETATM   26  C9  UNL     1      10.944 -18.418   4.629  1.00  0.00     0.009 A 
HETATM   27  C10 UNL     1       9.881 -18.830   3.888  1.00  0.00     0.050 A 
HETATM   28  S1  UNL     1       9.399 -17.405   3.093  1.00  0.00    -0.098 SA
ENDBRANCH  11  24
TORSDOF 7
ENDMDL
MODEL 2
REMARK VINA RESULT: -6.941876287      1.653      2.053
REMARK  7 active torsions:
REMARK  status: ('A' for Active; 'I' for Inactive)
REMARK    1  A    between atoms: C6_11  and  C7_12 
REMARK    2  A    between atoms: N4_17  and  C11_18 
REMARK    3  A    between atoms: C11_18  and  C12_19 
REMARK    4  A    between atoms: C12_19  and  C13_20 
REMARK    5  A    between atoms: C13_20  and  C14_21 
REMARK    6  A    between atoms: C14_21  and  C15_22 
REMARK    7  A    between atoms: C15_22  and  N5_23 
ROOT
HETATM    1  N1  UNL     1      10.975 -12.563  -0.441  1.00  0.00    -0.100 NA
HETATM    2  C1  UNL     1      10.953 -12.144   0.902  1.00  0.00     0.078 A 
HETATM    3  C2  UNL     1      11.019 -10.799   1.203  1.00  0.00     0.046 A 
HETATM    4  C3  UNL     1      10.996 -10.371   2.535  1.00  0.00     0.091 A 
HETATM    5  N2  UNL     1      10.910 -11.266   3.536  1.00  0.00    -0.350 N 
ATOM      6  H2  UNL     1      10.895 -10.938   4.502  1.00  0.00     0.166 HD
HETATM    7  C4  UNL     1      10.844 -12.590   3.283  1.00  0.00     0.138 A 
HETATM    8  C5  UNL     1      10.866 -13.006   1.973  1.00  0.00     0.103 A 
HETATM    9  N3  UNL     1      10.791 -14.336   2.034  1.00  0.00    -0.337 N 
ATOM     10  H3  UNL     1      10.784 -14.965   1.231  1.00  0.00     0.168 HD
HETATM   11  C6  UNL     1      10.724 -14.726   3.355  1.00  0.00     0.127 A 
HETATM   12  N4  UNL     1      10.755 -13.660   4.126  1.00  0.00    -0.316 N 
ENDROOT
BRANCH  12  13
HETATM   13  C11 UNL     1      10.701 -13.529   5.565  1.00  0.00     0.132 C 
BRANCH  13  14
HETATM   14  C12 UNL     1      12.070 -13.282   6.155  1.00  0.00     0.020 C 
BRANCH  14  15
HETATM   15  C13 UNL     1      12.088 -13.273   7.639  1.00  0.00     0.003 C 
BRANCH  15  16
HETATM   16  C14 UNL     1      11.199 -14.281   8.307  1.00  0.00     0.030 C 
BRANCH  16  17
HETATM   17  C15 UNL     1      11.460 -14.220   9.809  1.00  0.00     0.272 C 
BRANCH  17  18
HETATM   18  N5  UNL     1      10.969 -12.971  10.355  1.00  0.00     0.092 N 
HETATM   19  C16 UNL     1      11.792 -12.618  11.487  1.00  0.00     0.298 C 
HETATM   20  C17 UNL     1      11.010 -11.782  12.482  1.00  0.00     0.198 C 
HETATM   21  O1  UNL     1       9.931 -12.460  13.004  1.00  0.00    -0.388 OA
HETATM   22  C18 UNL     1       9.483 -13.490  12.185  1.00  0.00     0.198 C 
HETATM   23  C19 UNL     1       9.580 -13.069  10.732  1.00  0.00     0.298 C 
ENDBRANCH  17  18
ENDBRANCH  16  17
ENDBRANCH  15  16
ENDBRANCH  14  15
ENDBRANCH  13  14
ENDBRANCH  12  13
BRANCH  11  24
HETATM   24  C7  UNL     1      10.628 -16.157   3.720  1.00  0.00     0.049 A 
HETATM   25  C8  UNL     1      11.275 -16.930   4.619  1.00  0.00     0.023 A 
HETATM   26  C9  UNL     1      10.927 -18.235   4.710  1.00  0.00     0.009 A 
HETATM   27  C10 UNL     1       9.944 -18.687   3.888  1.00  0.00     0.050 A 
HETATM   28  S1  UNL     1       9.521 -17.296   3.005  1.00  0.00    -0.098 SA
ENDBRANCH  11  24
TORSDOF 7
ENDMDL
MODEL 3
REMARK VINA RESULT: -6.897475322      1.568      1.855
REMARK  7 active torsions:
REMARK  status: ('A' for Active; 'I' for Inactive)
REMARK    1  A    between atoms: C6_11  and  C7_12 
REMARK    2  A    between atoms: N4_17  and  C11_18 
REMARK    3  A    between atoms: C11_18  and  C12_19 
REMARK    4  A    between atoms: C12_19  and  C13_20 
REMARK    5  A    between atoms: C13_20  and  C14_21 
REMARK    6  A    between atoms: C14_21  and  C15_22 
REMARK    7  A    between atoms: C15_22  and  N5_23 
ROOT
HETATM    1  N1  UNL     1      11.155 -12.567  -0.410  1.00  0.00    -0.100 NA
HETATM    2  C1  UNL     1      11.003 -12.138   0.922  1.00  0.00     0.078 A 
HETATM    3  C2  UNL     1      11.019 -10.790   1.214  1.00  0.00     0.046 A 
HETATM    4  C3  UNL     1      10.868 -10.352   2.535  1.00  0.00     0.091 A 
HETATM    5  N2  UNL     1      10.707 -11.241   3.532  1.00  0.00    -0.350 N 
ATOM      6  H2  UNL     1      10.598 -10.906   4.490  1.00  0.00     0.166 HD
HETATM    7  C4  UNL     1      10.686 -12.568   3.286  1.00  0.00     0.138 A 
HETATM    8  C5  UNL     1      10.834 -12.993   1.987  1.00  0.00     0.103 A 
HETATM    9  N3  UNL     1      10.776 -14.324   2.054  1.00  0.00    -0.337 N 
ATOM     10  H3  UNL     1      10.852 -14.959   1.259  1.00  0.00     0.168 HD
HETATM   11  C6  UNL     1      10.595 -14.705   3.367  1.00  0.00     0.127 A 
HETATM   12  N4  UNL     1      10.539 -13.632   4.128  1.00  0.00    -0.316 N 
ENDROOT
BRANCH  12  13
HETATM   13  C11 UNL     1      10.351 -13.491   5.555  1.00  0.00     0.132 C 
BRANCH  13  14
HETATM   14  C12 UNL     1      11.655 -13.632   6.305  1.00  0.00     0.020 C 
BRANCH  14  15
HETATM   15  C13 UNL     1      11.501 -14.191   7.671  1.00  0.00     0.003 C 
BRANCH  15  16
HETATM   16  C14 UNL     1      10.137 -14.721   8.008  1.00  0.00     0.030 C 
BRANCH  16  17
HETATM   17  C15 UNL     1      10.304 -16.114   8.604  1.00  0.00     0.272 C 
BRANCH  17  18
HETATM   18  N5  UNL     1       9.576 -17.089   7.819  1.00  0.00     0.092 N 
HETATM   19  C16 UNL     1       8.580 -16.391   7.042  1.00  0.00     0.298 C 
HETATM   20  C17 UNL     1       7.394 -17.291   6.750  1.00  0.00     0.198 C 
HETATM   21  O1  UNL     1       6.752 -17.701   7.897  1.00  0.00    -0.388 OA
HETATM   22  C18 UNL     1       7.564 -17.665   9.024  1.00  0.00     0.198 C 
HETATM   23  C19 UNL     1       8.970 -18.096   8.656  1.00  0.00     0.298 C 
ENDBRANCH  17  18
ENDBRANCH  16  17
ENDBRANCH  15  16
ENDBRANCH  14  15
ENDBRANCH  13  14
ENDBRANCH  12  13
BRANCH  11  24
HETATM   24  C7  UNL     1      10.491 -16.135   3.735  1.00  0.00     0.049 A 
HETATM   25  C8  UNL     1      11.260 -16.959   4.478  1.00  0.00     0.023 A 
HETATM   26  C9  UNL     1      10.862 -18.244   4.630  1.00  0.00     0.009 A 
HETATM   27  C10 UNL     1       9.706 -18.625   4.023  1.00  0.00     0.050 A 
HETATM   28  S1  UNL     1       9.196 -17.195   3.254  1.00  0.00    -0.098 SA
ENDBRANCH  11  24
TORSDOF 7
ENDMDL
MODEL 4
REMARK VINA RESULT: -6.723752196      1.926      2.377
REMARK  7 active torsions:
REMARK  status: ('A' for Active; 'I' for Inactive)
REMARK    1  A    between atoms: C6_11  and  C7_12 
REMARK    2  A    between atoms: N4_17  and  C11_18 
REMARK    3  A    between atoms: C11_18  and  C12_19 
REMARK    4  A    between atoms: C12_19  and  C13_20 
REMARK    5  A    between atoms: C13_20  and  C14_21 
REMARK    6  A    between atoms: C14_21  and  C15_22 
REMARK    7  A    between atoms: C15_22  and  N5_23 
ROOT
HETATM    1  N1  UNL     1      10.869 -12.604  -0.308  1.00  0.00    -0.100 NA
HETATM    2  C1  UNL     1      10.877 -12.210   1.043  1.00  0.00     0.078 A 
HETATM    3  C2  UNL     1      10.962 -10.871   1.367  1.00  0.00     0.046 A 
HETATM    4  C3  UNL     1      10.969 -10.469   2.708  1.00  0.00     0.091 A 
HETATM    5  N2  UNL     1      10.894 -11.382   3.693  1.00  0.00    -0.350 N 
ATOM      6  H2  UNL     1      10.901 -11.073   4.665  1.00  0.00     0.166 HD
HETATM    7  C4  UNL     1      10.810 -12.700   3.416  1.00  0.00     0.138 A 
HETATM    8  C5  UNL     1      10.803 -13.091   2.098  1.00  0.00     0.103 A 
HETATM    9  N3  UNL     1      10.716 -14.422   2.135  1.00  0.00    -0.337 N 
ATOM     10  H3  UNL     1      10.688 -15.035   1.321  1.00  0.00     0.168 HD
HETATM   11  C6  UNL     1      10.671 -14.837   3.450  1.00  0.00     0.127 A 
HETATM   12  N4  UNL     1      10.728 -13.785   4.240  1.00  0.00    -0.316 N 
ENDROOT
BRANCH  12  13
HETATM   13  C11 UNL     1      10.702 -13.681   5.682  1.00  0.00     0.132 C 
BRANCH  13  14
HETATM   14  C12 UNL     1      12.055 -13.302   6.238  1.00  0.00     0.020 C 
BRANCH  14  15
HETATM   15  C13 UNL     1      12.105 -13.275   7.721  1.00  0.00     0.003 C 
BRANCH  15  16
HETATM   16  C14 UNL     1      10.857 -13.723   8.423  1.00  0.00     0.030 C 
BRANCH  16  17
HETATM   17  C15 UNL     1      11.235 -14.831   9.401  1.00  0.00     0.272 C 
BRANCH  17  18
HETATM   18  N5  UNL     1      11.041 -14.386  10.766  1.00  0.00     0.092 N 
HETATM   19  C16 UNL     1      10.334 -13.128  10.736  1.00  0.00     0.298 C 
HETATM   20  C17 UNL     1      10.671 -12.289  11.954  1.00  0.00     0.198 C 
HETATM   21  O1  UNL     1      12.007 -11.964  12.014  1.00  0.00    -0.388 OA
HETATM   22  C18 UNL     1      12.819 -12.845  11.308  1.00  0.00     0.198 C 
HETATM   23  C19 UNL     1      12.297 -14.259  11.464  1.00  0.00     0.298 C 
ENDBRANCH  17  18
ENDBRANCH  16  17
ENDBRANCH  15  16
ENDBRANCH  14  15
ENDBRANCH  13  14
ENDBRANCH  12  13
BRANCH  11  24
HETATM   24  C7  UNL     1      10.569 -16.274   3.789  1.00  0.00     0.049 A 
HETATM   25  C8  UNL     1      11.345 -17.114   4.507  1.00  0.00     0.023 A 
HETATM   26  C9  UNL     1      10.947 -18.401   4.637  1.00  0.00     0.009 A 
HETATM   27  C10 UNL     1       9.784 -18.768   4.035  1.00  0.00     0.050 A 
HETATM   28  S1  UNL     1       9.267 -17.323   3.300  1.00  0.00    -0.098 SA
ENDBRANCH  11  24
TORSDOF 7
ENDMDL
MODEL 5
REMARK VINA RESULT: -6.691259913      3.929      7.735
REMARK  7 active torsions:
REMARK  status: ('A' for Active; 'I' for Inactive)
REMARK    1  A    between atoms: C6_11  and  C7_12 
REMARK    2  A    between atoms: N4_17  and  C11_18 
REMARK    3  A    between atoms: C11_18  and  C12_19 
REMARK    4  A    between atoms: C12_19  and  C13_20 
REMARK    5  A    between atoms: C13_20  and  C14_21 
REMARK    6  A    between atoms: C14_21  and  C15_22 
REMARK    7  A    between atoms: C15_22  and  N5_23 
ROOT
HETATM    1  N1  UNL     1      12.295 -12.680   8.165  1.00  0.00    -0.100 NA
HETATM    2  C1  UNL     1      11.564 -13.723   7.566  1.00  0.00     0.078 A 
HETATM    3  C2  UNL     1      11.150 -14.796   8.327  1.00  0.00     0.046 A 
HETATM    4  C3  UNL     1      10.421 -15.838   7.741  1.00  0.00     0.091 A 
HETATM    5  N2  UNL     1      10.118 -15.803   6.431  1.00  0.00    -0.350 N 
ATOM      6  H2  UNL     1       9.586 -16.570   6.018  1.00  0.00     0.166 HD
HETATM    7  C4  UNL     1      10.505 -14.770   5.653  1.00  0.00     0.138 A 
HETATM    8  C5  UNL     1      11.221 -13.749   6.233  1.00  0.00     0.103 A 
HETATM    9  N3  UNL     1      11.460 -12.891   5.240  1.00  0.00    -0.337 N 
ATOM     10  H3  UNL     1      11.974 -12.014   5.328  1.00  0.00     0.168 HD
HETATM   11  C6  UNL     1      10.901 -13.377   4.076  1.00  0.00     0.127 A 
HETATM   12  N4  UNL     1      10.314 -14.529   4.323  1.00  0.00    -0.316 N 
ENDROOT
BRANCH  12  13
HETATM   13  C11 UNL     1       9.584 -15.426   3.455  1.00  0.00     0.132 C 
BRANCH  13  14
HETATM   14  C12 UNL     1      10.451 -16.565   2.973  1.00  0.00     0.020 C 
BRANCH  14  15
HETATM   15  C13 UNL     1       9.758 -17.877   2.955  1.00  0.00     0.003 C 
BRANCH  15  16
HETATM   16  C14 UNL     1       9.335 -18.372   1.603  1.00  0.00     0.030 C 
BRANCH  16  17
HETATM   17  C15 UNL     1       8.329 -19.501   1.804  1.00  0.00     0.272 C 
BRANCH  17  18
HETATM   18  N5  UNL     1       7.996 -20.111   0.533  1.00  0.00     0.092 N 
HETATM   19  C16 UNL     1       8.612 -19.336  -0.517  1.00  0.00     0.298 C 
HETATM   20  C17 UNL     1       7.821 -19.447  -1.806  1.00  0.00     0.198 C 
HETATM   21  O1  UNL     1       6.542 -18.954  -1.681  1.00  0.00    -0.388 OA
HETATM   22  C18 UNL     1       6.080 -18.952  -0.370  1.00  0.00     0.198 C 
HETATM   23  C19 UNL     1       6.568 -20.195   0.346  1.00  0.00     0.298 C 
ENDBRANCH  17  18
ENDBRANCH  16  17
ENDBRANCH  15  16
ENDBRANCH  14  15
ENDBRANCH  13  14
ENDBRANCH  12  13
BRANCH  11  24
HETATM   24  C7  UNL     1      11.011 -12.621   2.809  1.00  0.00     0.049 A 
HETATM   25  C8  UNL     1      11.224 -12.988   1.527  1.00  0.00     0.023 A 
HETATM   26  C9  UNL     1      11.255 -12.020   0.580  1.00  0.00     0.009 A 
HETATM   27  C10 UNL     1      11.068 -10.735   0.982  1.00  0.00     0.050 A 
HETATM   28  S1  UNL     1      10.853 -10.893   2.662  1.00  0.00    -0.098 SA
ENDBRANCH  11  24
TORSDOF 7
ENDMDL
