MODEL 1
REMARK VINA RESULT: -7.137967693      0.000      0.000
REMARK  7 active torsions:
REMARK  status: ('A' for Active; 'I' for Inactive)
REMARK    1  A    between atoms: S1_2  and  C2_3 
REMARK    2  A    between atoms: C3_8  and  C4_9 
REMARK    3  A    between atoms: C4_9  and  N3_10 
REMARK    4  A    between atoms: N5_20  and  C12_21 
REMARK    5  A    between atoms: C12_21  and  C13_22 
REMARK    6  A    between atoms: C13_22  and  C14_23 
REMARK    7  A    between atoms: C14_23  and  C15_24 
ROOT
HETATM    1  C2  UNL     1      12.521 -13.199   7.647  1.00  0.00     0.162 A 
HETATM    2  N1  UNL     1      13.092 -12.554   6.616  1.00  0.00    -0.278 N 
ATOM      3  H1  UNL     1      13.981 -12.054   6.629  1.00  0.00     0.189 HD
HETATM    4  N2  UNL     1      12.284 -12.690   5.586  1.00  0.00    -0.285 N 
ATOM      5  H2  UNL     1      12.447 -12.307   4.655  1.00  0.00     0.188 HD
HETATM    6  C3  UNL     1      11.188 -13.426   5.962  1.00  0.00     0.118 A 
HETATM    7  N5  UNL     1      11.354 -13.736   7.254  1.00  0.00    -0.314 N 
ENDROOT
BRANCH   6   8
HETATM    8  C4  UNL     1      10.108 -13.674   4.999  1.00  0.00     0.208 C 
BRANCH   8   9
HETATM    9  N3  UNL     1      10.581 -13.706   3.638  1.00  0.00    -0.334 N 
HETATM   10  C5  UNL     1      10.955 -14.764   2.932  1.00  0.00     0.184 A 
HETATM   11  N4  UNL     1      11.321 -14.342   1.689  1.00  0.00    -0.350 N 
HETATM   12  C6  UNL     1      11.165 -13.014   1.652  1.00  0.00     0.060 A 
ATOM     13  H4  UNL     1      11.653 -14.931   0.926  1.00  0.00     0.166 HD
HETATM   14  C7  UNL     1      11.388 -12.077   0.634  1.00  0.00     0.032 A 
HETATM   15  C11 UNL     1      10.705 -12.596   2.853  1.00  0.00     0.062 A 
HETATM   16  C8  UNL     1      11.147 -10.737   0.833  1.00  0.00     0.002 A 
HETATM   17  C9  UNL     1      10.680 -10.333   2.064  1.00  0.00     0.002 A 
HETATM   18  C10 UNL     1      10.456 -11.250   3.073  1.00  0.00     0.032 A 
ENDBRANCH   8   9
ENDBRANCH   6   8
BRANCH   7  19
HETATM   19  C12 UNL     1      10.462 -14.435   8.104  1.00  0.00     0.133 C 
BRANCH  19  20
HETATM   20  C13 UNL     1      10.435 -15.914   8.023  1.00  0.00     0.022 C 
BRANCH  20  21
HETATM   21  C14 UNL     1       9.257 -16.548   7.394  1.00  0.00     0.034 C 
BRANCH  21  22
HETATM   22  C15 UNL     1       9.600 -17.445   6.257  1.00  0.00     0.186 C 
HETATM   23  C16 UNL     1      10.999 -17.239   5.753  1.00  0.00     0.033 C 
HETATM   24  C17 UNL     1      11.303 -18.256   4.676  1.00  0.00     0.004 C 
HETATM   25  C18 UNL     1      10.228 -18.276   3.610  1.00  0.00     0.027 C 
HETATM   26  C19 UNL     1       8.904 -18.527   4.316  1.00  0.00     0.232 C 
HETATM   27  N6  UNL     1       8.639 -17.380   5.167  1.00  0.00    -0.071 N 
ATOM     28  H62 UNL     1       7.671 -17.328   5.484  1.00  0.00     0.277 HD
ATOM     29  H61 UNL     1       8.657 -16.493   4.665  1.00  0.00     0.277 HD
ENDBRANCH  21  22
ENDBRANCH  20  21
ENDBRANCH  19  20
ENDBRANCH   7  19
BRANCH   1  30
HETATM   30  S1  UNL     1      13.200 -13.325   9.279  1.00  0.00    -0.097 SA
HETATM   31  C1  UNL     1      14.999 -13.322   9.290  1.00  0.00     0.099 C 
ENDBRANCH   1  30
TORSDOF 7
ENDMDL
MODEL 2
REMARK VINA RESULT: -7.066003699      2.499      3.831
REMARK  7 active torsions:
REMARK  status: ('A' for Active; 'I' for Inactive)
REMARK    1  A    between atoms: S1_2  and  C2_3 
REMARK    2  A    between atoms: C3_8  and  C4_9 
REMARK    3  A    between atoms: C4_9  and  N3_10 
REMARK    4  A    between atoms: N5_20  and  C12_21 
REMARK    5  A    between atoms: C12_21  and  C13_22 
REMARK    6  A    between atoms: C13_22  and  C14_23 
REMARK    7  A    between atoms: C14_23  and  C15_24 
ROOT
HETATM    1  C2  UNL     1      12.514 -13.233   7.669  1.00  0.00     0.162 A 
HETATM    2  N1  UNL     1      13.012 -12.477   6.675  1.00  0.00    -0.278 N 
ATOM      3  H1  UNL     1      13.851 -11.898   6.715  1.00  0.00     0.189 HD
HETATM    4  N2  UNL     1      12.211 -12.626   5.643  1.00  0.00    -0.285 N 
ATOM      5  H2  UNL     1      12.328 -12.175   4.736  1.00  0.00     0.188 HD
HETATM    6  C3  UNL     1      11.192 -13.483   5.978  1.00  0.00     0.118 A 
HETATM    7  N5  UNL     1      11.399 -13.852   7.248  1.00  0.00    -0.314 N 
ENDROOT
BRANCH   6   8
HETATM    8  C4  UNL     1      10.130 -13.772   5.006  1.00  0.00     0.208 C 
BRANCH   8   9
HETATM    9  N3  UNL     1      10.615 -13.785   3.649  1.00  0.00    -0.334 N 
HETATM   10  C5  UNL     1      11.035 -14.826   2.944  1.00  0.00     0.184 A 
HETATM   11  N4  UNL     1      11.394 -14.387   1.705  1.00  0.00    -0.350 N 
HETATM   12  C6  UNL     1      11.186 -13.066   1.668  1.00  0.00     0.060 A 
ATOM     13  H4  UNL     1      11.755 -14.962   0.944  1.00  0.00     0.166 HD
HETATM   14  C7  UNL     1      11.381 -12.120   0.654  1.00  0.00     0.032 A 
HETATM   15  C11 UNL     1      10.701 -12.669   2.866  1.00  0.00     0.062 A 
HETATM   16  C8  UNL     1      11.087 -10.790   0.853  1.00  0.00     0.002 A 
HETATM   17  C9  UNL     1      10.594 -10.407   2.080  1.00  0.00     0.002 A 
HETATM   18  C10 UNL     1      10.398 -11.334   3.086  1.00  0.00     0.032 A 
ENDBRANCH   8   9
ENDBRANCH   6   8
BRANCH   7  19
HETATM   19  C12 UNL     1      10.583 -14.682   8.059  1.00  0.00     0.133 C 
BRANCH  19  20
HETATM   20  C13 UNL     1       9.315 -14.121   8.577  1.00  0.00     0.022 C 
BRANCH  20  21
HETATM   21  C14 UNL     1       8.082 -14.914   8.386  1.00  0.00     0.034 C 
BRANCH  21  22
HETATM   22  C15 UNL     1       7.024 -14.621   9.391  1.00  0.00     0.186 C 
HETATM   23  C16 UNL     1       7.233 -13.311  10.093  1.00  0.00     0.033 C 
HETATM   24  C17 UNL     1       6.064 -13.039  11.014  1.00  0.00     0.004 C 
HETATM   25  C18 UNL     1       5.783 -14.219  11.919  1.00  0.00     0.027 C 
HETATM   26  C19 UNL     1       5.571 -15.429  11.022  1.00  0.00     0.232 C 
HETATM   27  N6  UNL     1       6.829 -15.699  10.348  1.00  0.00    -0.071 N 
ATOM     28  H62 UNL     1       6.871 -16.626   9.926  1.00  0.00     0.277 HD
ATOM     29  H61 UNL     1       7.613 -15.816  10.990  1.00  0.00     0.277 HD
ENDBRANCH  21  22
ENDBRANCH  20  21
ENDBRANCH  19  20
ENDBRANCH   7  19
BRANCH   1  30
HETATM   30  S1  UNL     1      13.217 -13.392   9.286  1.00  0.00    -0.097 SA
HETATM   31  C1  UNL     1      15.016 -13.330   9.277  1.00  0.00     0.099 C 
ENDBRANCH   1  30
TORSDOF 7
ENDMDL
MODEL 3
REMARK VINA RESULT: -7.026229294      2.878      5.559
REMARK  7 active torsions:
REMARK  status: ('A' for Active; 'I' for Inactive)
REMARK    1  A    between atoms: S1_2  and  C2_3 
REMARK    2  A    between atoms: C3_8  and  C4_9 
REMARK    3  A    between atoms: C4_9  and  N3_10 
REMARK    4  A    between atoms: N5_20  and  C12_21 
REMARK    5  A    between atoms: C12_21  and  C13_22 
REMARK    6  A    between atoms: C13_22  and  C14_23 
REMARK    7  A    between atoms: C14_23  and  C15_24 
ROOT
HETATM    1  C2  UNL     1       8.151 -17.909   3.930  1.00  0.00     0.162 A 
HETATM    2  N1  UNL     1       8.357 -17.732   2.614  1.00  0.00    -0.278 N 
ATOM      3  H1  UNL     1       7.767 -18.075   1.856  1.00  0.00     0.189 HD
HETATM    4  N2  UNL     1       9.464 -17.033   2.491  1.00  0.00    -0.285 N 
ATOM      5  H2  UNL     1       9.879 -16.739   1.607  1.00  0.00     0.188 HD
HETATM    6  C3  UNL     1       9.971 -16.761   3.737  1.00  0.00     0.118 A 
HETATM    7  N5  UNL     1       9.137 -17.317   4.624  1.00  0.00    -0.314 N 
ENDROOT
BRANCH   6   8
HETATM    8  C4  UNL     1      11.240 -16.032   3.866  1.00  0.00     0.208 C 
BRANCH   8   9
HETATM    9  N3  UNL     1      11.046 -14.610   4.001  1.00  0.00    -0.334 N 
HETATM   10  C5  UNL     1      10.842 -13.919   5.113  1.00  0.00     0.184 A 
HETATM   11  N4  UNL     1      10.721 -12.603   4.783  1.00  0.00    -0.350 N 
HETATM   12  C6  UNL     1      10.855 -12.506   3.455  1.00  0.00     0.060 A 
ATOM     13  H4  UNL     1      10.559 -11.831   5.429  1.00  0.00     0.166 HD
HETATM   14  C7  UNL     1      10.818 -11.402   2.593  1.00  0.00     0.032 A 
HETATM   15  C11 UNL     1      11.058 -13.742   2.947  1.00  0.00     0.062 A 
HETATM   16  C8  UNL     1      10.987 -11.553   1.235  1.00  0.00     0.002 A 
HETATM   17  C9  UNL     1      11.193 -12.820   0.739  1.00  0.00     0.002 A 
HETATM   18  C10 UNL     1      11.231 -13.914   1.582  1.00  0.00     0.032 A 
ENDBRANCH   8   9
ENDBRANCH   6   8
BRANCH   7  19
HETATM   19  C12 UNL     1       9.267 -17.357   6.035  1.00  0.00     0.133 C 
BRANCH  19  20
HETATM   20  C13 UNL     1       8.528 -16.352   6.833  1.00  0.00     0.022 C 
BRANCH  20  21
HETATM   21  C14 UNL     1       9.275 -15.608   7.868  1.00  0.00     0.034 C 
BRANCH  21  22
HETATM   22  C15 UNL     1       8.403 -14.991   8.905  1.00  0.00     0.186 C 
HETATM   23  C16 UNL     1       6.977 -14.853   8.459  1.00  0.00     0.033 C 
HETATM   24  C17 UNL     1       6.140 -14.321   9.601  1.00  0.00     0.004 C 
HETATM   25  C18 UNL     1       6.752 -13.076  10.207  1.00  0.00     0.027 C 
HETATM   26  C19 UNL     1       8.172 -13.433  10.619  1.00  0.00     0.232 C 
HETATM   27  N6  UNL     1       8.917 -13.728   9.407  1.00  0.00    -0.071 N 
ATOM     28  H62 UNL     1       9.928 -13.728   9.545  1.00  0.00     0.277 HD
ATOM     29  H61 UNL     1       8.883 -12.975   8.720  1.00  0.00     0.277 HD
ENDBRANCH  21  22
ENDBRANCH  20  21
ENDBRANCH  19  20
ENDBRANCH   7  19
BRANCH   1  30
HETATM   30  S1  UNL     1       6.791 -18.789   4.646  1.00  0.00    -0.097 SA
HETATM   31  C1  UNL     1       5.194 -18.085   4.207  1.00  0.00     0.099 C 
ENDBRANCH   1  30
TORSDOF 7
ENDMDL
MODEL 4
REMARK VINA RESULT: -7.011270306      3.272      5.065
REMARK  7 active torsions:
REMARK  status: ('A' for Active; 'I' for Inactive)
REMARK    1  A    between atoms: S1_2  and  C2_3 
REMARK    2  A    between atoms: C3_8  and  C4_9 
REMARK    3  A    between atoms: C4_9  and  N3_10 
REMARK    4  A    between atoms: N5_20  and  C12_21 
REMARK    5  A    between atoms: C12_21  and  C13_22 
REMARK    6  A    between atoms: C13_22  and  C14_23 
REMARK    7  A    between atoms: C14_23  and  C15_24 
ROOT
HETATM    1  C2  UNL     1      10.071 -18.927   4.816  1.00  0.00     0.162 A 
HETATM    2  N1  UNL     1      11.388 -18.743   5.007  1.00  0.00    -0.278 N 
ATOM      3  H1  UNL     1      12.085 -19.468   5.172  1.00  0.00     0.189 HD
HETATM    4  N2  UNL     1      11.605 -17.447   4.943  1.00  0.00    -0.285 N 
ATOM      5  H2  UNL     1      12.514 -16.996   5.050  1.00  0.00     0.188 HD
HETATM    6  C3  UNL     1      10.419 -16.797   4.709  1.00  0.00     0.118 A 
HETATM    7  N5  UNL     1       9.471 -17.740   4.632  1.00  0.00    -0.314 N 
ENDROOT
BRANCH   6   8
HETATM    8  C4  UNL     1      10.388 -15.331   4.646  1.00  0.00     0.208 C 
BRANCH   8   9
HETATM    9  N3  UNL     1      10.628 -14.831   3.316  1.00  0.00    -0.334 N 
HETATM   10  C5  UNL     1      10.825 -15.531   2.208  1.00  0.00     0.184 A 
HETATM   11  N4  UNL     1      11.004 -14.658   1.177  1.00  0.00    -0.350 N 
HETATM   12  C6  UNL     1      10.912 -13.420   1.675  1.00  0.00     0.060 A 
ATOM     13  H4  UNL     1      11.175 -14.904   0.202  1.00  0.00     0.166 HD
HETATM   14  C7  UNL     1      11.014 -12.161   1.069  1.00  0.00     0.032 A 
HETATM   15  C11 UNL     1      10.679 -13.503   3.005  1.00  0.00     0.062 A 
HETATM   16  C8  UNL     1      10.879 -11.004   1.802  1.00  0.00     0.002 A 
HETATM   17  C9  UNL     1      10.642 -11.111   3.154  1.00  0.00     0.002 A 
HETATM   18  C10 UNL     1      10.540 -12.348   3.760  1.00  0.00     0.032 A 
ENDBRANCH   8   9
ENDBRANCH   6   8
BRANCH   7  19
HETATM   19  C12 UNL     1       8.075 -17.560   4.461  1.00  0.00     0.133 C 
BRANCH  19  20
HETATM   20  C13 UNL     1       7.549 -17.459   3.080  1.00  0.00     0.022 C 
BRANCH  20  21
HETATM   21  C14 UNL     1       6.732 -18.580   2.570  1.00  0.00     0.034 C 
BRANCH  21  22
HETATM   22  C15 UNL     1       7.159 -19.065   1.229  1.00  0.00     0.186 C 
HETATM   23  C16 UNL     1       8.649 -19.186   1.100  1.00  0.00     0.033 C 
HETATM   24  C17 UNL     1       8.993 -19.784  -0.247  1.00  0.00     0.004 C 
HETATM   25  C18 UNL     1       8.304 -19.046  -1.375  1.00  0.00     0.027 C 
HETATM   26  C19 UNL     1       6.813 -19.063  -1.074  1.00  0.00     0.232 C 
HETATM   27  N6  UNL     1       6.603 -18.285   0.135  1.00  0.00    -0.071 N 
ATOM     28  H62 UNL     1       5.629 -18.020   0.281  1.00  0.00     0.277 HD
ATOM     29  H61 UNL     1       6.984 -17.340   0.077  1.00  0.00     0.277 HD
ENDBRANCH  21  22
ENDBRANCH  20  21
ENDBRANCH  19  20
ENDBRANCH   7  19
BRANCH   1  30
HETATM   30  S1  UNL     1       9.247 -20.495   4.805  1.00  0.00    -0.097 SA
HETATM   31  C1  UNL     1       9.998 -21.674   3.671  1.00  0.00     0.099 C 
ENDBRANCH   1  30
TORSDOF 7
ENDMDL
MODEL 5
REMARK VINA RESULT: -7.007386527      2.571      5.750
REMARK  7 active torsions:
REMARK  status: ('A' for Active; 'I' for Inactive)
REMARK    1  A    between atoms: S1_2  and  C2_3 
REMARK    2  A    between atoms: C3_8  and  C4_9 
REMARK    3  A    between atoms: C4_9  and  N3_10 
REMARK    4  A    between atoms: N5_20  and  C12_21 
REMARK    5  A    between atoms: C12_21  and  C13_22 
REMARK    6  A    between atoms: C13_22  and  C14_23 
REMARK    7  A    between atoms: C14_23  and  C15_24 
ROOT
HETATM    1  C2  UNL     1      11.277 -13.299   4.202  1.00  0.00     0.162 A 
HETATM    2  N1  UNL     1      11.983 -12.438   4.955  1.00  0.00    -0.278 N 
ATOM      3  H1  UNL     1      12.426 -11.576   4.638  1.00  0.00     0.189 HD
HETATM    4  N2  UNL     1      11.992 -12.920   6.179  1.00  0.00    -0.285 N 
ATOM      5  H2  UNL     1      12.451 -12.485   6.980  1.00  0.00     0.188 HD
HETATM    6  C3  UNL     1      11.289 -14.098   6.210  1.00  0.00     0.118 A 
HETATM    7  N5  UNL     1      10.850 -14.319   4.964  1.00  0.00    -0.314 N 
ENDROOT
BRANCH   6   8
HETATM    8  C4  UNL     1      11.197 -14.863   7.460  1.00  0.00     0.208 C 
BRANCH   8   9
HETATM    9  N3  UNL     1      10.473 -14.156   8.485  1.00  0.00    -0.334 N 
HETATM   10  C5  UNL     1      10.957 -13.328   9.400  1.00  0.00     0.184 A 
HETATM   11  N4  UNL     1       9.921 -12.878  10.162  1.00  0.00    -0.350 N 
HETATM   12  C6  UNL     1       8.802 -13.445   9.697  1.00  0.00     0.060 A 
ATOM     13  H4  UNL     1       9.987 -12.227  10.944  1.00  0.00     0.166 HD
HETATM   14  C7  UNL     1       7.465 -13.336  10.101  1.00  0.00     0.032 A 
HETATM   15  C11 UNL     1       9.120 -14.244   8.654  1.00  0.00     0.062 A 
HETATM   16  C8  UNL     1       6.467 -14.028   9.454  1.00  0.00     0.002 A 
HETATM   17  C9  UNL     1       6.813 -14.836   8.394  1.00  0.00     0.002 A 
HETATM   18  C10 UNL     1       8.129 -14.949   7.989  1.00  0.00     0.032 A 
ENDBRANCH   8   9
ENDBRANCH   6   8
BRANCH   7  19
HETATM   19  C12 UNL     1      10.126 -15.438   4.481  1.00  0.00     0.133 C 
BRANCH  19  20
HETATM   20  C13 UNL     1      10.841 -16.728   4.349  1.00  0.00     0.022 C 
BRANCH  20  21
HETATM   21  C14 UNL     1      10.030 -17.960   4.261  1.00  0.00     0.034 C 
BRANCH  21  22
HETATM   22  C15 UNL     1       8.564 -17.714   4.332  1.00  0.00     0.186 C 
HETATM   23  C16 UNL     1       7.958 -18.174   5.626  1.00  0.00     0.033 C 
HETATM   24  C17 UNL     1       6.495 -17.792   5.662  1.00  0.00     0.004 C 
HETATM   25  C18 UNL     1       5.770 -18.244   4.412  1.00  0.00     0.027 C 
HETATM   26  C19 UNL     1       6.516 -17.650   3.227  1.00  0.00     0.232 C 
HETATM   27  N6  UNL     1       7.837 -18.254   3.195  1.00  0.00    -0.071 N 
ATOM     28  H62 UNL     1       8.320 -18.122   2.307  1.00  0.00     0.277 HD
ATOM     29  H61 UNL     1       7.814 -19.273   3.176  1.00  0.00     0.277 HD
ENDBRANCH  21  22
ENDBRANCH  20  21
ENDBRANCH  19  20
ENDBRANCH   7  19
BRANCH   1  30
HETATM   30  S1  UNL     1      10.958 -13.121   2.469  1.00  0.00    -0.097 SA
HETATM   31  C1  UNL     1      10.554 -11.431   2.002  1.00  0.00     0.099 C 
ENDBRANCH   1  30
TORSDOF 7
ENDMDL
