MODEL 1
REMARK VINA RESULT: -7.012529830      0.000      0.000
REMARK  7 active torsions:
REMARK  status: ('A' for Active; 'I' for Inactive)
REMARK    1  A    between atoms: C2_3  and  C3_4 
REMARK    2  A    between atoms: C3_4  and  N2_5 
REMARK    3  A    between atoms: C4_6  and  S1_7 
REMARK    4  A    between atoms: S1_7  and  C5_8 
REMARK    5  A    between atoms: C5_8  and  C6_9 
REMARK       I    between atoms: C6_9  and  N3_11 
REMARK    6  A    between atoms: N3_11  and  C7_13 
REMARK    7  A    between atoms: C13_23  and  C14_24 
ROOT
HETATM    1  N1  UNL     1      12.111 -12.969   8.348  1.00  0.00    -0.197 NA
HETATM    2  C1  UNL     1      12.009 -13.198   7.208  1.00  0.00     0.060 C 
HETATM    3  C2  UNL     1      11.886 -13.497   5.771  1.00  0.00     0.144 C 
ENDROOT
BRANCH   3   4
HETATM    4  C3  UNL     1      10.468 -13.767   5.386  1.00  0.00     0.147 C 
BRANCH   4   5
HETATM    5  N2  UNL     1      10.416 -14.362   4.076  1.00  0.00    -0.309 N 
HETATM    6  C4  UNL     1      10.205 -15.721   3.989  1.00  0.00     0.163 A 
HETATM    7  N4  UNL     1      10.203 -16.016   2.689  1.00  0.00    -0.278 N 
HETATM    8  N5  UNL     1      10.399 -14.916   2.006  1.00  0.00    -0.282 N 
ATOM      9  H4  UNL     1      10.071 -16.945   2.291  1.00  0.00     0.189 HD
HETATM   10  C13 UNL     1      10.535 -13.860   2.864  1.00  0.00     0.141 A 
ATOM     11  H5  UNL     1      10.443 -14.855   0.989  1.00  0.00     0.188 HD
BRANCH   6  12
HETATM   12  S1  UNL     1       9.985 -16.890   5.319  1.00  0.00    -0.083 SA
BRANCH  12  13
HETATM   13  C5  UNL     1       8.296 -17.527   5.383  1.00  0.00     0.185 C 
BRANCH  13  14
HETATM   14  C6  UNL     1       7.647 -17.281   6.675  1.00  0.00     0.227 C 
HETATM   15  O1  UNL     1       6.689 -17.992   7.046  1.00  0.00    -0.273 OA
HETATM   16  N3  UNL     1       8.096 -16.235   7.514  1.00  0.00    -0.356 N 
ATOM     17  H3  UNL     1       8.879 -15.649   7.222  1.00  0.00     0.162 HD
BRANCH  16  18
HETATM   18  C7  UNL     1       7.444 -15.991   8.794  1.00  0.00     0.084 C 
HETATM   19  C8  UNL     1       6.759 -14.654   8.715  1.00  0.00     0.025 C 
HETATM   20  C9  UNL     1       7.289 -13.636   9.666  1.00  0.00     0.002 C 
HETATM   21  C10 UNL     1       8.770 -13.618   9.833  1.00  0.00     0.000 C 
HETATM   22  C11 UNL     1       9.462 -14.926   9.662  1.00  0.00     0.002 C 
HETATM   23  C12 UNL     1       8.483 -16.055   9.866  1.00  0.00     0.025 C 
ENDBRANCH  16  18
ENDBRANCH  13  14
ENDBRANCH  12  13
ENDBRANCH   6  12
BRANCH  10  24
HETATM   24  C14 UNL     1      10.767 -12.477   2.433  1.00  0.00     0.050 A 
HETATM   25  C15 UNL     1      10.775 -11.283   3.062  1.00  0.00     0.023 A 
HETATM   26  C16 UNL     1      11.047 -10.177   2.342  1.00  0.00     0.009 A 
HETATM   27  C17 UNL     1      11.298 -10.338   1.010  1.00  0.00     0.050 A 
HETATM   28  S2  UNL     1      11.151 -12.014   0.793  1.00  0.00    -0.098 SA
ENDBRANCH  10  24
ENDBRANCH   4   5
ENDBRANCH   3   4
TORSDOF 7
ENDMDL
MODEL 2
REMARK VINA RESULT: -6.892320249      2.997      5.404
REMARK  7 active torsions:
REMARK  status: ('A' for Active; 'I' for Inactive)
REMARK    1  A    between atoms: C2_3  and  C3_4 
REMARK    2  A    between atoms: C3_4  and  N2_5 
REMARK    3  A    between atoms: C4_6  and  S1_7 
REMARK    4  A    between atoms: S1_7  and  C5_8 
REMARK    5  A    between atoms: C5_8  and  C6_9 
REMARK       I    between atoms: C6_9  and  N3_11 
REMARK    6  A    between atoms: N3_11  and  C7_13 
REMARK    7  A    between atoms: C13_23  and  C14_24 
ROOT
HETATM    1  N1  UNL     1      11.915 -13.277   8.137  1.00  0.00    -0.197 NA
HETATM    2  C1  UNL     1      11.876 -13.351   6.974  1.00  0.00     0.060 C 
HETATM    3  C2  UNL     1      11.831 -13.454   5.505  1.00  0.00     0.144 C 
ENDROOT
BRANCH   3   4
HETATM    4  C3  UNL     1      10.449 -13.744   5.017  1.00  0.00     0.147 C 
BRANCH   4   5
HETATM    5  N2  UNL     1      10.498 -14.267   3.676  1.00  0.00    -0.309 N 
HETATM    6  C4  UNL     1      10.361 -15.628   3.506  1.00  0.00     0.163 A 
HETATM    7  N4  UNL     1      10.443 -15.850   2.194  1.00  0.00    -0.278 N 
HETATM    8  N5  UNL     1      10.620 -14.705   1.582  1.00  0.00    -0.282 N 
ATOM      9  H4  UNL     1      10.380 -16.761   1.741  1.00  0.00     0.189 HD
HETATM   10  C13 UNL     1      10.656 -13.693   2.501  1.00  0.00     0.141 A 
ATOM     11  H5  UNL     1      10.716 -14.587   0.574  1.00  0.00     0.188 HD
BRANCH   6  12
HETATM   12  S1  UNL     1      10.129 -16.878   4.758  1.00  0.00    -0.083 SA
BRANCH  12  13
HETATM   13  C5  UNL     1       8.479 -17.607   4.683  1.00  0.00     0.185 C 
BRANCH  13  14
HETATM   14  C6  UNL     1       8.411 -18.762   3.782  1.00  0.00     0.227 C 
HETATM   15  O1  UNL     1       8.620 -19.915   4.216  1.00  0.00    -0.273 OA
HETATM   16  N3  UNL     1       8.111 -18.585   2.411  1.00  0.00    -0.356 N 
ATOM     17  H3  UNL     1       7.936 -17.648   2.046  1.00  0.00     0.162 HD
BRANCH  16  18
HETATM   18  C7  UNL     1       8.051 -19.735   1.519  1.00  0.00     0.084 C 
HETATM   19  C8  UNL     1       9.106 -19.554   0.462  1.00  0.00     0.025 C 
HETATM   20  C9  UNL     1       8.569 -19.425  -0.924  1.00  0.00     0.002 C 
HETATM   21  C10 UNL     1       7.335 -18.603  -1.064  1.00  0.00     0.000 C 
HETATM   22  C11 UNL     1       6.414 -18.602   0.107  1.00  0.00     0.002 C 
HETATM   23  C12 UNL     1       6.668 -19.819   0.960  1.00  0.00     0.025 C 
ENDBRANCH  16  18
ENDBRANCH  13  14
ENDBRANCH  12  13
ENDBRANCH   6  12
BRANCH  10  24
HETATM   24  C14 UNL     1      10.841 -12.279   2.157  1.00  0.00     0.050 A 
HETATM   25  C15 UNL     1      10.819 -11.128   2.861  1.00  0.00     0.023 A 
HETATM   26  C16 UNL     1      11.049  -9.970   2.210  1.00  0.00     0.009 A 
HETATM   27  C17 UNL     1      11.291 -10.038   0.869  1.00  0.00     0.050 A 
HETATM   28  S2  UNL     1      11.194 -11.701   0.546  1.00  0.00    -0.098 SA
ENDBRANCH  10  24
ENDBRANCH   4   5
ENDBRANCH   3   4
TORSDOF 7
ENDMDL
MODEL 3
REMARK VINA RESULT: -6.780806312      3.423      5.653
REMARK  7 active torsions:
REMARK  status: ('A' for Active; 'I' for Inactive)
REMARK    1  A    between atoms: C2_3  and  C3_4 
REMARK    2  A    between atoms: C3_4  and  N2_5 
REMARK    3  A    between atoms: C4_6  and  S1_7 
REMARK    4  A    between atoms: S1_7  and  C5_8 
REMARK    5  A    between atoms: C5_8  and  C6_9 
REMARK       I    between atoms: C6_9  and  N3_11 
REMARK    6  A    between atoms: N3_11  and  C7_13 
REMARK    7  A    between atoms: C13_23  and  C14_24 
ROOT
HETATM    1  N1  UNL     1      11.649 -13.445   8.008  1.00  0.00    -0.197 NA
HETATM    2  C1  UNL     1      11.685 -13.403   6.843  1.00  0.00     0.060 C 
HETATM    3  C2  UNL     1      11.736 -13.360   5.371  1.00  0.00     0.144 C 
ENDROOT
BRANCH   3   4
HETATM    4  C3  UNL     1      10.383 -13.559   4.769  1.00  0.00     0.147 C 
BRANCH   4   5
HETATM    5  N2  UNL     1      10.509 -14.004   3.405  1.00  0.00    -0.309 N 
HETATM    6  C4  UNL     1      10.357 -15.349   3.146  1.00  0.00     0.163 A 
HETATM    7  N4  UNL     1      10.521 -15.496   1.831  1.00  0.00    -0.278 N 
HETATM    8  N5  UNL     1      10.759 -14.322   1.302  1.00  0.00    -0.282 N 
ATOM      9  H4  UNL     1      10.469 -16.377   1.321  1.00  0.00     0.189 HD
HETATM   10  C13 UNL     1      10.755 -13.366   2.280  1.00  0.00     0.141 A 
ATOM     11  H5  UNL     1      10.923 -14.147   0.310  1.00  0.00     0.188 HD
BRANCH   6  12
HETATM   12  S1  UNL     1      10.019 -16.664   4.303  1.00  0.00    -0.083 SA
BRANCH  12  13
HETATM   13  C5  UNL     1       8.497 -17.546   3.895  1.00  0.00     0.185 C 
BRANCH  13  14
HETATM   14  C6  UNL     1       8.575 -18.243   2.607  1.00  0.00     0.227 C 
HETATM   15  O1  UNL     1       9.685 -18.547   2.119  1.00  0.00    -0.273 OA
HETATM   16  N3  UNL     1       7.396 -18.579   1.902  1.00  0.00    -0.356 N 
ATOM     17  H3  UNL     1       6.484 -18.338   2.292  1.00  0.00     0.162 HD
BRANCH  16  18
HETATM   18  C7  UNL     1       7.479 -19.266   0.620  1.00  0.00     0.084 C 
HETATM   19  C8  UNL     1       6.445 -18.667  -0.293  1.00  0.00     0.025 C 
HETATM   20  C9  UNL     1       5.382 -19.620  -0.724  1.00  0.00     0.002 C 
HETATM   21  C10 UNL     1       4.886 -20.552   0.327  1.00  0.00     0.000 C 
HETATM   22  C11 UNL     1       5.872 -20.942   1.372  1.00  0.00     0.002 C 
HETATM   23  C12 UNL     1       7.274 -20.726   0.861  1.00  0.00     0.025 C 
ENDBRANCH  16  18
ENDBRANCH  13  14
ENDBRANCH  12  13
ENDBRANCH   6  12
BRANCH  10  24
HETATM   24  C14 UNL     1      10.990 -11.939   2.033  1.00  0.00     0.050 A 
HETATM   25  C15 UNL     1      11.097 -10.853   2.826  1.00  0.00     0.023 A 
HETATM   26  C16 UNL     1      11.334  -9.656   2.250  1.00  0.00     0.009 A 
HETATM   27  C17 UNL     1      11.451  -9.623   0.892  1.00  0.00     0.050 A 
HETATM   28  S2  UNL     1      11.229 -11.246   0.448  1.00  0.00    -0.098 SA
ENDBRANCH  10  24
ENDBRANCH   4   5
ENDBRANCH   3   4
TORSDOF 7
ENDMDL
MODEL 4
REMARK VINA RESULT: -6.717460511      3.913      6.386
REMARK  7 active torsions:
REMARK  status: ('A' for Active; 'I' for Inactive)
REMARK    1  A    between atoms: C2_3  and  C3_4 
REMARK    2  A    between atoms: C3_4  and  N2_5 
REMARK    3  A    between atoms: C4_6  and  S1_7 
REMARK    4  A    between atoms: S1_7  and  C5_8 
REMARK    5  A    between atoms: C5_8  and  C6_9 
REMARK       I    between atoms: C6_9  and  N3_11 
REMARK    6  A    between atoms: N3_11  and  C7_13 
REMARK    7  A    between atoms: C13_23  and  C14_24 
ROOT
HETATM    1  N1  UNL     1       9.364 -17.087   3.684  1.00  0.00    -0.197 NA
HETATM    2  C1  UNL     1       9.929 -16.665   4.613  1.00  0.00     0.060 C 
HETATM    3  C2  UNL     1      10.651 -16.130   5.780  1.00  0.00     0.144 C 
ENDROOT
BRANCH   3   4
HETATM    4  C3  UNL     1      10.132 -14.786   6.179  1.00  0.00     0.147 C 
BRANCH   4   5
HETATM    5  N2  UNL     1      11.201 -13.822   6.174  1.00  0.00    -0.309 N 
HETATM    6  C4  UNL     1      11.783 -13.493   7.379  1.00  0.00     0.163 A 
HETATM    7  N4  UNL     1      12.727 -12.594   7.104  1.00  0.00    -0.278 N 
HETATM    8  N5  UNL     1      12.738 -12.373   5.814  1.00  0.00    -0.282 N 
ATOM      9  H4  UNL     1      13.341 -12.149   7.787  1.00  0.00     0.189 HD
HETATM   10  C13 UNL     1      11.781 -13.141   5.208  1.00  0.00     0.141 A 
ATOM     11  H5  UNL     1      13.364 -11.727   5.333  1.00  0.00     0.188 HD
BRANCH   6  12
HETATM   12  S1  UNL     1      11.379 -14.112   9.004  1.00  0.00    -0.083 SA
BRANCH  12  13
HETATM   13  C5  UNL     1      12.290 -13.244  10.299  1.00  0.00     0.185 C 
BRANCH  13  14
HETATM   14  C6  UNL     1      13.552 -13.905  10.644  1.00  0.00     0.227 C 
HETATM   15  O1  UNL     1      13.549 -14.979  11.284  1.00  0.00    -0.273 OA
HETATM   16  N3  UNL     1      14.788 -13.335  10.259  1.00  0.00    -0.356 N 
ATOM     17  H3  UNL     1      14.803 -12.460   9.735  1.00  0.00     0.162 HD
BRANCH  16  18
HETATM   18  C7  UNL     1      16.040 -13.993  10.610  1.00  0.00     0.084 C 
HETATM   19  C8  UNL     1      16.922 -12.977  11.283  1.00  0.00     0.025 C 
HETATM   20  C9  UNL     1      18.182 -12.675  10.546  1.00  0.00     0.002 C 
HETATM   21  C10 UNL     1      18.054 -12.571   9.065  1.00  0.00     0.000 C 
HETATM   22  C11 UNL     1      16.996 -13.413   8.440  1.00  0.00     0.002 C 
HETATM   23  C12 UNL     1      16.638 -14.553   9.360  1.00  0.00     0.025 C 
ENDBRANCH  16  18
ENDBRANCH  13  14
ENDBRANCH  12  13
ENDBRANCH   6  12
BRANCH  10  24
HETATM   24  C14 UNL     1      11.522 -13.139   3.764  1.00  0.00     0.050 A 
HETATM   25  C15 UNL     1      11.701 -14.039   2.775  1.00  0.00     0.023 A 
HETATM   26  C16 UNL     1      11.329 -13.703   1.523  1.00  0.00     0.009 A 
HETATM   27  C17 UNL     1      10.791 -12.463   1.337  1.00  0.00     0.050 A 
HETATM   28  S2  UNL     1      10.815 -11.797   2.897  1.00  0.00    -0.098 SA
ENDBRANCH  10  24
ENDBRANCH   4   5
ENDBRANCH   3   4
TORSDOF 7
ENDMDL
MODEL 5
REMARK VINA RESULT: -6.635680516      3.435      5.777
REMARK  7 active torsions:
REMARK  status: ('A' for Active; 'I' for Inactive)
REMARK    1  A    between atoms: C2_3  and  C3_4 
REMARK    2  A    between atoms: C3_4  and  N2_5 
REMARK    3  A    between atoms: C4_6  and  S1_7 
REMARK    4  A    between atoms: S1_7  and  C5_8 
REMARK    5  A    between atoms: C5_8  and  C6_9 
REMARK       I    between atoms: C6_9  and  N3_11 
REMARK    6  A    between atoms: N3_11  and  C7_13 
REMARK    7  A    between atoms: C13_23  and  C14_24 
ROOT
HETATM    1  N1  UNL     1      11.511 -13.759   8.090  1.00  0.00    -0.197 NA
HETATM    2  C1  UNL     1      11.541 -13.650   6.929  1.00  0.00     0.060 C 
HETATM    3  C2  UNL     1      11.583 -13.522   5.462  1.00  0.00     0.144 C 
ENDROOT
BRANCH   3   4
HETATM    4  C3  UNL     1      10.247 -13.789   4.848  1.00  0.00     0.147 C 
BRANCH   4   5
HETATM    5  N2  UNL     1      10.408 -14.237   3.489  1.00  0.00    -0.309 N 
HETATM    6  C4  UNL     1      10.272 -15.583   3.230  1.00  0.00     0.163 A 
HETATM    7  N4  UNL     1      10.466 -15.732   1.920  1.00  0.00    -0.278 N 
HETATM    8  N5  UNL     1      10.707 -14.558   1.392  1.00  0.00    -0.282 N 
ATOM      9  H4  UNL     1      10.434 -16.616   1.412  1.00  0.00     0.189 HD
HETATM   10  C13 UNL     1      10.673 -13.600   2.367  1.00  0.00     0.141 A 
ATOM     11  H5  UNL     1      10.892 -14.384   0.404  1.00  0.00     0.188 HD
BRANCH   6  12
HETATM   12  S1  UNL     1       9.919 -16.898   4.383  1.00  0.00    -0.083 SA
BRANCH  12  13
HETATM   13  C5  UNL     1       9.442 -18.422   3.541  1.00  0.00     0.185 C 
BRANCH  13  14
HETATM   14  C6  UNL     1       8.170 -18.297   2.821  1.00  0.00     0.227 C 
HETATM   15  O1  UNL     1       7.264 -17.558   3.264  1.00  0.00    -0.273 OA
HETATM   16  N3  UNL     1       7.953 -19.012   1.620  1.00  0.00    -0.356 N 
ATOM     17  H3  UNL     1       8.687 -19.616   1.249  1.00  0.00     0.162 HD
BRANCH  16  18
HETATM   18  C7  UNL     1       6.685 -18.889   0.913  1.00  0.00     0.084 C 
HETATM   19  C8  UNL     1       5.905 -20.154   1.143  1.00  0.00     0.025 C 
HETATM   20  C9  UNL     1       5.636 -20.942  -0.095  1.00  0.00     0.002 C 
HETATM   21  C10 UNL     1       6.761 -21.019  -1.068  1.00  0.00     0.000 C 
HETATM   22  C11 UNL     1       7.676 -19.844  -1.104  1.00  0.00     0.002 C 
HETATM   23  C12 UNL     1       6.980 -18.635  -0.530  1.00  0.00     0.025 C 
ENDBRANCH  16  18
ENDBRANCH  13  14
ENDBRANCH  12  13
ENDBRANCH   6  12
BRANCH  10  24
HETATM   24  C14 UNL     1      10.902 -12.172   2.122  1.00  0.00     0.050 A 
HETATM   25  C15 UNL     1      10.976 -11.081   2.913  1.00  0.00     0.023 A 
HETATM   26  C16 UNL     1      11.219  -9.885   2.340  1.00  0.00     0.009 A 
HETATM   27  C17 UNL     1      11.375  -9.855   0.985  1.00  0.00     0.050 A 
HETATM   28  S2  UNL     1      11.181 -11.482   0.541  1.00  0.00    -0.098 SA
ENDBRANCH  10  24
ENDBRANCH   4   5
ENDBRANCH   3   4
TORSDOF 7
ENDMDL
