MODEL 1
REMARK VINA RESULT: -8.015467154      0.000      0.000
REMARK  7 active torsions:
REMARK  status: ('A' for Active; 'I' for Inactive)
REMARK    1  A    between atoms: C2_2  and  C4_4 
REMARK    2  A    between atoms: C4_4  and  C5_5 
REMARK    3  A    between atoms: C5_5  and  N1_6 
REMARK    4  A    between atoms: C8_9  and  C9_10 
REMARK    5  A    between atoms: C10_13  and  C11_14 
REMARK    6  A    between atoms: C11_14  and  S1_15 
REMARK    7  A    between atoms: S1_15  and  C12_16 
ROOT
HETATM    1  C9  UNL     1      -1.561  -1.656  -1.887  1.00  0.00     0.152 A 
HETATM    2  N2  UNL     1      -2.359  -1.652  -2.997  1.00  0.00    -0.326 N 
ATOM      3  H2  UNL     1      -2.115  -2.057  -3.900  1.00  0.00     0.169 HD
HETATM    4  C10 UNL     1      -3.519  -1.029  -2.707  1.00  0.00     0.113 A 
HETATM    5  N4  UNL     1      -3.415  -0.661  -1.429  1.00  0.00    -0.246 N 
ATOM      6  H4  UNL     1      -4.130  -0.162  -0.898  1.00  0.00     0.196 HD
HETATM    7  O2  UNL     1      -2.249  -1.042  -0.964  1.00  0.00    -0.222 OA
ENDROOT
BRANCH   1   8
HETATM    8  C8  UNL     1      -0.190  -2.261  -1.825  1.00  0.00     0.065 C 
HETATM    9  C7  UNL     1       0.377  -2.362  -0.465  1.00  0.00     0.028 C 
HETATM   10  C6  UNL     1       0.707  -3.785  -0.025  1.00  0.00     0.095 C 
HETATM   11  N1  UNL     1       1.399  -4.537  -1.008  1.00  0.00    -0.293 NA
HETATM   12  C18 UNL     1       0.985  -4.316  -2.358  1.00  0.00     0.095 C 
HETATM   13  C17 UNL     1      -0.398  -3.694  -2.358  1.00  0.00     0.028 C 
BRANCH  11  14
HETATM   14  C5  UNL     1       1.392  -5.923  -0.718  1.00  0.00     0.059 C 
BRANCH  14  15
HETATM   15  C4  UNL     1       1.541  -6.331   0.658  1.00  0.00     0.013 C 
BRANCH  15  16
HETATM   16  C2  UNL     1       2.247  -7.285   1.180  1.00  0.00    -0.087 C 
HETATM   17  C1  UNL     1       2.677  -8.402   0.210  1.00  0.00     0.043 C 
HETATM   18  C3  UNL     1       2.772  -7.410   2.551  1.00  0.00     0.043 C 
ENDBRANCH  15  16
ENDBRANCH  14  15
ENDBRANCH  11  14
ENDBRANCH   1   8
BRANCH   4  19
HETATM   19  C11 UNL     1      -4.658  -0.849  -3.640  1.00  0.00     0.160 C 
BRANCH  19  20
HETATM   20  S1  UNL     1      -5.848  -2.222  -3.526  1.00  0.00    -0.095 SA
BRANCH  20  21
HETATM   21  C12 UNL     1      -7.325  -2.019  -2.893  1.00  0.00     0.143 A 
HETATM   22  O1  UNL     1      -8.458  -1.834  -3.492  1.00  0.00    -0.230 OA
HETATM   23  N3  UNL     1      -9.432  -1.708  -2.650  1.00  0.00    -0.264 N 
HETATM   24  C13 UNL     1      -8.959  -1.811  -1.390  1.00  0.00     0.038 A 
ATOM     25  H3  UNL     1     -10.409  -1.555  -2.900  1.00  0.00     0.194 HD
HETATM   26  C14 UNL     1      -9.712  -1.727  -0.099  1.00  0.00     0.071 C 
HETATM   27  C15 UNL     1      -7.606  -2.011  -1.541  1.00  0.00     0.005 A 
HETATM   28  C16 UNL     1      -6.628  -2.186  -0.437  1.00  0.00     0.054 C 
ENDBRANCH  20  21
ENDBRANCH  19  20
ENDBRANCH   4  19
TORSDOF 7
ENDMDL
MODEL 2
REMARK VINA RESULT: -7.733333575      1.125      1.336
REMARK  7 active torsions:
REMARK  status: ('A' for Active; 'I' for Inactive)
REMARK    1  A    between atoms: C2_2  and  C4_4 
REMARK    2  A    between atoms: C4_4  and  C5_5 
REMARK    3  A    between atoms: C5_5  and  N1_6 
REMARK    4  A    between atoms: C8_9  and  C9_10 
REMARK    5  A    between atoms: C10_13  and  C11_14 
REMARK    6  A    between atoms: C11_14  and  S1_15 
REMARK    7  A    between atoms: S1_15  and  C12_16 
ROOT
HETATM    1  C9  UNL     1      -1.455  -2.440  -3.429  1.00  0.00     0.152 A 
HETATM    2  N2  UNL     1      -2.463  -1.785  -2.779  1.00  0.00    -0.326 N 
ATOM      3  H2  UNL     1      -2.420  -1.438  -1.822  1.00  0.00     0.169 HD
HETATM    4  C10 UNL     1      -3.522  -1.670  -3.605  1.00  0.00     0.113 A 
HETATM    5  N4  UNL     1      -3.149  -2.256  -4.745  1.00  0.00    -0.246 N 
ATOM      6  H4  UNL     1      -3.727  -2.341  -5.582  1.00  0.00     0.196 HD
HETATM    7  O2  UNL     1      -1.922  -2.704  -4.618  1.00  0.00    -0.222 OA
ENDROOT
BRANCH   1   8
HETATM    8  C8  UNL     1      -0.116  -2.754  -2.828  1.00  0.00     0.065 C 
HETATM    9  C7  UNL     1       0.227  -1.952  -1.637  1.00  0.00     0.028 C 
HETATM   10  C6  UNL     1       0.470  -2.772  -0.374  1.00  0.00     0.095 C 
HETATM   11  N1  UNL     1       1.304  -3.901  -0.584  1.00  0.00    -0.293 NA
HETATM   12  C18 UNL     1       1.110  -4.589  -1.821  1.00  0.00     0.095 C 
HETATM   13  C17 UNL     1      -0.250  -4.225  -2.385  1.00  0.00     0.028 C 
BRANCH  11  14
HETATM   14  C5  UNL     1       1.238  -4.815   0.496  1.00  0.00     0.059 C 
BRANCH  14  15
HETATM   15  C4  UNL     1       1.293  -6.227   0.197  1.00  0.00     0.013 C 
BRANCH  15  16
HETATM   16  C2  UNL     1       2.056  -7.159   0.678  1.00  0.00    -0.087 C 
HETATM   17  C1  UNL     1       2.655  -8.127  -0.360  1.00  0.00     0.043 C 
HETATM   18  C3  UNL     1       2.502  -7.373   2.064  1.00  0.00     0.043 C 
ENDBRANCH  15  16
ENDBRANCH  14  15
ENDBRANCH  11  14
ENDBRANCH   1   8
BRANCH   4  19
HETATM   19  C11 UNL     1      -4.801  -0.993  -3.281  1.00  0.00     0.160 C 
BRANCH  19  20
HETATM   20  S1  UNL     1      -6.235  -2.071  -3.586  1.00  0.00    -0.095 SA
BRANCH  20  21
HETATM   21  C12 UNL     1      -7.629  -1.882  -2.785  1.00  0.00     0.143 A 
HETATM   22  O1  UNL     1      -8.819  -1.664  -3.246  1.00  0.00    -0.230 OA
HETATM   23  N3  UNL     1      -9.692  -1.565  -2.296  1.00  0.00    -0.264 N 
HETATM   24  C13 UNL     1      -9.083  -1.724  -1.101  1.00  0.00     0.038 A 
ATOM     25  H3  UNL     1     -10.689  -1.394  -2.430  1.00  0.00     0.194 HD
HETATM   26  C14 UNL     1      -9.687  -1.687   0.267  1.00  0.00     0.071 C 
HETATM   27  C15 UNL     1      -7.758  -1.928  -1.410  1.00  0.00     0.005 A 
HETATM   28  C16 UNL     1      -6.665  -2.156  -0.430  1.00  0.00     0.054 C 
ENDBRANCH  20  21
ENDBRANCH  19  20
ENDBRANCH   4  19
TORSDOF 7
ENDMDL
MODEL 3
REMARK VINA RESULT: -7.729774829      5.363      8.657
REMARK  7 active torsions:
REMARK  status: ('A' for Active; 'I' for Inactive)
REMARK    1  A    between atoms: C2_2  and  C4_4 
REMARK    2  A    between atoms: C4_4  and  C5_5 
REMARK    3  A    between atoms: C5_5  and  N1_6 
REMARK    4  A    between atoms: C8_9  and  C9_10 
REMARK    5  A    between atoms: C10_13  and  C11_14 
REMARK    6  A    between atoms: C11_14  and  S1_15 
REMARK    7  A    between atoms: S1_15  and  C12_16 
ROOT
HETATM    1  C9  UNL     1      -3.372  -2.092  -5.559  1.00  0.00     0.152 A 
HETATM    2  N2  UNL     1      -3.773  -3.307  -6.040  1.00  0.00    -0.326 N 
ATOM      3  H2  UNL     1      -4.589  -3.828  -5.719  1.00  0.00     0.169 HD
HETATM    4  C10 UNL     1      -2.921  -3.706  -7.005  1.00  0.00     0.113 A 
HETATM    5  N4  UNL     1      -2.012  -2.734  -7.101  1.00  0.00    -0.246 N 
ATOM      6  H4  UNL     1      -1.221  -2.727  -7.745  1.00  0.00     0.196 HD
HETATM    7  O2  UNL     1      -2.299  -1.789  -6.237  1.00  0.00    -0.222 OA
ENDROOT
BRANCH   1   8
HETATM    8  C8  UNL     1      -4.074  -1.330  -4.474  1.00  0.00     0.065 C 
HETATM    9  C7  UNL     1      -5.545  -1.295  -4.600  1.00  0.00     0.028 C 
HETATM   10  C6  UNL     1      -6.292  -1.906  -3.419  1.00  0.00     0.095 C 
HETATM   11  N1  UNL     1      -5.800  -1.484  -2.157  1.00  0.00    -0.293 NA
HETATM   12  C18 UNL     1      -4.381  -1.336  -2.067  1.00  0.00     0.095 C 
HETATM   13  C17 UNL     1      -3.728  -2.116  -3.192  1.00  0.00     0.028 C 
BRANCH  11  14
HETATM   14  C5  UNL     1      -6.270  -2.305  -1.104  1.00  0.00     0.059 C 
BRANCH  14  15
HETATM   15  C4  UNL     1      -7.679  -2.274  -0.793  1.00  0.00     0.013 C 
BRANCH  15  16
HETATM   16  C2  UNL     1      -8.362  -1.447  -0.065  1.00  0.00    -0.087 C 
HETATM   17  C1  UNL     1      -9.864  -1.354  -0.396  1.00  0.00     0.043 C 
HETATM   18  C3  UNL     1      -7.925  -0.649   1.093  1.00  0.00     0.043 C 
ENDBRANCH  15  16
ENDBRANCH  14  15
ENDBRANCH  11  14
ENDBRANCH   1   8
BRANCH   4  19
HETATM   19  C11 UNL     1      -3.034  -4.957  -7.794  1.00  0.00     0.160 C 
BRANCH  19  20
HETATM   20  S1  UNL     1      -3.254  -4.621  -9.569  1.00  0.00    -0.095 SA
BRANCH  20  21
HETATM   21  C12 UNL     1      -4.723  -4.457 -10.229  1.00  0.00     0.143 A 
HETATM   22  O1  UNL     1      -5.797  -5.151 -10.028  1.00  0.00    -0.230 OA
HETATM   23  N3  UNL     1      -6.787  -4.724 -10.742  1.00  0.00    -0.264 N 
HETATM   24  C13 UNL     1      -6.389  -3.671 -11.487  1.00  0.00     0.038 A 
ATOM     25  H3  UNL     1      -7.727  -5.122 -10.743  1.00  0.00     0.194 HD
HETATM   26  C14 UNL     1      -7.185  -2.860 -12.461  1.00  0.00     0.071 C 
HETATM   27  C15 UNL     1      -5.064  -3.495 -11.161  1.00  0.00     0.005 A 
HETATM   28  C16 UNL     1      -4.165  -2.452 -11.719  1.00  0.00     0.054 C 
ENDBRANCH  20  21
ENDBRANCH  19  20
ENDBRANCH   4  19
TORSDOF 7
ENDMDL
MODEL 4
REMARK VINA RESULT: -7.712544086      1.457      1.820
REMARK  7 active torsions:
REMARK  status: ('A' for Active; 'I' for Inactive)
REMARK    1  A    between atoms: C2_2  and  C4_4 
REMARK    2  A    between atoms: C4_4  and  C5_5 
REMARK    3  A    between atoms: C5_5  and  N1_6 
REMARK    4  A    between atoms: C8_9  and  C9_10 
REMARK    5  A    between atoms: C10_13  and  C11_14 
REMARK    6  A    between atoms: C11_14  and  S1_15 
REMARK    7  A    between atoms: S1_15  and  C12_16 
ROOT
HETATM    1  C9  UNL     1      -1.313  -0.667  -0.711  1.00  0.00     0.152 A 
HETATM    2  N2  UNL     1      -2.055  -1.263  -1.691  1.00  0.00    -0.326 N 
ATOM      3  H2  UNL     1      -1.710  -1.961  -2.350  1.00  0.00     0.169 HD
HETATM    4  C10 UNL     1      -3.314  -0.784  -1.649  1.00  0.00     0.113 A 
HETATM    5  N4  UNL     1      -3.326   0.097  -0.647  1.00  0.00    -0.246 N 
ATOM      6  H4  UNL     1      -4.135   0.642  -0.349  1.00  0.00     0.196 HD
HETATM    7  O2  UNL     1      -2.131   0.150  -0.106  1.00  0.00    -0.222 OA
ENDROOT
BRANCH   1   8
HETATM    8  C8  UNL     1       0.138  -0.947  -0.449  1.00  0.00     0.065 C 
HETATM    9  C7  UNL     1       0.433  -1.439   0.911  1.00  0.00     0.028 C 
HETATM   10  C6  UNL     1       1.083  -2.819   0.954  1.00  0.00     0.095 C 
HETATM   11  N1  UNL     1       2.147  -2.973   0.028  1.00  0.00    -0.293 NA
HETATM   12  C18 UNL     1       1.955  -2.346  -1.241  1.00  0.00     0.095 C 
HETATM   13  C17 UNL     1       0.477  -2.076  -1.444  1.00  0.00     0.028 C 
BRANCH  11  14
HETATM   14  C5  UNL     1       2.500  -4.333  -0.150  1.00  0.00     0.059 C 
BRANCH  14  15
HETATM   15  C4  UNL     1       1.475  -5.332   0.030  1.00  0.00     0.013 C 
BRANCH  15  16
HETATM   16  C2  UNL     1       1.169  -6.363  -0.694  1.00  0.00    -0.087 C 
HETATM   17  C1  UNL     1       2.004  -7.631  -0.432  1.00  0.00     0.043 C 
HETATM   18  C3  UNL     1       0.078  -6.522  -1.671  1.00  0.00     0.043 C 
ENDBRANCH  15  16
ENDBRANCH  14  15
ENDBRANCH  11  14
ENDBRANCH   1   8
BRANCH   4  19
HETATM   19  C11 UNL     1      -4.430  -1.208  -2.530  1.00  0.00     0.160 C 
BRANCH  19  20
HETATM   20  S1  UNL     1      -5.615  -2.276  -1.655  1.00  0.00    -0.095 SA
BRANCH  20  21
HETATM   21  C12 UNL     1      -7.212  -2.020  -1.735  1.00  0.00     0.143 A 
HETATM   22  O1  UNL     1      -8.017  -2.155  -2.739  1.00  0.00    -0.230 OA
HETATM   23  N3  UNL     1      -9.235  -1.854  -2.424  1.00  0.00    -0.264 N 
HETATM   24  C13 UNL     1      -9.291  -1.487  -1.126  1.00  0.00     0.038 A 
ATOM     25  H3  UNL     1     -10.032  -1.889  -3.060  1.00  0.00     0.194 HD
HETATM   26  C14 UNL     1     -10.480  -1.054  -0.327  1.00  0.00     0.071 C 
HETATM   27  C15 UNL     1      -7.994  -1.592  -0.679  1.00  0.00     0.005 A 
HETATM   28  C16 UNL     1      -7.526  -1.294   0.699  1.00  0.00     0.054 C 
ENDBRANCH  20  21
ENDBRANCH  19  20
ENDBRANCH   4  19
TORSDOF 7
ENDMDL
MODEL 5
REMARK VINA RESULT: -7.638324249      5.343      8.647
REMARK  7 active torsions:
REMARK  status: ('A' for Active; 'I' for Inactive)
REMARK    1  A    between atoms: C2_2  and  C4_4 
REMARK    2  A    between atoms: C4_4  and  C5_5 
REMARK    3  A    between atoms: C5_5  and  N1_6 
REMARK    4  A    between atoms: C8_9  and  C9_10 
REMARK    5  A    between atoms: C10_13  and  C11_14 
REMARK    6  A    between atoms: C11_14  and  S1_15 
REMARK    7  A    between atoms: S1_15  and  C12_16 
ROOT
HETATM    1  C9  UNL     1      -3.270  -2.037  -5.392  1.00  0.00     0.152 A 
HETATM    2  N2  UNL     1      -3.527  -3.317  -5.797  1.00  0.00    -0.326 N 
ATOM      3  H2  UNL     1      -4.283  -3.905  -5.448  1.00  0.00     0.169 HD
HETATM    4  C10 UNL     1      -2.624  -3.678  -6.730  1.00  0.00     0.113 A 
HETATM    5  N4  UNL     1      -1.828  -2.618  -6.883  1.00  0.00    -0.246 N 
ATOM      6  H4  UNL     1      -1.034  -2.562  -7.522  1.00  0.00     0.196 HD
HETATM    7  O2  UNL     1      -2.228  -1.658  -6.082  1.00  0.00    -0.222 OA
ENDROOT
BRANCH   1   8
HETATM    8  C8  UNL     1      -4.066  -1.291  -4.363  1.00  0.00     0.065 C 
HETATM    9  C7  UNL     1      -5.528  -1.331  -4.569  1.00  0.00     0.028 C 
HETATM   10  C6  UNL     1      -6.310  -1.957  -3.418  1.00  0.00     0.095 C 
HETATM   11  N1  UNL     1      -5.908  -1.491  -2.140  1.00  0.00    -0.293 NA
HETATM   12  C18 UNL     1      -4.505  -1.272  -1.976  1.00  0.00     0.095 C 
HETATM   13  C17 UNL     1      -3.754  -2.037  -3.049  1.00  0.00     0.028 C 
BRANCH  11  14
HETATM   14  C5  UNL     1      -6.395  -2.316  -1.098  1.00  0.00     0.059 C 
BRANCH  14  15
HETATM   15  C4  UNL     1      -7.790  -2.210  -0.742  1.00  0.00     0.013 C 
BRANCH  15  16
HETATM   16  C2  UNL     1      -8.397  -1.379   0.046  1.00  0.00    -0.087 C 
HETATM   17  C1  UNL     1      -9.915  -1.239  -0.177  1.00  0.00     0.043 C 
HETATM   18  C3  UNL     1      -7.858  -0.614   1.183  1.00  0.00     0.043 C 
ENDBRANCH  15  16
ENDBRANCH  14  15
ENDBRANCH  11  14
ENDBRANCH   1   8
BRANCH   4  19
HETATM   19  C11 UNL     1      -2.586  -4.981  -7.438  1.00  0.00     0.160 C 
BRANCH  19  20
HETATM   20  S1  UNL     1      -2.412  -4.768  -9.237  1.00  0.00    -0.095 SA
BRANCH  20  21
HETATM   21  C12 UNL     1      -3.498  -3.939 -10.105  1.00  0.00     0.143 A 
HETATM   22  O1  UNL     1      -3.431  -2.733 -10.571  1.00  0.00    -0.230 OA
HETATM   23  N3  UNL     1      -4.501  -2.407 -11.220  1.00  0.00    -0.264 N 
HETATM   24  C13 UNL     1      -5.369  -3.441 -11.212  1.00  0.00     0.038 A 
ATOM     25  H3  UNL     1      -4.664  -1.506 -11.671  1.00  0.00     0.194 HD
HETATM   26  C14 UNL     1      -6.730  -3.523 -11.829  1.00  0.00     0.071 C 
HETATM   27  C15 UNL     1      -4.730  -4.427 -10.497  1.00  0.00     0.005 A 
HETATM   28  C16 UNL     1      -5.277  -5.777 -10.204  1.00  0.00     0.054 C 
ENDBRANCH  20  21
ENDBRANCH  19  20
ENDBRANCH   4  19
TORSDOF 7
ENDMDL
