MODEL 1
REMARK VINA RESULT: -6.910922120      0.000      0.000
REMARK  7 active torsions:
REMARK  status: ('A' for Active; 'I' for Inactive)
REMARK    1  A    between atoms: C2_2  and  C3_3 
REMARK    2  A    between atoms: C3_3  and  C4_4 
REMARK    3  A    between atoms: C3_3  and  C6_6 
REMARK    4  A    between atoms: C6_6  and  N1_7 
REMARK    5  A    between atoms: N1_7  and  O1_9 
REMARK    6  A    between atoms: C8_14  and  N3_15 
REMARK    7  A    between atoms: C15_25  and  C16_26 
ROOT
HETATM    1  C6  UNL     1      -4.088  -1.517  -2.364  1.00  0.00     0.064 C 
HETATM    2  C7  UNL     1      -2.712  -1.651  -2.719  1.00  0.00     0.082 A 
HETATM    3  N2  UNL     1      -1.748  -1.601  -1.731  1.00  0.00    -0.189 N 
ATOM      4  H2  UNL     1      -2.056  -1.372  -0.786  1.00  0.00     0.184 HD
HETATM    5  C8  UNL     1      -0.458  -1.827  -1.912  1.00  0.00     0.681 A 
HETATM    6  N5  UNL     1      -0.042  -2.128  -3.147  1.00  0.00    -0.194 N 
ATOM      7  H5  UNL     1       0.952  -2.305  -3.295  1.00  0.00     0.184 HD
HETATM    8  C15 UNL     1      -0.886  -2.209  -4.225  1.00  0.00     0.042 A 
HETATM    9  C20 UNL     1      -2.238  -1.958  -3.961  1.00  0.00    -0.009 A 
HETATM   10  C21 UNL     1      -3.135  -1.978  -5.110  1.00  0.00     0.052 C 
ENDROOT
BRANCH   1  11
HETATM   11  C3  UNL     1      -5.344  -1.963  -2.952  1.00  0.00     0.039 C 
BRANCH  11  12
HETATM   12  C2  UNL     1      -6.280  -2.408  -1.817  1.00  0.00     0.006 C 
HETATM   13  C1  UNL     1      -7.732  -2.133  -2.163  1.00  0.00     0.006 C 
ENDBRANCH  11  12
BRANCH  11  14
HETATM   14  C4  UNL     1      -6.037  -0.829  -3.737  1.00  0.00     0.006 C 
HETATM   15  C5  UNL     1      -6.386  -1.247  -5.116  1.00  0.00     0.006 C 
ENDBRANCH  11  14
ENDBRANCH   1  11
BRANCH   1  16
HETATM   16  N1  UNL     1      -4.306  -1.004  -1.137  1.00  0.00    -0.271 N 
ATOM     17  H1  UNL     1      -4.850  -1.534  -0.456  1.00  0.00     0.194 HD
BRANCH  16  18
HETATM   18  O1  UNL     1      -3.817   0.193  -0.807  1.00  0.00    -0.290 OA
ATOM     19  H1  UNL     1      -4.373   0.844  -0.397  1.00  0.00     0.244 HD
ENDBRANCH  16  18
ENDBRANCH   1  16
BRANCH   5  20
HETATM   20  N3  UNL     1       0.509  -1.766  -0.855  1.00  0.00    -0.209 N 
HETATM   21  C9  UNL     1       0.685  -2.781   0.190  1.00  0.00     0.177 C 
HETATM   22  C10 UNL     1       1.731  -2.155   1.089  1.00  0.00     0.243 C 
HETATM   23  C11 UNL     1       2.624  -1.539  -0.010  1.00  0.00     0.065 C 
HETATM   24  N4  UNL     1       1.186  -0.971   1.683  1.00  0.00     0.092 N 
HETATM   25  C12 UNL     1       1.470  -0.724  -0.619  1.00  0.00     0.132 C 
HETATM   26  C13 UNL     1       1.019   0.010   0.624  1.00  0.00     0.298 C 
HETATM   27  C14 UNL     1       2.039  -0.435   2.697  1.00  0.00     0.310 C 
ENDBRANCH   5  20
BRANCH   8  28
HETATM   28  C16 UNL     1      -0.333  -2.490  -5.540  1.00  0.00    -0.008 C 
HETATM   29  C17 UNL     1       1.210  -2.635  -5.313  1.00  0.00     0.021 C 
HETATM   30  C18 UNL     1      -0.406  -1.240  -6.400  1.00  0.00     0.021 C 
HETATM   31  C19 UNL     1      -0.717  -3.752  -6.208  1.00  0.00     0.021 C 
ENDBRANCH   8  28
TORSDOF 7
ENDMDL
MODEL 2
REMARK VINA RESULT: -6.875403267      0.742      1.187
REMARK  7 active torsions:
REMARK  status: ('A' for Active; 'I' for Inactive)
REMARK    1  A    between atoms: C2_2  and  C3_3 
REMARK    2  A    between atoms: C3_3  and  C4_4 
REMARK    3  A    between atoms: C3_3  and  C6_6 
REMARK    4  A    between atoms: C6_6  and  N1_7 
REMARK    5  A    between atoms: N1_7  and  O1_9 
REMARK    6  A    between atoms: C8_14  and  N3_15 
REMARK    7  A    between atoms: C15_25  and  C16_26 
ROOT
HETATM    1  C6  UNL     1      -4.130  -1.531  -2.347  1.00  0.00     0.064 C 
HETATM    2  C7  UNL     1      -2.773  -1.650  -2.772  1.00  0.00     0.082 A 
HETATM    3  N2  UNL     1      -1.758  -1.542  -1.842  1.00  0.00    -0.189 N 
ATOM      4  H2  UNL     1      -2.019  -1.282  -0.891  1.00  0.00     0.184 HD
HETATM    5  C8  UNL     1      -0.475  -1.747  -2.085  1.00  0.00     0.681 A 
HETATM    6  N5  UNL     1      -0.120  -2.085  -3.330  1.00  0.00    -0.194 N 
ATOM      7  H5  UNL     1       0.868  -2.247  -3.526  1.00  0.00     0.184 HD
HETATM    8  C15 UNL     1      -1.019  -2.226  -4.355  1.00  0.00     0.042 A 
HETATM    9  C20 UNL     1      -2.360  -1.994  -4.026  1.00  0.00    -0.009 A 
HETATM   10  C21 UNL     1      -3.317  -2.077  -5.123  1.00  0.00     0.052 C 
ENDROOT
BRANCH   1  11
HETATM   11  C3  UNL     1      -5.406  -2.026  -2.848  1.00  0.00     0.039 C 
BRANCH  11  12
HETATM   12  C2  UNL     1      -6.249  -2.493  -1.651  1.00  0.00     0.006 C 
HETATM   13  C1  UNL     1      -7.721  -2.187  -1.863  1.00  0.00     0.006 C 
ENDBRANCH  11  12
BRANCH  11  14
HETATM   14  C4  UNL     1      -6.188  -0.924  -3.593  1.00  0.00     0.006 C 
HETATM   15  C5  UNL     1      -6.418  -1.277  -5.015  1.00  0.00     0.006 C 
ENDBRANCH  11  14
ENDBRANCH   1  11
BRANCH   1  16
HETATM   16  N1  UNL     1      -4.294  -0.976  -1.130  1.00  0.00    -0.271 N 
ATOM     17  H1  UNL     1      -4.832  -1.468  -0.417  1.00  0.00     0.194 HD
BRANCH  16  18
HETATM   18  O1  UNL     1      -3.756   0.213  -0.851  1.00  0.00    -0.290 OA
ATOM     19  H1  UNL     1      -3.677   0.506   0.049  1.00  0.00     0.244 HD
ENDBRANCH  16  18
ENDBRANCH   1  16
BRANCH   5  20
HETATM   20  N3  UNL     1       0.547  -1.625  -1.086  1.00  0.00    -0.209 N 
HETATM   21  C9  UNL     1       1.977  -1.445  -1.357  1.00  0.00     0.177 C 
HETATM   22  C10 UNL     1       2.588  -1.504   0.028  1.00  0.00     0.243 C 
HETATM   23  C11 UNL     1       1.500  -0.708   0.782  1.00  0.00     0.065 C 
HETATM   24  N4  UNL     1       2.383  -2.814   0.571  1.00  0.00     0.092 N 
HETATM   25  C12 UNL     1       0.371  -1.656   0.340  1.00  0.00     0.132 C 
HETATM   26  C13 UNL     1       0.959  -2.962   0.822  1.00  0.00     0.298 C 
HETATM   27  C14 UNL     1       3.103  -3.011   1.790  1.00  0.00     0.310 C 
ENDBRANCH   5  20
BRANCH   8  28
HETATM   28  C16 UNL     1      -0.532  -2.545  -5.687  1.00  0.00    -0.008 C 
HETATM   29  C17 UNL     1       1.026  -2.626  -5.546  1.00  0.00     0.021 C 
HETATM   30  C18 UNL     1      -0.701  -1.338  -6.594  1.00  0.00     0.021 C 
HETATM   31  C19 UNL     1      -0.905  -3.849  -6.277  1.00  0.00     0.021 C 
ENDBRANCH   8  28
TORSDOF 7
ENDMDL
MODEL 3
REMARK VINA RESULT: -6.328420057      2.820      7.515
REMARK  7 active torsions:
REMARK  status: ('A' for Active; 'I' for Inactive)
REMARK    1  A    between atoms: C2_2  and  C3_3 
REMARK    2  A    between atoms: C3_3  and  C4_4 
REMARK    3  A    between atoms: C3_3  and  C6_6 
REMARK    4  A    between atoms: C6_6  and  N1_7 
REMARK    5  A    between atoms: N1_7  and  O1_9 
REMARK    6  A    between atoms: C8_14  and  N3_15 
REMARK    7  A    between atoms: C15_25  and  C16_26 
ROOT
HETATM    1  C6  UNL     1       0.330  -2.193  -2.580  1.00  0.00     0.064 C 
HETATM    2  C7  UNL     1      -0.875  -2.231  -3.342  1.00  0.00     0.082 A 
HETATM    3  N2  UNL     1      -0.865  -2.797  -4.602  1.00  0.00    -0.189 N 
ATOM      4  H2  UNL     1       0.038  -3.084  -4.980  1.00  0.00     0.184 HD
HETATM    5  C8  UNL     1      -1.931  -2.999  -5.357  1.00  0.00     0.681 A 
HETATM    6  N5  UNL     1      -3.121  -2.625  -4.873  1.00  0.00    -0.194 N 
ATOM      7  H5  UNL     1      -3.949  -2.778  -5.449  1.00  0.00     0.184 HD
HETATM    8  C15 UNL     1      -3.282  -2.046  -3.640  1.00  0.00     0.042 A 
HETATM    9  C20 UNL     1      -2.111  -1.864  -2.895  1.00  0.00    -0.009 A 
HETATM   10  C21 UNL     1      -2.262  -1.190  -1.610  1.00  0.00     0.052 C 
ENDROOT
BRANCH   1  11
HETATM   11  C3  UNL     1       0.640  -2.148  -1.157  1.00  0.00     0.039 C 
BRANCH  11  12
HETATM   12  C2  UNL     1       0.696  -3.589  -0.627  1.00  0.00     0.006 C 
HETATM   13  C1  UNL     1       1.138  -3.624   0.825  1.00  0.00     0.006 C 
ENDBRANCH  11  12
BRANCH  11  14
HETATM   14  C4  UNL     1       2.006  -1.479  -0.894  1.00  0.00     0.006 C 
HETATM   15  C5  UNL     1       1.856  -0.067  -0.468  1.00  0.00     0.006 C 
ENDBRANCH  11  14
ENDBRANCH   1  11
BRANCH   1  16
HETATM   16  N1  UNL     1       1.455  -2.400  -3.292  1.00  0.00    -0.271 N 
ATOM     17  H1  UNL     1       2.118  -1.636  -3.427  1.00  0.00     0.194 HD
BRANCH  16  18
HETATM   18  O1  UNL     1       1.708  -3.597  -3.823  1.00  0.00    -0.290 OA
ATOM     19  H1  UNL     1       2.596  -3.934  -3.851  1.00  0.00     0.244 HD
ENDBRANCH  16  18
ENDBRANCH   1  16
BRANCH   5  20
HETATM   20  N3  UNL     1      -1.873  -3.594  -6.661  1.00  0.00    -0.209 N 
HETATM   21  C9  UNL     1      -2.092  -2.883  -7.924  1.00  0.00     0.177 C 
HETATM   22  C10 UNL     1      -2.038  -3.999  -8.948  1.00  0.00     0.243 C 
HETATM   23  C11 UNL     1      -0.881  -4.811  -8.326  1.00  0.00     0.065 C 
HETATM   24  N4  UNL     1      -3.138  -4.889  -8.723  1.00  0.00     0.092 N 
HETATM   25  C12 UNL     1      -1.598  -4.969  -6.973  1.00  0.00     0.132 C 
HETATM   26  C13 UNL     1      -2.895  -5.572  -7.463  1.00  0.00     0.298 C 
HETATM   27  C14 UNL     1      -3.272  -5.854  -9.769  1.00  0.00     0.310 C 
ENDBRANCH   5  20
BRANCH   8  28
HETATM   28  C16 UNL     1      -4.609  -1.625  -3.222  1.00  0.00    -0.008 C 
HETATM   29  C17 UNL     1      -5.595  -2.330  -4.215  1.00  0.00     0.021 C 
HETATM   30  C18 UNL     1      -4.811  -0.160  -3.570  1.00  0.00     0.021 C 
HETATM   31  C19 UNL     1      -5.089  -2.040  -1.886  1.00  0.00     0.021 C 
ENDBRANCH   8  28
TORSDOF 7
ENDMDL
MODEL 4
REMARK VINA RESULT: -6.252333437      3.369      7.903
REMARK  7 active torsions:
REMARK  status: ('A' for Active; 'I' for Inactive)
REMARK    1  A    between atoms: C2_2  and  C3_3 
REMARK    2  A    between atoms: C3_3  and  C4_4 
REMARK    3  A    between atoms: C3_3  and  C6_6 
REMARK    4  A    between atoms: C6_6  and  N1_7 
REMARK    5  A    between atoms: N1_7  and  O1_9 
REMARK    6  A    between atoms: C8_14  and  N3_15 
REMARK    7  A    between atoms: C15_25  and  C16_26 
ROOT
HETATM    1  C6  UNL     1       0.157  -2.638  -3.663  1.00  0.00     0.064 C 
HETATM    2  C7  UNL     1      -1.155  -2.493  -4.203  1.00  0.00     0.082 A 
HETATM    3  N2  UNL     1      -1.411  -2.916  -5.492  1.00  0.00    -0.189 N 
ATOM      4  H2  UNL     1      -0.616  -3.232  -6.048  1.00  0.00     0.184 HD
HETATM    5  C8  UNL     1      -2.602  -2.944  -6.065  1.00  0.00     0.681 A 
HETATM    6  N5  UNL     1      -3.652  -2.530  -5.347  1.00  0.00    -0.194 N 
ATOM      7  H5  UNL     1      -4.575  -2.550  -5.781  1.00  0.00     0.184 HD
HETATM    8  C15 UNL     1      -3.548  -2.080  -4.056  1.00  0.00     0.042 A 
HETATM    9  C20 UNL     1      -2.258  -2.078  -3.513  1.00  0.00    -0.009 A 
HETATM   10  C21 UNL     1      -2.126  -1.541  -2.164  1.00  0.00     0.052 C 
ENDROOT
BRANCH   1  11
HETATM   11  C3  UNL     1       0.701  -2.777  -2.319  1.00  0.00     0.039 C 
BRANCH  11  12
HETATM   12  C2  UNL     1       1.295  -4.187  -2.178  1.00  0.00     0.006 C 
HETATM   13  C1  UNL     1       0.203  -5.231  -2.025  1.00  0.00     0.006 C 
ENDBRANCH  11  12
BRANCH  11  14
HETATM   14  C4  UNL     1       1.820  -1.749  -2.050  1.00  0.00     0.006 C 
HETATM   15  C5  UNL     1       1.520  -0.903  -0.870  1.00  0.00     0.006 C 
ENDBRANCH  11  14
ENDBRANCH   1  11
BRANCH   1  16
HETATM   16  N1  UNL     1       1.122  -2.856  -4.578  1.00  0.00    -0.271 N 
ATOM     17  H1  UNL     1       1.668  -3.717  -4.544  1.00  0.00     0.194 HD
BRANCH  16  18
HETATM   18  O1  UNL     1       1.370  -1.953  -5.528  1.00  0.00    -0.290 OA
ATOM     19  H1  UNL     1       2.125  -2.046  -6.097  1.00  0.00     0.244 HD
ENDBRANCH  16  18
ENDBRANCH   1  16
BRANCH   5  20
HETATM   20  N3  UNL     1      -2.820  -3.393  -7.410  1.00  0.00    -0.209 N 
HETATM   21  C9  UNL     1      -3.778  -2.806  -8.352  1.00  0.00     0.177 C 
HETATM   22  C10 UNL     1      -3.681  -3.733  -9.546  1.00  0.00     0.243 C 
HETATM   23  C11 UNL     1      -2.154  -3.960  -9.525  1.00  0.00     0.065 C 
HETATM   24  N4  UNL     1      -4.148  -5.033  -9.164  1.00  0.00     0.092 N 
HETATM   25  C12 UNL     1      -2.159  -4.481  -8.077  1.00  0.00     0.132 C 
HETATM   26  C13 UNL     1      -3.182  -5.584  -8.228  1.00  0.00     0.298 C 
HETATM   27  C14 UNL     1      -4.276  -5.911 -10.286  1.00  0.00     0.310 C 
ENDBRANCH   5  20
BRANCH   8  28
HETATM   28  C16 UNL     1      -4.739  -1.601  -3.374  1.00  0.00    -0.008 C 
HETATM   29  C17 UNL     1      -5.926  -1.932  -4.340  1.00  0.00     0.021 C 
HETATM   30  C18 UNL     1      -4.750  -0.082  -3.375  1.00  0.00     0.021 C 
HETATM   31  C19 UNL     1      -5.125  -2.245  -2.099  1.00  0.00     0.021 C 
ENDBRANCH   8  28
TORSDOF 7
ENDMDL
MODEL 5
REMARK VINA RESULT: -6.177744426      3.054      7.653
REMARK  7 active torsions:
REMARK  status: ('A' for Active; 'I' for Inactive)
REMARK    1  A    between atoms: C2_2  and  C3_3 
REMARK    2  A    between atoms: C3_3  and  C4_4 
REMARK    3  A    between atoms: C3_3  and  C6_6 
REMARK    4  A    between atoms: C6_6  and  N1_7 
REMARK    5  A    between atoms: N1_7  and  O1_9 
REMARK    6  A    between atoms: C8_14  and  N3_15 
REMARK    7  A    between atoms: C15_25  and  C16_26 
ROOT
HETATM    1  C6  UNL     1      -0.238  -2.803  -3.083  1.00  0.00     0.064 C 
HETATM    2  C7  UNL     1      -1.476  -2.662  -3.778  1.00  0.00     0.082 A 
HETATM    3  N2  UNL     1      -1.626  -3.239  -5.024  1.00  0.00    -0.189 N 
ATOM      4  H2  UNL     1      -0.801  -3.668  -5.444  1.00  0.00     0.184 HD
HETATM    5  C8  UNL     1      -2.752  -3.280  -5.716  1.00  0.00     0.681 A 
HETATM    6  N5  UNL     1      -3.839  -2.719  -5.176  1.00  0.00    -0.194 N 
ATOM      7  H5  UNL     1      -4.712  -2.747  -5.702  1.00  0.00     0.184 HD
HETATM    8  C15 UNL     1      -3.838  -2.106  -3.948  1.00  0.00     0.042 A 
HETATM    9  C20 UNL     1      -2.612  -2.100  -3.272  1.00  0.00    -0.009 A 
HETATM   10  C21 UNL     1      -2.583  -1.395  -1.996  1.00  0.00     0.052 C 
ENDROOT
BRANCH   1  11
HETATM   11  C3  UNL     1       0.155  -2.790  -1.681  1.00  0.00     0.039 C 
BRANCH  11  12
HETATM   12  C2  UNL     1       0.765  -4.157  -1.334  1.00  0.00     0.006 C 
HETATM   13  C1  UNL     1       1.139  -4.236   0.135  1.00  0.00     0.006 C 
ENDBRANCH  11  12
BRANCH  11  14
HETATM   14  C4  UNL     1       1.212  -1.701  -1.398  1.00  0.00     0.006 C 
HETATM   15  C5  UNL     1       0.696  -0.655  -0.482  1.00  0.00     0.006 C 
ENDBRANCH  11  14
ENDBRANCH   1  11
BRANCH   1  16
HETATM   16  N1  UNL     1       0.799  -3.193  -3.851  1.00  0.00    -0.271 N 
ATOM     17  H1  UNL     1       1.325  -4.031  -3.605  1.00  0.00     0.194 HD
BRANCH  16  18
HETATM   18  O1  UNL     1       1.142  -2.488  -4.931  1.00  0.00    -0.290 OA
ATOM     19  H1  UNL     1       1.795  -1.802  -4.871  1.00  0.00     0.244 HD
ENDBRANCH  16  18
ENDBRANCH   1  16
BRANCH   5  20
HETATM   20  N3  UNL     1      -2.862  -3.893  -7.007  1.00  0.00    -0.209 N 
HETATM   21  C9  UNL     1      -2.985  -5.334  -7.251  1.00  0.00     0.177 C 
HETATM   22  C10 UNL     1      -2.938  -5.421  -8.763  1.00  0.00     0.243 C 
HETATM   23  C11 UNL     1      -3.789  -4.172  -9.081  1.00  0.00     0.065 C 
HETATM   24  N4  UNL     1      -1.649  -4.986  -9.213  1.00  0.00     0.092 N 
HETATM   25  C12 UNL     1      -2.870  -3.230  -8.282  1.00  0.00     0.132 C 
HETATM   26  C13 UNL     1      -1.556  -3.559  -8.952  1.00  0.00     0.298 C 
HETATM   27  C14 UNL     1      -1.456  -5.228 -10.609  1.00  0.00     0.310 C 
ENDBRANCH   5  20
BRANCH   8  28
HETATM   28  C16 UNL     1      -5.057  -1.478  -3.468  1.00  0.00    -0.008 C 
HETATM   29  C17 UNL     1      -6.109  -1.698  -4.608  1.00  0.00     0.021 C 
HETATM   30  C18 UNL     1      -4.892   0.033  -3.484  1.00  0.00     0.021 C 
HETATM   31  C19 UNL     1      -5.709  -2.039  -2.265  1.00  0.00     0.021 C 
ENDBRANCH   8  28
TORSDOF 7
ENDMDL
