MODEL 1
REMARK VINA RESULT: -6.675192689      0.000      0.000
REMARK  9 active torsions:
REMARK  status: ('A' for Active; 'I' for Inactive)
REMARK    1  A    between atoms: C2_2  and  C3_3 
REMARK    2  A    between atoms: C3_3  and  C4_4 
REMARK    3  A    between atoms: C5_7  and  C6_8 
REMARK    4  A    between atoms: C6_8  and  C12_17 
REMARK    5  A    between atoms: N2_9  and  C7_11 
REMARK    6  A    between atoms: C7_11  and  C8_12 
REMARK    7  A    between atoms: C12_17  and  O3_19 
REMARK    8  A    between atoms: C14_21  and  O4_22 
REMARK    9  A    between atoms: N3_24  and  C15_25 
ROOT
HETATM    1  C4  UNL     1      -3.377  -1.677  -2.511  1.00  0.00     0.086 A 
HETATM    2  N1  UNL     1      -2.837  -1.194  -1.378  1.00  0.00    -0.340 N 
ATOM      3  H1  UNL     1      -3.369  -0.838  -0.584  1.00  0.00     0.167 HD
HETATM    4  C5  UNL     1      -1.489  -1.246  -1.441  1.00  0.00     0.118 A 
HETATM    5  C14 UNL     1      -1.221  -1.794  -2.684  1.00  0.00     0.174 A 
HETATM    6  N3  UNL     1      -2.373  -2.054  -3.331  1.00  0.00    -0.310 N 
ENDROOT
BRANCH   4   7
HETATM    7  C6  UNL     1      -0.523  -0.815  -0.412  1.00  0.00     0.139 C 
HETATM    8  N2  UNL     1       0.199  -1.695   0.115  1.00  0.00    -0.360 N 
ATOM      9  H2  UNL     1       0.020  -2.631  -0.250  1.00  0.00     0.165 HD
BRANCH   8  10
HETATM   10  C7  UNL     1       1.204  -1.670   1.101  1.00  0.00     0.093 C 
BRANCH  10  11
HETATM   11  C8  UNL     1       1.556  -3.085   1.486  1.00  0.00     0.159 C 
HETATM   12  C9  UNL     1       3.069  -3.322   1.362  1.00  0.00     0.039 C 
HETATM   13  C10 UNL     1       3.068  -4.852   1.480  1.00  0.00     0.029 C 
HETATM   14  C11 UNL     1       1.745  -5.189   0.850  1.00  0.00     0.168 C 
HETATM   15  O1  UNL     1       1.074  -4.020   0.602  1.00  0.00    -0.381 OA
ENDBRANCH  10  11
ENDBRANCH   8  10
BRANCH   7  16
HETATM   16  C12 UNL     1      -0.470   0.582  -0.077  1.00  0.00     0.312 C 
HETATM   17  O2  UNL     1       0.614   1.203  -0.055  1.00  0.00    -0.258 OA
BRANCH  16  18
HETATM   18  O3  UNL     1      -1.597   1.339   0.240  1.00  0.00    -0.321 OA
HETATM   19  C13 UNL     1      -1.723   2.702  -0.150  1.00  0.00     0.213 C 
ENDBRANCH  16  18
ENDBRANCH   7  16
ENDBRANCH   4   7
BRANCH   5  20
HETATM   20  O4  UNL     1       0.066  -2.030  -3.169  1.00  0.00    -0.344 OA
ATOM     21  H4  UNL     1       0.598  -1.372  -3.600  1.00  0.00     0.219 HD
ENDBRANCH   5  20
BRANCH   1  22
HETATM   22  C3  UNL     1      -4.809  -1.791  -2.834  1.00  0.00     0.076 C 
BRANCH  22  23
HETATM   23  C2  UNL     1      -5.281  -0.733  -3.810  1.00  0.00     0.003 C 
HETATM   24  C1  UNL     1      -6.160  -1.297  -4.882  1.00  0.00     0.005 C 
ENDBRANCH  22  23
ENDBRANCH   1  22
BRANCH   6  25
HETATM   25  C15 UNL     1      -2.510  -2.621  -4.636  1.00  0.00     0.093 C 
HETATM   26  C16 UNL     1      -1.531  -3.763  -4.873  1.00  0.00     0.026 C 
HETATM   27  C17 UNL     1      -1.565  -4.105  -6.332  1.00  0.00     0.002 C 
HETATM   28  C18 UNL     1      -2.813  -3.612  -7.029  1.00  0.00     0.000 C 
HETATM   29  C19 UNL     1      -2.977  -2.128  -6.973  1.00  0.00     0.002 C 
HETATM   30  C20 UNL     1      -2.256  -1.612  -5.747  1.00  0.00     0.026 C 
ENDBRANCH   6  25
TORSDOF 9
ENDMDL
MODEL 2
REMARK VINA RESULT: -6.667668924      0.886      1.130
REMARK  9 active torsions:
REMARK  status: ('A' for Active; 'I' for Inactive)
REMARK    1  A    between atoms: C2_2  and  C3_3 
REMARK    2  A    between atoms: C3_3  and  C4_4 
REMARK    3  A    between atoms: C5_7  and  C6_8 
REMARK    4  A    between atoms: C6_8  and  C12_17 
REMARK    5  A    between atoms: N2_9  and  C7_11 
REMARK    6  A    between atoms: C7_11  and  C8_12 
REMARK    7  A    between atoms: C12_17  and  O3_19 
REMARK    8  A    between atoms: C14_21  and  O4_22 
REMARK    9  A    between atoms: N3_24  and  C15_25 
ROOT
HETATM    1  C4  UNL     1      -3.850  -1.699  -2.801  1.00  0.00     0.086 A 
HETATM    2  N1  UNL     1      -3.402  -1.146  -1.660  1.00  0.00    -0.340 N 
ATOM      3  H1  UNL     1      -3.998  -0.796  -0.909  1.00  0.00     0.167 HD
HETATM    4  C5  UNL     1      -2.052  -1.121  -1.648  1.00  0.00     0.118 A 
HETATM    5  C14 UNL     1      -1.684  -1.694  -2.853  1.00  0.00     0.174 A 
HETATM    6  N3  UNL     1      -2.781  -2.043  -3.551  1.00  0.00    -0.310 N 
ENDROOT
BRANCH   4   7
HETATM    7  C6  UNL     1      -1.172  -0.599  -0.584  1.00  0.00     0.139 C 
HETATM    8  N2  UNL     1      -0.278  -1.361  -0.141  1.00  0.00    -0.360 N 
ATOM      9  H2  UNL     1      -0.274  -2.276  -0.590  1.00  0.00     0.165 HD
BRANCH   8  10
HETATM   10  C7  UNL     1       0.720  -1.223   0.842  1.00  0.00     0.093 C 
BRANCH  10  11
HETATM   11  C8  UNL     1       1.166  -2.593   1.291  1.00  0.00     0.159 C 
HETATM   12  C9  UNL     1       2.694  -2.723   1.202  1.00  0.00     0.039 C 
HETATM   13  C10 UNL     1       2.800  -4.244   1.383  1.00  0.00     0.029 C 
HETATM   14  C11 UNL     1       1.518  -4.700   0.745  1.00  0.00     0.168 C 
HETATM   15  O1  UNL     1       0.769  -3.595   0.438  1.00  0.00    -0.381 OA
ENDBRANCH  10  11
ENDBRANCH   8  10
BRANCH   7  16
HETATM   16  C12 UNL     1      -1.392   0.744  -0.123  1.00  0.00     0.312 C 
HETATM   17  O2  UNL     1      -2.502   1.101   0.329  1.00  0.00    -0.258 OA
BRANCH  16  18
HETATM   18  O3  UNL     1      -0.411   1.734  -0.140  1.00  0.00    -0.321 OA
HETATM   19  C13 UNL     1      -0.737   3.118  -0.197  1.00  0.00     0.213 C 
ENDBRANCH  16  18
ENDBRANCH   7  16
ENDBRANCH   4   7
BRANCH   5  20
HETATM   20  O4  UNL     1      -0.361  -1.870  -3.258  1.00  0.00    -0.344 OA
ATOM     21  H4  UNL     1      -0.064  -2.593  -3.798  1.00  0.00     0.219 HD
ENDBRANCH   5  20
BRANCH   1  22
HETATM   22  C3  UNL     1      -5.253  -1.907  -3.198  1.00  0.00     0.076 C 
BRANCH  22  23
HETATM   23  C2  UNL     1      -6.181  -2.089  -2.015  1.00  0.00     0.003 C 
HETATM   24  C1  UNL     1      -7.622  -2.104  -2.418  1.00  0.00     0.005 C 
ENDBRANCH  22  23
ENDBRANCH   1  22
BRANCH   6  25
HETATM   25  C15 UNL     1      -2.812  -2.661  -4.840  1.00  0.00     0.093 C 
HETATM   26  C16 UNL     1      -1.710  -3.699  -5.008  1.00  0.00     0.026 C 
HETATM   27  C17 UNL     1      -1.657  -4.087  -6.454  1.00  0.00     0.002 C 
HETATM   28  C18 UNL     1      -2.925  -3.751  -7.206  1.00  0.00     0.000 C 
HETATM   29  C19 UNL     1      -3.247  -2.292  -7.206  1.00  0.00     0.002 C 
HETATM   30  C20 UNL     1      -2.628  -1.665  -5.976  1.00  0.00     0.026 C 
ENDBRANCH   6  25
TORSDOF 9
ENDMDL
MODEL 3
REMARK VINA RESULT: -6.645984432      3.554      6.078
REMARK  9 active torsions:
REMARK  status: ('A' for Active; 'I' for Inactive)
REMARK    1  A    between atoms: C2_2  and  C3_3 
REMARK    2  A    between atoms: C3_3  and  C4_4 
REMARK    3  A    between atoms: C5_7  and  C6_8 
REMARK    4  A    between atoms: C6_8  and  C12_17 
REMARK    5  A    between atoms: N2_9  and  C7_11 
REMARK    6  A    between atoms: C7_11  and  C8_12 
REMARK    7  A    between atoms: C12_17  and  O3_19 
REMARK    8  A    between atoms: C14_21  and  O4_22 
REMARK    9  A    between atoms: N3_24  and  C15_25 
ROOT
HETATM    1  C4  UNL     1      -1.317  -2.358  -4.857  1.00  0.00     0.086 A 
HETATM    2  N1  UNL     1      -1.619  -1.937  -3.615  1.00  0.00    -0.340 N 
ATOM      3  H1  UNL     1      -0.936  -1.644  -2.917  1.00  0.00     0.167 HD
HETATM    4  C5  UNL     1      -2.956  -1.957  -3.425  1.00  0.00     0.118 A 
HETATM    5  C14 UNL     1      -3.470  -2.416  -4.626  1.00  0.00     0.174 A 
HETATM    6  N3  UNL     1      -2.469  -2.658  -5.493  1.00  0.00    -0.310 N 
ENDROOT
BRANCH   4   7
HETATM    7  C6  UNL     1      -3.697  -1.574  -2.208  1.00  0.00     0.139 C 
HETATM    8  N2  UNL     1      -4.835  -2.073  -2.036  1.00  0.00    -0.360 N 
ATOM      9  H2  UNL     1      -5.112  -2.704  -2.788  1.00  0.00     0.165 HD
BRANCH   8  10
HETATM   10  C7  UNL     1      -5.811  -1.951  -1.030  1.00  0.00     0.093 C 
BRANCH  10  11
HETATM   11  C8  UNL     1      -7.162  -2.301  -1.603  1.00  0.00     0.159 C 
HETATM   12  C9  UNL     1      -7.338  -1.681  -2.997  1.00  0.00     0.039 C 
HETATM   13  C10 UNL     1      -8.847  -1.912  -3.157  1.00  0.00     0.029 C 
HETATM   14  C11 UNL     1      -9.308  -1.805  -1.730  1.00  0.00     0.168 C 
HETATM   15  O1  UNL     1      -8.203  -1.713  -0.924  1.00  0.00    -0.381 OA
ENDBRANCH  10  11
ENDBRANCH   8  10
BRANCH   7  16
HETATM   16  C12 UNL     1      -3.071  -0.654  -1.297  1.00  0.00     0.312 C 
HETATM   17  O2  UNL     1      -1.922  -0.864  -0.851  1.00  0.00    -0.258 OA
BRANCH  16  18
HETATM   18  O3  UNL     1      -3.677   0.518  -0.850  1.00  0.00    -0.321 OA
HETATM   19  C13 UNL     1      -2.979   1.475  -0.062  1.00  0.00     0.213 C 
ENDBRANCH  16  18
ENDBRANCH   7  16
ENDBRANCH   4   7
BRANCH   5  20
HETATM   20  O4  UNL     1      -4.832  -2.592  -4.872  1.00  0.00    -0.344 OA
ATOM     21  H4  UNL     1      -5.179  -3.186  -5.526  1.00  0.00     0.219 HD
ENDBRANCH   5  20
BRANCH   1  22
HETATM   22  C3  UNL     1       0.025  -2.482  -5.451  1.00  0.00     0.076 C 
BRANCH  22  23
HETATM   23  C2  UNL     1       0.401  -1.296  -6.314  1.00  0.00     0.003 C 
HETATM   24  C1  UNL     1       0.542  -1.663  -7.758  1.00  0.00     0.005 C 
ENDBRANCH  22  23
ENDBRANCH   1  22
BRANCH   6  25
HETATM   25  C15 UNL     1      -2.598  -3.142  -6.833  1.00  0.00     0.093 C 
HETATM   26  C16 UNL     1      -3.679  -2.403  -7.609  1.00  0.00     0.026 C 
HETATM   27  C17 UNL     1      -3.920  -3.147  -8.888  1.00  0.00     0.002 C 
HETATM   28  C18 UNL     1      -2.781  -4.067  -9.263  1.00  0.00     0.000 C 
HETATM   29  C19 UNL     1      -2.508  -5.123  -8.243  1.00  0.00     0.002 C 
HETATM   30  C20 UNL     1      -2.970  -4.617  -6.894  1.00  0.00     0.026 C 
ENDBRANCH   6  25
TORSDOF 9
ENDMDL
MODEL 4
REMARK VINA RESULT: -6.626631788      2.901      7.099
REMARK  9 active torsions:
REMARK  status: ('A' for Active; 'I' for Inactive)
REMARK    1  A    between atoms: C2_2  and  C3_3 
REMARK    2  A    between atoms: C3_3  and  C4_4 
REMARK    3  A    between atoms: C5_7  and  C6_8 
REMARK    4  A    between atoms: C6_8  and  C12_17 
REMARK    5  A    between atoms: N2_9  and  C7_11 
REMARK    6  A    between atoms: C7_11  and  C8_12 
REMARK    7  A    between atoms: C12_17  and  O3_19 
REMARK    8  A    between atoms: C14_21  and  O4_22 
REMARK    9  A    between atoms: N3_24  and  C15_25 
ROOT
HETATM    1  C4  UNL     1      -1.583   0.170  -0.545  1.00  0.00     0.086 A 
HETATM    2  N1  UNL     1      -2.865   0.114  -0.950  1.00  0.00    -0.340 N 
ATOM      3  H1  UNL     1      -3.569   0.825  -0.754  1.00  0.00     0.167 HD
HETATM    4  C5  UNL     1      -3.086  -1.017  -1.655  1.00  0.00     0.118 A 
HETATM    5  C14 UNL     1      -1.862  -1.664  -1.665  1.00  0.00     0.174 A 
HETATM    6  N3  UNL     1      -0.952  -0.939  -0.989  1.00  0.00    -0.310 N 
ENDROOT
BRANCH   4   7
HETATM    7  C6  UNL     1      -4.352  -1.458  -2.273  1.00  0.00     0.139 C 
HETATM    8  N2  UNL     1      -5.257  -1.877  -1.513  1.00  0.00    -0.360 N 
ATOM      9  H2  UNL     1      -4.993  -1.858  -0.528  1.00  0.00     0.165 HD
BRANCH   8  10
HETATM   10  C7  UNL     1      -6.559  -2.367  -1.726  1.00  0.00     0.093 C 
BRANCH  10  11
HETATM   11  C8  UNL     1      -7.390  -2.123  -0.491  1.00  0.00     0.159 C 
HETATM   12  C9  UNL     1      -8.829  -1.741  -0.870  1.00  0.00     0.039 C 
HETATM   13  C10 UNL     1      -9.301  -1.249   0.505  1.00  0.00     0.029 C 
HETATM   14  C11 UNL     1      -8.021  -0.695   1.068  1.00  0.00     0.168 C 
HETATM   15  O1  UNL     1      -7.000  -1.005   0.208  1.00  0.00    -0.381 OA
ENDBRANCH  10  11
ENDBRANCH   8  10
BRANCH   7  16
HETATM   16  C12 UNL     1      -4.468  -1.379  -3.704  1.00  0.00     0.312 C 
HETATM   17  O2  UNL     1      -5.241  -0.562  -4.249  1.00  0.00    -0.258 OA
BRANCH  16  18
HETATM   18  O3  UNL     1      -3.744  -2.187  -4.579  1.00  0.00    -0.321 OA
HETATM   19  C13 UNL     1      -2.708  -1.666  -5.403  1.00  0.00     0.213 C 
ENDBRANCH  16  18
ENDBRANCH   7  16
ENDBRANCH   4   7
BRANCH   5  20
HETATM   20  O4  UNL     1      -1.636  -2.889  -2.294  1.00  0.00    -0.344 OA
ATOM     21  H4  UNL     1      -1.809  -3.731  -1.890  1.00  0.00     0.219 HD
ENDBRANCH   5  20
BRANCH   1  22
HETATM   22  C3  UNL     1      -0.947   1.236   0.246  1.00  0.00     0.076 C 
BRANCH  22  23
HETATM   23  C2  UNL     1      -1.463   2.617  -0.099  1.00  0.00     0.003 C 
HETATM   24  C1  UNL     1      -0.365   3.555  -0.493  1.00  0.00     0.005 C 
ENDBRANCH  22  23
ENDBRANCH   1  22
BRANCH   6  25
HETATM   25  C15 UNL     1       0.422  -1.274  -0.779  1.00  0.00     0.093 C 
HETATM   26  C16 UNL     1       1.115  -1.694  -2.068  1.00  0.00     0.026 C 
HETATM   27  C17 UNL     1       2.449  -2.275  -1.707  1.00  0.00     0.002 C 
HETATM   28  C18 UNL     1       2.920  -1.869  -0.329  1.00  0.00     0.000 C 
HETATM   29  C19 UNL     1       1.999  -2.300   0.765  1.00  0.00     0.002 C 
HETATM   30  C20 UNL     1       0.604  -2.431   0.194  1.00  0.00     0.026 C 
ENDBRANCH   6  25
TORSDOF 9
ENDMDL
MODEL 5
REMARK VINA RESULT: -6.618707506      1.988      5.060
REMARK  9 active torsions:
REMARK  status: ('A' for Active; 'I' for Inactive)
REMARK    1  A    between atoms: C2_2  and  C3_3 
REMARK    2  A    between atoms: C3_3  and  C4_4 
REMARK    3  A    between atoms: C5_7  and  C6_8 
REMARK    4  A    between atoms: C6_8  and  C12_17 
REMARK    5  A    between atoms: N2_9  and  C7_11 
REMARK    6  A    between atoms: C7_11  and  C8_12 
REMARK    7  A    between atoms: C12_17  and  O3_19 
REMARK    8  A    between atoms: C14_21  and  O4_22 
REMARK    9  A    between atoms: N3_24  and  C15_25 
ROOT
HETATM    1  C4  UNL     1      -1.450  -2.370  -2.917  1.00  0.00     0.086 A 
HETATM    2  N1  UNL     1      -0.367  -2.077  -2.175  1.00  0.00    -0.340 N 
ATOM      3  H1  UNL     1       0.575  -2.422  -2.357  1.00  0.00     0.167 HD
HETATM    4  C5  UNL     1      -0.705  -1.260  -1.154  1.00  0.00     0.118 A 
HETATM    5  C14 UNL     1      -2.066  -1.060  -1.305  1.00  0.00     0.174 A 
HETATM    6  N3  UNL     1      -2.515  -1.738  -2.379  1.00  0.00    -0.310 N 
ENDROOT
BRANCH   4   7
HETATM    7  C6  UNL     1       0.184  -0.707  -0.113  1.00  0.00     0.139 C 
HETATM    8  N2  UNL     1       0.503   0.503  -0.202  1.00  0.00    -0.360 N 
ATOM      9  H2  UNL     1       0.092   0.967  -1.012  1.00  0.00     0.165 HD
BRANCH   8  10
HETATM   10  C7  UNL     1       1.306   1.359   0.575  1.00  0.00     0.093 C 
BRANCH  10  11
HETATM   11  C8  UNL     1       0.501   2.570   0.973  1.00  0.00     0.159 C 
HETATM   12  C9  UNL     1      -0.205   3.179  -0.248  1.00  0.00     0.039 C 
HETATM   13  C10 UNL     1      -0.633   4.512   0.381  1.00  0.00     0.029 C 
HETATM   14  C11 UNL     1       0.486   4.742   1.358  1.00  0.00     0.168 C 
HETATM   15  O1  UNL     1       1.282   3.627   1.375  1.00  0.00    -0.381 OA
ENDBRANCH  10  11
ENDBRANCH   8  10
BRANCH   7  16
HETATM   16  C12 UNL     1       0.627  -1.586   0.934  1.00  0.00     0.312 C 
HETATM   17  O2  UNL     1       0.768  -2.812   0.736  1.00  0.00    -0.258 OA
BRANCH  16  18
HETATM   18  O3  UNL     1       0.929  -1.154   2.224  1.00  0.00    -0.321 OA
HETATM   19  C13 UNL     1       2.024  -1.686   2.960  1.00  0.00     0.213 C 
ENDBRANCH  16  18
ENDBRANCH   7  16
ENDBRANCH   4   7
BRANCH   5  20
HETATM   20  O4  UNL     1      -2.836  -0.267  -0.453  1.00  0.00    -0.344 OA
ATOM     21  H4  UNL     1      -3.759  -0.089  -0.586  1.00  0.00     0.219 HD
ENDBRANCH   5  20
BRANCH   1  22
HETATM   22  C3  UNL     1      -1.502  -3.227  -4.113  1.00  0.00     0.076 C 
BRANCH  22  23
HETATM   23  C2  UNL     1      -0.661  -2.700  -5.256  1.00  0.00     0.003 C 
HETATM   24  C1  UNL     1      -1.140  -1.371  -5.752  1.00  0.00     0.005 C 
ENDBRANCH  22  23
ENDBRANCH   1  22
BRANCH   6  25
HETATM   25  C15 UNL     1      -3.861  -1.781  -2.861  1.00  0.00     0.093 C 
HETATM   26  C16 UNL     1      -4.148  -0.675  -3.866  1.00  0.00     0.026 C 
HETATM   27  C17 UNL     1      -5.627  -0.638  -4.103  1.00  0.00     0.002 C 
HETATM   28  C18 UNL     1      -6.325  -1.917  -3.700  1.00  0.00     0.000 C 
HETATM   29  C19 UNL     1      -6.170  -2.249  -2.252  1.00  0.00     0.002 C 
HETATM   30  C20 UNL     1      -4.890  -1.618  -1.750  1.00  0.00     0.026 C 
ENDBRANCH   6  25
TORSDOF 9
ENDMDL
