MODEL 1
REMARK VINA RESULT: -7.385702312      0.000      0.000
REMARK  6 active torsions:
REMARK  status: ('A' for Active; 'I' for Inactive)
REMARK    1  A    between atoms: C2_2  and  C3_3 
REMARK    2  A    between atoms: N1_7  and  C7_8 
REMARK    3  A    between atoms: C7_8  and  C8_9 
REMARK    4  A    between atoms: C8_9  and  C9_10 
REMARK    5  A    between atoms: C9_10  and  C10_11 
REMARK    6  A    between atoms: C10_11  and  C11_12 
ROOT
HETATM    1  C11 UNL     1      -2.106  -4.669  -7.613  1.00  0.00     0.053 C 
HETATM    2  C12 UNL     1      -1.669  -6.023  -7.812  1.00  0.00     0.058 A 
HETATM    3  C13 UNL     1      -1.517  -6.529  -9.088  1.00  0.00     0.098 A 
HETATM    4  C14 UNL     1      -1.075  -7.803  -9.363  1.00  0.00     0.002 A 
HETATM    5  C15 UNL     1      -0.928  -8.297 -10.777  1.00  0.00     0.054 C 
HETATM    6  C16 UNL     1      -0.772  -8.605  -8.279  1.00  0.00     0.062 A 
HETATM    7  C17 UNL     1      -0.292  -9.989  -8.564  1.00  0.00     0.077 C 
HETATM    8  O1  UNL     1      -0.915  -8.126  -7.071  1.00  0.00    -0.279 OA
HETATM    9  C18 UNL     1      -1.334  -6.916  -6.798  1.00  0.00     0.297 A 
HETATM   10  O2  UNL     1      -1.434  -6.553  -5.606  1.00  0.00    -0.259 OA
HETATM   11  O3  UNL     1      -1.823  -5.725 -10.223  1.00  0.00    -0.295 OA
HETATM   12  C19 UNL     1      -2.276  -4.432  -9.987  1.00  0.00     0.136 C 
HETATM   13  N2  UNL     1      -2.018  -3.479 -10.745  1.00  0.00    -0.382 N 
ATOM     14  H21 UNL     1      -2.350  -2.531 -10.571  1.00  0.00     0.158 HD
ATOM     15  H22 UNL     1      -1.460  -3.566 -11.595  1.00  0.00     0.158 HD
HETATM   16  C20 UNL     1      -3.084  -4.306  -8.755  1.00  0.00     0.176 C 
HETATM   17  C21 UNL     1      -4.112  -5.378  -8.888  1.00  0.00     0.073 C 
HETATM   18  N3  UNL     1      -4.923  -6.211  -9.003  1.00  0.00    -0.196 NA
ENDROOT
BRANCH   1  19
HETATM   19  C10 UNL     1      -2.734  -4.228  -6.376  1.00  0.00     0.011 C 
BRANCH  19  20
HETATM   20  C9  UNL     1      -2.076  -3.261  -5.483  1.00  0.00     0.006 C 
BRANCH  20  21
HETATM   21  C8  UNL     1      -2.758  -1.899  -5.741  1.00  0.00     0.044 C 
BRANCH  21  22
HETATM   22  C7  UNL     1      -4.197  -2.020  -5.296  1.00  0.00     0.063 C 
BRANCH  22  23
HETATM   23  N1  UNL     1      -4.407  -2.017  -3.929  1.00  0.00    -0.369 N 
HETATM   24  C3  UNL     1      -5.626  -2.349  -3.337  1.00  0.00     0.088 C 
HETATM   25  C4  UNL     1      -5.483  -2.057  -1.847  1.00  0.00     0.031 C 
HETATM   26  C5  UNL     1      -4.273  -1.202  -1.731  1.00  0.00     0.046 C 
HETATM   27  C6  UNL     1      -3.584  -1.295  -3.049  1.00  0.00     0.063 C 
BRANCH  24  28
HETATM   28  C2  UNL     1      -6.822  -1.569  -3.852  1.00  0.00     0.021 C 
HETATM   29  C1  UNL     1      -8.033  -1.701  -2.988  1.00  0.00     0.007 C 
ENDBRANCH  24  28
ENDBRANCH  22  23
ENDBRANCH  21  22
ENDBRANCH  20  21
ENDBRANCH  19  20
ENDBRANCH   1  19
TORSDOF 6
ENDMDL
MODEL 2
REMARK VINA RESULT: -7.372997173      5.751      8.190
REMARK  6 active torsions:
REMARK  status: ('A' for Active; 'I' for Inactive)
REMARK    1  A    between atoms: C2_2  and  C3_3 
REMARK    2  A    between atoms: N1_7  and  C7_8 
REMARK    3  A    between atoms: C7_8  and  C8_9 
REMARK    4  A    between atoms: C8_9  and  C9_10 
REMARK    5  A    between atoms: C9_10  and  C10_11 
REMARK    6  A    between atoms: C10_11  and  C11_12 
ROOT
HETATM    1  C11 UNL     1       0.617  -3.126  -0.404  1.00  0.00     0.053 C 
HETATM    2  C12 UNL     1       1.139  -4.464  -0.381  1.00  0.00     0.058 A 
HETATM    3  C13 UNL     1       1.953  -4.880   0.653  1.00  0.00     0.098 A 
HETATM    4  C14 UNL     1       2.468  -6.151   0.764  1.00  0.00     0.002 A 
HETATM    5  C15 UNL     1       3.350  -6.546   1.918  1.00  0.00     0.054 C 
HETATM    6  C16 UNL     1       2.135  -7.048  -0.234  1.00  0.00     0.062 A 
HETATM    7  C17 UNL     1       2.688  -8.431  -0.125  1.00  0.00     0.077 C 
HETATM    8  O1  UNL     1       1.364  -6.654  -1.213  1.00  0.00    -0.279 OA
HETATM    9  C18 UNL     1       0.868  -5.448  -1.328  1.00  0.00     0.297 A 
HETATM   10  O2  UNL     1       0.137  -5.173  -2.304  1.00  0.00    -0.259 OA
HETATM   11  O3  UNL     1       2.313  -3.977   1.695  1.00  0.00    -0.295 OA
HETATM   12  C19 UNL     1       1.815  -2.682   1.617  1.00  0.00     0.136 C 
HETATM   13  N2  UNL     1       1.522  -2.012   2.624  1.00  0.00    -0.382 N 
ATOM     14  H21 UNL     1       1.156  -1.062   2.567  1.00  0.00     0.158 HD
ATOM     15  H22 UNL     1       1.622  -2.353   3.581  1.00  0.00     0.158 HD
HETATM   16  C20 UNL     1       1.670  -2.188   0.231  1.00  0.00     0.176 C 
HETATM   17  C21 UNL     1       3.003  -2.447  -0.385  1.00  0.00     0.073 C 
HETATM   18  N3  UNL     1       4.053  -2.641  -0.859  1.00  0.00    -0.196 NA
ENDROOT
BRANCH   1  19
HETATM   19  C10 UNL     1       0.180  -2.483  -1.635  1.00  0.00     0.011 C 
BRANCH  19  20
HETATM   20  C9  UNL     1      -0.882  -1.463  -1.633  1.00  0.00     0.006 C 
BRANCH  20  21
HETATM   21  C8  UNL     1      -2.069  -2.073  -2.413  1.00  0.00     0.044 C 
BRANCH  21  22
HETATM   22  C7  UNL     1      -3.313  -1.316  -2.012  1.00  0.00     0.063 C 
BRANCH  22  23
HETATM   23  N1  UNL     1      -4.325  -1.279  -2.953  1.00  0.00    -0.369 N 
HETATM   24  C3  UNL     1      -5.681  -1.305  -2.626  1.00  0.00     0.088 C 
HETATM   25  C4  UNL     1      -6.446  -1.419  -3.941  1.00  0.00     0.031 C 
HETATM   26  C5  UNL     1      -5.435  -1.835  -4.947  1.00  0.00     0.046 C 
HETATM   27  C6  UNL     1      -4.110  -1.632  -4.295  1.00  0.00     0.063 C 
BRANCH  24  28
HETATM   28  C2  UNL     1      -6.104  -2.461  -1.739  1.00  0.00     0.021 C 
HETATM   29  C1  UNL     1      -7.019  -2.055  -0.630  1.00  0.00     0.007 C 
ENDBRANCH  24  28
ENDBRANCH  22  23
ENDBRANCH  21  22
ENDBRANCH  20  21
ENDBRANCH  19  20
ENDBRANCH   1  19
TORSDOF 6
ENDMDL
MODEL 3
REMARK VINA RESULT: -7.233378529      4.354      6.614
REMARK  6 active torsions:
REMARK  status: ('A' for Active; 'I' for Inactive)
REMARK    1  A    between atoms: C2_2  and  C3_3 
REMARK    2  A    between atoms: N1_7  and  C7_8 
REMARK    3  A    between atoms: C7_8  and  C8_9 
REMARK    4  A    between atoms: C8_9  and  C9_10 
REMARK    5  A    between atoms: C9_10  and  C10_11 
REMARK    6  A    between atoms: C10_11  and  C11_12 
ROOT
HETATM    1  C11 UNL     1      -0.817  -3.361  -2.809  1.00  0.00     0.053 C 
HETATM    2  C12 UNL     1      -0.091  -4.347  -2.056  1.00  0.00     0.058 A 
HETATM    3  C13 UNL     1       0.592  -3.989  -0.911  1.00  0.00     0.098 A 
HETATM    4  C14 UNL     1       1.286  -4.876  -0.120  1.00  0.00     0.002 A 
HETATM    5  C15 UNL     1       2.011  -4.425   1.120  1.00  0.00     0.054 C 
HETATM    6  C16 UNL     1       1.283  -6.200  -0.518  1.00  0.00     0.062 A 
HETATM    7  C17 UNL     1       2.033  -7.172   0.332  1.00  0.00     0.077 C 
HETATM    8  O1  UNL     1       0.636  -6.539  -1.602  1.00  0.00    -0.279 OA
HETATM    9  C18 UNL     1      -0.027  -5.703  -2.361  1.00  0.00     0.297 A 
HETATM   10  O2  UNL     1      -0.616  -6.131  -3.378  1.00  0.00    -0.259 OA
HETATM   11  O3  UNL     1       0.613  -2.632  -0.478  1.00  0.00    -0.295 OA
HETATM   12  C19 UNL     1      -0.074  -1.705  -1.253  1.00  0.00     0.136 C 
HETATM   13  N2  UNL     1      -0.643  -0.711  -0.766  1.00  0.00    -0.382 N 
ATOM     14  H21 UNL     1      -1.147  -0.030  -1.334  1.00  0.00     0.158 HD
ATOM     15  H22 UNL     1      -0.653  -0.495   0.231  1.00  0.00     0.158 HD
HETATM   16  C20 UNL     1      -0.060  -2.017  -2.698  1.00  0.00     0.176 C 
HETATM   17  C21 UNL     1       1.383  -2.232  -3.006  1.00  0.00     0.073 C 
HETATM   18  N3  UNL     1       2.516  -2.387  -3.245  1.00  0.00    -0.196 NA
ENDROOT
BRANCH   1  19
HETATM   19  C10 UNL     1      -1.139  -3.540  -4.217  1.00  0.00     0.011 C 
BRANCH  19  20
HETATM   20  C9  UNL     1      -1.623  -2.422  -5.042  1.00  0.00     0.006 C 
BRANCH  20  21
HETATM   21  C8  UNL     1      -3.024  -2.831  -5.547  1.00  0.00     0.044 C 
BRANCH  21  22
HETATM   22  C7  UNL     1      -4.005  -1.789  -5.062  1.00  0.00     0.063 C 
BRANCH  22  23
HETATM   23  N1  UNL     1      -4.362  -1.872  -3.729  1.00  0.00    -0.369 N 
HETATM   24  C3  UNL     1      -5.602  -2.339  -3.292  1.00  0.00     0.088 C 
HETATM   25  C4  UNL     1      -5.649  -2.110  -1.785  1.00  0.00     0.031 C 
HETATM   26  C5  UNL     1      -4.544  -1.158  -1.499  1.00  0.00     0.046 C 
HETATM   27  C6  UNL     1      -3.711  -1.125  -2.734  1.00  0.00     0.063 C 
BRANCH  24  28
HETATM   28  C2  UNL     1      -6.802  -1.644  -3.907  1.00  0.00     0.021 C 
HETATM   29  C1  UNL     1      -8.027  -1.709  -3.054  1.00  0.00     0.007 C 
ENDBRANCH  24  28
ENDBRANCH  22  23
ENDBRANCH  21  22
ENDBRANCH  20  21
ENDBRANCH  19  20
ENDBRANCH   1  19
TORSDOF 6
ENDMDL
MODEL 4
REMARK VINA RESULT: -7.209858595      6.500     10.622
REMARK  6 active torsions:
REMARK  status: ('A' for Active; 'I' for Inactive)
REMARK    1  A    between atoms: C2_2  and  C3_3 
REMARK    2  A    between atoms: N1_7  and  C7_8 
REMARK    3  A    between atoms: C7_8  and  C8_9 
REMARK    4  A    between atoms: C8_9  and  C9_10 
REMARK    5  A    between atoms: C9_10  and  C10_11 
REMARK    6  A    between atoms: C10_11  and  C11_12 
ROOT
HETATM    1  C11 UNL     1       0.686  -0.104  -0.385  1.00  0.00     0.053 C 
HETATM    2  C12 UNL     1       0.642   1.230   0.149  1.00  0.00     0.058 A 
HETATM    3  C13 UNL     1       1.795   1.841   0.599  1.00  0.00     0.098 A 
HETATM    4  C14 UNL     1       1.843   3.124   1.096  1.00  0.00     0.002 A 
HETATM    5  C15 UNL     1       3.133   3.738   1.571  1.00  0.00     0.054 C 
HETATM    6  C16 UNL     1       0.649   3.821   1.136  1.00  0.00     0.062 A 
HETATM    7  C17 UNL     1       0.688   5.214   1.673  1.00  0.00     0.077 C 
HETATM    8  O1  UNL     1      -0.442   3.242   0.709  1.00  0.00    -0.279 OA
HETATM    9  C18 UNL     1      -0.498   2.023   0.235  1.00  0.00     0.297 A 
HETATM   10  O2  UNL     1      -1.595   1.563  -0.151  1.00  0.00    -0.259 OA
HETATM   11  O3  UNL     1       3.038   1.146   0.570  1.00  0.00    -0.295 OA
HETATM   12  C19 UNL     1       3.031  -0.154   0.078  1.00  0.00     0.136 C 
HETATM   13  N2  UNL     1       3.989  -0.641  -0.549  1.00  0.00    -0.382 N 
ATOM     14  H21 UNL     1       3.984  -1.595  -0.910  1.00  0.00     0.158 HD
ATOM     15  H22 UNL     1       4.851  -0.134  -0.752  1.00  0.00     0.158 HD
HETATM   16  C20 UNL     1       1.783  -0.889   0.371  1.00  0.00     0.176 C 
HETATM   17  C21 UNL     1       1.597  -0.712   1.840  1.00  0.00     0.073 C 
HETATM   18  N3  UNL     1       1.463  -0.581   2.994  1.00  0.00    -0.196 NA
ENDROOT
BRANCH   1  19
HETATM   19  C10 UNL     1      -0.488  -0.965  -0.423  1.00  0.00     0.011 C 
BRANCH  19  20
HETATM   20  C9  UNL     1      -0.539  -2.154  -1.288  1.00  0.00     0.006 C 
BRANCH  20  21
HETATM   21  C8  UNL     1      -1.441  -1.781  -2.486  1.00  0.00     0.044 C 
BRANCH  21  22
HETATM   22  C7  UNL     1      -2.785  -1.369  -1.931  1.00  0.00     0.063 C 
BRANCH  22  23
HETATM   23  N1  UNL     1      -3.827  -1.335  -2.840  1.00  0.00    -0.369 N 
HETATM   24  C3  UNL     1      -5.172  -1.328  -2.469  1.00  0.00     0.088 C 
HETATM   25  C4  UNL     1      -5.982  -1.459  -3.754  1.00  0.00     0.031 C 
HETATM   26  C5  UNL     1      -5.011  -1.918  -4.782  1.00  0.00     0.046 C 
HETATM   27  C6  UNL     1      -3.662  -1.725  -4.179  1.00  0.00     0.063 C 
BRANCH  24  28
HETATM   28  C2  UNL     1      -5.587  -2.454  -1.540  1.00  0.00     0.021 C 
HETATM   29  C1  UNL     1      -6.841  -2.166  -0.782  1.00  0.00     0.007 C 
ENDBRANCH  24  28
ENDBRANCH  22  23
ENDBRANCH  21  22
ENDBRANCH  20  21
ENDBRANCH  19  20
ENDBRANCH   1  19
TORSDOF 6
ENDMDL
MODEL 5
REMARK VINA RESULT: -7.175289344      5.866      8.721
REMARK  6 active torsions:
REMARK  status: ('A' for Active; 'I' for Inactive)
REMARK    1  A    between atoms: C2_2  and  C3_3 
REMARK    2  A    between atoms: N1_7  and  C7_8 
REMARK    3  A    between atoms: C7_8  and  C8_9 
REMARK    4  A    between atoms: C8_9  and  C9_10 
REMARK    5  A    between atoms: C9_10  and  C10_11 
REMARK    6  A    between atoms: C10_11  and  C11_12 
ROOT
HETATM    1  C11 UNL     1       0.508  -2.097   0.319  1.00  0.00     0.053 C 
HETATM    2  C12 UNL     1       1.066  -3.411   0.152  1.00  0.00     0.058 A 
HETATM    3  C13 UNL     1       1.926  -3.931   1.098  1.00  0.00     0.098 A 
HETATM    4  C14 UNL     1       2.479  -5.189   1.027  1.00  0.00     0.002 A 
HETATM    5  C15 UNL     1       3.411  -5.702   2.092  1.00  0.00     0.054 C 
HETATM    6  C16 UNL     1       2.134  -5.960  -0.068  1.00  0.00     0.062 A 
HETATM    7  C17 UNL     1       2.727  -7.328  -0.156  1.00  0.00     0.077 C 
HETATM    8  O1  UNL     1       1.319  -5.468  -0.963  1.00  0.00    -0.279 OA
HETATM    9  C18 UNL     1       0.788  -4.272  -0.905  1.00  0.00     0.297 A 
HETATM   10  O2  UNL     1       0.015  -3.898  -1.813  1.00  0.00    -0.259 OA
HETATM   11  O3  UNL     1       2.299  -3.158   2.236  1.00  0.00    -0.295 OA
HETATM   12  C19 UNL     1       1.765  -1.880   2.342  1.00  0.00     0.136 C 
HETATM   13  N2  UNL     1       1.489  -1.354   3.436  1.00  0.00    -0.382 N 
ATOM     14  H21 UNL     1       1.097  -0.416   3.514  1.00  0.00     0.158 HD
ATOM     15  H22 UNL     1       1.632  -1.812   4.337  1.00  0.00     0.158 HD
HETATM   16  C20 UNL     1       1.558  -1.216   1.037  1.00  0.00     0.176 C 
HETATM   17  C21 UNL     1       2.875  -1.353   0.351  1.00  0.00     0.073 C 
HETATM   18  N3  UNL     1       3.912  -1.452  -0.178  1.00  0.00    -0.196 NA
ENDROOT
BRANCH   1  19
HETATM   19  C10 UNL     1       0.011  -1.315  -0.804  1.00  0.00     0.011 C 
BRANCH  19  20
HETATM   20  C9  UNL     1      -1.299  -0.645  -0.753  1.00  0.00     0.006 C 
BRANCH  20  21
HETATM   21  C8  UNL     1      -2.186  -1.348  -1.804  1.00  0.00     0.044 C 
BRANCH  21  22
HETATM   22  C7  UNL     1      -3.580  -0.777  -1.677  1.00  0.00     0.063 C 
BRANCH  22  23
HETATM   23  N1  UNL     1      -4.428  -1.018  -2.742  1.00  0.00    -0.369 N 
HETATM   24  C3  UNL     1      -5.790  -1.285  -2.595  1.00  0.00     0.088 C 
HETATM   25  C4  UNL     1      -6.315  -1.655  -3.979  1.00  0.00     0.031 C 
HETATM   26  C5  UNL     1      -5.104  -1.943  -4.791  1.00  0.00     0.046 C 
HETATM   27  C6  UNL     1      -3.952  -1.429  -3.997  1.00  0.00     0.063 C 
BRANCH  24  28
HETATM   28  C2  UNL     1      -6.121  -2.426  -1.651  1.00  0.00     0.021 C 
HETATM   29  C1  UNL     1      -7.095  -2.048  -0.583  1.00  0.00     0.007 C 
ENDBRANCH  24  28
ENDBRANCH  22  23
ENDBRANCH  21  22
ENDBRANCH  20  21
ENDBRANCH  19  20
ENDBRANCH   1  19
TORSDOF 6
ENDMDL
