MODEL 1
REMARK VINA RESULT: -7.857405429      0.000      0.000
REMARK  6 active torsions:
REMARK  status: ('A' for Active; 'I' for Inactive)
REMARK    1  A    between atoms: C1_2  and  C2_4 
REMARK    2  A    between atoms: C2_4  and  C3_5 
REMARK    3  A    between atoms: C6_12  and  C7_13 
REMARK    4  A    between atoms: C7_13  and  C8_14 
REMARK    5  A    between atoms: C8_14  and  C9_15 
REMARK    6  A    between atoms: C10_16  and  C11_17 
ROOT
HETATM    1  C9  UNL     1      -3.578  -1.789  -2.976  1.00  0.00     0.041 A 
HETATM    2  C10 UNL     1      -4.947  -1.900  -3.088  1.00  0.00     0.038 A 
HETATM    3  N3  UNL     1      -5.154  -2.105  -4.435  1.00  0.00    -0.338 N 
ATOM      4  H3  UNL     1      -6.061  -2.233  -4.886  1.00  0.00     0.168 HD
HETATM    5  C17 UNL     1      -3.963  -2.106  -5.055  1.00  0.00     0.155 A 
HETATM    6  S1  UNL     1      -3.191  -2.258  -6.571  1.00  0.00    -0.064 SA
HETATM    7  C18 UNL     1      -1.580  -2.064  -6.048  1.00  0.00     0.071 A 
HETATM    8  C19 UNL     1      -1.737  -1.892  -4.704  1.00  0.00     0.106 A 
HETATM    9  N4  UNL     1      -2.967  -1.917  -4.210  1.00  0.00    -0.304 N 
ENDROOT
BRANCH   1  10
HETATM   10  C8  UNL     1      -2.898  -1.610  -1.680  1.00  0.00     0.066 C 
BRANCH  10  11
HETATM   11  C7  UNL     1      -2.684  -0.205  -1.218  1.00  0.00     0.065 C 
BRANCH  11  12
HETATM   12  C6  UNL     1      -1.369   0.032  -0.548  1.00  0.00     0.032 A 
HETATM   13  C3  UNL     1      -0.971   1.257  -0.140  1.00  0.00     0.042 A 
HETATM   14  N1  UNL     1       0.279   1.354   0.412  1.00  0.00    -0.366 N 
HETATM   15  C4  UNL     1       1.068   0.278   0.539  1.00  0.00     0.105 A 
ATOM     16  H1  UNL     1       0.616   2.262   0.732  1.00  0.00     0.165 HD
HETATM   17  C5  UNL     1       0.635  -0.960   0.116  1.00  0.00     0.105 A 
HETATM   18  N2  UNL     1      -0.576  -1.057  -0.419  1.00  0.00    -0.366 N 
ATOM     19  H2  UNL     1      -0.913  -1.966  -0.738  1.00  0.00     0.165 HD
BRANCH  13  20
HETATM   20  C2  UNL     1      -1.821   2.485  -0.193  1.00  0.00     0.172 C 
BRANCH  20  21
HETATM   21  C1  UNL     1      -0.898   3.643  -0.202  1.00  0.00     0.178 C 
HETATM   22  O1  UNL     1      -0.215   3.903  -1.202  1.00  0.00    -0.648 OA
HETATM   23  O2  UNL     1      -0.813   4.428   0.926  1.00  0.00    -0.648 OA
ENDBRANCH  20  21
ENDBRANCH  13  20
ENDBRANCH  11  12
ENDBRANCH  10  11
ENDBRANCH   1  10
BRANCH   2  24
HETATM   24  C11 UNL     1      -6.082  -1.790  -2.216  1.00  0.00     0.037 C 
HETATM   25  C12 UNL     1      -7.354  -1.919  -3.084  1.00  0.00     0.011 C 
HETATM   26  C13 UNL     1      -8.603  -2.060  -2.322  1.00  0.00     0.001 C 
HETATM   27  C14 UNL     1      -8.539  -1.314  -1.026  1.00  0.00     0.000 C 
HETATM   28  C15 UNL     1      -7.429  -1.841  -0.203  1.00  0.00     0.001 C 
HETATM   29  C16 UNL     1      -6.335  -2.558  -1.038  1.00  0.00     0.011 C 
ENDBRANCH   2  24
TORSDOF 6
ENDMDL
MODEL 2
REMARK VINA RESULT: -7.657677415      2.227      2.853
REMARK  6 active torsions:
REMARK  status: ('A' for Active; 'I' for Inactive)
REMARK    1  A    between atoms: C1_2  and  C2_4 
REMARK    2  A    between atoms: C2_4  and  C3_5 
REMARK    3  A    between atoms: C6_12  and  C7_13 
REMARK    4  A    between atoms: C7_13  and  C8_14 
REMARK    5  A    between atoms: C8_14  and  C9_15 
REMARK    6  A    between atoms: C10_16  and  C11_17 
ROOT
HETATM    1  C9  UNL     1      -3.770  -1.380  -2.973  1.00  0.00     0.041 A 
HETATM    2  C10 UNL     1      -5.079  -1.808  -3.019  1.00  0.00     0.038 A 
HETATM    3  N3  UNL     1      -5.197  -2.382  -4.267  1.00  0.00    -0.338 N 
ATOM      4  H3  UNL     1      -6.040  -2.812  -4.649  1.00  0.00     0.168 HD
HETATM    5  C17 UNL     1      -4.015  -2.280  -4.897  1.00  0.00     0.155 A 
HETATM    6  S1  UNL     1      -3.184  -2.634  -6.347  1.00  0.00    -0.064 SA
HETATM    7  C18 UNL     1      -1.669  -1.973  -5.930  1.00  0.00     0.071 A 
HETATM    8  C19 UNL     1      -1.899  -1.509  -4.668  1.00  0.00     0.106 A 
HETATM    9  N4  UNL     1      -3.109  -1.675  -4.152  1.00  0.00    -0.304 N 
ENDROOT
BRANCH   1  10
HETATM   10  C8  UNL     1      -3.184  -0.741  -1.781  1.00  0.00     0.066 C 
BRANCH  10  11
HETATM   11  C7  UNL     1      -1.918  -1.333  -1.251  1.00  0.00     0.065 C 
BRANCH  11  12
HETATM   12  C6  UNL     1      -0.962  -0.336  -0.680  1.00  0.00     0.032 A 
HETATM   13  C3  UNL     1       0.306  -0.657  -0.341  1.00  0.00     0.042 A 
HETATM   14  N1  UNL     1       1.069   0.330   0.225  1.00  0.00    -0.366 N 
HETATM   15  C4  UNL     1       0.574   1.558   0.430  1.00  0.00     0.105 A 
ATOM     16  H1  UNL     1       2.031   0.127   0.495  1.00  0.00     0.165 HD
HETATM   17  C5  UNL     1      -0.723   1.859   0.072  1.00  0.00     0.105 A 
HETATM   18  N2  UNL     1      -1.464   0.904  -0.476  1.00  0.00    -0.366 N 
ATOM     19  H2  UNL     1      -2.426   1.107  -0.747  1.00  0.00     0.165 HD
BRANCH  13  20
HETATM   20  C2  UNL     1       0.942  -1.985  -0.599  1.00  0.00     0.172 C 
BRANCH  20  21
HETATM   21  C1  UNL     1       0.995  -2.692   0.701  1.00  0.00     0.178 C 
HETATM   22  O1  UNL     1       0.883  -3.924   0.760  1.00  0.00    -0.648 OA
HETATM   23  O2  UNL     1       1.173  -1.952   1.849  1.00  0.00    -0.648 OA
ENDBRANCH  20  21
ENDBRANCH  13  20
ENDBRANCH  11  12
ENDBRANCH  10  11
ENDBRANCH   1  10
BRANCH   2  24
HETATM   24  C11 UNL     1      -6.236  -1.733  -2.174  1.00  0.00     0.037 C 
HETATM   25  C12 UNL     1      -7.484  -1.885  -3.072  1.00  0.00     0.011 C 
HETATM   26  C13 UNL     1      -8.746  -2.062  -2.341  1.00  0.00     0.001 C 
HETATM   27  C14 UNL     1      -8.731  -1.326  -1.038  1.00  0.00     0.000 C 
HETATM   28  C15 UNL     1      -7.629  -1.833  -0.194  1.00  0.00     0.001 C 
HETATM   29  C16 UNL     1      -6.498  -2.517  -1.008  1.00  0.00     0.011 C 
ENDBRANCH   2  24
TORSDOF 6
ENDMDL
MODEL 3
REMARK VINA RESULT: -7.629638202      4.673      7.488
REMARK  6 active torsions:
REMARK  status: ('A' for Active; 'I' for Inactive)
REMARK    1  A    between atoms: C1_2  and  C2_4 
REMARK    2  A    between atoms: C2_4  and  C3_5 
REMARK    3  A    between atoms: C6_12  and  C7_13 
REMARK    4  A    between atoms: C7_13  and  C8_14 
REMARK    5  A    between atoms: C8_14  and  C9_15 
REMARK    6  A    between atoms: C10_16  and  C11_17 
ROOT
HETATM    1  C9  UNL     1      -3.049  -2.161  -4.604  1.00  0.00     0.041 A 
HETATM    2  C10 UNL     1      -3.847  -2.067  -3.485  1.00  0.00     0.038 A 
HETATM    3  N3  UNL     1      -2.949  -2.049  -2.438  1.00  0.00    -0.338 N 
ATOM      4  H3  UNL     1      -3.188  -1.983  -1.448  1.00  0.00     0.168 HD
HETATM    5  C17 UNL     1      -1.707  -2.132  -2.940  1.00  0.00     0.155 A 
HETATM    6  S1  UNL     1      -0.049  -2.190  -2.531  1.00  0.00    -0.064 SA
HETATM    7  C18 UNL     1       0.590  -2.310  -4.108  1.00  0.00     0.071 A 
HETATM    8  C19 UNL     1      -0.539  -2.296  -4.873  1.00  0.00     0.106 A 
HETATM    9  N4  UNL     1      -1.711  -2.204  -4.258  1.00  0.00    -0.304 N 
ENDROOT
BRANCH   1  10
HETATM   10  C8  UNL     1      -3.597  -2.161  -5.972  1.00  0.00     0.066 C 
BRANCH  10  11
HETATM   11  C7  UNL     1      -2.670  -2.569  -7.071  1.00  0.00     0.065 C 
BRANCH  11  12
HETATM   12  C6  UNL     1      -3.135  -3.745  -7.868  1.00  0.00     0.032 A 
HETATM   13  C3  UNL     1      -2.544  -4.958  -7.787  1.00  0.00     0.042 A 
HETATM   14  N1  UNL     1      -3.027  -5.942  -8.609  1.00  0.00    -0.366 N 
HETATM   15  C4  UNL     1      -4.042  -5.707  -9.451  1.00  0.00     0.105 A 
ATOM     16  H1  UNL     1      -2.606  -6.871  -8.579  1.00  0.00     0.165 HD
HETATM   17  C5  UNL     1      -4.629  -4.461  -9.510  1.00  0.00     0.105 A 
HETATM   18  N2  UNL     1      -4.162  -3.505  -8.716  1.00  0.00    -0.366 N 
ATOM     19  H2  UNL     1      -4.584  -2.577  -8.745  1.00  0.00     0.165 HD
BRANCH  13  20
HETATM   20  C2  UNL     1      -1.453  -5.306  -6.828  1.00  0.00     0.172 C 
BRANCH  20  21
HETATM   21  C1  UNL     1      -1.665  -6.717  -6.434  1.00  0.00     0.178 C 
HETATM   22  O1  UNL     1      -2.609  -7.037  -5.698  1.00  0.00    -0.648 OA
HETATM   23  O2  UNL     1      -0.791  -7.673  -6.903  1.00  0.00    -0.648 OA
ENDBRANCH  20  21
ENDBRANCH  13  20
ENDBRANCH  11  12
ENDBRANCH  10  11
ENDBRANCH   1  10
BRANCH   2  24
HETATM   24  C11 UNL     1      -5.253  -2.056  -3.198  1.00  0.00     0.037 C 
HETATM   25  C12 UNL     1      -5.420  -2.181  -1.666  1.00  0.00     0.011 C 
HETATM   26  C13 UNL     1      -6.788  -1.954  -1.180  1.00  0.00     0.001 C 
HETATM   27  C14 UNL     1      -7.806  -2.411  -2.178  1.00  0.00     0.000 C 
HETATM   28  C15 UNL     1      -7.631  -1.663  -3.442  1.00  0.00     0.001 C 
HETATM   29  C16 UNL     1      -6.205  -1.075  -3.614  1.00  0.00     0.011 C 
ENDBRANCH   2  24
TORSDOF 6
ENDMDL
MODEL 4
REMARK VINA RESULT: -7.604402881      3.030      3.807
REMARK  6 active torsions:
REMARK  status: ('A' for Active; 'I' for Inactive)
REMARK    1  A    between atoms: C1_2  and  C2_4 
REMARK    2  A    between atoms: C2_4  and  C3_5 
REMARK    3  A    between atoms: C6_12  and  C7_13 
REMARK    4  A    between atoms: C7_13  and  C8_14 
REMARK    5  A    between atoms: C8_14  and  C9_15 
REMARK    6  A    between atoms: C10_16  and  C11_17 
ROOT
HETATM    1  C9  UNL     1      -3.620  -1.726  -3.063  1.00  0.00     0.041 A 
HETATM    2  C10 UNL     1      -4.987  -1.898  -3.100  1.00  0.00     0.038 A 
HETATM    3  N3  UNL     1      -5.250  -2.181  -4.424  1.00  0.00    -0.338 N 
ATOM      4  H3  UNL     1      -6.171  -2.370  -4.822  1.00  0.00     0.168 HD
HETATM    5  C17 UNL     1      -4.091  -2.167  -5.102  1.00  0.00     0.155 A 
HETATM    6  S1  UNL     1      -3.388  -2.365  -6.646  1.00  0.00    -0.064 SA
HETATM    7  C18 UNL     1      -1.763  -2.079  -6.215  1.00  0.00     0.071 A 
HETATM    8  C19 UNL     1      -1.862  -1.844  -4.875  1.00  0.00     0.106 A 
HETATM    9  N4  UNL     1      -3.065  -1.892  -4.319  1.00  0.00    -0.304 N 
ENDROOT
BRANCH   1  10
HETATM   10  C8  UNL     1      -2.887  -1.452  -1.814  1.00  0.00     0.066 C 
BRANCH  10  11
HETATM   11  C7  UNL     1      -1.469  -1.002  -1.948  1.00  0.00     0.065 C 
BRANCH  11  12
HETATM   12  C6  UNL     1      -0.534  -1.600  -0.948  1.00  0.00     0.032 A 
HETATM   13  C3  UNL     1      -0.063  -2.863  -1.056  1.00  0.00     0.042 A 
HETATM   14  N1  UNL     1       0.743  -3.316  -0.046  1.00  0.00    -0.366 N 
HETATM   15  C4  UNL     1       1.051  -2.537   1.000  1.00  0.00     0.105 A 
ATOM     16  H1  UNL     1       1.118  -4.264  -0.091  1.00  0.00     0.165 HD
HETATM   17  C5  UNL     1       0.559  -1.252   1.083  1.00  0.00     0.105 A 
HETATM   18  N2  UNL     1      -0.224  -0.811   0.106  1.00  0.00    -0.366 N 
ATOM     19  H2  UNL     1      -0.596   0.138   0.151  1.00  0.00     0.165 HD
BRANCH  13  20
HETATM   20  C2  UNL     1      -0.313  -3.762  -2.222  1.00  0.00     0.172 C 
BRANCH  20  21
HETATM   21  C1  UNL     1       0.766  -4.776  -2.219  1.00  0.00     0.178 C 
HETATM   22  O1  UNL     1       0.550  -5.934  -1.835  1.00  0.00    -0.648 OA
HETATM   23  O2  UNL     1       2.020  -4.407  -2.653  1.00  0.00    -0.648 OA
ENDBRANCH  20  21
ENDBRANCH  13  20
ENDBRANCH  11  12
ENDBRANCH  10  11
ENDBRANCH   1  10
BRANCH   2  24
HETATM   24  C11 UNL     1      -6.082  -1.790  -2.179  1.00  0.00     0.037 C 
HETATM   25  C12 UNL     1      -7.391  -1.929  -2.988  1.00  0.00     0.011 C 
HETATM   26  C13 UNL     1      -8.604  -2.073  -2.170  1.00  0.00     0.001 C 
HETATM   27  C14 UNL     1      -8.486  -1.320  -0.882  1.00  0.00     0.000 C 
HETATM   28  C15 UNL     1      -7.338  -1.837  -0.108  1.00  0.00     0.001 C 
HETATM   29  C16 UNL     1      -6.278  -2.553  -0.987  1.00  0.00     0.011 C 
ENDBRANCH   2  24
TORSDOF 6
ENDMDL
MODEL 5
REMARK VINA RESULT: -7.563687668      4.413      7.312
REMARK  6 active torsions:
REMARK  status: ('A' for Active; 'I' for Inactive)
REMARK    1  A    between atoms: C1_2  and  C2_4 
REMARK    2  A    between atoms: C2_4  and  C3_5 
REMARK    3  A    between atoms: C6_12  and  C7_13 
REMARK    4  A    between atoms: C7_13  and  C8_14 
REMARK    5  A    between atoms: C8_14  and  C9_15 
REMARK    6  A    between atoms: C10_16  and  C11_17 
ROOT
HETATM    1  C9  UNL     1      -2.042  -1.978  -4.645  1.00  0.00     0.041 A 
HETATM    2  C10 UNL     1      -2.963  -1.954  -3.620  1.00  0.00     0.038 A 
HETATM    3  N3  UNL     1      -2.199  -2.119  -2.484  1.00  0.00    -0.338 N 
ATOM      4  H3  UNL     1      -2.552  -2.149  -1.527  1.00  0.00     0.168 HD
HETATM    5  C17 UNL     1      -0.912  -2.234  -2.848  1.00  0.00     0.155 A 
HETATM    6  S1  UNL     1       0.678  -2.456  -2.265  1.00  0.00    -0.064 SA
HETATM    7  C18 UNL     1       1.495  -2.442  -3.761  1.00  0.00     0.071 A 
HETATM    8  C19 UNL     1       0.470  -2.261  -4.642  1.00  0.00     0.106 A 
HETATM    9  N4  UNL     1      -0.760  -2.155  -4.157  1.00  0.00    -0.304 N 
ENDROOT
BRANCH   1  10
HETATM   10  C8  UNL     1      -2.420  -1.784  -6.056  1.00  0.00     0.066 C 
BRANCH  10  11
HETATM   11  C7  UNL     1      -3.317  -2.813  -6.664  1.00  0.00     0.065 C 
BRANCH  11  12
HETATM   12  C6  UNL     1      -2.690  -3.607  -7.763  1.00  0.00     0.032 A 
HETATM   13  C3  UNL     1      -2.488  -4.941  -7.673  1.00  0.00     0.042 A 
HETATM   14  N1  UNL     1      -1.854  -5.548  -8.725  1.00  0.00    -0.366 N 
HETATM   15  C4  UNL     1      -1.455  -4.846  -9.794  1.00  0.00     0.105 A 
ATOM     16  H1  UNL     1      -1.682  -6.553  -8.694  1.00  0.00     0.165 HD
HETATM   17  C5  UNL     1      -1.676  -3.487  -9.861  1.00  0.00     0.105 A 
HETATM   18  N2  UNL     1      -2.290  -2.896  -8.842  1.00  0.00    -0.366 N 
ATOM     19  H2  UNL     1      -2.463  -1.891  -8.874  1.00  0.00     0.165 HD
BRANCH  13  20
HETATM   20  C2  UNL     1      -2.962  -5.794  -6.542  1.00  0.00     0.172 C 
BRANCH  20  21
HETATM   21  C1  UNL     1      -1.762  -6.440  -5.962  1.00  0.00     0.178 C 
HETATM   22  O1  UNL     1      -1.166  -5.930  -5.004  1.00  0.00    -0.648 OA
HETATM   23  O2  UNL     1      -1.320  -7.624  -6.509  1.00  0.00    -0.648 OA
ENDBRANCH  20  21
ENDBRANCH  13  20
ENDBRANCH  11  12
ENDBRANCH  10  11
ENDBRANCH   1  10
BRANCH   2  24
HETATM   24  C11 UNL     1      -4.390  -1.875  -3.494  1.00  0.00     0.037 C 
HETATM   25  C12 UNL     1      -4.744  -2.098  -2.006  1.00  0.00     0.011 C 
HETATM   26  C13 UNL     1      -6.146  -1.820  -1.663  1.00  0.00     0.001 C 
HETATM   27  C14 UNL     1      -7.061  -2.140  -2.803  1.00  0.00     0.000 C 
HETATM   28  C15 UNL     1      -6.698  -1.318  -3.977  1.00  0.00     0.001 C 
HETATM   29  C16 UNL     1      -5.232  -0.810  -3.939  1.00  0.00     0.011 C 
ENDBRANCH   2  24
TORSDOF 6
ENDMDL
