MODEL 1
REMARK VINA RESULT: -8.019904957      0.000      0.000
REMARK  7 active torsions:
REMARK  status: ('A' for Active; 'I' for Inactive)
REMARK    1  A    between atoms: C4_5  and  N1_6 
REMARK    2  A    between atoms: C8_10  and  C9_11 
REMARK    3  A    between atoms: C8_10  and  C10_14 
REMARK    4  A    between atoms: C9_11  and  O1_12 
REMARK    5  A    between atoms: C10_14  and  C11_15 
REMARK    6  A    between atoms: C13_17  and  C14_18 
REMARK    7  A    between atoms: C14_18  and  C15_19 
ROOT
HETATM    1  N1  UNL     1      -2.555  -2.914  -7.977  1.00  0.00    -0.361 N 
HETATM    2  C5  UNL     1      -1.190  -2.648  -8.337  1.00  0.00     0.125 C 
HETATM    3  C6  UNL     1      -0.737  -1.383  -7.620  1.00  0.00     0.021 C 
HETATM    4  C7  UNL     1      -0.929  -1.447  -6.145  1.00  0.00     0.015 C 
HETATM    5  C8  UNL     1      -2.197  -2.079  -5.677  1.00  0.00     0.002 C 
HETATM    6  C20 UNL     1      -3.164  -2.205  -6.901  1.00  0.00     0.136 C 
ENDROOT
BRANCH   5   7
HETATM    7  C9  UNL     1      -2.095  -3.466  -5.159  1.00  0.00     0.175 C 
BRANCH   7   8
HETATM    8  O1  UNL     1      -0.840  -4.015  -5.052  1.00  0.00    -0.400 OA
ATOM      9  H1  UNL     1      -0.338  -3.818  -4.270  1.00  0.00     0.209 HD
ENDBRANCH   7   8
ENDBRANCH   5   7
BRANCH   5  10
HETATM   10  C10 UNL     1      -2.894  -1.088  -4.789  1.00  0.00     0.072 C 
BRANCH  10  11
HETATM   11  C11 UNL     1      -4.091  -1.593  -4.107  1.00  0.00     0.036 A 
HETATM   12  C12 UNL     1      -4.171  -1.655  -2.724  1.00  0.00     0.061 A 
HETATM   13  C13 UNL     1      -5.407  -2.186  -2.441  1.00  0.00     0.078 A 
HETATM   14  O2  UNL     1      -5.987  -2.409  -3.599  1.00  0.00    -0.242 OA
HETATM   15  N2  UNL     1      -5.243  -2.074  -4.593  1.00  0.00    -0.265 N 
ATOM     16  H2  UNL     1      -5.488  -2.158  -5.579  1.00  0.00     0.194 HD
BRANCH  13  17
HETATM   17  C14 UNL     1      -6.054  -2.487  -1.134  1.00  0.00     0.072 C 
BRANCH  17  18
HETATM   18  C15 UNL     1      -7.286  -1.647  -0.947  1.00  0.00    -0.008 C 
HETATM   19  C16 UNL     1      -8.568  -2.449  -1.248  1.00  0.00     0.005 C 
HETATM   20  C17 UNL     1      -9.603  -1.396  -0.802  1.00  0.00     0.000 C 
HETATM   21  C18 UNL     1      -8.987  -0.761   0.422  1.00  0.00     0.000 C 
HETATM   22  C19 UNL     1      -7.566  -1.323   0.521  1.00  0.00     0.005 C 
ENDBRANCH  17  18
ENDBRANCH  13  17
ENDBRANCH  10  11
ENDBRANCH   5  10
BRANCH   1  23
HETATM   23  C4  UNL     1      -3.306  -3.878  -8.709  1.00  0.00     0.146 A 
HETATM   24  S1  UNL     1      -2.914  -5.532  -9.040  1.00  0.00    -0.064 SA
HETATM   25  C3  UNL     1      -4.313  -5.952  -9.928  1.00  0.00     0.077 A 
HETATM   26  C2  UNL     1      -5.013  -4.773  -9.917  1.00  0.00     0.014 A 
HETATM   27  C1  UNL     1      -6.361  -4.698 -10.609  1.00  0.00     0.068 C 
HETATM   28  N3  UNL     1      -4.482  -3.770  -9.306  1.00  0.00    -0.340 N 
ATOM     29  H3  UNL     1      -4.978  -2.879  -9.282  1.00  0.00     0.167 HD
ENDBRANCH   1  23
TORSDOF 7
ENDMDL
MODEL 2
REMARK VINA RESULT: -7.813635005      2.579      3.235
REMARK  7 active torsions:
REMARK  status: ('A' for Active; 'I' for Inactive)
REMARK    1  A    between atoms: C4_5  and  N1_6 
REMARK    2  A    between atoms: C8_10  and  C9_11 
REMARK    3  A    between atoms: C8_10  and  C10_14 
REMARK    4  A    between atoms: C9_11  and  O1_12 
REMARK    5  A    between atoms: C10_14  and  C11_15 
REMARK    6  A    between atoms: C13_17  and  C14_18 
REMARK    7  A    between atoms: C14_18  and  C15_19 
ROOT
HETATM    1  N1  UNL     1      -0.799  -2.001  -6.488  1.00  0.00    -0.361 N 
HETATM    2  C5  UNL     1       0.026  -2.769  -5.597  1.00  0.00     0.125 C 
HETATM    3  C6  UNL     1      -0.288  -2.355  -4.165  1.00  0.00     0.021 C 
HETATM    4  C7  UNL     1      -1.735  -2.465  -3.830  1.00  0.00     0.015 C 
HETATM    5  C8  UNL     1      -2.687  -2.028  -4.891  1.00  0.00     0.002 C 
HETATM    6  C20 UNL     1      -1.885  -1.234  -5.975  1.00  0.00     0.136 C 
ENDROOT
BRANCH   5   7
HETATM    7  C9  UNL     1      -3.361  -3.103  -5.661  1.00  0.00     0.175 C 
BRANCH   7   8
HETATM    8  O1  UNL     1      -3.983  -2.751  -6.834  1.00  0.00    -0.400 OA
ATOM      9  H1  UNL     1      -3.587  -2.060  -7.353  1.00  0.00     0.209 HD
ENDBRANCH   7   8
ENDBRANCH   5   7
BRANCH   5  10
HETATM   10  C10 UNL     1      -3.582  -0.980  -4.290  1.00  0.00     0.072 C 
BRANCH  10  11
HETATM   11  C11 UNL     1      -4.984  -1.379  -4.119  1.00  0.00     0.036 A 
HETATM   12  C12 UNL     1      -5.466  -1.845  -2.905  1.00  0.00     0.061 A 
HETATM   13  C13 UNL     1      -6.793  -2.136  -3.112  1.00  0.00     0.078 A 
HETATM   14  O2  UNL     1      -7.041  -1.848  -4.371  1.00  0.00    -0.242 OA
HETATM   15  N2  UNL     1      -6.004  -1.404  -4.986  1.00  0.00    -0.265 N 
ATOM     16  H2  UNL     1      -5.964  -1.119  -5.965  1.00  0.00     0.194 HD
BRANCH  13  17
HETATM   17  C14 UNL     1      -7.825  -2.667  -2.180  1.00  0.00     0.072 C 
BRANCH  17  18
HETATM   18  C15 UNL     1      -8.239  -1.614  -1.192  1.00  0.00    -0.008 C 
HETATM   19  C16 UNL     1      -9.552  -1.992  -0.479  1.00  0.00     0.005 C 
HETATM   20  C17 UNL     1      -9.592  -0.842   0.549  1.00  0.00     0.000 C 
HETATM   21  C18 UNL     1      -8.150  -0.661   0.962  1.00  0.00     0.000 C 
HETATM   22  C19 UNL     1      -7.328  -1.561   0.036  1.00  0.00     0.005 C 
ENDBRANCH  17  18
ENDBRANCH  13  17
ENDBRANCH  10  11
ENDBRANCH   5  10
BRANCH   1  23
HETATM   23  C4  UNL     1      -0.520  -1.995  -7.884  1.00  0.00     0.146 A 
HETATM   24  S1  UNL     1      -1.124  -3.055  -9.114  1.00  0.00    -0.064 SA
HETATM   25  C3  UNL     1      -0.329  -2.362 -10.460  1.00  0.00     0.077 A 
HETATM   26  C2  UNL     1       0.366  -1.336  -9.873  1.00  0.00     0.014 A 
HETATM   27  C1  UNL     1       1.229  -0.430 -10.732  1.00  0.00     0.068 C 
HETATM   28  N3  UNL     1       0.247  -1.187  -8.598  1.00  0.00    -0.340 N 
ATOM     29  H3  UNL     1       0.754  -0.435  -8.132  1.00  0.00     0.167 HD
ENDBRANCH   1  23
TORSDOF 7
ENDMDL
MODEL 3
REMARK VINA RESULT: -7.713983139      0.894      1.233
REMARK  7 active torsions:
REMARK  status: ('A' for Active; 'I' for Inactive)
REMARK    1  A    between atoms: C4_5  and  N1_6 
REMARK    2  A    between atoms: C8_10  and  C9_11 
REMARK    3  A    between atoms: C8_10  and  C10_14 
REMARK    4  A    between atoms: C9_11  and  O1_12 
REMARK    5  A    between atoms: C10_14  and  C11_15 
REMARK    6  A    between atoms: C13_17  and  C14_18 
REMARK    7  A    between atoms: C14_18  and  C15_19 
ROOT
HETATM    1  N1  UNL     1      -2.258  -3.214  -8.256  1.00  0.00    -0.361 N 
HETATM    2  C5  UNL     1      -0.862  -2.985  -8.502  1.00  0.00     0.125 C 
HETATM    3  C6  UNL     1      -0.457  -1.680  -7.832  1.00  0.00     0.021 C 
HETATM    4  C7  UNL     1      -0.787  -1.641  -6.380  1.00  0.00     0.015 C 
HETATM    5  C8  UNL     1      -2.103  -2.228  -5.993  1.00  0.00     0.002 C 
HETATM    6  C20 UNL     1      -2.953  -2.427  -7.292  1.00  0.00     0.136 C 
ENDROOT
BRANCH   5   7
HETATM    7  C9  UNL     1      -2.072  -3.577  -5.376  1.00  0.00     0.175 C 
BRANCH   7   8
HETATM    8  O1  UNL     1      -0.842  -4.130  -5.115  1.00  0.00    -0.400 OA
ATOM      9  H1  UNL     1      -0.781  -5.078  -5.090  1.00  0.00     0.209 HD
ENDBRANCH   7   8
ENDBRANCH   5   7
BRANCH   5  10
HETATM   10  C10 UNL     1      -2.864  -1.172  -5.243  1.00  0.00     0.072 C 
BRANCH  10  11
HETATM   11  C11 UNL     1      -4.018  -1.658  -4.478  1.00  0.00     0.036 A 
HETATM   12  C12 UNL     1      -4.016  -1.682  -3.091  1.00  0.00     0.061 A 
HETATM   13  C13 UNL     1      -5.231  -2.205  -2.721  1.00  0.00     0.078 A 
HETATM   14  O2  UNL     1      -5.879  -2.459  -3.836  1.00  0.00    -0.242 OA
HETATM   15  N2  UNL     1      -5.197  -2.150  -4.881  1.00  0.00    -0.265 N 
ATOM     16  H2  UNL     1      -5.500  -2.261  -5.848  1.00  0.00     0.194 HD
BRANCH  13  17
HETATM   17  C14 UNL     1      -5.800  -2.471  -1.370  1.00  0.00     0.072 C 
BRANCH  17  18
HETATM   18  C15 UNL     1      -7.094  -1.732  -1.186  1.00  0.00    -0.008 C 
HETATM   19  C16 UNL     1      -8.307  -2.623  -1.518  1.00  0.00     0.005 C 
HETATM   20  C17 UNL     1      -9.426  -1.662  -1.068  1.00  0.00     0.000 C 
HETATM   21  C18 UNL     1      -8.876  -1.004   0.175  1.00  0.00     0.000 C 
HETATM   22  C19 UNL     1      -7.418  -1.457   0.284  1.00  0.00     0.005 C 
ENDBRANCH  17  18
ENDBRANCH  13  17
ENDBRANCH  10  11
ENDBRANCH   5  10
BRANCH   1  23
HETATM   23  C4  UNL     1      -2.953  -4.218  -8.990  1.00  0.00     0.146 A 
HETATM   24  S1  UNL     1      -4.608  -4.236  -9.500  1.00  0.00    -0.064 SA
HETATM   25  C3  UNL     1      -4.608  -5.743 -10.306  1.00  0.00     0.077 A 
HETATM   26  C2  UNL     1      -3.310  -6.151 -10.134  1.00  0.00     0.014 A 
HETATM   27  C1  UNL     1      -2.860  -7.478 -10.716  1.00  0.00     0.068 C 
HETATM   28  N3  UNL     1      -2.523  -5.371  -9.477  1.00  0.00    -0.340 N 
ATOM     29  H3  UNL     1      -1.552  -5.647  -9.329  1.00  0.00     0.167 HD
ENDBRANCH   1  23
TORSDOF 7
ENDMDL
MODEL 4
REMARK VINA RESULT: -7.529088048      2.159      3.426
REMARK  7 active torsions:
REMARK  status: ('A' for Active; 'I' for Inactive)
REMARK    1  A    between atoms: C4_5  and  N1_6 
REMARK    2  A    between atoms: C8_10  and  C9_11 
REMARK    3  A    between atoms: C8_10  and  C10_14 
REMARK    4  A    between atoms: C9_11  and  O1_12 
REMARK    5  A    between atoms: C10_14  and  C11_15 
REMARK    6  A    between atoms: C13_17  and  C14_18 
REMARK    7  A    between atoms: C14_18  and  C15_19 
ROOT
HETATM    1  N1  UNL     1      -0.842  -2.509  -7.948  1.00  0.00    -0.361 N 
HETATM    2  C5  UNL     1      -0.685  -3.900  -7.626  1.00  0.00     0.125 C 
HETATM    3  C6  UNL     1      -0.997  -4.096  -6.148  1.00  0.00     0.021 C 
HETATM    4  C7  UNL     1      -2.337  -3.575  -5.761  1.00  0.00     0.015 C 
HETATM    5  C8  UNL     1      -2.738  -2.277  -6.377  1.00  0.00     0.002 C 
HETATM    6  C20 UNL     1      -1.469  -1.626  -7.021  1.00  0.00     0.136 C 
ENDROOT
BRANCH   5   7
HETATM    7  C9  UNL     1      -3.710  -2.346  -7.496  1.00  0.00     0.175 C 
BRANCH   7   8
HETATM    8  O1  UNL     1      -4.091  -3.592  -7.933  1.00  0.00    -0.400 OA
ATOM      9  H1  UNL     1      -4.845  -3.645  -8.509  1.00  0.00     0.209 HD
ENDBRANCH   7   8
ENDBRANCH   5   7
BRANCH   5  10
HETATM   10  C10 UNL     1      -3.078  -1.333  -5.259  1.00  0.00     0.072 C 
BRANCH  10  11
HETATM   11  C11 UNL     1      -4.240  -1.717  -4.449  1.00  0.00     0.036 A 
HETATM   12  C12 UNL     1      -4.183  -1.753  -3.063  1.00  0.00     0.061 A 
HETATM   13  C13 UNL     1      -5.426  -2.163  -2.645  1.00  0.00     0.078 A 
HETATM   14  O2  UNL     1      -6.140  -2.347  -3.734  1.00  0.00    -0.242 OA
HETATM   15  N2  UNL     1      -5.475  -2.095  -4.804  1.00  0.00    -0.265 N 
ATOM     16  H2  UNL     1      -5.826  -2.169  -5.759  1.00  0.00     0.194 HD
BRANCH  13  17
HETATM   17  C14 UNL     1      -5.961  -2.386  -1.273  1.00  0.00     0.072 C 
BRANCH  17  18
HETATM   18  C15 UNL     1      -7.256  -1.649  -1.083  1.00  0.00    -0.008 C 
HETATM   19  C16 UNL     1      -8.470  -2.554  -1.375  1.00  0.00     0.005 C 
HETATM   20  C17 UNL     1      -9.585  -1.587  -0.928  1.00  0.00     0.000 C 
HETATM   21  C18 UNL     1      -9.017  -0.899   0.291  1.00  0.00     0.000 C 
HETATM   22  C19 UNL     1      -7.555  -1.344   0.385  1.00  0.00     0.005 C 
ENDBRANCH  17  18
ENDBRANCH  13  17
ENDBRANCH  10  11
ENDBRANCH   5  10
BRANCH   1  23
HETATM   23  C4  UNL     1      -0.354  -2.009  -9.189  1.00  0.00     0.146 A 
HETATM   24  S1  UNL     1      -0.795  -2.483 -10.795  1.00  0.00    -0.064 SA
HETATM   25  C3  UNL     1       0.213  -1.410 -11.663  1.00  0.00     0.077 A 
HETATM   26  C2  UNL     1       0.840  -0.736 -10.647  1.00  0.00     0.014 A 
HETATM   27  C1  UNL     1       1.849   0.348 -10.980  1.00  0.00     0.068 C 
HETATM   28  N3  UNL     1       0.535  -1.061  -9.438  1.00  0.00    -0.340 N 
ATOM     29  H3  UNL     1       0.986  -0.580  -8.660  1.00  0.00     0.167 HD
ENDBRANCH   1  23
TORSDOF 7
ENDMDL
MODEL 5
REMARK VINA RESULT: -7.462560947      1.250      1.334
REMARK  7 active torsions:
REMARK  status: ('A' for Active; 'I' for Inactive)
REMARK    1  A    between atoms: C4_5  and  N1_6 
REMARK    2  A    between atoms: C8_10  and  C9_11 
REMARK    3  A    between atoms: C8_10  and  C10_14 
REMARK    4  A    between atoms: C9_11  and  O1_12 
REMARK    5  A    between atoms: C10_14  and  C11_15 
REMARK    6  A    between atoms: C13_17  and  C14_18 
REMARK    7  A    between atoms: C14_18  and  C15_19 
ROOT
HETATM    1  N1  UNL     1      -2.070  -3.131  -7.905  1.00  0.00    -0.361 N 
HETATM    2  C5  UNL     1      -0.806  -2.450  -7.925  1.00  0.00     0.125 C 
HETATM    3  C6  UNL     1      -0.980  -1.082  -7.278  1.00  0.00     0.021 C 
HETATM    4  C7  UNL     1      -1.561  -1.153  -5.909  1.00  0.00     0.015 C 
HETATM    5  C8  UNL     1      -2.658  -2.144  -5.715  1.00  0.00     0.002 C 
HETATM    6  C20 UNL     1      -3.147  -2.620  -7.123  1.00  0.00     0.136 C 
ENDROOT
BRANCH   5   7
HETATM    7  C9  UNL     1      -2.298  -3.404  -5.018  1.00  0.00     0.175 C 
BRANCH   7   8
HETATM    8  O1  UNL     1      -1.223  -3.374  -4.162  1.00  0.00    -0.400 OA
ATOM      9  H1  UNL     1      -0.593  -4.083  -4.221  1.00  0.00     0.209 HD
ENDBRANCH   7   8
ENDBRANCH   5   7
BRANCH   5  10
HETATM   10  C10 UNL     1      -3.846  -1.402  -5.171  1.00  0.00     0.072 C 
BRANCH  10  11
HETATM   11  C11 UNL     1      -4.097  -1.588  -3.737  1.00  0.00     0.036 A 
HETATM   12  C12 UNL     1      -5.296  -2.102  -3.267  1.00  0.00     0.061 A 
HETATM   13  C13 UNL     1      -5.188  -2.120  -1.897  1.00  0.00     0.078 A 
HETATM   14  O2  UNL     1      -3.996  -1.644  -1.615  1.00  0.00    -0.242 OA
HETATM   15  N2  UNL     1      -3.333  -1.323  -2.669  1.00  0.00    -0.265 N 
ATOM     16  H2  UNL     1      -2.390  -0.936  -2.689  1.00  0.00     0.194 HD
BRANCH  13  17
HETATM   17  C14 UNL     1      -6.155  -2.565  -0.856  1.00  0.00     0.072 C 
BRANCH  17  18
HETATM   18  C15 UNL     1      -7.382  -1.698  -0.868  1.00  0.00    -0.008 C 
HETATM   19  C16 UNL     1      -8.646  -2.511  -1.211  1.00  0.00     0.005 C 
HETATM   20  C17 UNL     1      -9.697  -1.410  -0.967  1.00  0.00     0.000 C 
HETATM   21  C18 UNL     1      -9.185  -0.665   0.243  1.00  0.00     0.000 C 
HETATM   22  C19 UNL     1      -7.792  -1.231   0.529  1.00  0.00     0.005 C 
ENDBRANCH  17  18
ENDBRANCH  13  17
ENDBRANCH  10  11
ENDBRANCH   5  10
BRANCH   1  23
HETATM   23  C4  UNL     1      -2.252  -4.311  -8.681  1.00  0.00     0.146 A 
HETATM   24  S1  UNL     1      -1.094  -5.539  -9.072  1.00  0.00    -0.064 SA
HETATM   25  C3  UNL     1      -2.110  -6.563  -9.990  1.00  0.00     0.077 A 
HETATM   26  C2  UNL     1      -3.303  -5.888  -9.939  1.00  0.00     0.014 A 
HETATM   27  C1  UNL     1      -4.518  -6.466 -10.640  1.00  0.00     0.068 C 
HETATM   28  N3  UNL     1      -3.333  -4.779  -9.284  1.00  0.00    -0.340 N 
ATOM     29  H3  UNL     1      -4.205  -4.252  -9.230  1.00  0.00     0.167 HD
ENDBRANCH   1  23
TORSDOF 7
ENDMDL
