MODEL 1
REMARK VINA RESULT: -4.861556497      0.000      0.000
REMARK  2 active torsions:
REMARK  status: ('A' for Active; 'I' for Inactive)
REMARK    1  A    between atoms: O1_1  and  N1_3 
REMARK    2  A    between atoms: N1_3  and  C1_5 
ROOT
HETATM    1  C1  UNL     1      -1.768 -14.645 -17.284  1.00  0.00     0.304 C 
HETATM    2  C2  UNL     1      -1.822 -13.330 -16.531  1.00  0.00     0.058 C 
HETATM    3  C3  UNL     1      -1.629 -13.747 -15.067  1.00  0.00     0.031 C 
HETATM    4  C4  UNL     1      -0.743 -14.980 -15.295  1.00  0.00     0.235 C 
HETATM    5  N2  UNL     1      -1.582 -15.682 -16.282  1.00  0.00    -0.053 N 
ATOM      6  H21 UNL     1      -1.202 -16.563 -16.630  1.00  0.00     0.279 HD
ATOM      7  H22 UNL     1      -2.440 -16.092 -15.914  1.00  0.00     0.279 HD
ENDROOT
BRANCH   1   8
HETATM    8  N1  UNL     1      -2.975 -14.812 -18.029  1.00  0.00    -0.274 N 
ATOM      9  H1  UNL     1      -3.863 -14.613 -17.569  1.00  0.00     0.189 HD
BRANCH   8  10
HETATM   10  O1  UNL     1      -2.990 -15.171 -19.157  1.00  0.00    -0.293 OA
ATOM     11  H1  UNL     1      -3.569 -14.796 -19.810  1.00  0.00     0.244 HD
ENDBRANCH   8  10
ENDBRANCH   1   8
TORSDOF 2
ENDMDL
MODEL 2
REMARK VINA RESULT: -4.809864236      2.139      2.681
REMARK  2 active torsions:
REMARK  status: ('A' for Active; 'I' for Inactive)
REMARK    1  A    between atoms: O1_1  and  N1_3 
REMARK    2  A    between atoms: N1_3  and  C1_5 
ROOT
HETATM    1  C1  UNL     1      -1.192 -15.718 -16.442  1.00  0.00     0.304 C 
HETATM    2  C2  UNL     1      -0.544 -15.016 -15.264  1.00  0.00     0.058 C 
HETATM    3  C3  UNL     1      -0.879 -13.537 -15.500  1.00  0.00     0.031 C 
HETATM    4  C4  UNL     1      -2.225 -13.718 -16.215  1.00  0.00     0.235 C 
HETATM    5  N2  UNL     1      -1.805 -14.677 -17.252  1.00  0.00    -0.053 N 
ATOM      6  H21 UNL     1      -2.543 -14.991 -17.882  1.00  0.00     0.279 HD
ATOM      7  H22 UNL     1      -1.214 -14.292 -17.989  1.00  0.00     0.279 HD
ENDROOT
BRANCH   1   8
HETATM    8  N1  UNL     1      -0.199 -16.455 -17.157  1.00  0.00    -0.274 N 
ATOM      9  H1  UNL     1      -0.348 -16.639 -18.149  1.00  0.00     0.189 HD
BRANCH   8  10
HETATM   10  O1  UNL     1       0.791 -16.860 -16.648  1.00  0.00    -0.293 OA
ATOM     11  H1  UNL     1       0.802 -17.612 -16.067  1.00  0.00     0.244 HD
ENDBRANCH   8  10
ENDBRANCH   1   8
TORSDOF 2
ENDMDL
MODEL 3
REMARK VINA RESULT: -4.627830098      1.277      1.871
REMARK  2 active torsions:
REMARK  status: ('A' for Active; 'I' for Inactive)
REMARK    1  A    between atoms: O1_1  and  N1_3 
REMARK    2  A    between atoms: N1_3  and  C1_5 
ROOT
HETATM    1  C1  UNL     1      -1.699 -15.293 -16.497  1.00  0.00     0.304 C 
HETATM    2  C2  UNL     1      -0.613 -15.168 -15.445  1.00  0.00     0.058 C 
HETATM    3  C3  UNL     1      -0.539 -13.658 -15.184  1.00  0.00     0.031 C 
HETATM    4  C4  UNL     1      -2.007 -13.306 -15.460  1.00  0.00     0.235 C 
HETATM    5  N2  UNL     1      -2.148 -13.940 -16.783  1.00  0.00    -0.053 N 
ATOM      6  H21 UNL     1      -3.073 -13.867 -17.207  1.00  0.00     0.279 HD
ATOM      7  H22 UNL     1      -1.661 -13.471 -17.546  1.00  0.00     0.279 HD
ENDROOT
BRANCH   1   8
HETATM    8  N1  UNL     1      -1.168 -15.949 -17.648  1.00  0.00    -0.274 N 
ATOM      9  H1  UNL     1      -0.156 -15.966 -17.777  1.00  0.00     0.189 HD
BRANCH   8  10
HETATM   10  O1  UNL     1      -1.850 -16.475 -18.460  1.00  0.00    -0.293 OA
ATOM     11  H1  UNL     1      -2.633 -16.072 -18.816  1.00  0.00     0.244 HD
ENDBRANCH   8  10
ENDBRANCH   1   8
TORSDOF 2
ENDMDL
MODEL 4
REMARK VINA RESULT: -4.547280857      1.168      1.635
REMARK  2 active torsions:
REMARK  status: ('A' for Active; 'I' for Inactive)
REMARK    1  A    between atoms: O1_1  and  N1_3 
REMARK    2  A    between atoms: N1_3  and  C1_5 
ROOT
HETATM    1  C1  UNL     1      -2.480 -14.495 -17.163  1.00  0.00     0.304 C 
HETATM    2  C2  UNL     1      -1.640 -15.292 -16.185  1.00  0.00     0.058 C 
HETATM    3  C3  UNL     1      -0.811 -14.220 -15.466  1.00  0.00     0.031 C 
HETATM    4  C4  UNL     1      -1.819 -13.065 -15.539  1.00  0.00     0.235 C 
HETATM    5  N2  UNL     1      -2.103 -13.102 -16.985  1.00  0.00    -0.053 N 
ATOM      6  H21 UNL     1      -2.785 -12.418 -17.314  1.00  0.00     0.279 HD
ATOM      7  H22 UNL     1      -1.348 -12.773 -17.587  1.00  0.00     0.279 HD
ENDROOT
BRANCH   1   8
HETATM    8  N1  UNL     1      -2.234 -14.964 -18.489  1.00  0.00    -0.274 N 
ATOM      9  H1  UNL     1      -1.268 -15.077 -18.795  1.00  0.00     0.189 HD
BRANCH   8  10
HETATM   10  O1  UNL     1      -3.103 -15.228 -19.249  1.00  0.00    -0.293 OA
ATOM     11  H1  UNL     1      -4.020 -15.242 -19.000  1.00  0.00     0.244 HD
ENDBRANCH   8  10
ENDBRANCH   1   8
TORSDOF 2
ENDMDL
MODEL 5
REMARK VINA RESULT: -4.373956676      2.749      3.533
REMARK  2 active torsions:
REMARK  status: ('A' for Active; 'I' for Inactive)
REMARK    1  A    between atoms: O1_1  and  N1_3 
REMARK    2  A    between atoms: N1_3  and  C1_5 
ROOT
HETATM    1  C1  UNL     1      -1.115 -13.962 -15.089  1.00  0.00     0.304 C 
HETATM    2  C2  UNL     1      -0.667 -15.214 -15.818  1.00  0.00     0.058 C 
HETATM    3  C3  UNL     1      -1.687 -15.352 -16.955  1.00  0.00     0.031 C 
HETATM    4  C4  UNL     1      -1.989 -13.863 -17.174  1.00  0.00     0.235 C 
HETATM    5  N2  UNL     1      -2.302 -13.488 -15.784  1.00  0.00    -0.053 N 
ATOM      6  H21 UNL     1      -2.531 -12.504 -15.637  1.00  0.00     0.279 HD
ATOM      7  H22 UNL     1      -3.188 -13.842 -15.425  1.00  0.00     0.279 HD
ENDROOT
BRANCH   1   8
HETATM    8  N1  UNL     1      -1.371 -14.277 -13.720  1.00  0.00    -0.274 N 
ATOM      9  H1  UNL     1      -1.547 -13.513 -13.068  1.00  0.00     0.189 HD
BRANCH   8  10
HETATM   10  O1  UNL     1      -1.388 -15.387 -13.309  1.00  0.00    -0.293 OA
ATOM     11  H1  UNL     1      -2.028 -15.694 -12.677  1.00  0.00     0.244 HD
ENDBRANCH   8  10
ENDBRANCH   1   8
TORSDOF 2
ENDMDL
