MODEL 1
REMARK VINA RESULT: -4.089087235      0.000      0.000
REMARK  0 active torsions:
REMARK  status: ('A' for Active; 'I' for Inactive)
ROOT
HETATM    1  C1  UNL     1      -1.502 -13.677 -14.499  1.00  0.00     0.030 C 
HETATM    2  C2  UNL     1      -1.148 -14.385 -15.782  1.00  0.00     0.104 C 
HETATM    3  C3  UNL     1      -2.023 -13.881 -16.938  1.00  0.00     0.051 C 
HETATM    4  C4  UNL     1      -1.880 -15.095 -17.861  1.00  0.00     0.197 C 
HETATM    5  O1  UNL     1      -1.449 -16.137 -17.082  1.00  0.00    -0.286 OA
HETATM    6  N1  UNL     1      -1.578 -15.774 -15.785  1.00  0.00    -0.097 NA
ENDROOT
TORSDOF 0
ENDMDL
MODEL 2
REMARK VINA RESULT: -3.860491010      1.707      1.834
REMARK  0 active torsions:
REMARK  status: ('A' for Active; 'I' for Inactive)
ROOT
HETATM    1  C1  UNL     1      -1.463 -12.602 -14.399  1.00  0.00     0.030 C 
HETATM    2  C2  UNL     1      -1.975 -13.484 -15.508  1.00  0.00     0.104 C 
HETATM    3  C3  UNL     1      -1.335 -14.878 -15.431  1.00  0.00     0.051 C 
HETATM    4  C4  UNL     1      -1.548 -15.293 -16.890  1.00  0.00     0.197 C 
HETATM    5  O1  UNL     1      -1.777 -14.143 -17.601  1.00  0.00    -0.286 OA
HETATM    6  N1  UNL     1      -1.462 -13.091 -16.811  1.00  0.00    -0.097 NA
ENDROOT
TORSDOF 0
ENDMDL
MODEL 3
REMARK VINA RESULT: -3.805636181      1.555      2.617
REMARK  0 active torsions:
REMARK  status: ('A' for Active; 'I' for Inactive)
ROOT
HETATM    1  C1  UNL     1      -1.530 -15.537 -17.714  1.00  0.00     0.030 C 
HETATM    2  C2  UNL     1      -1.600 -15.238 -16.238  1.00  0.00     0.104 C 
HETATM    3  C3  UNL     1      -1.937 -13.759 -16.001  1.00  0.00     0.051 C 
HETATM    4  C4  UNL     1      -1.378 -13.638 -14.579  1.00  0.00     0.197 C 
HETATM    5  O1  UNL     1      -0.518 -14.691 -14.400  1.00  0.00    -0.286 OA
HETATM    6  N1  UNL     1      -0.291 -15.259 -15.606  1.00  0.00    -0.097 NA
ENDROOT
TORSDOF 0
ENDMDL
MODEL 4
REMARK VINA RESULT: -3.804079022      1.462      1.501
REMARK  0 active torsions:
REMARK  status: ('A' for Active; 'I' for Inactive)
ROOT
HETATM    1  C1  UNL     1      -1.389 -12.634 -14.114  1.00  0.00     0.030 C 
HETATM    2  C2  UNL     1      -0.835 -13.531 -15.192  1.00  0.00     0.104 C 
HETATM    3  C3  UNL     1      -1.971 -14.153 -16.016  1.00  0.00     0.051 C 
HETATM    4  C4  UNL     1      -1.205 -15.363 -16.559  1.00  0.00     0.197 C 
HETATM    5  O1  UNL     1      -0.109 -15.533 -15.752  1.00  0.00    -0.286 OA
HETATM    6  N1  UNL     1      -0.269 -14.759 -14.655  1.00  0.00    -0.097 NA
ENDROOT
TORSDOF 0
ENDMDL
MODEL 5
REMARK VINA RESULT: -3.756107429      2.037      3.058
REMARK  0 active torsions:
REMARK  status: ('A' for Active; 'I' for Inactive)
ROOT
HETATM    1  C1  UNL     1      -2.082 -14.865 -17.813  1.00  0.00     0.030 C 
HETATM    2  C2  UNL     1      -1.664 -13.957 -16.684  1.00  0.00     0.104 C 
HETATM    3  C3  UNL     1      -1.197 -14.777 -15.474  1.00  0.00     0.051 C 
HETATM    4  C4  UNL     1      -1.413 -13.710 -14.395  1.00  0.00     0.197 C 
HETATM    5  O1  UNL     1      -2.269 -12.779 -14.925  1.00  0.00    -0.286 OA
HETATM    6  N1  UNL     1      -2.795 -13.289 -16.061  1.00  0.00    -0.097 NA
ENDROOT
TORSDOF 0
ENDMDL
