MODEL 1
REMARK VINA RESULT: -3.304252761      0.000      0.000
REMARK  0 active torsions:
REMARK  status: ('A' for Active; 'I' for Inactive)
ROOT
HETATM    1  C1  UNL     1      -2.378 -14.262 -17.176  1.00  0.00     0.028 C 
HETATM    2  C2  UNL     1      -1.619 -15.431 -17.573  1.00  0.00     0.123 C 
HETATM    3  N1  UNL     1      -0.806 -15.962 -16.554  1.00  0.00    -0.179 NA
HETATM    4  S1  UNL     1      -1.019 -14.922 -15.125  1.00  0.00    -0.066 SA
HETATM    5  C3  UNL     1      -1.731 -13.517 -16.069  1.00  0.00     0.094 C 
ENDROOT
TORSDOF 0
ENDMDL
MODEL 2
REMARK VINA RESULT: -3.259035090      1.559      1.879
REMARK  0 active torsions:
REMARK  status: ('A' for Active; 'I' for Inactive)
ROOT
HETATM    1  C1  UNL     1      -1.397 -13.783 -15.835  1.00  0.00     0.028 C 
HETATM    2  C2  UNL     1      -0.782 -15.047 -15.482  1.00  0.00     0.123 C 
HETATM    3  N1  UNL     1      -0.860 -16.027 -16.489  1.00  0.00    -0.179 NA
HETATM    4  S1  UNL     1      -1.751 -15.302 -17.850  1.00  0.00    -0.066 SA
HETATM    5  C3  UNL     1      -2.469 -13.941 -16.849  1.00  0.00     0.094 C 
ENDROOT
TORSDOF 0
ENDMDL
MODEL 3
REMARK VINA RESULT: -3.244792199      1.764      2.112
REMARK  0 active torsions:
REMARK  status: ('A' for Active; 'I' for Inactive)
ROOT
HETATM    1  C1  UNL     1      -1.943 -14.589 -17.235  1.00  0.00     0.028 C 
HETATM    2  C2  UNL     1      -2.690 -13.479 -16.678  1.00  0.00     0.123 C 
HETATM    3  N1  UNL     1      -2.279 -13.098 -15.388  1.00  0.00    -0.179 NA
HETATM    4  S1  UNL     1      -0.961 -14.200 -14.917  1.00  0.00    -0.066 SA
HETATM    5  C3  UNL     1      -1.364 -15.464 -16.186  1.00  0.00     0.094 C 
ENDROOT
TORSDOF 0
ENDMDL
MODEL 4
REMARK VINA RESULT: -3.239814573      1.656      1.656
REMARK  0 active torsions:
REMARK  status: ('A' for Active; 'I' for Inactive)
ROOT
HETATM    1  C1  UNL     1      -1.847 -14.874 -16.642  1.00  0.00     0.028 C 
HETATM    2  C2  UNL     1      -0.743 -15.379 -15.851  1.00  0.00     0.123 C 
HETATM    3  N1  UNL     1      -0.425 -14.585 -14.734  1.00  0.00    -0.179 NA
HETATM    4  S1  UNL     1      -1.536 -13.193 -14.753  1.00  0.00    -0.066 SA
HETATM    5  C3  UNL     1      -2.007 -13.404 -16.515  1.00  0.00     0.094 C 
ENDROOT
TORSDOF 0
ENDMDL
MODEL 5
REMARK VINA RESULT: -3.229441086      1.928      2.090
REMARK  0 active torsions:
REMARK  status: ('A' for Active; 'I' for Inactive)
ROOT
HETATM    1  C1  UNL     1      -1.391 -15.213 -16.630  1.00  0.00     0.028 C 
HETATM    2  C2  UNL     1      -2.406 -14.312 -17.137  1.00  0.00     0.123 C 
HETATM    3  N1  UNL     1      -2.615 -13.172 -16.339  1.00  0.00    -0.179 NA
HETATM    4  S1  UNL     1      -1.518 -13.310 -14.942  1.00  0.00    -0.066 SA
HETATM    5  C3  UNL     1      -1.226 -15.109 -15.159  1.00  0.00     0.094 C 
ENDROOT
TORSDOF 0
ENDMDL
