MODEL 1
REMARK VINA RESULT: -3.968356271      0.000      0.000
REMARK  1 active torsions:
REMARK  status: ('A' for Active; 'I' for Inactive)
REMARK    1  A    between atoms: O1_1  and  C1_3 
ROOT
HETATM    1  C1  UNL     1      -2.341 -13.383 -16.754  1.00  0.00     0.256 C 
HETATM    2  C2  UNL     1      -1.260 -13.625 -15.709  1.00  0.00     0.062 C 
HETATM    3  C3  UNL     1      -1.390 -15.152 -15.614  1.00  0.00     0.031 C 
HETATM    4  C4  UNL     1      -1.499 -15.427 -17.120  1.00  0.00     0.171 C 
HETATM    5  O2  UNL     1      -2.350 -14.463 -17.595  1.00  0.00    -0.361 OA
ENDROOT
BRANCH   1   6
HETATM    6  O1  UNL     1      -1.958 -12.250 -17.464  1.00  0.00    -0.371 OA
ATOM      7  H1  UNL     1      -2.706 -11.664 -17.459  1.00  0.00     0.212 HD
ENDBRANCH   1   6
TORSDOF 1
ENDMDL
MODEL 2
REMARK VINA RESULT: -3.933316974      0.997      2.371
REMARK  1 active torsions:
REMARK  status: ('A' for Active; 'I' for Inactive)
REMARK    1  A    between atoms: O1_1  and  C1_3 
ROOT
HETATM    1  C1  UNL     1      -1.335 -15.411 -17.573  1.00  0.00     0.256 C 
HETATM    2  C2  UNL     1      -1.500 -15.673 -16.082  1.00  0.00     0.062 C 
HETATM    3  C3  UNL     1      -1.472 -14.215 -15.603  1.00  0.00     0.031 C 
HETATM    4  C4  UNL     1      -2.387 -13.639 -16.693  1.00  0.00     0.171 C 
HETATM    5  O2  UNL     1      -1.965 -14.229 -17.856  1.00  0.00    -0.361 OA
ENDROOT
BRANCH   1   6
HETATM    6  O1  UNL     1      -1.985 -16.449 -18.231  1.00  0.00    -0.371 OA
ATOM      7  H1  UNL     1      -2.916 -16.298 -18.121  1.00  0.00     0.212 HD
ENDBRANCH   1   6
TORSDOF 1
ENDMDL
MODEL 3
REMARK VINA RESULT: -3.915708535      0.949      1.988
REMARK  1 active torsions:
REMARK  status: ('A' for Active; 'I' for Inactive)
REMARK    1  A    between atoms: O1_1  and  C1_3 
ROOT
HETATM    1  C1  UNL     1      -1.770 -14.523 -17.355  1.00  0.00     0.256 C 
HETATM    2  C2  UNL     1      -1.700 -15.333 -16.068  1.00  0.00     0.062 C 
HETATM    3  C3  UNL     1      -0.694 -14.452 -15.314  1.00  0.00     0.031 C 
HETATM    4  C4  UNL     1      -1.310 -13.097 -15.690  1.00  0.00     0.171 C 
HETATM    5  O2  UNL     1      -1.615 -13.204 -17.022  1.00  0.00    -0.361 OA
ENDROOT
BRANCH   1   6
HETATM    6  O1  UNL     1      -3.045 -14.719 -17.877  1.00  0.00    -0.371 OA
ATOM      7  H1  UNL     1      -3.234 -13.963 -18.419  1.00  0.00     0.212 HD
ENDBRANCH   1   6
TORSDOF 1
ENDMDL
MODEL 4
REMARK VINA RESULT: -3.880044035      2.204      3.014
REMARK  1 active torsions:
REMARK  status: ('A' for Active; 'I' for Inactive)
REMARK    1  A    between atoms: O1_1  and  C1_3 
ROOT
HETATM    1  C1  UNL     1      -0.917 -15.549 -15.778  1.00  0.00     0.256 C 
HETATM    2  C2  UNL     1      -1.655 -14.591 -16.703  1.00  0.00     0.062 C 
HETATM    3  C3  UNL     1      -1.987 -13.506 -15.669  1.00  0.00     0.031 C 
HETATM    4  C4  UNL     1      -0.617 -13.478 -14.977  1.00  0.00     0.171 C 
HETATM    5  O2  UNL     1      -0.263 -14.795 -14.841  1.00  0.00    -0.361 OA
ENDROOT
BRANCH   1   6
HETATM    6  O1  UNL     1       0.016 -16.218 -16.564  1.00  0.00    -0.371 OA
ATOM      7  H1  UNL     1      -0.408 -17.011 -16.869  1.00  0.00     0.212 HD
ENDBRANCH   1   6
TORSDOF 1
ENDMDL
MODEL 5
REMARK VINA RESULT: -3.781035828      1.165      1.390
REMARK  1 active torsions:
REMARK  status: ('A' for Active; 'I' for Inactive)
REMARK    1  A    between atoms: O1_1  and  C1_3 
ROOT
HETATM    1  C1  UNL     1      -2.190 -14.551 -16.927  1.00  0.00     0.256 C 
HETATM    2  C2  UNL     1      -1.456 -13.567 -16.026  1.00  0.00     0.062 C 
HETATM    3  C3  UNL     1      -0.985 -14.564 -14.958  1.00  0.00     0.031 C 
HETATM    4  C4  UNL     1      -0.533 -15.673 -15.919  1.00  0.00     0.171 C 
HETATM    5  O2  UNL     1      -1.521 -15.744 -16.866  1.00  0.00    -0.361 OA
ENDROOT
BRANCH   1   6
HETATM    6  O1  UNL     1      -2.107 -14.042 -18.219  1.00  0.00    -0.371 OA
ATOM      7  H1  UNL     1      -2.747 -13.343 -18.275  1.00  0.00     0.212 HD
ENDBRANCH   1   6
TORSDOF 1
ENDMDL
