MODEL 1
REMARK VINA RESULT: -5.767965819      0.000      0.000
REMARK  2 active torsions:
REMARK  status: ('A' for Active; 'I' for Inactive)
REMARK    1  A    between atoms: N2_4  and  N3_6 
REMARK    2  A    between atoms: N3_6  and  C1_8 
ROOT
HETATM    1  C1  UNL     1      -2.058 -14.794 -18.037  1.00  0.00     0.052 A 
HETATM    2  C2  UNL     1      -1.330 -15.900 -17.656  1.00  0.00     0.048 A 
HETATM    3  C3  UNL     1      -0.559 -15.908 -16.509  1.00  0.00     0.090 A 
HETATM    4  N4  UNL     1      -0.537 -14.787 -15.761  1.00  0.00    -0.375 N 
ATOM      5  H4  UNL     1       0.029 -14.781 -14.913  1.00  0.00     0.164 HD
HETATM    6  C4  UNL     1      -1.222 -13.680 -16.078  1.00  0.00     0.090 A 
HETATM    7  C5  UNL     1      -1.994 -13.679 -17.229  1.00  0.00     0.048 A 
ENDROOT
BRANCH   1   8
HETATM    8  N3  UNL     1      -2.782 -14.771 -19.105  1.00  0.00    -0.287 N 
ATOM      9  H3  UNL     1      -3.798 -14.798 -19.024  1.00  0.00     0.188 HD
BRANCH   8  10
HETATM   10  N2  UNL     1      -2.196 -14.711 -20.368  1.00  0.00    -0.249 N 
HETATM   11  N1  UNL     1      -2.806 -14.260 -21.379  1.00  0.00    -0.331 N 
ATOM     12  H12 UNL     1      -3.762 -13.932 -21.249  1.00  0.00     0.178 HD
ATOM     13  H11 UNL     1      -2.377 -14.216 -22.303  1.00  0.00     0.178 HD
ATOM     14  H2  UNL     1      -1.238 -15.043 -20.480  1.00  0.00     0.207 HD
ENDBRANCH   8  10
ENDBRANCH   1   8
TORSDOF 2
ENDMDL
MODEL 2
REMARK VINA RESULT: -5.721704435      2.638      3.221
REMARK  2 active torsions:
REMARK  status: ('A' for Active; 'I' for Inactive)
REMARK    1  A    between atoms: N2_4  and  N3_6 
REMARK    2  A    between atoms: N3_6  and  C1_8 
ROOT
HETATM    1  C1  UNL     1      -1.161 -15.052 -16.382  1.00  0.00     0.052 A 
HETATM    2  C2  UNL     1      -0.470 -14.702 -15.244  1.00  0.00     0.048 A 
HETATM    3  C3  UNL     1      -0.382 -13.390 -14.815  1.00  0.00     0.090 A 
HETATM    4  N4  UNL     1      -1.000 -12.448 -15.554  1.00  0.00    -0.375 N 
ATOM      5  H4  UNL     1      -0.942 -11.477 -15.248  1.00  0.00     0.164 HD
HETATM    6  C4  UNL     1      -1.688 -12.724 -16.670  1.00  0.00     0.090 A 
HETATM    7  C5  UNL     1      -1.772 -14.041 -17.093  1.00  0.00     0.048 A 
ENDROOT
BRANCH   1   8
HETATM    8  N3  UNL     1      -1.252 -16.271 -16.794  1.00  0.00    -0.287 N 
ATOM      9  H3  UNL     1      -2.038 -16.846 -16.492  1.00  0.00     0.188 HD
BRANCH   8  10
HETATM   10  N2  UNL     1      -0.292 -16.813 -17.646  1.00  0.00    -0.249 N 
HETATM   11  N1  UNL     1       0.753 -17.381 -17.218  1.00  0.00    -0.331 N 
ATOM     12  H12 UNL     1       0.884 -17.436 -16.209  1.00  0.00     0.178 HD
ATOM     13  H11 UNL     1       1.456 -17.778 -17.842  1.00  0.00     0.178 HD
ATOM     14  H2  UNL     1      -0.437 -16.750 -18.654  1.00  0.00     0.207 HD
ENDBRANCH   8  10
ENDBRANCH   1   8
TORSDOF 2
ENDMDL
MODEL 3
REMARK VINA RESULT: -5.706675247      2.633      3.333
REMARK  2 active torsions:
REMARK  status: ('A' for Active; 'I' for Inactive)
REMARK    1  A    between atoms: N2_4  and  N3_6 
REMARK    2  A    between atoms: N3_6  and  C1_8 
ROOT
HETATM    1  C1  UNL     1      -1.166 -14.984 -16.370  1.00  0.00     0.052 A 
HETATM    2  C2  UNL     1      -1.755 -13.964 -17.084  1.00  0.00     0.048 A 
HETATM    3  C3  UNL     1      -1.658 -12.643 -16.687  1.00  0.00     0.090 A 
HETATM    4  N4  UNL     1      -0.962 -12.376 -15.565  1.00  0.00    -0.375 N 
ATOM      5  H4  UNL     1      -0.884 -11.406 -15.262  1.00  0.00     0.164 HD
HETATM    6  C4  UNL     1      -0.366 -13.324 -14.827  1.00  0.00     0.090 A 
HETATM    7  C5  UNL     1      -0.467 -14.645 -15.232  1.00  0.00     0.048 A 
ENDROOT
BRANCH   1   8
HETATM    8  N3  UNL     1      -1.248 -16.221 -16.727  1.00  0.00    -0.287 N 
ATOM      9  H3  UNL     1      -1.994 -16.805 -16.349  1.00  0.00     0.188 HD
BRANCH   8  10
HETATM   10  N2  UNL     1      -0.333 -16.772 -17.622  1.00  0.00    -0.249 N 
HETATM   11  N1  UNL     1       0.724 -17.352 -17.242  1.00  0.00    -0.331 N 
ATOM     12  H12 UNL     1       0.898 -17.411 -16.239  1.00  0.00     0.178 HD
ATOM     13  H11 UNL     1       1.394 -17.755 -17.896  1.00  0.00     0.178 HD
ATOM     14  H2  UNL     1      -0.522 -16.704 -18.622  1.00  0.00     0.207 HD
ENDBRANCH   8  10
ENDBRANCH   1   8
TORSDOF 2
ENDMDL
MODEL 4
REMARK VINA RESULT: -5.583362239      1.420      2.319
REMARK  2 active torsions:
REMARK  status: ('A' for Active; 'I' for Inactive)
REMARK    1  A    between atoms: N2_4  and  N3_6 
REMARK    2  A    between atoms: N3_6  and  C1_8 
ROOT
HETATM    1  C1  UNL     1      -2.041 -14.028 -16.516  1.00  0.00     0.052 A 
HETATM    2  C2  UNL     1      -1.510 -12.777 -16.290  1.00  0.00     0.048 A 
HETATM    3  C3  UNL     1      -0.511 -12.564 -15.358  1.00  0.00     0.090 A 
HETATM    4  N4  UNL     1      -0.065 -13.629 -14.665  1.00  0.00    -0.375 N 
ATOM      5  H4  UNL     1       0.671 -13.484 -13.974  1.00  0.00     0.164 HD
HETATM    6  C4  UNL     1      -0.540 -14.870 -14.838  1.00  0.00     0.090 A 
HETATM    7  C5  UNL     1      -1.541 -15.076 -15.774  1.00  0.00     0.048 A 
ENDROOT
BRANCH   1   8
HETATM    8  N3  UNL     1      -2.973 -14.242 -17.382  1.00  0.00    -0.287 N 
ATOM      9  H3  UNL     1      -3.870 -13.768 -17.282  1.00  0.00     0.188 HD
BRANCH   8  10
HETATM   10  N2  UNL     1      -2.772 -15.113 -18.451  1.00  0.00    -0.249 N 
HETATM   11  N1  UNL     1      -2.473 -14.707 -19.610  1.00  0.00    -0.331 N 
ATOM     12  H12 UNL     1      -2.379 -13.702 -19.752  1.00  0.00     0.178 HD
ATOM     13  H11 UNL     1      -2.326 -15.344 -20.393  1.00  0.00     0.178 HD
ATOM     14  H2  UNL     1      -2.871 -16.115 -18.293  1.00  0.00     0.207 HD
ENDBRANCH   8  10
ENDBRANCH   1   8
TORSDOF 2
ENDMDL
MODEL 5
REMARK VINA RESULT: -5.574244112      1.426      1.792
REMARK  2 active torsions:
REMARK  status: ('A' for Active; 'I' for Inactive)
REMARK    1  A    between atoms: N2_4  and  N3_6 
REMARK    2  A    between atoms: N3_6  and  C1_8 
ROOT
HETATM    1  C1  UNL     1      -2.044 -14.059 -16.508  1.00  0.00     0.052 A 
HETATM    2  C2  UNL     1      -1.544 -15.083 -15.734  1.00  0.00     0.048 A 
HETATM    3  C3  UNL     1      -0.550 -14.873 -14.796  1.00  0.00     0.090 A 
HETATM    4  N4  UNL     1      -0.074 -13.620 -14.658  1.00  0.00    -0.375 N 
ATOM      5  H4  UNL     1       0.660 -13.453 -13.971  1.00  0.00     0.164 HD
HETATM    6  C4  UNL     1      -0.519 -12.582 -15.381  1.00  0.00     0.090 A 
HETATM    7  C5  UNL     1      -1.516 -12.800 -16.318  1.00  0.00     0.048 A 
ENDROOT
BRANCH   1   8
HETATM    8  N3  UNL     1      -2.971 -14.240 -17.386  1.00  0.00    -0.287 N 
ATOM      9  H3  UNL     1      -3.857 -13.742 -17.292  1.00  0.00     0.188 HD
BRANCH   8  10
HETATM   10  N2  UNL     1      -2.781 -15.104 -18.462  1.00  0.00    -0.249 N 
HETATM   11  N1  UNL     1      -2.483 -14.694 -19.620  1.00  0.00    -0.331 N 
ATOM     12  H12 UNL     1      -2.381 -13.688 -19.755  1.00  0.00     0.178 HD
ATOM     13  H11 UNL     1      -2.344 -15.327 -20.407  1.00  0.00     0.178 HD
ATOM     14  H2  UNL     1      -2.887 -16.108 -18.310  1.00  0.00     0.207 HD
ENDBRANCH   8  10
ENDBRANCH   1   8
TORSDOF 2
ENDMDL
