MODEL 1
REMARK VINA RESULT: -5.439534599      0.000      0.000
REMARK  2 active torsions:
REMARK  status: ('A' for Active; 'I' for Inactive)
REMARK    1  A    between atoms: N1_1  and  N2_4 
REMARK    2  A    between atoms: N2_4  and  C1_5 
ROOT
HETATM    1  C1  UNL     1      -0.970 -15.700 -16.651  1.00  0.00     0.136 A 
HETATM    2  C2  UNL     1      -1.418 -14.747 -15.714  1.00  0.00     0.180 A 
HETATM    3  N3  UNL     1      -2.018 -13.734 -15.067  1.00  0.00    -0.330 N 
ATOM      4  H3  UNL     1      -1.864 -13.494 -14.088  1.00  0.00     0.165 HD
HETATM    5  C3  UNL     1      -2.851 -13.079 -15.896  1.00  0.00     0.317 A 
HETATM    6  O1  UNL     1      -3.577 -12.067 -15.605  1.00  0.00    -0.247 OA
HETATM    7  N4  UNL     1      -2.765 -13.700 -17.086  1.00  0.00    -0.330 N 
ATOM      8  H4  UNL     1      -3.288 -13.422 -17.916  1.00  0.00     0.165 HD
HETATM    9  C4  UNL     1      -1.909 -14.726 -17.044  1.00  0.00     0.180 A 
ENDROOT
BRANCH   1  10
HETATM   10  N2  UNL     1      -0.254 -16.695 -16.930  1.00  0.00    -0.337 NA
BRANCH  10  11
HETATM   11  N1  UNL     1       0.740 -17.373 -17.267  1.00  0.00    -0.280 N 
ATOM     12  H12 UNL     1       0.680 -18.049 -16.506  1.00  0.00     0.191 HD
ATOM     13  H11 UNL     1       1.555 -17.689 -17.791  1.00  0.00     0.191 HD
ENDBRANCH  10  11
ENDBRANCH   1  10
TORSDOF 2
ENDMDL
MODEL 2
REMARK VINA RESULT: -5.436772276      0.013      1.215
REMARK  2 active torsions:
REMARK  status: ('A' for Active; 'I' for Inactive)
REMARK    1  A    between atoms: N1_1  and  N2_4 
REMARK    2  A    between atoms: N2_4  and  C1_5 
ROOT
HETATM    1  C1  UNL     1      -0.965 -15.701 -16.641  1.00  0.00     0.136 A 
HETATM    2  C2  UNL     1      -1.897 -14.717 -17.029  1.00  0.00     0.180 A 
HETATM    3  N3  UNL     1      -2.757 -13.687 -17.093  1.00  0.00    -0.330 N 
ATOM      4  H3  UNL     1      -3.269 -13.407 -17.929  1.00  0.00     0.165 HD
HETATM    5  C3  UNL     1      -2.848 -13.078 -15.897  1.00  0.00     0.317 A 
HETATM    6  O1  UNL     1      -3.574 -12.067 -15.609  1.00  0.00    -0.247 OA
HETATM    7  N4  UNL     1      -2.025 -13.747 -15.070  1.00  0.00    -0.330 N 
ATOM      8  H4  UNL     1      -1.885 -13.513 -14.087  1.00  0.00     0.165 HD
HETATM    9  C4  UNL     1      -1.413 -14.758 -15.696  1.00  0.00     0.180 A 
ENDROOT
BRANCH   1  10
HETATM   10  N2  UNL     1      -0.254 -16.696 -16.931  1.00  0.00    -0.337 NA
BRANCH  10  11
HETATM   11  N1  UNL     1       0.739 -17.376 -17.266  1.00  0.00    -0.280 N 
ATOM     12  H12 UNL     1       0.665 -17.202 -18.268  1.00  0.00     0.191 HD
ATOM     13  H11 UNL     1       1.559 -17.979 -17.198  1.00  0.00     0.191 HD
ENDBRANCH  10  11
ENDBRANCH   1  10
TORSDOF 2
ENDMDL
MODEL 3
REMARK VINA RESULT: -5.295579558      2.239      2.517
REMARK  2 active torsions:
REMARK  status: ('A' for Active; 'I' for Inactive)
REMARK    1  A    between atoms: N1_1  and  N2_4 
REMARK    2  A    between atoms: N2_4  and  C1_5 
ROOT
HETATM    1  C1  UNL     1      -1.263 -14.984 -16.556  1.00  0.00     0.136 A 
HETATM    2  C2  UNL     1      -0.544 -14.686 -15.381  1.00  0.00     0.180 A 
HETATM    3  N3  UNL     1       0.062 -14.101 -14.333  1.00  0.00    -0.330 N 
ATOM      4  H3  UNL     1       0.584 -14.597 -13.611  1.00  0.00     0.165 HD
HETATM    5  C3  UNL     1      -0.117 -12.769 -14.374  1.00  0.00     0.317 A 
HETATM    6  O1  UNL     1       0.325 -11.914 -13.533  1.00  0.00    -0.247 OA
HETATM    7  N4  UNL     1      -0.850 -12.520 -15.474  1.00  0.00    -0.330 N 
ATOM      8  H4  UNL     1      -1.144 -11.589 -15.768  1.00  0.00     0.165 HD
HETATM    9  C4  UNL     1      -1.145 -13.645 -16.133  1.00  0.00     0.180 A 
ENDROOT
BRANCH   1  10
HETATM   10  N2  UNL     1      -1.695 -15.830 -17.379  1.00  0.00    -0.337 NA
BRANCH  10  11
HETATM   11  N1  UNL     1      -1.732 -16.617 -18.349  1.00  0.00    -0.280 N 
ATOM     12  H12 UNL     1      -2.578 -16.237 -18.773  1.00  0.00     0.191 HD
ATOM     13  H11 UNL     1      -1.477 -17.374 -18.982  1.00  0.00     0.191 HD
ENDBRANCH  10  11
ENDBRANCH   1  10
TORSDOF 2
ENDMDL
MODEL 4
REMARK VINA RESULT: -5.292779497      2.239      2.703
REMARK  2 active torsions:
REMARK  status: ('A' for Active; 'I' for Inactive)
REMARK    1  A    between atoms: N1_1  and  N2_4 
REMARK    2  A    between atoms: N2_4  and  C1_5 
ROOT
HETATM    1  C1  UNL     1      -1.258 -14.995 -16.550  1.00  0.00     0.136 A 
HETATM    2  C2  UNL     1      -1.132 -13.658 -16.122  1.00  0.00     0.180 A 
HETATM    3  N3  UNL     1      -0.846 -12.516 -15.475  1.00  0.00    -0.330 N 
ATOM      4  H3  UNL     1      -1.142 -11.587 -15.774  1.00  0.00     0.165 HD
HETATM    5  C3  UNL     1      -0.113 -12.772 -14.376  1.00  0.00     0.317 A 
HETATM    6  O1  UNL     1       0.328 -11.915 -13.537  1.00  0.00    -0.247 OA
HETATM    7  N4  UNL     1       0.059 -14.105 -14.339  1.00  0.00    -0.330 N 
ATOM      8  H4  UNL     1       0.578 -14.596 -13.613  1.00  0.00     0.165 HD
HETATM    9  C4  UNL     1      -0.537 -14.707 -15.375  1.00  0.00     0.180 A 
ENDROOT
BRANCH   1  10
HETATM   10  N2  UNL     1      -1.696 -15.833 -17.379  1.00  0.00    -0.337 NA
BRANCH  10  11
HETATM   11  N1  UNL     1      -1.736 -16.619 -18.349  1.00  0.00    -0.280 N 
ATOM     12  H12 UNL     1      -0.896 -16.273 -18.812  1.00  0.00     0.191 HD
ATOM     13  H11 UNL     1      -2.050 -17.365 -18.969  1.00  0.00     0.191 HD
ENDBRANCH  10  11
ENDBRANCH   1  10
TORSDOF 2
ENDMDL
MODEL 5
REMARK VINA RESULT: -5.191040347      1.156      1.709
REMARK  2 active torsions:
REMARK  status: ('A' for Active; 'I' for Inactive)
REMARK    1  A    between atoms: N1_1  and  N2_4 
REMARK    2  A    between atoms: N2_4  and  C1_5 
ROOT
HETATM    1  C1  UNL     1      -0.625 -15.583 -16.180  1.00  0.00     0.136 A 
HETATM    2  C2  UNL     1      -1.614 -14.592 -16.018  1.00  0.00     0.180 A 
HETATM    3  N3  UNL     1      -2.373 -13.558 -15.616  1.00  0.00    -0.330 N 
ATOM      4  H3  UNL     1      -3.245 -13.270 -16.059  1.00  0.00     0.165 HD
HETATM    5  C3  UNL     1      -1.820 -12.959 -14.547  1.00  0.00     0.317 A 
HETATM    6  O1  UNL     1      -2.280 -11.948 -13.916  1.00  0.00    -0.247 OA
HETATM    7  N4  UNL     1      -0.691 -13.638 -14.277  1.00  0.00    -0.330 N 
ATOM      8  H4  UNL     1      -0.055 -13.412 -13.512  1.00  0.00     0.165 HD
HETATM    9  C4  UNL     1      -0.505 -14.646 -15.136  1.00  0.00     0.180 A 
ENDROOT
BRANCH   1  10
HETATM   10  N2  UNL     1      -0.178 -16.578 -16.805  1.00  0.00    -0.337 NA
BRANCH  10  11
HETATM   11  N1  UNL     1       0.631 -17.387 -17.308  1.00  0.00    -0.280 N 
ATOM     12  H12 UNL     1       1.467 -17.001 -16.868  1.00  0.00     0.191 HD
ATOM     13  H11 UNL     1       0.998 -18.163 -17.857  1.00  0.00     0.191 HD
ENDBRANCH  10  11
ENDBRANCH   1  10
TORSDOF 2
ENDMDL
