MODEL 1
REMARK VINA RESULT: -4.391583258      0.000      0.000
REMARK  5 active torsions:
REMARK  status: ('A' for Active; 'I' for Inactive)
REMARK    1  A    between atoms: C2_2  and  C3_3 
REMARK    2  A    between atoms: C4_4  and  C5_5 
REMARK    3  A    between atoms: C6_6  and  C7_7 
REMARK    4  A    between atoms: C7_7  and  N1_8 
REMARK    5  A    between atoms: N1_8  and  O1_10 
ROOT
HETATM    1  C5  UNL     1      -0.425 -13.174 -15.081  1.00  0.00    -0.014 C 
HETATM    2  C6  UNL     1      -0.997 -14.219 -15.277  1.00  0.00    -0.076 C 
ENDROOT
BRANCH   2   3
HETATM    3  C7  UNL     1      -1.690 -15.510 -15.493  1.00  0.00     0.214 C 
BRANCH   3   4
HETATM    4  N1  UNL     1      -1.129 -16.128 -16.659  1.00  0.00    -0.193 NA
HETATM    5  C8  UNL     1      -1.583 -15.423 -17.829  1.00  0.00     0.144 C 
BRANCH   4   6
HETATM    6  O1  UNL     1       0.234 -16.175 -16.600  1.00  0.00    -0.313 OA
ATOM      7  H1  UNL     1       0.624 -16.170 -17.466  1.00  0.00     0.237 HD
ENDBRANCH   4   6
ENDBRANCH   3   4
ENDBRANCH   2   3
BRANCH   1   8
HETATM    8  C4  UNL     1       0.257 -11.952 -14.829  1.00  0.00    -0.015 C 
HETATM    9  C3  UNL     1       0.854 -10.925 -14.612  1.00  0.00    -0.093 C 
BRANCH   9  10
HETATM   10  C2  UNL     1       1.600  -9.682 -14.343  1.00  0.00     0.090 C 
HETATM   11  C1  UNL     1       2.873  -9.959 -13.583  1.00  0.00     0.018 C 
ENDBRANCH   9  10
ENDBRANCH   1   8
TORSDOF 5
ENDMDL
MODEL 2
REMARK VINA RESULT: -4.333270421      2.639      2.907
REMARK  5 active torsions:
REMARK  status: ('A' for Active; 'I' for Inactive)
REMARK    1  A    between atoms: C2_2  and  C3_3 
REMARK    2  A    between atoms: C4_4  and  C5_5 
REMARK    3  A    between atoms: C6_6  and  C7_7 
REMARK    4  A    between atoms: C7_7  and  N1_8 
REMARK    5  A    between atoms: N1_8  and  O1_10 
ROOT
HETATM    1  C5  UNL     1      -1.364 -13.630 -14.655  1.00  0.00    -0.014 C 
HETATM    2  C6  UNL     1      -1.083 -14.529 -15.411  1.00  0.00    -0.076 C 
ENDROOT
BRANCH   2   3
HETATM    3  C7  UNL     1      -0.714 -15.620 -16.341  1.00  0.00     0.214 C 
BRANCH   3   4
HETATM    4  N1  UNL     1      -1.779 -15.779 -17.288  1.00  0.00    -0.193 NA
HETATM    5  C8  UNL     1      -1.939 -14.553 -18.025  1.00  0.00     0.144 C 
BRANCH   4   6
HETATM    6  O1  UNL     1      -1.560 -16.839 -18.121  1.00  0.00    -0.313 OA
ATOM      7  H1  UNL     1      -2.199 -17.529 -17.985  1.00  0.00     0.237 HD
ENDBRANCH   4   6
ENDBRANCH   3   4
ENDBRANCH   2   3
BRANCH   1   8
HETATM    8  C4  UNL     1      -1.672 -12.562 -13.768  1.00  0.00    -0.015 C 
HETATM    9  C3  UNL     1      -1.915 -11.647 -13.018  1.00  0.00    -0.093 C 
BRANCH   9  10
HETATM   10  C2  UNL     1      -2.192 -10.523 -12.105  1.00  0.00     0.090 C 
HETATM   11  C1  UNL     1      -2.431 -11.005 -10.696  1.00  0.00     0.018 C 
ENDBRANCH   9  10
ENDBRANCH   1   8
TORSDOF 5
ENDMDL
MODEL 3
REMARK VINA RESULT: -4.295615216      1.832      1.832
REMARK  5 active torsions:
REMARK  status: ('A' for Active; 'I' for Inactive)
REMARK    1  A    between atoms: C2_2  and  C3_3 
REMARK    2  A    between atoms: C4_4  and  C5_5 
REMARK    3  A    between atoms: C6_6  and  C7_7 
REMARK    4  A    between atoms: C7_7  and  N1_8 
REMARK    5  A    between atoms: N1_8  and  O1_10 
ROOT
HETATM    1  C5  UNL     1      -0.741 -12.367 -15.976  1.00  0.00    -0.014 C 
HETATM    2  C6  UNL     1      -1.532 -13.213 -16.317  1.00  0.00    -0.076 C 
ENDROOT
BRANCH   2   3
HETATM    3  C7  UNL     1      -2.487 -14.268 -16.728  1.00  0.00     0.214 C 
BRANCH   3   4
HETATM    4  N1  UNL     1      -2.133 -14.701 -18.049  1.00  0.00    -0.193 NA
HETATM    5  C8  UNL     1      -1.373 -15.920 -17.956  1.00  0.00     0.144 C 
BRANCH   4   6
HETATM    6  O1  UNL     1      -3.235 -14.856 -18.841  1.00  0.00    -0.313 OA
ATOM      7  H1  UNL     1      -3.137 -14.403 -19.670  1.00  0.00     0.237 HD
ENDBRANCH   4   6
ENDBRANCH   3   4
ENDBRANCH   2   3
BRANCH   1   8
HETATM    8  C4  UNL     1       0.208 -11.390 -15.565  1.00  0.00    -0.015 C 
HETATM    9  C3  UNL     1       1.027 -10.570 -15.228  1.00  0.00    -0.093 C 
BRANCH   9  10
HETATM   10  C2  UNL     1       2.043  -9.578 -14.828  1.00  0.00     0.090 C 
HETATM   11  C1  UNL     1       2.839 -10.056 -13.641  1.00  0.00     0.018 C 
ENDBRANCH   9  10
ENDBRANCH   1   8
TORSDOF 5
ENDMDL
MODEL 4
REMARK VINA RESULT: -4.260002543      1.465      1.619
REMARK  5 active torsions:
REMARK  status: ('A' for Active; 'I' for Inactive)
REMARK    1  A    between atoms: C2_2  and  C3_3 
REMARK    2  A    between atoms: C4_4  and  C5_5 
REMARK    3  A    between atoms: C6_6  and  C7_7 
REMARK    4  A    between atoms: C7_7  and  N1_8 
REMARK    5  A    between atoms: N1_8  and  O1_10 
ROOT
HETATM    1  C5  UNL     1      -0.740 -12.911 -15.798  1.00  0.00    -0.014 C 
HETATM    2  C6  UNL     1      -1.180 -14.031 -15.701  1.00  0.00    -0.076 C 
ENDROOT
BRANCH   2   3
HETATM    3  C7  UNL     1      -1.701 -15.414 -15.599  1.00  0.00     0.214 C 
BRANCH   3   4
HETATM    4  N1  UNL     1      -1.079 -16.203 -16.622  1.00  0.00    -0.193 NA
HETATM    5  C8  UNL     1      -1.527 -15.742 -17.910  1.00  0.00     0.144 C 
BRANCH   4   6
HETATM    6  O1  UNL     1       0.283 -16.171 -16.525  1.00  0.00    -0.313 OA
ATOM      7  H1  UNL     1       0.699 -16.481 -17.321  1.00  0.00     0.237 HD
ENDBRANCH   4   6
ENDBRANCH   3   4
ENDBRANCH   2   3
BRANCH   1   8
HETATM    8  C4  UNL     1      -0.205 -11.600 -15.930  1.00  0.00    -0.015 C 
HETATM    9  C3  UNL     1       0.261 -10.493 -16.058  1.00  0.00    -0.093 C 
BRANCH   9  10
HETATM   10  C2  UNL     1       0.843  -9.149 -16.229  1.00  0.00     0.090 C 
HETATM   11  C1  UNL     1       1.782  -9.103 -17.407  1.00  0.00     0.018 C 
ENDBRANCH   9  10
ENDBRANCH   1   8
TORSDOF 5
ENDMDL
MODEL 5
REMARK VINA RESULT: -4.239875545      1.489      1.489
REMARK  5 active torsions:
REMARK  status: ('A' for Active; 'I' for Inactive)
REMARK    1  A    between atoms: C2_2  and  C3_3 
REMARK    2  A    between atoms: C4_4  and  C5_5 
REMARK    3  A    between atoms: C6_6  and  C7_7 
REMARK    4  A    between atoms: C7_7  and  N1_8 
REMARK    5  A    between atoms: N1_8  and  O1_10 
ROOT
HETATM    1  C5  UNL     1      -0.445 -13.146 -14.938  1.00  0.00    -0.014 C 
HETATM    2  C6  UNL     1      -1.020 -14.072 -15.459  1.00  0.00    -0.076 C 
ENDROOT
BRANCH   2   3
HETATM    3  C7  UNL     1      -1.721 -15.196 -16.120  1.00  0.00     0.214 C 
BRANCH   3   4
HETATM    4  N1  UNL     1      -1.892 -14.863 -17.504  1.00  0.00    -0.193 NA
HETATM    5  C8  UNL     1      -1.446 -15.967 -18.313  1.00  0.00     0.144 C 
BRANCH   4   6
HETATM    6  O1  UNL     1      -3.185 -14.527 -17.786  1.00  0.00    -0.313 OA
ATOM      7  H1  UNL     1      -3.732 -15.296 -17.895  1.00  0.00     0.237 HD
ENDBRANCH   4   6
ENDBRANCH   3   4
ENDBRANCH   2   3
BRANCH   1   8
HETATM    8  C4  UNL     1       0.236 -12.045 -14.349  1.00  0.00    -0.015 C 
HETATM    9  C3  UNL     1       0.803 -11.113 -13.831  1.00  0.00    -0.093 C 
BRANCH   9  10
HETATM   10  C2  UNL     1       1.483  -9.977 -13.182  1.00  0.00     0.090 C 
HETATM   11  C1  UNL     1       2.944  -9.928 -13.551  1.00  0.00     0.018 C 
ENDBRANCH   9  10
ENDBRANCH   1   8
TORSDOF 5
ENDMDL
