MODEL 1
REMARK VINA RESULT: -5.041103736      0.000      0.000
REMARK  1 active torsions:
REMARK  status: ('A' for Active; 'I' for Inactive)
REMARK    1  A    between atoms: C6_6  and  C7_7 
ROOT
HETATM    1  C7  UNL     1      -2.317 -11.362 -16.174  1.00  0.00     0.123 C 
HETATM    2  C8  UNL     1      -3.510 -10.678 -16.556  1.00  0.00     0.090 C 
HETATM    3  N1  UNL     1      -4.482 -10.092 -16.860  1.00  0.00    -0.192 NA
ENDROOT
BRANCH   1   4
HETATM    4  C6  UNL     1      -2.101 -12.639 -16.373  1.00  0.00     0.048 A 
HETATM    5  C4  UNL     1      -1.830 -13.624 -15.445  1.00  0.00    -0.033 A 
HETATM    6  C3  UNL     1      -1.683 -14.809 -16.179  1.00  0.00     0.037 A 
HETATM    7  C5  UNL     1      -1.711 -13.496 -13.984  1.00  0.00     0.050 C 
HETATM    8  C2  UNL     1      -1.863 -14.534 -17.510  1.00  0.00     0.023 A 
HETATM    9  C1  UNL     1      -1.802 -15.403 -18.517  1.00  0.00     0.043 C 
HETATM   10  N2  UNL     1      -2.114 -13.219 -17.598  1.00  0.00    -0.356 N 
ATOM     11  H2  UNL     1      -2.291 -12.721 -18.471  1.00  0.00     0.166 HD
ENDBRANCH   1   4
TORSDOF 1
ENDMDL
MODEL 2
REMARK VINA RESULT: -4.877251976      2.562      4.522
REMARK  1 active torsions:
REMARK  status: ('A' for Active; 'I' for Inactive)
REMARK    1  A    between atoms: C6_6  and  C7_7 
ROOT
HETATM    1  C7  UNL     1      -1.337 -14.783 -14.888  1.00  0.00     0.123 C 
HETATM    2  C8  UNL     1      -1.344 -15.505 -16.118  1.00  0.00     0.090 C 
HETATM    3  N1  UNL     1      -1.357 -16.122 -17.119  1.00  0.00    -0.192 NA
ENDROOT
BRANCH   1   4
HETATM    4  C6  UNL     1      -1.025 -13.515 -14.776  1.00  0.00     0.048 A 
HETATM    5  C4  UNL     1      -1.784 -12.407 -15.096  1.00  0.00    -0.033 A 
HETATM    6  C3  UNL     1      -0.987 -11.297 -14.785  1.00  0.00     0.037 A 
HETATM    7  C5  UNL     1      -3.147 -12.360 -15.649  1.00  0.00     0.050 C 
HETATM    8  C2  UNL     1       0.216 -11.736 -14.293  1.00  0.00     0.023 A 
HETATM    9  C1  UNL     1       1.234 -10.978 -13.889  1.00  0.00     0.043 C 
HETATM   10  N2  UNL     1       0.165 -13.076 -14.299  1.00  0.00    -0.356 N 
ATOM     11  H2  UNL     1       0.921 -13.685 -13.985  1.00  0.00     0.166 HD
ENDBRANCH   1   4
TORSDOF 1
ENDMDL
MODEL 3
REMARK VINA RESULT: -4.876295599      1.884      3.986
REMARK  1 active torsions:
REMARK  status: ('A' for Active; 'I' for Inactive)
REMARK    1  A    between atoms: C6_6  and  C7_7 
ROOT
HETATM    1  C7  UNL     1      -2.181 -14.169 -17.131  1.00  0.00     0.123 C 
HETATM    2  C8  UNL     1      -1.671 -15.400 -17.640  1.00  0.00     0.090 C 
HETATM    3  N1  UNL     1      -1.275 -16.420 -18.069  1.00  0.00    -0.192 NA
ENDROOT
BRANCH   1   4
HETATM    4  C6  UNL     1      -1.462 -13.277 -16.494  1.00  0.00     0.048 A 
HETATM    5  C4  UNL     1      -0.620 -13.457 -15.416  1.00  0.00    -0.033 A 
HETATM    6  C3  UNL     1      -0.098 -12.189 -15.124  1.00  0.00     0.037 A 
HETATM    7  C5  UNL     1      -0.309 -14.701 -14.695  1.00  0.00     0.050 C 
HETATM    8  C2  UNL     1      -0.618 -11.279 -16.009  1.00  0.00     0.023 A 
HETATM    9  C1  UNL     1      -0.359  -9.973 -16.051  1.00  0.00     0.043 C 
HETATM   10  N2  UNL     1      -1.436 -11.963 -16.823  1.00  0.00    -0.356 N 
ATOM     11  H2  UNL     1      -1.968 -11.548 -17.588  1.00  0.00     0.166 HD
ENDBRANCH   1   4
TORSDOF 1
ENDMDL
MODEL 4
REMARK VINA RESULT: -4.651133230      1.347      1.443
REMARK  1 active torsions:
REMARK  status: ('A' for Active; 'I' for Inactive)
REMARK    1  A    between atoms: C6_6  and  C7_7 
ROOT
HETATM    1  C7  UNL     1      -2.406 -11.488 -16.321  1.00  0.00     0.123 C 
HETATM    2  C8  UNL     1      -1.429 -10.483 -16.053  1.00  0.00     0.090 C 
HETATM    3  N1  UNL     1      -0.644  -9.636 -15.832  1.00  0.00    -0.192 NA
ENDROOT
BRANCH   1   4
HETATM    4  C6  UNL     1      -2.136 -12.764 -16.454  1.00  0.00     0.048 A 
HETATM    5  C4  UNL     1      -1.844 -13.692 -15.476  1.00  0.00    -0.033 A 
HETATM    6  C3  UNL     1      -1.638 -14.904 -16.149  1.00  0.00     0.037 A 
HETATM    7  C5  UNL     1      -1.756 -13.490 -14.021  1.00  0.00     0.050 C 
HETATM    8  C2  UNL     1      -1.804 -14.699 -17.495  1.00  0.00     0.023 A 
HETATM    9  C1  UNL     1      -1.691 -15.612 -18.458  1.00  0.00     0.043 C 
HETATM   10  N2  UNL     1      -2.104 -13.400 -17.650  1.00  0.00    -0.356 N 
ATOM     11  H2  UNL     1      -2.285 -12.952 -18.548  1.00  0.00     0.166 HD
ENDBRANCH   1   4
TORSDOF 1
ENDMDL
MODEL 5
REMARK VINA RESULT: -4.616178990      1.987      2.602
REMARK  1 active torsions:
REMARK  status: ('A' for Active; 'I' for Inactive)
REMARK    1  A    between atoms: C6_6  and  C7_7 
ROOT
HETATM    1  C7  UNL     1      -1.213 -12.143 -15.184  1.00  0.00     0.123 C 
HETATM    2  C8  UNL     1      -0.197 -11.946 -14.202  1.00  0.00     0.090 C 
HETATM    3  N1  UNL     1       0.632 -11.759 -13.390  1.00  0.00    -0.192 NA
ENDROOT
BRANCH   1   4
HETATM    4  C6  UNL     1      -1.405 -13.264 -15.836  1.00  0.00     0.048 A 
HETATM    5  C4  UNL     1      -1.435 -14.553 -15.345  1.00  0.00    -0.033 A 
HETATM    6  C3  UNL     1      -1.675 -15.377 -16.454  1.00  0.00     0.037 A 
HETATM    7  C5  UNL     1      -1.256 -15.009 -13.957  1.00  0.00     0.050 C 
HETATM    8  C2  UNL     1      -1.785 -14.595 -17.574  1.00  0.00     0.023 A 
HETATM    9  C1  UNL     1      -2.013 -15.015 -18.817  1.00  0.00     0.043 C 
HETATM   10  N2  UNL     1      -1.619 -13.326 -17.172  1.00  0.00    -0.356 N 
ATOM     11  H2  UNL     1      -1.649 -12.515 -17.790  1.00  0.00     0.166 HD
ENDBRANCH   1   4
TORSDOF 1
ENDMDL
