MODEL 1
REMARK VINA RESULT: -5.220703479      0.000      0.000
REMARK  1 active torsions:
REMARK  status: ('A' for Active; 'I' for Inactive)
REMARK    1  A    between atoms: C4_4  and  C5_5 
ROOT
HETATM    1  C1  UNL     1      -2.036 -10.651 -12.040  1.00  0.00     0.027 C 
HETATM    2  C2  UNL     1      -2.034 -11.430 -12.959  1.00  0.00    -0.026 C 
HETATM    3  C3  UNL     1      -2.008 -12.350 -14.038  1.00  0.00    -0.009 C 
HETATM    4  C4  UNL     1      -1.969 -13.146 -14.960  1.00  0.00    -0.033 C 
ENDROOT
BRANCH   4   5
HETATM    5  C5  UNL     1      -1.898 -14.088 -16.044  1.00  0.00     0.107 A 
HETATM    6  C6  UNL     1      -1.678 -15.456 -15.911  1.00  0.00     0.132 A 
HETATM    7  N1  UNL     1      -1.687 -15.943 -17.169  1.00  0.00    -0.316 N 
HETATM    8  C7  UNL     1      -1.902 -14.934 -18.034  1.00  0.00     0.325 A 
ATOM      9  H1  UNL     1      -1.552 -16.921 -17.425  1.00  0.00     0.170 HD
HETATM   10  O1  UNL     1      -1.964 -15.078 -19.282  1.00  0.00    -0.247 OA
HETATM   11  N2  UNL     1      -2.034 -13.780 -17.347  1.00  0.00    -0.300 N 
ATOM     12  H2  UNL     1      -2.203 -12.854 -17.739  1.00  0.00     0.171 HD
ENDBRANCH   4   5
TORSDOF 1
ENDMDL
MODEL 2
REMARK VINA RESULT: -5.147216160      1.612      1.987
REMARK  1 active torsions:
REMARK  status: ('A' for Active; 'I' for Inactive)
REMARK    1  A    between atoms: C4_4  and  C5_5 
ROOT
HETATM    1  C1  UNL     1      -1.997 -11.279 -12.854  1.00  0.00     0.027 C 
HETATM    2  C2  UNL     1      -1.855 -12.128 -13.696  1.00  0.00    -0.026 C 
HETATM    3  C3  UNL     1      -1.667 -13.133 -14.679  1.00  0.00    -0.009 C 
HETATM    4  C4  UNL     1      -1.490 -14.002 -15.515  1.00  0.00    -0.033 C 
ENDROOT
BRANCH   4   5
HETATM    5  C5  UNL     1      -1.258 -15.032 -16.490  1.00  0.00     0.107 A 
HETATM    6  C6  UNL     1      -1.974 -15.198 -17.674  1.00  0.00     0.132 A 
HETATM    7  N1  UNL     1      -1.426 -16.274 -18.274  1.00  0.00    -0.316 N 
HETATM    8  C7  UNL     1      -0.426 -16.749 -17.507  1.00  0.00     0.325 A 
ATOM      9  H1  UNL     1      -1.723 -16.667 -19.167  1.00  0.00     0.170 HD
HETATM   10  O1  UNL     1       0.275 -17.750 -17.806  1.00  0.00    -0.247 OA
HETATM   11  N2  UNL     1      -0.315 -15.986 -16.400  1.00  0.00    -0.300 N 
ATOM     12  H2  UNL     1       0.355 -16.109 -15.641  1.00  0.00     0.171 HD
ENDBRANCH   4   5
TORSDOF 1
ENDMDL
MODEL 3
REMARK VINA RESULT: -5.080774987      1.130      1.364
REMARK  1 active torsions:
REMARK  status: ('A' for Active; 'I' for Inactive)
REMARK    1  A    between atoms: C4_4  and  C5_5 
ROOT
HETATM    1  C1  UNL     1      -1.740 -10.976 -11.537  1.00  0.00     0.027 C 
HETATM    2  C2  UNL     1      -1.752 -11.675 -12.517  1.00  0.00    -0.026 C 
HETATM    3  C3  UNL     1      -1.790 -12.495 -13.674  1.00  0.00    -0.009 C 
HETATM    4  C4  UNL     1      -1.839 -13.193 -14.672  1.00  0.00    -0.033 C 
ENDROOT
BRANCH   4   5
HETATM    5  C5  UNL     1      -1.922 -14.011 -15.851  1.00  0.00     0.107 A 
HETATM    6  C6  UNL     1      -2.801 -13.810 -16.913  1.00  0.00     0.132 A 
HETATM    7  N1  UNL     1      -2.536 -14.801 -17.788  1.00  0.00    -0.316 N 
HETATM    8  C7  UNL     1      -1.548 -15.574 -17.298  1.00  0.00     0.325 A 
ATOM      9  H1  UNL     1      -3.010 -14.944 -18.680  1.00  0.00     0.170 HD
HETATM   10  O1  UNL     1      -1.082 -16.580 -17.892  1.00  0.00    -0.247 OA
HETATM   11  N2  UNL     1      -1.161 -15.092 -16.099  1.00  0.00    -0.300 N 
ATOM     12  H2  UNL     1      -0.433 -15.475 -15.496  1.00  0.00     0.171 HD
ENDBRANCH   4   5
TORSDOF 1
ENDMDL
MODEL 4
REMARK VINA RESULT: -4.949655779      1.753      1.873
REMARK  1 active torsions:
REMARK  status: ('A' for Active; 'I' for Inactive)
REMARK    1  A    between atoms: C4_4  and  C5_5 
ROOT
HETATM    1  C1  UNL     1       0.591 -10.468 -12.821  1.00  0.00     0.027 C 
HETATM    2  C2  UNL     1       0.183 -11.307 -13.581  1.00  0.00    -0.026 C 
HETATM    3  C3  UNL     1      -0.306 -12.278 -14.493  1.00  0.00    -0.009 C 
HETATM    4  C4  UNL     1      -0.726 -13.099 -15.289  1.00  0.00    -0.033 C 
ENDROOT
BRANCH   4   5
HETATM    5  C5  UNL     1      -1.229 -14.050 -16.244  1.00  0.00     0.107 A 
HETATM    6  C6  UNL     1      -2.421 -13.925 -16.953  1.00  0.00     0.132 A 
HETATM    7  N1  UNL     1      -2.494 -15.031 -17.723  1.00  0.00    -0.316 N 
HETATM    8  C7  UNL     1      -1.408 -15.797 -17.504  1.00  0.00     0.325 A 
ATOM      9  H1  UNL     1      -3.253 -15.252 -18.368  1.00  0.00     0.170 HD
HETATM   10  O1  UNL     1      -1.195 -16.895 -18.079  1.00  0.00    -0.247 OA
HETATM   11  N2  UNL     1      -0.619 -15.197 -16.589  1.00  0.00    -0.300 N 
ATOM     12  H2  UNL     1       0.268 -15.547 -16.229  1.00  0.00     0.171 HD
ENDBRANCH   4   5
TORSDOF 1
ENDMDL
MODEL 5
REMARK VINA RESULT: -4.862507550      2.174      2.399
REMARK  1 active torsions:
REMARK  status: ('A' for Active; 'I' for Inactive)
REMARK    1  A    between atoms: C4_4  and  C5_5 
ROOT
HETATM    1  C1  UNL     1      -2.743 -10.022 -14.900  1.00  0.00     0.027 C 
HETATM    2  C2  UNL     1      -2.462 -11.084 -15.391  1.00  0.00    -0.026 C 
HETATM    3  C3  UNL     1      -2.109 -12.334 -15.962  1.00  0.00    -0.009 C 
HETATM    4  C4  UNL     1      -1.790 -13.408 -16.442  1.00  0.00    -0.033 C 
ENDROOT
BRANCH   4   5
HETATM    5  C5  UNL     1      -1.390 -14.672 -16.999  1.00  0.00     0.107 A 
HETATM    6  C6  UNL     1      -1.899 -15.236 -18.166  1.00  0.00     0.132 A 
HETATM    7  N1  UNL     1      -1.249 -16.409 -18.309  1.00  0.00    -0.316 N 
HETATM    8  C7  UNL     1      -0.384 -16.563 -17.288  1.00  0.00     0.325 A 
ATOM      9  H1  UNL     1      -1.390 -17.074 -19.069  1.00  0.00     0.170 HD
HETATM   10  O1  UNL     1       0.367 -17.563 -17.147  1.00  0.00    -0.247 OA
HETATM   11  N2  UNL     1      -0.465 -15.492 -16.471  1.00  0.00    -0.300 N 
ATOM     12  H2  UNL     1       0.072 -15.336 -15.619  1.00  0.00     0.171 HD
ENDBRANCH   4   5
TORSDOF 1
ENDMDL
