MODEL 1
REMARK VINA RESULT: -4.054591992      0.000      0.000
REMARK  3 active torsions:
REMARK  status: ('A' for Active; 'I' for Inactive)
REMARK    1  A    between atoms: N1_2  and  C4_5 
REMARK    2  A    between atoms: C5_6  and  C6_7 
REMARK    3  A    between atoms: C7_8  and  C8_9 
ROOT
HETATM    1  C4  UNL     1      -1.501 -12.007 -14.051  1.00  0.00     0.129 C 
HETATM    2  C5  UNL     1      -1.589 -12.753 -14.997  1.00  0.00     0.016 C 
ENDROOT
BRANCH   2   3
HETATM    3  C6  UNL     1      -1.670 -13.624 -16.114  1.00  0.00    -0.007 C 
HETATM    4  C7  UNL     1      -1.728 -14.351 -17.076  1.00  0.00    -0.048 C 
BRANCH   4   5
HETATM    5  C8  UNL     1      -1.791 -15.210 -18.241  1.00  0.00     0.147 C 
HETATM    6  N2  UNL     1      -1.700 -16.501 -18.146  1.00  0.00    -0.401 N 
ATOM      7  H22 UNL     1      -1.581 -16.906 -17.218  1.00  0.00     0.156 HD
ATOM      8  H21 UNL     1      -1.743 -17.106 -18.966  1.00  0.00     0.156 HD
ENDBRANCH   4   5
ENDBRANCH   2   3
BRANCH   1   9
HETATM    9  N1  UNL     1      -1.383 -11.120 -12.952  1.00  0.00    -0.013 N 
HETATM   10  C1  UNL     1      -2.167  -9.931 -13.266  1.00  0.00     0.289 C 
HETATM   11  C2  UNL     1       0.008 -10.806 -12.804  1.00  0.00     0.289 C 
HETATM   12  C3  UNL     1      -1.945 -11.701 -11.754  1.00  0.00     0.289 C 
ENDBRANCH   1   9
TORSDOF 3
ENDMDL
MODEL 2
REMARK VINA RESULT: -4.014811333      0.091      1.298
REMARK  3 active torsions:
REMARK  status: ('A' for Active; 'I' for Inactive)
REMARK    1  A    between atoms: N1_2  and  C4_5 
REMARK    2  A    between atoms: C5_6  and  C6_7 
REMARK    3  A    between atoms: C7_8  and  C8_9 
ROOT
HETATM    1  C4  UNL     1      -1.508 -11.942 -14.129  1.00  0.00     0.129 C 
HETATM    2  C5  UNL     1      -1.595 -12.705 -15.062  1.00  0.00     0.016 C 
ENDROOT
BRANCH   2   3
HETATM    3  C6  UNL     1      -1.680 -13.590 -16.168  1.00  0.00    -0.007 C 
HETATM    4  C7  UNL     1      -1.737 -14.335 -17.117  1.00  0.00    -0.048 C 
BRANCH   4   5
HETATM    5  C8  UNL     1      -1.789 -15.218 -18.264  1.00  0.00     0.147 C 
HETATM    6  N2  UNL     1      -1.704 -16.507 -18.139  1.00  0.00    -0.401 N 
ATOM      7  H22 UNL     1      -1.598 -16.892 -17.201  1.00  0.00     0.156 HD
ATOM      8  H21 UNL     1      -1.741 -17.129 -18.947  1.00  0.00     0.156 HD
ENDBRANCH   4   5
ENDBRANCH   2   3
BRANCH   1   9
HETATM    9  N1  UNL     1      -1.396 -11.032 -13.050  1.00  0.00    -0.013 N 
HETATM   10  C1  UNL     1      -1.933 -11.692 -11.866  1.00  0.00     0.289 C 
HETATM   11  C2  UNL     1      -2.159  -9.867 -13.391  1.00  0.00     0.289 C 
HETATM   12  C3  UNL     1      -0.011 -10.719 -12.776  1.00  0.00     0.289 C 
ENDBRANCH   1   9
TORSDOF 3
ENDMDL
MODEL 3
REMARK VINA RESULT: -4.012033931      0.090      1.323
REMARK  3 active torsions:
REMARK  status: ('A' for Active; 'I' for Inactive)
REMARK    1  A    between atoms: N1_2  and  C4_5 
REMARK    2  A    between atoms: C5_6  and  C6_7 
REMARK    3  A    between atoms: C7_8  and  C8_9 
ROOT
HETATM    1  C4  UNL     1      -1.506 -11.963 -14.104  1.00  0.00     0.129 C 
HETATM    2  C5  UNL     1      -1.583 -12.728 -15.036  1.00  0.00     0.016 C 
ENDROOT
BRANCH   2   3
HETATM    3  C6  UNL     1      -1.653 -13.617 -16.140  1.00  0.00    -0.007 C 
HETATM    4  C7  UNL     1      -1.706 -14.360 -17.091  1.00  0.00    -0.048 C 
BRANCH   4   5
HETATM    5  C8  UNL     1      -1.766 -15.235 -18.243  1.00  0.00     0.147 C 
HETATM    6  N2  UNL     1      -1.709 -16.526 -18.126  1.00  0.00    -0.401 N 
ATOM      7  H22 UNL     1      -1.620 -16.919 -17.189  1.00  0.00     0.156 HD
ATOM      8  H21 UNL     1      -1.751 -17.142 -18.938  1.00  0.00     0.156 HD
ENDBRANCH   4   5
ENDBRANCH   2   3
BRANCH   1   9
HETATM    9  N1  UNL     1      -1.403 -11.053 -13.023  1.00  0.00    -0.013 N 
HETATM   10  C1  UNL     1       0.015 -10.782 -12.815  1.00  0.00     0.289 C 
HETATM   11  C2  UNL     1      -1.990 -11.682 -11.877  1.00  0.00     0.289 C 
HETATM   12  C3  UNL     1      -2.038  -9.794 -13.344  1.00  0.00     0.289 C 
ENDBRANCH   1   9
TORSDOF 3
ENDMDL
MODEL 4
REMARK VINA RESULT: -4.008988141      1.193      1.870
REMARK  3 active torsions:
REMARK  status: ('A' for Active; 'I' for Inactive)
REMARK    1  A    between atoms: N1_2  and  C4_5 
REMARK    2  A    between atoms: C5_6  and  C6_7 
REMARK    3  A    between atoms: C7_8  and  C8_9 
ROOT
HETATM    1  C4  UNL     1      -0.481 -11.571 -14.755  1.00  0.00     0.129 C 
HETATM    2  C5  UNL     1      -0.868 -12.389 -15.556  1.00  0.00     0.016 C 
ENDROOT
BRANCH   2   3
HETATM    3  C6  UNL     1      -1.300 -13.350 -16.506  1.00  0.00    -0.007 C 
HETATM    4  C7  UNL     1      -1.651 -14.176 -17.315  1.00  0.00    -0.048 C 
BRANCH   4   5
HETATM    5  C8  UNL     1      -2.052 -15.174 -18.285  1.00  0.00     0.147 C 
HETATM    6  N2  UNL     1      -1.719 -16.422 -18.161  1.00  0.00    -0.401 N 
ATOM      7  H22 UNL     1      -1.158 -16.691 -17.353  1.00  0.00     0.156 HD
ATOM      8  H21 UNL     1      -2.001 -17.125 -18.844  1.00  0.00     0.156 HD
ENDBRANCH   4   5
ENDBRANCH   2   3
BRANCH   1   9
HETATM    9  N1  UNL     1      -0.012 -10.605 -13.831  1.00  0.00    -0.013 N 
HETATM   10  C1  UNL     1       1.445 -10.668 -13.837  1.00  0.00     0.289 C 
HETATM   11  C2  UNL     1      -0.546 -10.949 -12.545  1.00  0.00     0.289 C 
HETATM   12  C3  UNL     1      -0.387  -9.270 -14.241  1.00  0.00     0.289 C 
ENDBRANCH   1   9
TORSDOF 3
ENDMDL
MODEL 5
REMARK VINA RESULT: -4.002960310      1.155      1.265
REMARK  3 active torsions:
REMARK  status: ('A' for Active; 'I' for Inactive)
REMARK    1  A    between atoms: N1_2  and  C4_5 
REMARK    2  A    between atoms: C5_6  and  C6_7 
REMARK    3  A    between atoms: C7_8  and  C8_9 
ROOT
HETATM    1  C4  UNL     1      -0.481 -11.619 -14.733  1.00  0.00     0.129 C 
HETATM    2  C5  UNL     1      -0.866 -12.433 -15.539  1.00  0.00     0.016 C 
ENDROOT
BRANCH   2   3
HETATM    3  C6  UNL     1      -1.296 -13.389 -16.495  1.00  0.00    -0.007 C 
HETATM    4  C7  UNL     1      -1.644 -14.210 -17.310  1.00  0.00    -0.048 C 
BRANCH   4   5
HETATM    5  C8  UNL     1      -2.042 -15.199 -18.290  1.00  0.00     0.147 C 
HETATM    6  N2  UNL     1      -1.723 -16.451 -18.168  1.00  0.00    -0.401 N 
ATOM      7  H22 UNL     1      -1.177 -16.729 -17.353  1.00  0.00     0.156 HD
ATOM      8  H21 UNL     1      -2.002 -17.147 -18.858  1.00  0.00     0.156 HD
ENDBRANCH   4   5
ENDBRANCH   2   3
BRANCH   1   9
HETATM    9  N1  UNL     1      -0.013 -10.659 -13.802  1.00  0.00    -0.013 N 
HETATM   10  C1  UNL     1      -0.526  -9.360 -14.222  1.00  0.00     0.289 C 
HETATM   11  C2  UNL     1       1.420 -10.692 -13.836  1.00  0.00     0.289 C 
HETATM   12  C3  UNL     1      -0.537 -10.920 -12.480  1.00  0.00     0.289 C 
ENDBRANCH   1   9
TORSDOF 3
ENDMDL
