MODEL 1
REMARK VINA RESULT: -7.338406468      0.000      0.000
REMARK  18 active torsions:
REMARK  status: ('A' for Active; 'I' for Inactive)
REMARK    1  A    between atoms: C6_8  and  N2_9 
REMARK    2  A    between atoms: N2_9  and  C7_11 
REMARK    3  A    between atoms: C7_11  and  C8_12 
REMARK    4  A    between atoms: C8_12  and  C9_13 
REMARK       I    between atoms: C9_13  and  N3_15 
REMARK    5  A    between atoms: N3_15  and  C10_17 
REMARK    6  A    between atoms: C10_17  and  C11_18 
REMARK    7  A    between atoms: C11_18  and  C12_19 
REMARK    8  A    between atoms: C12_19  and  C13_20 
REMARK    9  A    between atoms: C13_20  and  C14_21 
REMARK   10  A    between atoms: C14_21  and  C15_22 
REMARK   11  A    between atoms: C15_22  and  C16_23 
REMARK   12  A    between atoms: C16_23  and  N4_24 
REMARK   13  A    between atoms: N4_24  and  C17_26 
REMARK   14  A    between atoms: C18_29  and  N6_30 
REMARK   15  A    between atoms: C19_35  and  N8_36 
REMARK   16  A    between atoms: N8_36  and  C20_38 
REMARK   17  A    between atoms: C20_38  and  C21_39 
REMARK   18  A    between atoms: C21_39  and  O2_40 
ROOT
HETATM    1  C14 UNL     1      14.487  36.952 -10.938  1.00  0.00     0.002 C 
ENDROOT
BRANCH   1   2
HETATM    2  C13 UNL     1      13.333  36.609 -11.735  1.00  0.00     0.000 C 
BRANCH   2   3
HETATM    3  C12 UNL     1      13.302  35.595 -12.767  1.00  0.00     0.002 C 
BRANCH   3   4
HETATM    4  C11 UNL     1      13.258  36.010 -14.178  1.00  0.00     0.020 C 
BRANCH   4   5
HETATM    5  C10 UNL     1      14.406  35.885 -15.074  1.00  0.00     0.122 C 
BRANCH   5   6
HETATM    6  N3  UNL     1      15.652  36.167 -14.346  1.00  0.00    -0.361 N 
HETATM    7  C9  UNL     1      16.252  37.427 -14.238  1.00  0.00     0.219 C 
HETATM    8  O1  UNL     1      15.768  38.447 -14.775  1.00  0.00    -0.274 OA
ATOM      9  H3  UNL     1      16.116  35.384 -13.884  1.00  0.00     0.162 HD
BRANCH   7  10
HETATM   10  C8  UNL     1      17.510  37.575 -13.461  1.00  0.00     0.123 C 
BRANCH  10  11
HETATM   11  C7  UNL     1      17.756  39.036 -13.203  1.00  0.00     0.147 C 
BRANCH  11  12
HETATM   12  N2  UNL     1      17.238  39.359 -11.911  1.00  0.00    -0.226 N 
ATOM     13  H2  UNL     1      17.721  38.947 -11.113  1.00  0.00     0.177 HD
BRANCH  12  14
HETATM   14  C6  UNL     1      16.241  40.102 -11.647  1.00  0.00     0.678 A 
HETATM   15  N1  UNL     1      15.871  40.521 -10.431  1.00  0.00    -0.196 N 
HETATM   16  C4  UNL     1      14.808  41.306 -10.219  1.00  0.00     0.024 A 
ATOM     17  H1  UNL     1      16.426  40.229  -9.626  1.00  0.00     0.184 HD
HETATM   18  C3  UNL     1      14.042  41.711 -11.307  1.00  0.00     0.050 A 
HETATM   19  C5  UNL     1      14.407  41.766  -8.865  1.00  0.00     0.068 C 
HETATM   20  C2  UNL     1      14.417  41.283 -12.561  1.00  0.00     0.024 A 
HETATM   21  C1  UNL     1      13.630  41.691 -13.747  1.00  0.00     0.068 C 
HETATM   22  N10 UNL     1      15.483  40.507 -12.700  1.00  0.00    -0.196 N 
ATOM     23  H10 UNL     1      15.744  40.201 -13.637  1.00  0.00     0.184 HD
ENDBRANCH  12  14
ENDBRANCH  11  12
ENDBRANCH  10  11
ENDBRANCH   7  10
ENDBRANCH   5   6
ENDBRANCH   4   5
ENDBRANCH   3   4
ENDBRANCH   2   3
ENDBRANCH   1   2
BRANCH   1  24
HETATM   24  C15 UNL     1      14.389  37.114  -9.474  1.00  0.00     0.020 C 
BRANCH  24  25
HETATM   25  C16 UNL     1      13.500  38.095  -8.843  1.00  0.00     0.138 C 
BRANCH  25  26
HETATM   26  N4  UNL     1      13.293  37.817  -7.418  1.00  0.00    -0.225 N 
ATOM     27  H4  UNL     1      13.819  37.067  -6.969  1.00  0.00     0.177 HD
BRANCH  26  28
HETATM   28  C17 UNL     1      12.462  38.501  -6.730  1.00  0.00     0.707 A 
HETATM   29  N5  UNL     1      12.038  39.725  -7.049  1.00  0.00    -0.022 N 
HETATM   30  C18 UNL     1      11.145  40.391  -6.255  1.00  0.00     0.705 A 
ATOM     31  H5  UNL     1      12.385  40.171  -7.899  1.00  0.00     0.203 HD
HETATM   32  N7  UNL     1      10.652  39.858  -5.128  1.00  0.00    -0.022 N 
HETATM   33  C19 UNL     1      11.072  38.625  -4.795  1.00  0.00     0.707 A 
ATOM     34  H7  UNL     1       9.986  40.367  -4.547  1.00  0.00     0.203 HD
HETATM   35  N9  UNL     1      11.943  37.979  -5.573  1.00  0.00    -0.022 N 
ATOM     36  H9  UNL     1      12.240  37.044  -5.292  1.00  0.00     0.203 HD
BRANCH  30  37
HETATM   37  N6  UNL     1      10.765  41.566  -6.601  1.00  0.00    -0.234 N 
ATOM     38  H62 UNL     1      11.455  42.317  -6.635  1.00  0.00     0.174 HD
ATOM     39  H61 UNL     1       9.784  41.718  -6.832  1.00  0.00     0.174 HD
ENDBRANCH  30  37
BRANCH  33  40
HETATM   40  N8  UNL     1      10.638  38.031  -3.710  1.00  0.00    -0.223 N 
ATOM     41  H8  UNL     1      11.283  37.445  -3.179  1.00  0.00     0.177 HD
BRANCH  40  42
HETATM   42  C20 UNL     1       9.293  38.175  -3.244  1.00  0.00     0.164 C 
BRANCH  42  43
HETATM   43  C21 UNL     1       9.188  37.444  -1.917  1.00  0.00     0.184 C 
BRANCH  43  44
HETATM   44  O2  UNL     1      10.319  36.621  -1.785  1.00  0.00    -0.399 OA
ATOM     45  H2  UNL     1      11.087  37.180  -1.759  1.00  0.00     0.209 HD
ENDBRANCH  43  44
ENDBRANCH  42  43
ENDBRANCH  40  42
ENDBRANCH  33  40
ENDBRANCH  26  28
ENDBRANCH  25  26
ENDBRANCH  24  25
ENDBRANCH   1  24
TORSDOF 18
ENDMDL
MODEL 2
REMARK VINA RESULT: -7.267367158      1.798      2.520
REMARK  18 active torsions:
REMARK  status: ('A' for Active; 'I' for Inactive)
REMARK    1  A    between atoms: C6_8  and  N2_9 
REMARK    2  A    between atoms: N2_9  and  C7_11 
REMARK    3  A    between atoms: C7_11  and  C8_12 
REMARK    4  A    between atoms: C8_12  and  C9_13 
REMARK       I    between atoms: C9_13  and  N3_15 
REMARK    5  A    between atoms: N3_15  and  C10_17 
REMARK    6  A    between atoms: C10_17  and  C11_18 
REMARK    7  A    between atoms: C11_18  and  C12_19 
REMARK    8  A    between atoms: C12_19  and  C13_20 
REMARK    9  A    between atoms: C13_20  and  C14_21 
REMARK   10  A    between atoms: C14_21  and  C15_22 
REMARK   11  A    between atoms: C15_22  and  C16_23 
REMARK   12  A    between atoms: C16_23  and  N4_24 
REMARK   13  A    between atoms: N4_24  and  C17_26 
REMARK   14  A    between atoms: C18_29  and  N6_30 
REMARK   15  A    between atoms: C19_35  and  N8_36 
REMARK   16  A    between atoms: N8_36  and  C20_38 
REMARK   17  A    between atoms: C20_38  and  C21_39 
REMARK   18  A    between atoms: C21_39  and  O2_40 
ROOT
HETATM    1  C14 UNL     1      13.706  37.706  -8.692  1.00  0.00     0.002 C 
ENDROOT
BRANCH   1   2
HETATM    2  C13 UNL     1      12.968  37.720  -9.933  1.00  0.00     0.000 C 
BRANCH   2   3
HETATM    3  C12 UNL     1      13.328  36.987 -11.127  1.00  0.00     0.002 C 
BRANCH   3   4
HETATM    4  C11 UNL     1      14.634  36.314 -11.188  1.00  0.00     0.020 C 
BRANCH   4   5
HETATM    5  C10 UNL     1      15.402  36.189 -12.426  1.00  0.00     0.122 C 
BRANCH   5   6
HETATM    6  N3  UNL     1      16.527  37.136 -12.424  1.00  0.00    -0.361 N 
HETATM    7  C9  UNL     1      16.464  38.459 -12.872  1.00  0.00     0.219 C 
HETATM    8  O1  UNL     1      15.416  38.961 -13.334  1.00  0.00    -0.274 OA
ATOM      9  H3  UNL     1      17.423  36.801 -12.068  1.00  0.00     0.162 HD
BRANCH   7  10
HETATM   10  C8  UNL     1      17.678  39.314 -12.804  1.00  0.00     0.123 C 
BRANCH  10  11
HETATM   11  C7  UNL     1      17.325  40.613 -12.133  1.00  0.00     0.147 C 
BRANCH  11  12
HETATM   12  N2  UNL     1      16.583  40.319 -10.947  1.00  0.00    -0.226 N 
ATOM     13  H2  UNL     1      16.557  39.341 -10.659  1.00  0.00     0.177 HD
BRANCH  12  14
HETATM   14  C6  UNL     1      15.950  41.141 -10.214  1.00  0.00     0.678 A 
HETATM   15  N1  UNL     1      16.485  42.164  -9.534  1.00  0.00    -0.196 N 
HETATM   16  C4  UNL     1      15.761  42.997  -8.777  1.00  0.00     0.024 A 
ATOM     17  H1  UNL     1      17.492  42.315  -9.596  1.00  0.00     0.184 HD
HETATM   18  C3  UNL     1      14.389  42.801  -8.683  1.00  0.00     0.050 A 
HETATM   19  C5  UNL     1      16.365  44.129  -8.028  1.00  0.00     0.068 C 
HETATM   20  C2  UNL     1      13.832  41.752  -9.379  1.00  0.00     0.024 A 
HETATM   21  C1  UNL     1      12.373  41.508  -9.307  1.00  0.00     0.068 C 
HETATM   22  N10 UNL     1      14.606  40.964 -10.112  1.00  0.00    -0.196 N 
ATOM     23  H10 UNL     1      14.175  40.192 -10.620  1.00  0.00     0.184 HD
ENDBRANCH  12  14
ENDBRANCH  11  12
ENDBRANCH  10  11
ENDBRANCH   7  10
ENDBRANCH   5   6
ENDBRANCH   4   5
ENDBRANCH   3   4
ENDBRANCH   2   3
ENDBRANCH   1   2
BRANCH   1  24
HETATM   24  C15 UNL     1      13.266  38.499  -7.527  1.00  0.00     0.020 C 
BRANCH  24  25
HETATM   25  C16 UNL     1      11.890  38.464  -7.020  1.00  0.00     0.138 C 
BRANCH  25  26
HETATM   26  N4  UNL     1      11.829  38.038  -5.617  1.00  0.00    -0.225 N 
ATOM     27  H4  UNL     1      12.377  37.234  -5.310  1.00  0.00     0.177 HD
BRANCH  26  28
HETATM   28  C17 UNL     1      11.100  38.661  -4.773  1.00  0.00     0.707 A 
HETATM   29  N5  UNL     1      10.327  39.708  -5.065  1.00  0.00    -0.022 N 
HETATM   30  C18 UNL     1       9.575  40.320  -4.100  1.00  0.00     0.705 A 
ATOM     31  H5  UNL     1      10.297  40.059  -6.023  1.00  0.00     0.203 HD
HETATM   32  N7  UNL     1       9.571  39.905  -2.825  1.00  0.00    -0.022 N 
HETATM   33  C19 UNL     1      10.346  38.850  -2.518  1.00  0.00     0.707 A 
ATOM     34  H7  UNL     1       9.004  40.371  -2.117  1.00  0.00     0.203 HD
HETATM   35  N9  UNL     1      11.078  38.256  -3.463  1.00  0.00    -0.022 N 
ATOM     36  H9  UNL     1      11.654  37.458  -3.196  1.00  0.00     0.203 HD
BRANCH  30  37
HETATM   37  N6  UNL     1       8.847  41.324  -4.426  1.00  0.00    -0.234 N 
ATOM     38  H62 UNL     1       7.886  41.159  -4.727  1.00  0.00     0.174 HD
ATOM     39  H61 UNL     1       9.248  42.260  -4.375  1.00  0.00     0.174 HD
ENDBRANCH  30  37
BRANCH  33  40
HETATM   40  N8  UNL     1      10.399  38.381  -1.295  1.00  0.00    -0.223 N 
ATOM     41  H8  UNL     1      11.275  38.455  -0.778  1.00  0.00     0.177 HD
BRANCH  40  42
HETATM   42  C20 UNL     1       9.272  37.769  -0.660  1.00  0.00     0.164 C 
BRANCH  42  43
HETATM   43  C21 UNL     1       9.343  36.278  -0.940  1.00  0.00     0.184 C 
BRANCH  43  44
HETATM   44  O2  UNL     1       8.351  35.966  -1.885  1.00  0.00    -0.399 OA
ATOM     45  H2  UNL     1       8.106  35.056  -1.763  1.00  0.00     0.209 HD
ENDBRANCH  43  44
ENDBRANCH  42  43
ENDBRANCH  40  42
ENDBRANCH  33  40
ENDBRANCH  26  28
ENDBRANCH  25  26
ENDBRANCH  24  25
ENDBRANCH   1  24
TORSDOF 18
ENDMDL
MODEL 3
REMARK VINA RESULT: -7.218960996      2.587     10.301
REMARK  18 active torsions:
REMARK  status: ('A' for Active; 'I' for Inactive)
REMARK    1  A    between atoms: C6_8  and  N2_9 
REMARK    2  A    between atoms: N2_9  and  C7_11 
REMARK    3  A    between atoms: C7_11  and  C8_12 
REMARK    4  A    between atoms: C8_12  and  C9_13 
REMARK       I    between atoms: C9_13  and  N3_15 
REMARK    5  A    between atoms: N3_15  and  C10_17 
REMARK    6  A    between atoms: C10_17  and  C11_18 
REMARK    7  A    between atoms: C11_18  and  C12_19 
REMARK    8  A    between atoms: C12_19  and  C13_20 
REMARK    9  A    between atoms: C13_20  and  C14_21 
REMARK   10  A    between atoms: C14_21  and  C15_22 
REMARK   11  A    between atoms: C15_22  and  C16_23 
REMARK   12  A    between atoms: C16_23  and  N4_24 
REMARK   13  A    between atoms: N4_24  and  C17_26 
REMARK   14  A    between atoms: C18_29  and  N6_30 
REMARK   15  A    between atoms: C19_35  and  N8_36 
REMARK   16  A    between atoms: N8_36  and  C20_38 
REMARK   17  A    between atoms: C20_38  and  C21_39 
REMARK   18  A    between atoms: C21_39  and  O2_40 
ROOT
HETATM    1  C14 UNL     1      13.395  37.996 -10.863  1.00  0.00     0.002 C 
ENDROOT
BRANCH   1   2
HETATM    2  C13 UNL     1      14.102  39.227 -11.126  1.00  0.00     0.000 C 
BRANCH   2   3
HETATM    3  C12 UNL     1      14.308  40.293 -10.169  1.00  0.00     0.002 C 
BRANCH   3   4
HETATM    4  C11 UNL     1      13.369  41.425 -10.146  1.00  0.00     0.020 C 
BRANCH   4   5
HETATM    5  C10 UNL     1      12.374  41.604  -9.090  1.00  0.00     0.122 C 
BRANCH   5   6
HETATM    6  N3  UNL     1      11.937  40.297  -8.576  1.00  0.00    -0.361 N 
HETATM    7  C9  UNL     1      11.618  40.024  -7.242  1.00  0.00     0.219 C 
HETATM    8  O1  UNL     1      11.688  40.893  -6.346  1.00  0.00    -0.274 OA
ATOM      9  H3  UNL     1      11.861  39.530  -9.245  1.00  0.00     0.162 HD
BRANCH   7  10
HETATM   10  C8  UNL     1      11.178  38.657  -6.859  1.00  0.00     0.123 C 
BRANCH  10  11
HETATM   11  C7  UNL     1      11.428  38.457  -5.390  1.00  0.00     0.147 C 
BRANCH  11  12
HETATM   12  N2  UNL     1      10.197  38.658  -4.692  1.00  0.00    -0.226 N 
ATOM     13  H2  UNL     1       9.402  38.963  -5.254  1.00  0.00     0.177 HD
BRANCH  12  14
HETATM   14  C6  UNL     1       9.983  38.499  -3.450  1.00  0.00     0.678 A 
HETATM   15  N1  UNL     1       9.748  37.333  -2.834  1.00  0.00    -0.196 N 
HETATM   16  C4  UNL     1       9.530  37.233  -1.517  1.00  0.00     0.024 A 
ATOM     17  H1  UNL     1       9.734  36.481  -3.395  1.00  0.00     0.184 HD
HETATM   18  C3  UNL     1       9.545  38.386  -0.742  1.00  0.00     0.050 A 
HETATM   19  C5  UNL     1       9.271  35.934  -0.844  1.00  0.00     0.068 C 
HETATM   20  C2  UNL     1       9.786  39.588  -1.369  1.00  0.00     0.024 A 
HETATM   21  C1  UNL     1       9.812  40.842  -0.580  1.00  0.00     0.068 C 
HETATM   22  N10 UNL     1       9.995  39.618  -2.677  1.00  0.00    -0.196 N 
ATOM     23  H10 UNL     1      10.172  40.517  -3.123  1.00  0.00     0.184 HD
ENDBRANCH  12  14
ENDBRANCH  11  12
ENDBRANCH  10  11
ENDBRANCH   7  10
ENDBRANCH   5   6
ENDBRANCH   4   5
ENDBRANCH   3   4
ENDBRANCH   2   3
ENDBRANCH   1   2
BRANCH   1  24
HETATM   24  C15 UNL     1      14.115  36.762 -10.490  1.00  0.00     0.020 C 
BRANCH  24  25
HETATM   25  C16 UNL     1      15.067  36.098 -11.386  1.00  0.00     0.138 C 
BRANCH  25  26
HETATM   26  N4  UNL     1      14.409  35.528 -12.567  1.00  0.00    -0.225 N 
ATOM     27  H4  UNL     1      13.888  34.655 -12.481  1.00  0.00     0.177 HD
BRANCH  26  28
HETATM   28  C17 UNL     1      14.479  36.109 -13.703  1.00  0.00     0.707 A 
HETATM   29  N5  UNL     1      15.164  37.229 -13.941  1.00  0.00    -0.022 N 
HETATM   30  C18 UNL     1      15.187  37.789 -15.189  1.00  0.00     0.705 A 
ATOM     31  H5  UNL     1      15.679  37.674 -13.181  1.00  0.00     0.203 HD
HETATM   32  N7  UNL     1      14.533  37.251 -16.227  1.00  0.00    -0.022 N 
HETATM   33  C19 UNL     1      13.838  36.122 -16.000  1.00  0.00     0.707 A 
ATOM     34  H7  UNL     1      14.560  37.680 -17.153  1.00  0.00     0.203 HD
HETATM   35  N9  UNL     1      13.819  35.579 -14.781  1.00  0.00    -0.022 N 
ATOM     36  H9  UNL     1      13.283  34.723 -14.643  1.00  0.00     0.203 HD
BRANCH  30  37
HETATM   37  N6  UNL     1      15.859  38.866 -15.372  1.00  0.00    -0.234 N 
ATOM     38  H62 UNL     1      16.667  39.050 -14.776  1.00  0.00     0.174 HD
ATOM     39  H61 UNL     1      15.568  39.508 -16.109  1.00  0.00     0.174 HD
ENDBRANCH  30  37
BRANCH  33  40
HETATM   40  N8  UNL     1      13.171  35.531 -16.961  1.00  0.00    -0.223 N 
ATOM     41  H8  UNL     1      12.162  35.418 -16.862  1.00  0.00     0.177 HD
BRANCH  40  42
HETATM   42  C20 UNL     1      13.808  35.039 -18.145  1.00  0.00     0.164 C 
BRANCH  42  43
HETATM   43  C21 UNL     1      14.524  33.751 -17.777  1.00  0.00     0.184 C 
BRANCH  43  44
HETATM   44  O2  UNL     1      13.689  33.022 -16.915  1.00  0.00    -0.399 OA
ATOM     45  H2  UNL     1      13.048  33.622 -16.551  1.00  0.00     0.209 HD
ENDBRANCH  43  44
ENDBRANCH  42  43
ENDBRANCH  40  42
ENDBRANCH  33  40
ENDBRANCH  26  28
ENDBRANCH  25  26
ENDBRANCH  24  25
ENDBRANCH   1  24
TORSDOF 18
ENDMDL
MODEL 4
REMARK VINA RESULT: -7.192832194      1.290      2.087
REMARK  18 active torsions:
REMARK  status: ('A' for Active; 'I' for Inactive)
REMARK    1  A    between atoms: C6_8  and  N2_9 
REMARK    2  A    between atoms: N2_9  and  C7_11 
REMARK    3  A    between atoms: C7_11  and  C8_12 
REMARK    4  A    between atoms: C8_12  and  C9_13 
REMARK       I    between atoms: C9_13  and  N3_15 
REMARK    5  A    between atoms: N3_15  and  C10_17 
REMARK    6  A    between atoms: C10_17  and  C11_18 
REMARK    7  A    between atoms: C11_18  and  C12_19 
REMARK    8  A    between atoms: C12_19  and  C13_20 
REMARK    9  A    between atoms: C13_20  and  C14_21 
REMARK   10  A    between atoms: C14_21  and  C15_22 
REMARK   11  A    between atoms: C15_22  and  C16_23 
REMARK   12  A    between atoms: C16_23  and  N4_24 
REMARK   13  A    between atoms: N4_24  and  C17_26 
REMARK   14  A    between atoms: C18_29  and  N6_30 
REMARK   15  A    between atoms: C19_35  and  N8_36 
REMARK   16  A    between atoms: N8_36  and  C20_38 
REMARK   17  A    between atoms: C20_38  and  C21_39 
REMARK   18  A    between atoms: C21_39  and  O2_40 
ROOT
HETATM    1  C14 UNL     1      13.394  38.051  -8.776  1.00  0.00     0.002 C 
ENDROOT
BRANCH   1   2
HETATM    2  C13 UNL     1      13.020  37.758 -10.140  1.00  0.00     0.000 C 
BRANCH   2   3
HETATM    3  C12 UNL     1      13.767  36.914 -11.047  1.00  0.00     0.002 C 
BRANCH   3   4
HETATM    4  C11 UNL     1      13.038  36.095 -12.028  1.00  0.00     0.020 C 
BRANCH   4   5
HETATM    5  C10 UNL     1      13.592  35.750 -13.336  1.00  0.00     0.122 C 
BRANCH   5   6
HETATM    6  N3  UNL     1      15.056  35.890 -13.321  1.00  0.00    -0.361 N 
HETATM    7  C9  UNL     1      15.789  36.747 -14.149  1.00  0.00     0.219 C 
HETATM    8  O1  UNL     1      15.245  37.481 -15.002  1.00  0.00    -0.274 OA
ATOM      9  H3  UNL     1      15.577  35.318 -12.656  1.00  0.00     0.162 HD
BRANCH   7  10
HETATM   10  C8  UNL     1      17.269  36.798 -14.023  1.00  0.00     0.123 C 
BRANCH  10  11
HETATM   11  C7  UNL     1      17.683  38.207 -13.698  1.00  0.00     0.147 C 
BRANCH  11  12
HETATM   12  N2  UNL     1      17.147  38.550 -12.418  1.00  0.00    -0.226 N 
ATOM     13  H2  UNL     1      17.502  38.021 -11.622  1.00  0.00     0.177 HD
BRANCH  12  14
HETATM   14  C6  UNL     1      16.278  39.441 -12.164  1.00  0.00     0.678 A 
HETATM   15  N1  UNL     1      16.054  40.006 -10.970  1.00  0.00    -0.196 N 
HETATM   16  C4  UNL     1      15.120  40.943 -10.768  1.00  0.00     0.024 A 
ATOM     17  H1  UNL     1      16.623  39.708 -10.178  1.00  0.00     0.184 HD
HETATM   18  C3  UNL     1      14.337  41.356 -11.839  1.00  0.00     0.050 A 
HETATM   19  C5  UNL     1      14.882  41.563  -9.439  1.00  0.00     0.068 C 
HETATM   20  C2  UNL     1      14.562  40.779 -13.069  1.00  0.00     0.024 A 
HETATM   21  C1  UNL     1      13.750  41.192 -14.238  1.00  0.00     0.068 C 
HETATM   22  N10 UNL     1      15.504  39.857 -13.201  1.00  0.00    -0.196 N 
ATOM     23  H10 UNL     1      15.655  39.441 -14.120  1.00  0.00     0.184 HD
ENDBRANCH  12  14
ENDBRANCH  11  12
ENDBRANCH  10  11
ENDBRANCH   7  10
ENDBRANCH   5   6
ENDBRANCH   4   5
ENDBRANCH   3   4
ENDBRANCH   2   3
ENDBRANCH   1   2
BRANCH   1  24
HETATM   24  C15 UNL     1      12.622  39.008  -7.958  1.00  0.00     0.020 C 
BRANCH  24  25
HETATM   25  C16 UNL     1      11.876  38.605  -6.761  1.00  0.00     0.138 C 
BRANCH  25  26
HETATM   26  N4  UNL     1      11.663  39.727  -5.839  1.00  0.00    -0.225 N 
ATOM     27  H4  UNL     1      12.180  40.596  -5.976  1.00  0.00     0.177 HD
BRANCH  26  28
HETATM   28  C17 UNL     1      10.839  39.630  -4.868  1.00  0.00     0.707 A 
HETATM   29  N5  UNL     1       9.702  40.320  -4.766  1.00  0.00    -0.022 N 
HETATM   30  C18 UNL     1       8.873  40.156  -3.689  1.00  0.00     0.705 A 
ATOM     31  H5  UNL     1       9.446  40.978  -5.502  1.00  0.00     0.203 HD
HETATM   32  N7  UNL     1       9.154  39.307  -2.692  1.00  0.00    -0.022 N 
HETATM   33  C19 UNL     1      10.298  38.606  -2.783  1.00  0.00     0.707 A 
ATOM     34  H7  UNL     1       8.526  39.196  -1.895  1.00  0.00     0.203 HD
HETATM   35  N9  UNL     1      11.103  38.768  -3.835  1.00  0.00    -0.022 N 
ATOM     36  H9  UNL     1      11.962  38.220  -3.873  1.00  0.00     0.203 HD
BRANCH  30  37
HETATM   37  N6  UNL     1       7.789  40.840  -3.632  1.00  0.00    -0.234 N 
ATOM     38  H62 UNL     1       7.018  40.592  -4.252  1.00  0.00     0.174 HD
ATOM     39  H61 UNL     1       7.729  41.613  -2.970  1.00  0.00     0.174 HD
ENDBRANCH  30  37
BRANCH  33  40
HETATM   40  N8  UNL     1      10.647  37.753  -1.851  1.00  0.00    -0.223 N 
ATOM     41  H8  UNL     1      11.528  37.249  -1.950  1.00  0.00     0.177 HD
BRANCH  40  42
HETATM   42  C20 UNL     1       9.836  37.504  -0.698  1.00  0.00     0.164 C 
BRANCH  42  43
HETATM   43  C21 UNL     1       9.208  36.132  -0.868  1.00  0.00     0.184 C 
BRANCH  43  44
HETATM   44  O2  UNL     1       8.385  36.170  -2.006  1.00  0.00    -0.399 OA
ATOM     45  H2  UNL     1       7.585  36.627  -1.774  1.00  0.00     0.209 HD
ENDBRANCH  43  44
ENDBRANCH  42  43
ENDBRANCH  40  42
ENDBRANCH  33  40
ENDBRANCH  26  28
ENDBRANCH  25  26
ENDBRANCH  24  25
ENDBRANCH   1  24
TORSDOF 18
ENDMDL
MODEL 5
REMARK VINA RESULT: -7.091231722      2.800      4.035
REMARK  18 active torsions:
REMARK  status: ('A' for Active; 'I' for Inactive)
REMARK    1  A    between atoms: C6_8  and  N2_9 
REMARK    2  A    between atoms: N2_9  and  C7_11 
REMARK    3  A    between atoms: C7_11  and  C8_12 
REMARK    4  A    between atoms: C8_12  and  C9_13 
REMARK       I    between atoms: C9_13  and  N3_15 
REMARK    5  A    between atoms: N3_15  and  C10_17 
REMARK    6  A    between atoms: C10_17  and  C11_18 
REMARK    7  A    between atoms: C11_18  and  C12_19 
REMARK    8  A    between atoms: C12_19  and  C13_20 
REMARK    9  A    between atoms: C13_20  and  C14_21 
REMARK   10  A    between atoms: C14_21  and  C15_22 
REMARK   11  A    between atoms: C15_22  and  C16_23 
REMARK   12  A    between atoms: C16_23  and  N4_24 
REMARK   13  A    between atoms: N4_24  and  C17_26 
REMARK   14  A    between atoms: C18_29  and  N6_30 
REMARK   15  A    between atoms: C19_35  and  N8_36 
REMARK   16  A    between atoms: N8_36  and  C20_38 
REMARK   17  A    between atoms: C20_38  and  C21_39 
REMARK   18  A    between atoms: C21_39  and  O2_40 
ROOT
HETATM    1  C14 UNL     1      13.388  36.637 -11.275  1.00  0.00     0.002 C 
ENDROOT
BRANCH   1   2
HETATM    2  C13 UNL     1      13.598  37.165 -12.602  1.00  0.00     0.000 C 
BRANCH   2   3
HETATM    3  C12 UNL     1      14.583  38.163 -12.958  1.00  0.00     0.002 C 
BRANCH   3   4
HETATM    4  C11 UNL     1      14.175  39.312 -13.781  1.00  0.00     0.020 C 
BRANCH   4   5
HETATM    5  C10 UNL     1      14.535  40.689 -13.448  1.00  0.00     0.122 C 
BRANCH   5   6
HETATM    6  N3  UNL     1      13.863  41.105 -12.207  1.00  0.00    -0.361 N 
HETATM    7  C9  UNL     1      14.507  41.367 -10.994  1.00  0.00     0.219 C 
HETATM    8  O1  UNL     1      15.745  41.258 -10.856  1.00  0.00    -0.274 OA
ATOM      9  H3  UNL     1      12.848  41.210 -12.234  1.00  0.00     0.162 HD
BRANCH   7  10
HETATM   10  C8  UNL     1      13.707  41.791  -9.815  1.00  0.00     0.123 C 
BRANCH  10  11
HETATM   11  C7  UNL     1      14.130  43.175  -9.409  1.00  0.00     0.147 C 
BRANCH  11  12
HETATM   12  N2  UNL     1      15.201  43.061  -8.469  1.00  0.00    -0.226 N 
ATOM     13  H2  UNL     1      15.100  42.343  -7.752  1.00  0.00     0.177 HD
BRANCH  12  14
HETATM   14  C6  UNL     1      16.264  43.755  -8.429  1.00  0.00     0.678 A 
HETATM   15  N1  UNL     1      16.543  44.718  -7.541  1.00  0.00    -0.196 N 
HETATM   16  C4  UNL     1      17.686  45.415  -7.552  1.00  0.00     0.024 A 
ATOM     17  H1  UNL     1      15.851  44.932  -6.822  1.00  0.00     0.184 HD
HETATM   18  C3  UNL     1      18.636  45.135  -8.528  1.00  0.00     0.050 A 
HETATM   19  C5  UNL     1      17.985  46.481  -6.562  1.00  0.00     0.068 C 
HETATM   20  C2  UNL     1      18.355  44.146  -9.444  1.00  0.00     0.024 A 
HETATM   21  C1  UNL     1      19.340  43.815 -10.499  1.00  0.00     0.068 C 
HETATM   22  N10 UNL     1      17.203  43.493  -9.376  1.00  0.00    -0.196 N 
ATOM     23  H10 UNL     1      17.014  42.764 -10.063  1.00  0.00     0.184 HD
ENDBRANCH  12  14
ENDBRANCH  11  12
ENDBRANCH  10  11
ENDBRANCH   7  10
ENDBRANCH   5   6
ENDBRANCH   4   5
ENDBRANCH   3   4
ENDBRANCH   2   3
ENDBRANCH   1   2
BRANCH   1  24
HETATM   24  C15 UNL     1      14.271  37.010 -10.152  1.00  0.00     0.020 C 
BRANCH  24  25
HETATM   25  C16 UNL     1      13.984  38.138  -9.260  1.00  0.00     0.138 C 
BRANCH  25  26
HETATM   26  N4  UNL     1      13.498  37.696  -7.948  1.00  0.00    -0.225 N 
ATOM     27  H4  UNL     1      13.758  36.773  -7.600  1.00  0.00     0.177 HD
BRANCH  26  28
HETATM   28  C17 UNL     1      12.753  38.451  -7.236  1.00  0.00     0.707 A 
HETATM   29  N5  UNL     1      12.397  39.694  -7.565  1.00  0.00    -0.022 N 
HETATM   30  C18 UNL     1      11.594  40.437  -6.743  1.00  0.00     0.705 A 
ATOM     31  H5  UNL     1      12.727  40.096  -8.443  1.00  0.00     0.203 HD
HETATM   32  N7  UNL     1      11.127  39.964  -5.579  1.00  0.00    -0.022 N 
HETATM   33  C19 UNL     1      11.480  38.713  -5.236  1.00  0.00     0.707 A 
ATOM     34  H7  UNL     1      10.529  40.531  -4.978  1.00  0.00     0.203 HD
HETATM   35  N9  UNL     1      12.263  37.991  -6.041  1.00  0.00    -0.022 N 
ATOM     36  H9  UNL     1      12.510  37.045  -5.751  1.00  0.00     0.203 HD
BRANCH  30  37
HETATM   37  N6  UNL     1      11.276  41.628  -7.100  1.00  0.00    -0.234 N 
ATOM     38  H62 UNL     1      11.626  41.985  -7.989  1.00  0.00     0.174 HD
ATOM     39  H61 UNL     1      10.684  42.184  -6.484  1.00  0.00     0.174 HD
ENDBRANCH  30  37
BRANCH  33  40
HETATM   40  N8  UNL     1      11.066  38.175  -4.115  1.00  0.00    -0.223 N 
ATOM     41  H8  UNL     1      11.524  37.328  -3.777  1.00  0.00     0.177 HD
BRANCH  40  42
HETATM   42  C20 UNL     1       9.994  38.733  -3.348  1.00  0.00     0.164 C 
BRANCH  42  43
HETATM   43  C21 UNL     1      10.449  38.789  -1.900  1.00  0.00     0.184 C 
BRANCH  43  44
HETATM   44  O2  UNL     1      11.809  39.140  -1.886  1.00  0.00    -0.399 OA
ATOM     45  H2  UNL     1      12.239  38.673  -2.593  1.00  0.00     0.209 HD
ENDBRANCH  43  44
ENDBRANCH  42  43
ENDBRANCH  40  42
ENDBRANCH  33  40
ENDBRANCH  26  28
ENDBRANCH  25  26
ENDBRANCH  24  25
ENDBRANCH   1  24
TORSDOF 18
ENDMDL
