MODEL 1
REMARK VINA RESULT: -7.973341649      0.000      0.000
REMARK  17 active torsions:
REMARK  status: ('A' for Active; 'I' for Inactive)
REMARK    1  A    between atoms: C1_2  and  C2_4 
REMARK    2  A    between atoms: C2_4  and  C3_5 
REMARK    3  A    between atoms: C3_5  and  C4_6 
REMARK    4  A    between atoms: C4_6  and  C5_7 
REMARK    5  A    between atoms: C5_7  and  C6_8 
REMARK    6  A    between atoms: C6_8  and  C7_9 
REMARK    7  A    between atoms: C7_9  and  C8_10 
REMARK    8  A    between atoms: C8_10  and  C9_11 
REMARK    9  A    between atoms: C9_11  and  C10_12 
REMARK   10  A    between atoms: C10_12  and  N1_13 
REMARK   11  A    between atoms: N1_13  and  C11_15 
REMARK   12  A    between atoms: N3_19  and  C13_21 
REMARK   13  A    between atoms: C13_21  and  C14_22 
REMARK   14  A    between atoms: C15_23  and  O3_24 
REMARK   15  A    between atoms: C17_27  and  O4_28 
REMARK   16  A    between atoms: C18_30  and  C19_31 
REMARK   17  A    between atoms: C19_31  and  O5_32 
ROOT
HETATM    1  C11 UNL     1      11.561  38.745  -5.677  1.00  0.00     0.681 A 
HETATM    2  N2  UNL     1      12.136  38.207  -6.746  1.00  0.00    -0.174 N 
ATOM      3  H2  UNL     1      12.447  37.237  -6.687  1.00  0.00     0.186 HD
HETATM    4  C12 UNL     1      12.335  38.876  -7.921  1.00  0.00     0.151 A 
HETATM    5  N3  UNL     1      12.896  38.249  -8.866  1.00  0.00    -0.353 N 
ATOM      6  H3  UNL     1      13.134  37.289  -8.617  1.00  0.00     0.166 HD
HETATM    7  C20 UNL     1      11.910  40.177  -7.982  1.00  0.00     0.123 A 
HETATM    8  N4  UNL     1      11.948  41.105  -8.965  1.00  0.00    -0.346 N 
ATOM      9  H4  UNL     1      12.336  40.966  -9.898  1.00  0.00     0.167 HD
HETATM   10  C21 UNL     1      11.393  42.237  -8.511  1.00  0.00     0.182 A 
HETATM   11  N5  UNL     1      11.008  42.016  -7.245  1.00  0.00    -0.336 N 
ATOM     12  H5  UNL     1      10.552  42.701  -6.642  1.00  0.00     0.168 HD
HETATM   13  C22 UNL     1      11.314  40.746  -6.888  1.00  0.00     0.152 A 
HETATM   14  N6  UNL     1      11.151  40.032  -5.769  1.00  0.00    -0.174 N 
ATOM     15  H6  UNL     1      10.706  40.469  -4.963  1.00  0.00     0.186 HD
ENDROOT
BRANCH   5  16
HETATM   16  C13 UNL     1      13.263  38.574 -10.175  1.00  0.00     0.070 C 
BRANCH  16  17
HETATM   17  C14 UNL     1      13.297  37.419 -11.140  1.00  0.00     0.061 C 
HETATM   18  C15 UNL     1      14.174  36.302 -10.696  1.00  0.00     0.130 C 
HETATM   19  C16 UNL     1      14.723  35.674 -11.931  1.00  0.00     0.064 C 
HETATM   20  C17 UNL     1      14.105  36.429 -13.106  1.00  0.00     0.127 C 
HETATM   21  C18 UNL     1      13.708  37.766 -12.514  1.00  0.00     0.049 C 
BRANCH  18  22
HETATM   22  O3  UNL     1      15.150  36.683  -9.775  1.00  0.00    -0.395 OA
ATOM     23  H3  UNL     1      15.932  36.143  -9.798  1.00  0.00     0.210 HD
ENDBRANCH  18  22
BRANCH  20  24
HETATM   24  O4  UNL     1      12.964  35.753 -13.505  1.00  0.00    -0.395 OA
ATOM     25  H4  UNL     1      12.947  34.912 -13.065  1.00  0.00     0.210 HD
ENDBRANCH  20  24
BRANCH  21  26
HETATM   26  C19 UNL     1      14.878  38.688 -12.660  1.00  0.00     0.172 C 
BRANCH  26  27
HETATM   27  O5  UNL     1      15.323  38.746 -13.977  1.00  0.00    -0.400 OA
ATOM     28  H5  UNL     1      15.383  37.881 -14.366  1.00  0.00     0.209 HD
ENDBRANCH  26  27
ENDBRANCH  21  26
ENDBRANCH  16  17
ENDBRANCH   5  16
BRANCH   1  29
HETATM   29  N1  UNL     1      11.368  38.123  -4.560  1.00  0.00    -0.226 N 
ATOM     30  H1  UNL     1      11.732  37.171  -4.520  1.00  0.00     0.177 HD
BRANCH  29  31
HETATM   31  C10 UNL     1      10.726  38.574  -3.388  1.00  0.00     0.138 C 
BRANCH  31  32
HETATM   32  C9  UNL     1       9.513  37.753  -3.002  1.00  0.00     0.020 C 
BRANCH  32  33
HETATM   33  C8  UNL     1       9.243  37.671  -1.553  1.00  0.00     0.002 C 
BRANCH  33  34
HETATM   34  C7  UNL     1      10.292  38.440  -0.754  1.00  0.00     0.004 C 
BRANCH  34  35
HETATM   35  C6  UNL     1       9.725  39.612  -0.065  1.00  0.00     0.027 C 
BRANCH  35  36
HETATM   36  C5  UNL     1       9.854  40.896  -0.775  1.00  0.00    -0.031 C 
BRANCH  36  37
HETATM   37  C4  UNL     1       8.700  41.659  -1.231  1.00  0.00    -0.030 C 
BRANCH  37  38
HETATM   38  C3  UNL     1       8.831  42.882  -2.041  1.00  0.00     0.037 C 
BRANCH  38  39
HETATM   39  C2  UNL     1       7.889  42.860  -3.232  1.00  0.00     0.117 C 
BRANCH  39  40
HETATM   40  C1  UNL     1       8.569  42.336  -4.434  1.00  0.00     0.172 C 
HETATM   41  O1  UNL     1       8.642  41.108  -4.622  1.00  0.00    -0.648 OA
HETATM   42  O2  UNL     1       9.119  43.209  -5.341  1.00  0.00    -0.648 OA
ENDBRANCH  39  40
ENDBRANCH  38  39
ENDBRANCH  37  38
ENDBRANCH  36  37
ENDBRANCH  35  36
ENDBRANCH  34  35
ENDBRANCH  33  34
ENDBRANCH  32  33
ENDBRANCH  31  32
ENDBRANCH  29  31
ENDBRANCH   1  29
TORSDOF 17
ENDMDL
MODEL 2
REMARK VINA RESULT: -7.811207513      0.844      1.251
REMARK  17 active torsions:
REMARK  status: ('A' for Active; 'I' for Inactive)
REMARK    1  A    between atoms: C1_2  and  C2_4 
REMARK    2  A    between atoms: C2_4  and  C3_5 
REMARK    3  A    between atoms: C3_5  and  C4_6 
REMARK    4  A    between atoms: C4_6  and  C5_7 
REMARK    5  A    between atoms: C5_7  and  C6_8 
REMARK    6  A    between atoms: C6_8  and  C7_9 
REMARK    7  A    between atoms: C7_9  and  C8_10 
REMARK    8  A    between atoms: C8_10  and  C9_11 
REMARK    9  A    between atoms: C9_11  and  C10_12 
REMARK   10  A    between atoms: C10_12  and  N1_13 
REMARK   11  A    between atoms: N1_13  and  C11_15 
REMARK   12  A    between atoms: N3_19  and  C13_21 
REMARK   13  A    between atoms: C13_21  and  C14_22 
REMARK   14  A    between atoms: C15_23  and  O3_24 
REMARK   15  A    between atoms: C17_27  and  O4_28 
REMARK   16  A    between atoms: C18_30  and  C19_31 
REMARK   17  A    between atoms: C19_31  and  O5_32 
ROOT
HETATM    1  C11 UNL     1      11.367  39.037  -5.318  1.00  0.00     0.681 A 
HETATM    2  N2  UNL     1      11.838  38.363  -6.360  1.00  0.00    -0.174 N 
ATOM      3  H2  UNL     1      12.082  37.381  -6.226  1.00  0.00     0.186 HD
HETATM    4  C12 UNL     1      12.014  38.906  -7.601  1.00  0.00     0.151 A 
HETATM    5  N3  UNL     1      12.471  38.155  -8.512  1.00  0.00    -0.353 N 
ATOM      6  H3  UNL     1      12.654  37.206  -8.186  1.00  0.00     0.166 HD
HETATM    7  C20 UNL     1      11.679  40.225  -7.763  1.00  0.00     0.123 A 
HETATM    8  N4  UNL     1      11.725  41.055  -8.829  1.00  0.00    -0.346 N 
ATOM      9  H4  UNL     1      12.045  40.803  -9.764  1.00  0.00     0.167 HD
HETATM   10  C21 UNL     1      11.280  42.262  -8.456  1.00  0.00     0.182 A 
HETATM   11  N5  UNL     1      10.955  42.186  -7.156  1.00  0.00    -0.336 N 
ATOM     12  H5  UNL     1      10.587  42.955  -6.597  1.00  0.00     0.168 HD
HETATM   13  C22 UNL     1      11.192  40.934  -6.697  1.00  0.00     0.152 A 
HETATM   14  N6  UNL     1      11.046  40.338  -5.509  1.00  0.00    -0.174 N 
ATOM     15  H6  UNL     1      10.681  40.879  -4.726  1.00  0.00     0.186 HD
ENDROOT
BRANCH   5  16
HETATM   16  C13 UNL     1      12.781  38.332  -9.863  1.00  0.00     0.070 C 
BRANCH  16  17
HETATM   17  C14 UNL     1      13.173  37.081 -10.603  1.00  0.00     0.061 C 
HETATM   18  C15 UNL     1      14.446  36.480 -10.118  1.00  0.00     0.130 C 
HETATM   19  C16 UNL     1      15.087  35.830 -11.296  1.00  0.00     0.064 C 
HETATM   20  C17 UNL     1      14.128  36.031 -12.469  1.00  0.00     0.127 C 
HETATM   21  C18 UNL     1      13.302  37.234 -12.065  1.00  0.00     0.049 C 
BRANCH  18  22
HETATM   22  O3  UNL     1      15.276  37.380  -9.449  1.00  0.00    -0.395 OA
ATOM     23  H3  UNL     1      15.335  37.225  -8.514  1.00  0.00     0.210 HD
ENDBRANCH  18  22
BRANCH  20  24
HETATM   24  O4  UNL     1      13.305  34.921 -12.553  1.00  0.00    -0.395 OA
ATOM     25  H4  UNL     1      13.340  34.590 -13.442  1.00  0.00     0.210 HD
ENDBRANCH  20  24
BRANCH  21  26
HETATM   26  C19 UNL     1      14.012  38.455 -12.558  1.00  0.00     0.172 C 
BRANCH  26  27
HETATM   27  O5  UNL     1      13.979  38.541 -13.947  1.00  0.00    -0.400 OA
ATOM     28  H5  UNL     1      14.089  37.690 -14.354  1.00  0.00     0.209 HD
ENDBRANCH  26  27
ENDBRANCH  21  26
ENDBRANCH  16  17
ENDBRANCH   5  16
BRANCH   1  29
HETATM   29  N1  UNL     1      11.198  38.535  -4.138  1.00  0.00    -0.226 N 
ATOM     30  H1  UNL     1      12.046  38.432  -3.580  1.00  0.00     0.177 HD
BRANCH  29  31
HETATM   31  C10 UNL     1      10.007  38.109  -3.513  1.00  0.00     0.138 C 
BRANCH  31  32
HETATM   32  C9  UNL     1       9.370  39.164  -2.633  1.00  0.00     0.020 C 
BRANCH  32  33
HETATM   33  C8  UNL     1       9.987  39.330  -1.302  1.00  0.00     0.002 C 
BRANCH  33  34
HETATM   34  C7  UNL     1       9.647  40.693  -0.705  1.00  0.00     0.004 C 
BRANCH  34  35
HETATM   35  C6  UNL     1       9.199  41.657  -1.724  1.00  0.00     0.027 C 
BRANCH  35  36
HETATM   36  C5  UNL     1       8.243  42.679  -1.263  1.00  0.00    -0.031 C 
BRANCH  36  37
HETATM   37  C4  UNL     1       7.214  43.237  -2.130  1.00  0.00    -0.030 C 
BRANCH  37  38
HETATM   38  C3  UNL     1       6.542  42.442  -3.172  1.00  0.00     0.037 C 
BRANCH  38  39
HETATM   39  C2  UNL     1       6.772  43.030  -4.552  1.00  0.00     0.117 C 
BRANCH  39  40
HETATM   40  C1  UNL     1       8.148  42.763  -5.018  1.00  0.00     0.172 C 
HETATM   41  O1  UNL     1       8.594  41.601  -5.006  1.00  0.00    -0.648 OA
HETATM   42  O2  UNL     1       8.931  43.800  -5.462  1.00  0.00    -0.648 OA
ENDBRANCH  39  40
ENDBRANCH  38  39
ENDBRANCH  37  38
ENDBRANCH  36  37
ENDBRANCH  35  36
ENDBRANCH  34  35
ENDBRANCH  33  34
ENDBRANCH  32  33
ENDBRANCH  31  32
ENDBRANCH  29  31
ENDBRANCH   1  29
TORSDOF 17
ENDMDL
MODEL 3
REMARK VINA RESULT: -7.767039944      1.751      2.713
REMARK  17 active torsions:
REMARK  status: ('A' for Active; 'I' for Inactive)
REMARK    1  A    between atoms: C1_2  and  C2_4 
REMARK    2  A    between atoms: C2_4  and  C3_5 
REMARK    3  A    between atoms: C3_5  and  C4_6 
REMARK    4  A    between atoms: C4_6  and  C5_7 
REMARK    5  A    between atoms: C5_7  and  C6_8 
REMARK    6  A    between atoms: C6_8  and  C7_9 
REMARK    7  A    between atoms: C7_9  and  C8_10 
REMARK    8  A    between atoms: C8_10  and  C9_11 
REMARK    9  A    between atoms: C9_11  and  C10_12 
REMARK   10  A    between atoms: C10_12  and  N1_13 
REMARK   11  A    between atoms: N1_13  and  C11_15 
REMARK   12  A    between atoms: N3_19  and  C13_21 
REMARK   13  A    between atoms: C13_21  and  C14_22 
REMARK   14  A    between atoms: C15_23  and  O3_24 
REMARK   15  A    between atoms: C17_27  and  O4_28 
REMARK   16  A    between atoms: C18_30  and  C19_31 
REMARK   17  A    between atoms: C19_31  and  O5_32 
ROOT
HETATM    1  C11 UNL     1      11.785  38.887  -6.049  1.00  0.00     0.681 A 
HETATM    2  N2  UNL     1      12.182  38.264  -7.152  1.00  0.00    -0.174 N 
ATOM      3  H2  UNL     1      12.274  37.248  -7.122  1.00  0.00     0.186 HD
HETATM    4  C12 UNL     1      12.475  38.903  -8.324  1.00  0.00     0.151 A 
HETATM    5  N3  UNL     1      12.843  38.192  -9.304  1.00  0.00    -0.353 N 
ATOM      6  H3  UNL     1      12.874  37.198  -9.081  1.00  0.00     0.166 HD
HETATM    7  C20 UNL     1      12.345  40.267  -8.345  1.00  0.00     0.123 A 
HETATM    8  N4  UNL     1      12.546  41.188  -9.313  1.00  0.00    -0.346 N 
ATOM      9  H4  UNL     1      12.853  40.991 -10.265  1.00  0.00     0.167 HD
HETATM   10  C21 UNL     1      12.274  42.403  -8.816  1.00  0.00     0.182 A 
HETATM   11  N5  UNL     1      11.902  42.239  -7.537  1.00  0.00    -0.336 N 
ATOM     12  H5  UNL     1      11.634  42.992  -6.903  1.00  0.00     0.168 HD
HETATM   13  C22 UNL     1      11.936  40.924  -7.215  1.00  0.00     0.152 A 
HETATM   14  N6  UNL     1      11.666  40.235  -6.102  1.00  0.00    -0.174 N 
ATOM     15  H6  UNL     1      11.362  40.738  -5.269  1.00  0.00     0.186 HD
ENDROOT
BRANCH   5  16
HETATM   16  C13 UNL     1      13.218  38.462 -10.623  1.00  0.00     0.070 C 
BRANCH  16  17
HETATM   17  C14 UNL     1      13.305  37.261 -11.526  1.00  0.00     0.061 C 
HETATM   18  C15 UNL     1      14.240  36.214 -11.030  1.00  0.00     0.130 C 
HETATM   19  C16 UNL     1      14.814  35.550 -12.235  1.00  0.00     0.064 C 
HETATM   20  C17 UNL     1      14.153  36.210 -13.444  1.00  0.00     0.127 C 
HETATM   21  C18 UNL     1      13.692  37.555 -12.920  1.00  0.00     0.049 C 
BRANCH  18  22
HETATM   22  O3  UNL     1      15.199  36.691 -10.137  1.00  0.00    -0.395 OA
ATOM     23  H3  UNL     1      15.298  36.157  -9.358  1.00  0.00     0.210 HD
ENDBRANCH  18  22
BRANCH  20  24
HETATM   24  O4  UNL     1      13.046  35.458 -13.798  1.00  0.00    -0.395 OA
ATOM     25  H4  UNL     1      12.303  35.765 -13.293  1.00  0.00     0.210 HD
ENDBRANCH  20  24
BRANCH  21  26
HETATM   26  C19 UNL     1      14.814  38.525 -13.122  1.00  0.00     0.172 C 
BRANCH  26  27
HETATM   27  O5  UNL     1      15.381  38.397 -14.386  1.00  0.00    -0.400 OA
ATOM     28  H5  UNL     1      16.283  38.102 -14.337  1.00  0.00     0.209 HD
ENDBRANCH  26  27
ENDBRANCH  21  26
ENDBRANCH  16  17
ENDBRANCH   5  16
BRANCH   1  29
HETATM   29  N1  UNL     1      11.507  38.294  -4.934  1.00  0.00    -0.226 N 
ATOM     30  H1  UNL     1      11.969  37.397  -4.788  1.00  0.00     0.177 HD
BRANCH  29  31
HETATM   31  C10 UNL     1      10.654  38.712  -3.891  1.00  0.00     0.138 C 
BRANCH  31  32
HETATM   32  C9  UNL     1       9.190  38.416  -4.144  1.00  0.00     0.020 C 
BRANCH  32  33
HETATM   33  C8  UNL     1       8.246  39.438  -3.649  1.00  0.00     0.002 C 
BRANCH  33  34
HETATM   34  C7  UNL     1       8.913  40.809  -3.569  1.00  0.00     0.004 C 
BRANCH  34  35
HETATM   35  C6  UNL     1       8.371  41.634  -2.475  1.00  0.00     0.027 C 
BRANCH  35  36
HETATM   36  C5  UNL     1       9.178  41.674  -1.243  1.00  0.00    -0.031 C 
BRANCH  36  37
HETATM   37  C4  UNL     1       9.984  40.546  -0.797  1.00  0.00    -0.030 C 
BRANCH  37  38
HETATM   38  C3  UNL     1       9.407  39.401  -0.071  1.00  0.00     0.037 C 
BRANCH  38  39
HETATM   39  C2  UNL     1      10.223  38.140  -0.288  1.00  0.00     0.117 C 
BRANCH  39  40
HETATM   40  C1  UNL     1       9.388  37.059  -0.849  1.00  0.00     0.172 C 
HETATM   41  O1  UNL     1       8.167  37.239  -1.014  1.00  0.00    -0.648 OA
HETATM   42  O2  UNL     1       9.962  35.858  -1.185  1.00  0.00    -0.648 OA
ENDBRANCH  39  40
ENDBRANCH  38  39
ENDBRANCH  37  38
ENDBRANCH  36  37
ENDBRANCH  35  36
ENDBRANCH  34  35
ENDBRANCH  33  34
ENDBRANCH  32  33
ENDBRANCH  31  32
ENDBRANCH  29  31
ENDBRANCH   1  29
TORSDOF 17
ENDMDL
MODEL 4
REMARK VINA RESULT: -7.553131974      2.930      5.436
REMARK  17 active torsions:
REMARK  status: ('A' for Active; 'I' for Inactive)
REMARK    1  A    between atoms: C1_2  and  C2_4 
REMARK    2  A    between atoms: C2_4  and  C3_5 
REMARK    3  A    between atoms: C3_5  and  C4_6 
REMARK    4  A    between atoms: C4_6  and  C5_7 
REMARK    5  A    between atoms: C5_7  and  C6_8 
REMARK    6  A    between atoms: C6_8  and  C7_9 
REMARK    7  A    between atoms: C7_9  and  C8_10 
REMARK    8  A    between atoms: C8_10  and  C9_11 
REMARK    9  A    between atoms: C9_11  and  C10_12 
REMARK   10  A    between atoms: C10_12  and  N1_13 
REMARK   11  A    between atoms: N1_13  and  C11_15 
REMARK   12  A    between atoms: N3_19  and  C13_21 
REMARK   13  A    between atoms: C13_21  and  C14_22 
REMARK   14  A    between atoms: C15_23  and  O3_24 
REMARK   15  A    between atoms: C17_27  and  O4_28 
REMARK   16  A    between atoms: C18_30  and  C19_31 
REMARK   17  A    between atoms: C19_31  and  O5_32 
ROOT
HETATM    1  C11 UNL     1      11.380  38.804  -4.969  1.00  0.00     0.681 A 
HETATM    2  N2  UNL     1      11.001  39.977  -5.462  1.00  0.00    -0.174 N 
ATOM      3  H2  UNL     1      10.398  40.567  -4.888  1.00  0.00     0.186 HD
HETATM    4  C12 UNL     1      11.373  40.442  -6.693  1.00  0.00     0.151 A 
HETATM    5  N3  UNL     1      10.943  41.579  -7.046  1.00  0.00    -0.353 N 
ATOM      6  H3  UNL     1      10.354  42.015  -6.337  1.00  0.00     0.166 HD
HETATM    7  C20 UNL     1      12.184  39.637  -7.449  1.00  0.00     0.123 A 
HETATM    8  N4  UNL     1      12.726  39.784  -8.679  1.00  0.00    -0.346 N 
ATOM      9  H4  UNL     1      12.603  40.592  -9.289  1.00  0.00     0.167 HD
HETATM   10  C21 UNL     1      13.452  38.694  -8.964  1.00  0.00     0.182 A 
HETATM   11  N5  UNL     1      13.363  37.867  -7.911  1.00  0.00    -0.336 N 
ATOM     12  H5  UNL     1      13.815  36.955  -7.842  1.00  0.00     0.168 HD
HETATM   13  C22 UNL     1      12.584  38.424  -6.954  1.00  0.00     0.152 A 
HETATM   14  N6  UNL     1      12.182  38.033  -5.741  1.00  0.00    -0.174 N 
ATOM     15  H6  UNL     1      12.487  37.127  -5.386  1.00  0.00     0.186 HD
ENDROOT
BRANCH   5  16
HETATM   16  C13 UNL     1      11.093  42.371  -8.187  1.00  0.00     0.070 C 
BRANCH  16  17
HETATM   17  C14 UNL     1       9.909  43.233  -8.534  1.00  0.00     0.061 C 
HETATM   18  C15 UNL     1       9.715  43.411  -9.999  1.00  0.00     0.130 C 
HETATM   19  C16 UNL     1       9.121  44.764 -10.189  1.00  0.00     0.064 C 
HETATM   20  C17 UNL     1       8.933  45.350  -8.790  1.00  0.00     0.127 C 
HETATM   21  C18 UNL     1       9.922  44.582  -7.937  1.00  0.00     0.049 C 
BRANCH  18  22
HETATM   22  O3  UNL     1      10.868  43.189 -10.752  1.00  0.00    -0.395 OA
ATOM     23  H3  UNL     1      10.715  43.159 -11.689  1.00  0.00     0.210 HD
ENDBRANCH  18  22
BRANCH  20  24
HETATM   24  O4  UNL     1       7.648  45.061  -8.367  1.00  0.00    -0.395 OA
ATOM     25  H4  UNL     1       7.045  45.625  -8.836  1.00  0.00     0.210 HD
ENDBRANCH  20  24
BRANCH  21  26
HETATM   26  C19 UNL     1      11.220  45.326  -7.972  1.00  0.00     0.172 C 
BRANCH  26  27
HETATM   27  O5  UNL     1      11.600  45.754  -6.704  1.00  0.00    -0.400 OA
ATOM     28  H5  UNL     1      11.711  45.024  -6.106  1.00  0.00     0.209 HD
ENDBRANCH  26  27
ENDBRANCH  21  26
ENDBRANCH  16  17
ENDBRANCH   5  16
BRANCH   1  29
HETATM   29  N1  UNL     1      11.034  38.353  -3.808  1.00  0.00    -0.226 N 
ATOM     30  H1  UNL     1      11.797  38.226  -3.143  1.00  0.00     0.177 HD
BRANCH  29  31
HETATM   31  C10 UNL     1       9.751  38.013  -3.330  1.00  0.00     0.138 C 
BRANCH  31  32
HETATM   32  C9  UNL     1       9.748  37.494  -1.907  1.00  0.00     0.020 C 
BRANCH  32  33
HETATM   33  C8  UNL     1      10.569  38.266  -0.953  1.00  0.00     0.002 C 
BRANCH  33  34
HETATM   34  C7  UNL     1       9.721  39.291  -0.204  1.00  0.00     0.004 C 
BRANCH  34  35
HETATM   35  C6  UNL     1       9.935  40.664  -0.695  1.00  0.00     0.027 C 
BRANCH  35  36
HETATM   36  C5  UNL     1       8.915  41.176  -1.627  1.00  0.00    -0.031 C 
BRANCH  36  37
HETATM   37  C4  UNL     1       8.470  42.563  -1.616  1.00  0.00    -0.030 C 
BRANCH  37  38
HETATM   38  C3  UNL     1       7.463  43.077  -2.560  1.00  0.00     0.037 C 
BRANCH  38  39
HETATM   39  C2  UNL     1       7.265  42.129  -3.729  1.00  0.00     0.117 C 
BRANCH  39  40
HETATM   40  C1  UNL     1       7.925  42.644  -4.945  1.00  0.00     0.172 C 
HETATM   41  O1  UNL     1       9.160  42.552  -5.070  1.00  0.00    -0.648 OA
HETATM   42  O2  UNL     1       7.171  43.224  -5.936  1.00  0.00    -0.648 OA
ENDBRANCH  39  40
ENDBRANCH  38  39
ENDBRANCH  37  38
ENDBRANCH  36  37
ENDBRANCH  35  36
ENDBRANCH  34  35
ENDBRANCH  33  34
ENDBRANCH  32  33
ENDBRANCH  31  32
ENDBRANCH  29  31
ENDBRANCH   1  29
TORSDOF 17
ENDMDL
MODEL 5
REMARK VINA RESULT: -7.499429857      1.527      1.735
REMARK  17 active torsions:
REMARK  status: ('A' for Active; 'I' for Inactive)
REMARK    1  A    between atoms: C1_2  and  C2_4 
REMARK    2  A    between atoms: C2_4  and  C3_5 
REMARK    3  A    between atoms: C3_5  and  C4_6 
REMARK    4  A    between atoms: C4_6  and  C5_7 
REMARK    5  A    between atoms: C5_7  and  C6_8 
REMARK    6  A    between atoms: C6_8  and  C7_9 
REMARK    7  A    between atoms: C7_9  and  C8_10 
REMARK    8  A    between atoms: C8_10  and  C9_11 
REMARK    9  A    between atoms: C9_11  and  C10_12 
REMARK   10  A    between atoms: C10_12  and  N1_13 
REMARK   11  A    between atoms: N1_13  and  C11_15 
REMARK   12  A    between atoms: N3_19  and  C13_21 
REMARK   13  A    between atoms: C13_21  and  C14_22 
REMARK   14  A    between atoms: C15_23  and  O3_24 
REMARK   15  A    between atoms: C17_27  and  O4_28 
REMARK   16  A    between atoms: C18_30  and  C19_31 
REMARK   17  A    between atoms: C19_31  and  O5_32 
ROOT
HETATM    1  C11 UNL     1      11.483  38.711  -5.670  1.00  0.00     0.681 A 
HETATM    2  N2  UNL     1      12.007  38.147  -6.752  1.00  0.00    -0.174 N 
ATOM      3  H2  UNL     1      12.278  37.165  -6.698  1.00  0.00     0.186 HD
HETATM    4  C12 UNL     1      12.202  38.805  -7.933  1.00  0.00     0.151 A 
HETATM    5  N3  UNL     1      12.711  38.154  -8.891  1.00  0.00    -0.353 N 
ATOM      6  H3  UNL     1      12.915  37.185  -8.646  1.00  0.00     0.166 HD
HETATM    7  C20 UNL     1      11.830  40.123  -7.988  1.00  0.00     0.123 A 
HETATM    8  N4  UNL     1      11.881  41.047  -8.973  1.00  0.00    -0.346 N 
ATOM      9  H4  UNL     1      12.238  40.890  -9.916  1.00  0.00     0.167 HD
HETATM   10  C21 UNL     1      11.387  42.202  -8.508  1.00  0.00     0.182 A 
HETATM   11  N5  UNL     1      11.026  41.999  -7.231  1.00  0.00    -0.336 N 
ATOM     12  H5  UNL     1      10.616  42.704  -6.619  1.00  0.00     0.168 HD
HETATM   13  C22 UNL     1      11.288  40.719  -6.879  1.00  0.00     0.152 A 
HETATM   14  N6  UNL     1      11.125  40.014  -5.755  1.00  0.00    -0.174 N 
ATOM     15  H6  UNL     1      10.720  40.470  -4.938  1.00  0.00     0.186 HD
ENDROOT
BRANCH   5  16
HETATM   16  C13 UNL     1      13.056  38.461 -10.210  1.00  0.00     0.070 C 
BRANCH  16  17
HETATM   17  C14 UNL     1      13.242  37.276 -11.120  1.00  0.00     0.061 C 
HETATM   18  C15 UNL     1      14.223  36.282 -10.605  1.00  0.00     0.130 C 
HETATM   19  C16 UNL     1      14.871  35.665 -11.797  1.00  0.00     0.064 C 
HETATM   20  C17 UNL     1      14.206  36.296 -13.020  1.00  0.00     0.127 C 
HETATM   21  C18 UNL     1      13.651  37.605 -12.499  1.00  0.00     0.049 C 
BRANCH  18  22
HETATM   22  O3  UNL     1      15.126  36.807  -9.681  1.00  0.00    -0.395 OA
ATOM     23  H3  UNL     1      15.106  36.373  -8.835  1.00  0.00     0.210 HD
ENDBRANCH  18  22
BRANCH  20  24
HETATM   24  O4  UNL     1      13.158  35.482 -13.413  1.00  0.00    -0.395 OA
ATOM     25  H4  UNL     1      12.917  35.715 -14.302  1.00  0.00     0.210 HD
ENDBRANCH  20  24
BRANCH  21  26
HETATM   26  C19 UNL     1      14.717  38.643 -12.661  1.00  0.00     0.172 C 
BRANCH  26  27
HETATM   27  O5  UNL     1      14.292  39.695 -13.465  1.00  0.00    -0.400 OA
ATOM     28  H5  UNL     1      14.423  40.536 -13.041  1.00  0.00     0.209 HD
ENDBRANCH  26  27
ENDBRANCH  21  26
ENDBRANCH  16  17
ENDBRANCH   5  16
BRANCH   1  29
HETATM   29  N1  UNL     1      11.294  38.099  -4.546  1.00  0.00    -0.226 N 
ATOM     30  H1  UNL     1      11.633  37.138  -4.509  1.00  0.00     0.177 HD
BRANCH  29  31
HETATM   31  C10 UNL     1      10.687  38.574  -3.364  1.00  0.00     0.138 C 
BRANCH  31  32
HETATM   32  C9  UNL     1       9.537  37.714  -2.883  1.00  0.00     0.020 C 
BRANCH  32  33
HETATM   33  C8  UNL     1       9.628  37.270  -1.478  1.00  0.00     0.002 C 
BRANCH  33  34
HETATM   34  C7  UNL     1      10.437  38.257  -0.641  1.00  0.00     0.004 C 
BRANCH  34  35
HETATM   35  C6  UNL     1       9.601  39.326  -0.069  1.00  0.00     0.027 C 
BRANCH  35  36
HETATM   36  C5  UNL     1       9.865  40.685  -0.574  1.00  0.00    -0.031 C 
BRANCH  36  37
HETATM   37  C4  UNL     1       8.936  41.391  -1.446  1.00  0.00    -0.030 C 
BRANCH  37  38
HETATM   38  C3  UNL     1       8.873  42.862  -1.506  1.00  0.00     0.037 C 
BRANCH  38  39
HETATM   39  C2  UNL     1       7.440  43.357  -1.433  1.00  0.00     0.117 C 
BRANCH  39  40
HETATM   40  C1  UNL     1       7.377  44.708  -0.839  1.00  0.00     0.172 C 
HETATM   41  O1  UNL     1       8.245  45.554  -1.124  1.00  0.00    -0.648 OA
HETATM   42  O2  UNL     1       6.359  45.026   0.027  1.00  0.00    -0.648 OA
ENDBRANCH  39  40
ENDBRANCH  38  39
ENDBRANCH  37  38
ENDBRANCH  36  37
ENDBRANCH  35  36
ENDBRANCH  34  35
ENDBRANCH  33  34
ENDBRANCH  32  33
ENDBRANCH  31  32
ENDBRANCH  29  31
ENDBRANCH   1  29
TORSDOF 17
ENDMDL
