MODEL 1
REMARK VINA RESULT: -8.588858723      0.000      0.000
REMARK  11 active torsions:
REMARK  status: ('A' for Active; 'I' for Inactive)
REMARK    1  A    between atoms: C2_2  and  C4_4 
REMARK    2  A    between atoms: C4_4  and  C5_5 
REMARK    3  A    between atoms: C5_5  and  C6_6 
REMARK    4  A    between atoms: C6_6  and  C7_7 
REMARK    5  A    between atoms: C7_7  and  C8_8 
REMARK       I    between atoms: N1_12  and  C11_13 
REMARK    6  A    between atoms: C11_13  and  C12_15 
REMARK    7  A    between atoms: C12_15  and  C13_16 
REMARK    8  A    between atoms: C12_15  and  N5_26 
REMARK    9  A    between atoms: C13_16  and  C14_17 
REMARK   10  A    between atoms: C14_17  and  C15_18 
REMARK   11  A    between atoms: C15_18  and  N2_19 
REMARK       I    between atoms: N2_19  and  C16_21 
REMARK       I    between atoms: N5_26  and  C17_28 
REMARK       I    between atoms: C17_28  and  N6_30 
ROOT
HETATM    1  C12 UNL     1       5.935 131.166 356.938  1.00  0.00     0.081 C 
ENDROOT
BRANCH   1   2
HETATM    2  C11 UNL     1       7.276 130.592 356.917  1.00  0.00     0.266 C 
HETATM    3  N1  UNL     1       8.193 130.611 357.992  1.00  0.00    -0.347 N 
HETATM    4  C10 UNL     1       7.878 131.190 359.280  1.00  0.00     0.128 C 
HETATM    5  C23 UNL     1       9.532 130.033 357.865  1.00  0.00     0.128 C 
HETATM    6  C9  UNL     1       8.141 130.052 360.287  1.00  0.00     0.045 C 
HETATM    7  C8  UNL     1       9.637 129.736 360.276  1.00  0.00     0.040 C 
HETATM    8 CL1  UNL     1       9.796 127.968 360.030  1.00  0.00    -0.119 Cl
HETATM    9  C24 UNL     1      10.317 130.398 359.133  1.00  0.00     0.045 C 
HETATM   10  O1  UNL     1       7.658 130.021 355.837  1.00  0.00    -0.266 OA
BRANCH   7  11
HETATM   11  C7  UNL     1      10.145 130.111 361.639  1.00  0.00     0.026 C 
BRANCH  11  12
HETATM   12  C6  UNL     1      11.500 130.724 361.626  1.00  0.00     0.002 C 
BRANCH  12  13
HETATM   13  C5  UNL     1      11.937 131.177 362.998  1.00  0.00     0.000 C 
BRANCH  13  14
HETATM   14  C4  UNL     1      11.109 130.510 364.090  1.00  0.00     0.004 C 
BRANCH  14  15
HETATM   15  C2  UNL     1      10.717 131.572 365.125  1.00  0.00    -0.023 C 
HETATM   16  C1  UNL     1      11.642 132.755 364.890  1.00  0.00     0.009 C 
HETATM   17  C3  UNL     1       9.327 132.026 364.791  1.00  0.00     0.009 C 
ENDBRANCH  14  15
ENDBRANCH  13  14
ENDBRANCH  12  13
ENDBRANCH  11  12
ENDBRANCH   7  11
ENDBRANCH   1   2
BRANCH   1  18
HETATM   18  C13 UNL     1       5.742 132.477 356.294  1.00  0.00     0.064 C 
BRANCH  18  19
HETATM   19  C14 UNL     1       5.226 132.585 354.922  1.00  0.00     0.026 C 
BRANCH  19  20
HETATM   20  C15 UNL     1       4.385 133.786 354.677  1.00  0.00     0.122 C 
BRANCH  20  21
HETATM   21  N2  UNL     1       5.179 134.977 355.054  1.00  0.00    -0.365 N 
HETATM   22  C16 UNL     1       4.653 136.237 354.683  1.00  0.00     0.181 C 
HETATM   23  N3  UNL     1       3.964 136.931 355.509  1.00  0.00    -0.374 N 
HETATM   24  N4  UNL     1       4.901 136.731 353.388  1.00  0.00    -0.064 NA
ATOM     25  H32 UNL     1       3.784 136.573 356.448  1.00  0.00     0.158 HD
ATOM     26  H31 UNL     1       3.585 137.839 355.241  1.00  0.00     0.158 HD
ATOM     27  H2  UNL     1       6.062 134.894 355.558  1.00  0.00     0.162 HD
ENDBRANCH  20  21
ENDBRANCH  19  20
ENDBRANCH  18  19
ENDBRANCH   1  18
BRANCH   1  28
HETATM   28  N5  UNL     1       4.858 130.215 356.653  1.00  0.00    -0.307 N 
HETATM   29  C17 UNL     1       4.386 129.339 357.662  1.00  0.00     0.322 C 
HETATM   30  O2  UNL     1       4.949 129.433 358.810  1.00  0.00    -0.247 OA
HETATM   31  N6  UNL     1       3.372 128.393 357.523  1.00  0.00    -0.334 N 
HETATM   32  C18 UNL     1       2.959 127.546 358.663  1.00  0.00     0.127 C 
HETATM   33  C22 UNL     1       2.680 128.188 356.276  1.00  0.00     0.127 C 
HETATM   34  C19 UNL     1       1.483 127.657 358.885  1.00  0.00     0.020 C 
HETATM   35  C20 UNL     1       0.705 127.594 357.588  1.00  0.00     0.003 C 
HETATM   36  C21 UNL     1       1.215 128.542 356.551  1.00  0.00     0.020 C 
ATOM     37  H5  UNL     1       4.446 130.182 355.721  1.00  0.00     0.170 HD
ENDBRANCH   1  28
TORSDOF 11
ENDMDL
MODEL 2
REMARK VINA RESULT: -8.579416063      4.368      9.643
REMARK  11 active torsions:
REMARK  status: ('A' for Active; 'I' for Inactive)
REMARK    1  A    between atoms: C2_2  and  C4_4 
REMARK    2  A    between atoms: C4_4  and  C5_5 
REMARK    3  A    between atoms: C5_5  and  C6_6 
REMARK    4  A    between atoms: C6_6  and  C7_7 
REMARK    5  A    between atoms: C7_7  and  C8_8 
REMARK       I    between atoms: N1_12  and  C11_13 
REMARK    6  A    between atoms: C11_13  and  C12_15 
REMARK    7  A    between atoms: C12_15  and  C13_16 
REMARK    8  A    between atoms: C12_15  and  N5_26 
REMARK    9  A    between atoms: C13_16  and  C14_17 
REMARK   10  A    between atoms: C14_17  and  C15_18 
REMARK   11  A    between atoms: C15_18  and  N2_19 
REMARK       I    between atoms: N2_19  and  C16_21 
REMARK       I    between atoms: N5_26  and  C17_28 
REMARK       I    between atoms: C17_28  and  N6_30 
ROOT
HETATM    1  C12 UNL     1      11.762 129.732 359.797  1.00  0.00     0.081 C 
ENDROOT
BRANCH   1   2
HETATM    2  C11 UNL     1      10.868 130.383 358.846  1.00  0.00     0.266 C 
HETATM    3  N1  UNL     1       9.613 129.886 358.429  1.00  0.00    -0.347 N 
HETATM    4  C10 UNL     1       9.047 128.656 358.940  1.00  0.00     0.128 C 
HETATM    5  C23 UNL     1       8.798 130.599 357.443  1.00  0.00     0.128 C 
HETATM    6  C9  UNL     1       7.665 129.068 359.487  1.00  0.00     0.045 C 
HETATM    7  C8  UNL     1       6.798 129.520 358.312  1.00  0.00     0.040 C 
HETATM    8 CL1  UNL     1       6.140 131.132 358.738  1.00  0.00    -0.119 Cl
HETATM    9  C24 UNL     1       7.612 129.693 357.080  1.00  0.00     0.045 C 
HETATM   10  O1  UNL     1      11.246 131.498 358.347  1.00  0.00    -0.266 OA
BRANCH   7  11
HETATM   11  C7  UNL     1       5.682 128.520 358.216  1.00  0.00     0.026 C 
BRANCH  11  12
HETATM   12  C6  UNL     1       5.313 127.904 359.519  1.00  0.00     0.002 C 
BRANCH  12  13
HETATM   13  C5  UNL     1       3.948 128.341 359.992  1.00  0.00     0.000 C 
BRANCH  13  14
HETATM   14  C4  UNL     1       4.007 128.903 361.407  1.00  0.00     0.004 C 
BRANCH  14  15
HETATM   15  C2  UNL     1       2.609 128.807 362.031  1.00  0.00    -0.023 C 
HETATM   16  C1  UNL     1       1.719 128.160 360.981  1.00  0.00     0.009 C 
HETATM   17  C3  UNL     1       2.700 127.849 363.182  1.00  0.00     0.009 C 
ENDBRANCH  14  15
ENDBRANCH  13  14
ENDBRANCH  12  13
ENDBRANCH  11  12
ENDBRANCH   7  11
ENDBRANCH   1   2
BRANCH   1  18
HETATM   18  C13 UNL     1      13.209 129.781 359.519  1.00  0.00     0.064 C 
BRANCH  18  19
HETATM   19  C14 UNL     1      13.963 128.566 359.182  1.00  0.00     0.026 C 
BRANCH  19  20
HETATM   20  C15 UNL     1      15.103 128.790 358.256  1.00  0.00     0.122 C 
BRANCH  20  21
HETATM   21  N2  UNL     1      16.223 129.350 359.046  1.00  0.00    -0.365 N 
HETATM   22  C16 UNL     1      17.511 129.281 358.465  1.00  0.00     0.181 C 
HETATM   23  N3  UNL     1      17.996 130.276 357.821  1.00  0.00    -0.374 N 
HETATM   24  N4  UNL     1      18.266 128.101 358.604  1.00  0.00    -0.064 NA
ATOM     25  H32 UNL     1      17.448 131.131 357.720  1.00  0.00     0.158 HD
ATOM     26  H31 UNL     1      18.924 130.226 357.401  1.00  0.00     0.158 HD
ATOM     27  H2  UNL     1      16.074 129.765 359.966  1.00  0.00     0.162 HD
ENDBRANCH  20  21
ENDBRANCH  19  20
ENDBRANCH  18  19
ENDBRANCH   1  18
BRANCH   1  28
HETATM   28  N5  UNL     1      11.433 129.966 361.205  1.00  0.00    -0.307 N 
HETATM   29  C17 UNL     1      12.264 130.781 362.012  1.00  0.00     0.322 C 
HETATM   30  O2  UNL     1      13.296 131.286 361.443  1.00  0.00    -0.247 OA
HETATM   31  N6  UNL     1      12.065 131.083 363.358  1.00  0.00    -0.334 N 
HETATM   32  C18 UNL     1      13.002 131.964 364.089  1.00  0.00     0.127 C 
HETATM   33  C22 UNL     1      10.950 130.559 364.105  1.00  0.00     0.127 C 
HETATM   34  C19 UNL     1      12.259 133.091 364.737  1.00  0.00     0.020 C 
HETATM   35  C20 UNL     1      10.993 132.620 365.418  1.00  0.00     0.003 C 
HETATM   36  C21 UNL     1      10.128 131.778 364.536  1.00  0.00     0.020 C 
ATOM     37  H5  UNL     1      10.599 129.538 361.607  1.00  0.00     0.170 HD
ENDBRANCH   1  28
TORSDOF 11
ENDMDL
MODEL 3
REMARK VINA RESULT: -8.445875276      1.879      5.540
REMARK  11 active torsions:
REMARK  status: ('A' for Active; 'I' for Inactive)
REMARK    1  A    between atoms: C2_2  and  C4_4 
REMARK    2  A    between atoms: C4_4  and  C5_5 
REMARK    3  A    between atoms: C5_5  and  C6_6 
REMARK    4  A    between atoms: C6_6  and  C7_7 
REMARK    5  A    between atoms: C7_7  and  C8_8 
REMARK       I    between atoms: N1_12  and  C11_13 
REMARK    6  A    between atoms: C11_13  and  C12_15 
REMARK    7  A    between atoms: C12_15  and  C13_16 
REMARK    8  A    between atoms: C12_15  and  N5_26 
REMARK    9  A    between atoms: C13_16  and  C14_17 
REMARK   10  A    between atoms: C14_17  and  C15_18 
REMARK   11  A    between atoms: C15_18  and  N2_19 
REMARK       I    between atoms: N2_19  and  C16_21 
REMARK       I    between atoms: N5_26  and  C17_28 
REMARK       I    between atoms: C17_28  and  N6_30 
ROOT
HETATM    1  C12 UNL     1       5.604 129.365 356.860  1.00  0.00     0.081 C 
ENDROOT
BRANCH   1   2
HETATM    2  C11 UNL     1       5.970 129.003 358.225  1.00  0.00     0.266 C 
HETATM    3  N1  UNL     1       7.289 128.879 358.716  1.00  0.00    -0.347 N 
HETATM    4  C10 UNL     1       8.456 129.139 357.900  1.00  0.00     0.128 C 
HETATM    5  C23 UNL     1       7.556 128.480 360.099  1.00  0.00     0.128 C 
HETATM    6  C9  UNL     1       9.247 130.200 358.691  1.00  0.00     0.045 C 
HETATM    7  C8  UNL     1       9.729 129.568 359.997  1.00  0.00     0.040 C 
HETATM    8 CL1  UNL     1       9.222 130.658 361.325  1.00  0.00    -0.119 Cl
HETATM    9  C24 UNL     1       9.069 128.257 360.233  1.00  0.00     0.045 C 
HETATM   10  O1  UNL     1       5.019 128.779 359.052  1.00  0.00    -0.266 OA
BRANCH   7  11
HETATM   11  C7  UNL     1      11.228 129.531 359.907  1.00  0.00     0.026 C 
BRANCH  11  12
HETATM   12  C6  UNL     1      11.888 130.781 360.370  1.00  0.00     0.002 C 
BRANCH  12  13
HETATM   13  C5  UNL     1      12.587 130.602 361.696  1.00  0.00     0.000 C 
BRANCH  13  14
HETATM   14  C4  UNL     1      12.529 131.878 362.528  1.00  0.00     0.004 C 
BRANCH  14  15
HETATM   15  C2  UNL     1      12.571 131.496 364.013  1.00  0.00    -0.023 C 
HETATM   16  C1  UNL     1      11.977 132.672 364.771  1.00  0.00     0.009 C 
HETATM   17  C3  UNL     1      11.639 130.335 364.200  1.00  0.00     0.009 C 
ENDBRANCH  14  15
ENDBRANCH  13  14
ENDBRANCH  12  13
ENDBRANCH  11  12
ENDBRANCH   7  11
ENDBRANCH   1   2
BRANCH   1  18
HETATM   18  C13 UNL     1       4.551 128.572 356.201  1.00  0.00     0.064 C 
BRANCH  18  19
HETATM   19  C14 UNL     1       3.129 128.904 356.367  1.00  0.00     0.026 C 
BRANCH  19  20
HETATM   20  C15 UNL     1       2.328 127.849 357.041  1.00  0.00     0.122 C 
BRANCH  20  21
HETATM   21  N2  UNL     1       1.785 128.425 358.292  1.00  0.00    -0.365 N 
HETATM   22  C16 UNL     1       1.766 127.580 359.427  1.00  0.00     0.181 C 
HETATM   23  N3  UNL     1       2.710 127.619 360.291  1.00  0.00    -0.374 N 
HETATM   24  N4  UNL     1       0.689 126.691 359.605  1.00  0.00    -0.064 NA
ATOM     25  H32 UNL     1       3.491 128.263 360.162  1.00  0.00     0.158 HD
ATOM     26  H31 UNL     1       2.696 127.010 361.109  1.00  0.00     0.158 HD
ATOM     27  H2  UNL     1       1.441 129.384 358.335  1.00  0.00     0.162 HD
ENDBRANCH  20  21
ENDBRANCH  19  20
ENDBRANCH  18  19
ENDBRANCH   1  18
BRANCH   1  28
HETATM   28  N5  UNL     1       5.483 130.804 356.621  1.00  0.00    -0.307 N 
HETATM   29  C17 UNL     1       6.058 131.393 355.467  1.00  0.00     0.322 C 
HETATM   30  O2  UNL     1       6.675 130.602 354.669  1.00  0.00    -0.247 OA
HETATM   31  N6  UNL     1       6.014 132.742 355.122  1.00  0.00    -0.334 N 
HETATM   32  C18 UNL     1       6.643 133.231 353.876  1.00  0.00     0.127 C 
HETATM   33  C22 UNL     1       5.364 133.725 355.951  1.00  0.00     0.127 C 
HETATM   34  C19 UNL     1       5.652 133.998 353.058  1.00  0.00     0.020 C 
HETATM   35  C20 UNL     1       4.832 134.949 353.903  1.00  0.00     0.003 C 
HETATM   36  C21 UNL     1       4.223 134.295 355.102  1.00  0.00     0.020 C 
ATOM     37  H5  UNL     1       4.981 131.388 357.290  1.00  0.00     0.170 HD
ENDBRANCH   1  28
TORSDOF 11
ENDMDL
MODEL 4
REMARK VINA RESULT: -8.285686473      0.884      1.290
REMARK  11 active torsions:
REMARK  status: ('A' for Active; 'I' for Inactive)
REMARK    1  A    between atoms: C2_2  and  C4_4 
REMARK    2  A    between atoms: C4_4  and  C5_5 
REMARK    3  A    between atoms: C5_5  and  C6_6 
REMARK    4  A    between atoms: C6_6  and  C7_7 
REMARK    5  A    between atoms: C7_7  and  C8_8 
REMARK       I    between atoms: N1_12  and  C11_13 
REMARK    6  A    between atoms: C11_13  and  C12_15 
REMARK    7  A    between atoms: C12_15  and  C13_16 
REMARK    8  A    between atoms: C12_15  and  N5_26 
REMARK    9  A    between atoms: C13_16  and  C14_17 
REMARK   10  A    between atoms: C14_17  and  C15_18 
REMARK   11  A    between atoms: C15_18  and  N2_19 
REMARK       I    between atoms: N2_19  and  C16_21 
REMARK       I    between atoms: N5_26  and  C17_28 
REMARK       I    between atoms: C17_28  and  N6_30 
ROOT
HETATM    1  C12 UNL     1       5.492 130.354 356.364  1.00  0.00     0.081 C 
ENDROOT
BRANCH   1   2
HETATM    2  C11 UNL     1       6.880 129.930 356.506  1.00  0.00     0.266 C 
HETATM    3  N1  UNL     1       7.696 130.159 357.636  1.00  0.00    -0.347 N 
HETATM    4  C10 UNL     1       7.218 130.831 358.825  1.00  0.00     0.128 C 
HETATM    5  C23 UNL     1       9.092 129.719 357.673  1.00  0.00     0.128 C 
HETATM    6  C9  UNL     1       7.506 129.838 359.969  1.00  0.00     0.045 C 
HETATM    7  C8  UNL     1       9.021 129.686 360.104  1.00  0.00     0.040 C 
HETATM    8 CL1  UNL     1       9.376 127.930 360.069  1.00  0.00    -0.119 Cl
HETATM    9  C24 UNL     1       9.727 130.296 358.947  1.00  0.00     0.045 C 
HETATM   10  O1  UNL     1       7.407 129.295 355.528  1.00  0.00    -0.266 OA
BRANCH   7  11
HETATM   11  C7  UNL     1       9.373 130.253 361.449  1.00  0.00     0.026 C 
BRANCH  11  12
HETATM   12  C6  UNL     1       8.348 129.997 362.497  1.00  0.00     0.002 C 
BRANCH  12  13
HETATM   13  C5  UNL     1       8.712 130.626 363.819  1.00  0.00     0.000 C 
BRANCH  13  14
HETATM   14  C4  UNL     1       9.865 131.610 363.666  1.00  0.00     0.004 C 
BRANCH  14  15
HETATM   15  C2  UNL     1      10.823 131.431 364.849  1.00  0.00    -0.023 C 
HETATM   16  C1  UNL     1      11.762 130.297 364.468  1.00  0.00     0.009 C 
HETATM   17  C3  UNL     1      11.653 132.677 364.943  1.00  0.00     0.009 C 
ENDBRANCH  14  15
ENDBRANCH  13  14
ENDBRANCH  12  13
ENDBRANCH  11  12
ENDBRANCH   7  11
ENDBRANCH   1   2
BRANCH   1  18
HETATM   18  C13 UNL     1       5.198 131.417 355.387  1.00  0.00     0.064 C 
BRANCH  18  19
HETATM   19  C14 UNL     1       5.512 132.824 355.672  1.00  0.00     0.026 C 
BRANCH  19  20
HETATM   20  C15 UNL     1       4.760 133.801 354.841  1.00  0.00     0.122 C 
BRANCH  20  21
HETATM   21  N2  UNL     1       5.160 135.161 355.269  1.00  0.00    -0.365 N 
HETATM   22  C16 UNL     1       4.488 136.245 354.658  1.00  0.00     0.181 C 
HETATM   23  N3  UNL     1       3.481 136.797 355.224  1.00  0.00    -0.374 N 
HETATM   24  N4  UNL     1       4.941 136.721 353.413  1.00  0.00    -0.064 NA
ATOM     25  H32 UNL     1       3.153 136.452 356.126  1.00  0.00     0.158 HD
ATOM     26  H31 UNL     1       2.996 137.579 354.783  1.00  0.00     0.158 HD
ATOM     27  H2  UNL     1       5.885 135.309 355.971  1.00  0.00     0.162 HD
ENDBRANCH  20  21
ENDBRANCH  19  20
ENDBRANCH  18  19
ENDBRANCH   1  18
BRANCH   1  28
HETATM   28  N5  UNL     1       4.517 129.262 356.344  1.00  0.00    -0.307 N 
HETATM   29  C17 UNL     1       3.988 128.746 357.553  1.00  0.00     0.322 C 
HETATM   30  O2  UNL     1       4.409 129.286 358.637  1.00  0.00    -0.247 OA
HETATM   31  N6  UNL     1       3.058 127.715 357.672  1.00  0.00    -0.334 N 
HETATM   32  C18 UNL     1       2.571 127.277 358.998  1.00  0.00     0.127 C 
HETATM   33  C22 UNL     1       2.528 127.024 356.524  1.00  0.00     0.127 C 
HETATM   34  C19 UNL     1       1.075 127.311 359.040  1.00  0.00     0.020 C 
HETATM   35  C20 UNL     1       0.457 126.727 357.788  1.00  0.00     0.003 C 
HETATM   36  C21 UNL     1       1.022 127.304 356.530  1.00  0.00     0.020 C 
ATOM     37  H5  UNL     1       4.216 128.868 355.451  1.00  0.00     0.170 HD
ENDBRANCH   1  28
TORSDOF 11
ENDMDL
MODEL 5
REMARK VINA RESULT: -8.285130678      3.785      9.434
REMARK  11 active torsions:
REMARK  status: ('A' for Active; 'I' for Inactive)
REMARK    1  A    between atoms: C2_2  and  C4_4 
REMARK    2  A    between atoms: C4_4  and  C5_5 
REMARK    3  A    between atoms: C5_5  and  C6_6 
REMARK    4  A    between atoms: C6_6  and  C7_7 
REMARK    5  A    between atoms: C7_7  and  C8_8 
REMARK       I    between atoms: N1_12  and  C11_13 
REMARK    6  A    between atoms: C11_13  and  C12_15 
REMARK    7  A    between atoms: C12_15  and  C13_16 
REMARK    8  A    between atoms: C12_15  and  N5_26 
REMARK    9  A    between atoms: C13_16  and  C14_17 
REMARK   10  A    between atoms: C14_17  and  C15_18 
REMARK   11  A    between atoms: C15_18  and  N2_19 
REMARK       I    between atoms: N2_19  and  C16_21 
REMARK       I    between atoms: N5_26  and  C17_28 
REMARK       I    between atoms: C17_28  and  N6_30 
ROOT
HETATM    1  C12 UNL     1       9.009 130.041 361.031  1.00  0.00     0.081 C 
ENDROOT
BRANCH   1   2
HETATM    2  C11 UNL     1       7.661 130.133 360.481  1.00  0.00     0.266 C 
HETATM    3  N1  UNL     1       7.310 130.775 359.273  1.00  0.00    -0.347 N 
HETATM    4  C10 UNL     1       8.285 131.402 358.407  1.00  0.00     0.128 C 
HETATM    5  C23 UNL     1       5.920 130.841 358.818  1.00  0.00     0.128 C 
HETATM    6  C9  UNL     1       8.068 130.730 357.036  1.00  0.00     0.045 C 
HETATM    7  C8  UNL     1       6.681 131.117 356.524  1.00  0.00     0.040 C 
HETATM    8 CL1  UNL     1       5.842 129.596 356.085  1.00  0.00    -0.119 Cl
HETATM    9  C24 UNL     1       5.876 131.766 357.592  1.00  0.00     0.045 C 
HETATM   10  O1  UNL     1       6.714 129.586 361.145  1.00  0.00    -0.266 OA
BRANCH   7  11
HETATM   11  C7  UNL     1       6.913 131.948 355.294  1.00  0.00     0.026 C 
BRANCH  11  12
HETATM   12  C6  UNL     1       6.555 133.382 355.461  1.00  0.00     0.002 C 
BRANCH  12  13
HETATM   13  C5  UNL     1       5.396 133.788 354.585  1.00  0.00     0.000 C 
BRANCH  13  14
HETATM   14  C4  UNL     1       4.214 134.266 355.419  1.00  0.00     0.004 C 
BRANCH  14  15
HETATM   15  C2  UNL     1       3.674 135.564 354.805  1.00  0.00    -0.023 C 
HETATM   16  C1  UNL     1       3.314 136.469 355.972  1.00  0.00     0.009 C 
HETATM   17  C3  UNL     1       4.810 136.217 354.074  1.00  0.00     0.009 C 
ENDBRANCH  14  15
ENDBRANCH  13  14
ENDBRANCH  12  13
ENDBRANCH  11  12
ENDBRANCH   7  11
ENDBRANCH   1   2
BRANCH   1  18
HETATM   18  C13 UNL     1       9.143 129.751 362.469  1.00  0.00     0.064 C 
BRANCH  18  19
HETATM   19  C14 UNL     1       9.338 130.827 363.451  1.00  0.00     0.026 C 
BRANCH  19  20
HETATM   20  C15 UNL     1      10.710 130.897 364.018  1.00  0.00     0.122 C 
BRANCH  20  21
HETATM   21  N2  UNL     1      11.482 131.871 363.212  1.00  0.00    -0.365 N 
HETATM   22  C16 UNL     1      12.887 131.711 363.193  1.00  0.00     0.181 C 
HETATM   23  N3  UNL     1      13.464 131.075 362.242  1.00  0.00    -0.374 N 
HETATM   24  N4  UNL     1      13.657 132.265 364.233  1.00  0.00    -0.064 NA
ATOM     25  H32 UNL     1      12.906 130.673 361.488  1.00  0.00     0.158 HD
ATOM     26  H31 UNL     1      14.477 130.959 362.229  1.00  0.00     0.158 HD
ATOM     27  H2  UNL     1      11.023 132.621 362.695  1.00  0.00     0.162 HD
ENDBRANCH  20  21
ENDBRANCH  19  20
ENDBRANCH  18  19
ENDBRANCH   1  18
BRANCH   1  28
HETATM   28  N5  UNL     1       9.960 129.302 360.198  1.00  0.00    -0.307 N 
HETATM   29  C17 UNL     1      11.174 129.905 359.783  1.00  0.00     0.322 C 
HETATM   30  O2  UNL     1      11.377 131.108 360.176  1.00  0.00    -0.247 OA
HETATM   31  N6  UNL     1      12.160 129.314 358.995  1.00  0.00    -0.334 N 
HETATM   32  C18 UNL     1      13.394 130.048 358.643  1.00  0.00     0.127 C 
HETATM   33  C22 UNL     1      12.032 127.974 358.484  1.00  0.00     0.127 C 
HETATM   34  C19 UNL     1      14.602 129.249 359.025  1.00  0.00     0.020 C 
HETATM   35  C20 UNL     1      14.464 127.792 358.642  1.00  0.00     0.003 C 
HETATM   36  C21 UNL     1      13.183 127.179 359.109  1.00  0.00     0.020 C 
ATOM     37  H5  UNL     1       9.747 128.345 359.914  1.00  0.00     0.170 HD
ENDBRANCH   1  28
TORSDOF 11
ENDMDL
