MODEL 1
REMARK VINA RESULT: -8.499620425      0.000      0.000
REMARK  3 active torsions:
REMARK  status: ('A' for Active; 'I' for Inactive)
REMARK    1  A    between atoms: C1_2  and  C2_3 
REMARK    2  A    between atoms: C7_8  and  C8_9 
REMARK    3  A    between atoms: C8_9  and  N2_10 
ROOT
HETATM    1  N2  UNL     1      14.238  13.997   3.929  1.00  0.00    -0.385 N 
ATOM      2  H2  UNL     1      13.947  13.360   3.188  1.00  0.00     0.160 HD
HETATM    3  C9  UNL     1      14.865  13.467   4.908  1.00  0.00     0.043 A 
HETATM    4  C10 UNL     1      15.325  14.209   5.946  1.00  0.00     0.047 A 
HETATM    5  C11 UNL     1      15.893  13.550   7.040  1.00  0.00     0.092 A 
HETATM    6  N3  UNL     1      15.965  12.204   7.036  1.00  0.00    -0.351 N 
ATOM      7  H3  UNL     1      16.382  11.727   7.835  1.00  0.00     0.166 HD
HETATM    8  C12 UNL     1      15.504  11.479   6.012  1.00  0.00     0.117 A 
HETATM    9  N4  UNL     1      15.530  10.116   6.052  1.00  0.00    -0.352 N 
ATOM     10  H4  UNL     1      15.943   9.659   6.866  1.00  0.00     0.166 HD
HETATM   11  C13 UNL     1      15.041   9.360   5.076  1.00  0.00     0.090 A 
HETATM   12  C14 UNL     1      14.484   9.980   3.963  1.00  0.00     0.018 A 
HETATM   13  C15 UNL     1      14.429  11.342   3.873  1.00  0.00     0.019 A 
HETATM   14  C16 UNL     1      14.940  12.068   4.911  1.00  0.00     0.034 A 
ENDROOT
BRANCH   1  15
HETATM   15  C8  UNL     1      13.894  15.372   3.742  1.00  0.00     0.159 C 
BRANCH  15  16
HETATM   16  C7  UNL     1      13.184  15.624   2.484  1.00  0.00    -0.029 A 
HETATM   17  C2  UNL     1      13.327  16.872   1.919  1.00  0.00    -0.015 A 
HETATM   18  C3  UNL     1      12.629  17.105   0.751  1.00  0.00     0.013 A 
HETATM   19  C4  UNL     1      11.820  16.175   0.128  1.00  0.00     0.001 A 
HETATM   20  C5  UNL     1      11.700  14.920   0.708  1.00  0.00     0.001 A 
HETATM   21  C6  UNL     1      12.381  14.654   1.883  1.00  0.00     0.010 A 
BRANCH  17  22
HETATM   22  C1  UNL     1      14.254  17.864   2.440  1.00  0.00     0.112 C 
HETATM   23  N1  UNL     1      15.062  18.614   1.572  1.00  0.00    -0.114 NA
ENDBRANCH  17  22
ENDBRANCH  15  16
ENDBRANCH   1  15
TORSDOF 3
ENDMDL
MODEL 2
REMARK VINA RESULT: -8.379227574      1.612      2.577
REMARK  3 active torsions:
REMARK  status: ('A' for Active; 'I' for Inactive)
REMARK    1  A    between atoms: C1_2  and  C2_3 
REMARK    2  A    between atoms: C7_8  and  C8_9 
REMARK    3  A    between atoms: C8_9  and  N2_10 
ROOT
HETATM    1  N2  UNL     1      13.461  15.043   3.142  1.00  0.00    -0.385 N 
ATOM      2  H2  UNL     1      13.184  14.447   2.361  1.00  0.00     0.160 HD
HETATM    3  C9  UNL     1      14.266  14.520   3.986  1.00  0.00     0.043 A 
HETATM    4  C10 UNL     1      14.728  15.214   5.055  1.00  0.00     0.047 A 
HETATM    5  C11 UNL     1      15.506  14.544   6.003  1.00  0.00     0.092 A 
HETATM    6  N3  UNL     1      15.773  13.234   5.832  1.00  0.00    -0.351 N 
ATOM      7  H3  UNL     1      16.344  12.749   6.524  1.00  0.00     0.166 HD
HETATM    8  C12 UNL     1      15.309  12.554   4.778  1.00  0.00     0.117 A 
HETATM    9  N4  UNL     1      15.539  11.216   4.652  1.00  0.00    -0.352 N 
ATOM     10  H4  UNL     1      16.104  10.748   5.362  1.00  0.00     0.166 HD
HETATM   11  C13 UNL     1      15.058  10.496   3.644  1.00  0.00     0.090 A 
HETATM   12  C14 UNL     1      14.294  11.133   2.672  1.00  0.00     0.018 A 
HETATM   13  C15 UNL     1      14.031  12.471   2.751  1.00  0.00     0.019 A 
HETATM   14  C16 UNL     1      14.545  13.157   3.814  1.00  0.00     0.034 A 
ENDROOT
BRANCH   1  15
HETATM   15  C8  UNL     1      12.901  16.357   3.154  1.00  0.00     0.159 C 
BRANCH  15  16
HETATM   16  C7  UNL     1      13.422  17.218   2.088  1.00  0.00    -0.029 A 
HETATM   17  C2  UNL     1      12.802  17.147   0.860  1.00  0.00    -0.015 A 
HETATM   18  C3  UNL     1      13.322  17.942  -0.141  1.00  0.00     0.013 A 
HETATM   19  C4  UNL     1      14.399  18.790   0.017  1.00  0.00     0.001 A 
HETATM   20  C5  UNL     1      15.002  18.855   1.266  1.00  0.00     0.001 A 
HETATM   21  C6  UNL     1      14.510  18.068   2.291  1.00  0.00     0.010 A 
BRANCH  17  22
HETATM   22  C1  UNL     1      11.587  16.377   0.642  1.00  0.00     0.112 C 
HETATM   23  N1  UNL     1      11.654  15.016   0.307  1.00  0.00    -0.114 NA
ENDBRANCH  17  22
ENDBRANCH  15  16
ENDBRANCH   1  15
TORSDOF 3
ENDMDL
MODEL 3
REMARK VINA RESULT: -8.307971481      1.821      3.513
REMARK  3 active torsions:
REMARK  status: ('A' for Active; 'I' for Inactive)
REMARK    1  A    between atoms: C1_2  and  C2_3 
REMARK    2  A    between atoms: C7_8  and  C8_9 
REMARK    3  A    between atoms: C8_9  and  N2_10 
ROOT
HETATM    1  N2  UNL     1      13.503  15.483   3.618  1.00  0.00    -0.385 N 
ATOM      2  H2  UNL     1      13.828  16.058   4.395  1.00  0.00     0.160 HD
HETATM    3  C9  UNL     1      13.948  14.286   3.585  1.00  0.00     0.043 A 
HETATM    4  C10 UNL     1      13.574  13.413   2.616  1.00  0.00     0.047 A 
HETATM    5  C11 UNL     1      14.192  12.160   2.570  1.00  0.00     0.092 A 
HETATM    6  N3  UNL     1      15.139  11.856   3.480  1.00  0.00    -0.351 N 
ATOM      7  H3  UNL     1      15.586  10.940   3.444  1.00  0.00     0.166 HD
HETATM    8  C12 UNL     1      15.507  12.724   4.428  1.00  0.00     0.117 A 
HETATM    9  N4  UNL     1      16.508  12.421   5.302  1.00  0.00    -0.352 N 
ATOM     10  H4  UNL     1      16.949  11.502   5.242  1.00  0.00     0.166 HD
HETATM   11  C13 UNL     1      16.933  13.273   6.230  1.00  0.00     0.090 A 
HETATM   12  C14 UNL     1      16.329  14.523   6.318  1.00  0.00     0.018 A 
HETATM   13  C15 UNL     1      15.324  14.878   5.465  1.00  0.00     0.019 A 
HETATM   14  C16 UNL     1      14.935  13.964   4.527  1.00  0.00     0.034 A 
ENDROOT
BRANCH   1  15
HETATM   15  C8  UNL     1      12.607  16.117   2.704  1.00  0.00     0.159 C 
BRANCH  15  16
HETATM   16  C7  UNL     1      13.264  17.100   1.836  1.00  0.00    -0.029 A 
HETATM   17  C2  UNL     1      12.805  17.206   0.542  1.00  0.00    -0.015 A 
HETATM   18  C3  UNL     1      13.452  18.114  -0.271  1.00  0.00     0.013 A 
HETATM   19  C4  UNL     1      14.506  18.909   0.133  1.00  0.00     0.001 A 
HETATM   20  C5  UNL     1      14.945  18.795   1.446  1.00  0.00     0.001 A 
HETATM   21  C6  UNL     1      14.323  17.890   2.286  1.00  0.00     0.010 A 
BRANCH  17  22
HETATM   22  C1  UNL     1      11.623  16.499   0.072  1.00  0.00     0.112 C 
HETATM   23  N1  UNL     1      11.697  15.641  -1.035  1.00  0.00    -0.114 NA
ENDBRANCH  17  22
ENDBRANCH  15  16
ENDBRANCH   1  15
TORSDOF 3
ENDMDL
MODEL 4
REMARK VINA RESULT: -8.189831907      1.648      1.660
REMARK  3 active torsions:
REMARK  status: ('A' for Active; 'I' for Inactive)
REMARK    1  A    between atoms: C1_2  and  C2_3 
REMARK    2  A    between atoms: C7_8  and  C8_9 
REMARK    3  A    between atoms: C8_9  and  N2_10 
ROOT
HETATM    1  N2  UNL     1      15.128  14.292   4.092  1.00  0.00    -0.385 N 
ATOM      2  H2  UNL     1      15.322  13.893   3.173  1.00  0.00     0.160 HD
HETATM    3  C9  UNL     1      15.850  13.858   5.053  1.00  0.00     0.043 A 
HETATM    4  C10 UNL     1      15.708  14.325   6.318  1.00  0.00     0.047 A 
HETATM    5  C11 UNL     1      16.443  13.720   7.341  1.00  0.00     0.092 A 
HETATM    6  N3  UNL     1      17.266  12.694   7.046  1.00  0.00    -0.351 N 
ATOM      7  H3  UNL     1      17.803  12.257   7.794  1.00  0.00     0.166 HD
HETATM    8  C12 UNL     1      17.397  12.235   5.796  1.00  0.00     0.117 A 
HETATM    9  N4  UNL     1      18.188  11.158   5.526  1.00  0.00    -0.352 N 
ATOM     10  H4  UNL     1      18.709  10.730   6.292  1.00  0.00     0.166 HD
HETATM   11  C13 UNL     1      18.309  10.645   4.306  1.00  0.00     0.090 A 
HETATM   12  C14 UNL     1      17.606  11.232   3.260  1.00  0.00     0.018 A 
HETATM   13  C15 UNL     1      16.797  12.310   3.476  1.00  0.00     0.019 A 
HETATM   14  C16 UNL     1      16.706  12.790   4.752  1.00  0.00     0.034 A 
ENDROOT
BRANCH   1  15
HETATM   15  C8  UNL     1      14.085  15.267   4.142  1.00  0.00     0.159 C 
BRANCH  15  16
HETATM   16  C7  UNL     1      13.320  15.361   2.894  1.00  0.00    -0.029 A 
HETATM   17  C2  UNL     1      13.300  16.583   2.258  1.00  0.00    -0.015 A 
HETATM   18  C3  UNL     1      12.553  16.664   1.101  1.00  0.00     0.013 A 
HETATM   19  C4  UNL     1      11.846  15.612   0.553  1.00  0.00     0.001 A 
HETATM   20  C5  UNL     1      11.890  14.386   1.205  1.00  0.00     0.001 A 
HETATM   21  C6  UNL     1      12.625  14.270   2.371  1.00  0.00     0.010 A 
BRANCH  17  22
HETATM   22  C1  UNL     1      14.115  17.706   2.696  1.00  0.00     0.112 C 
HETATM   23  N1  UNL     1      14.877  18.438   1.775  1.00  0.00    -0.114 NA
ENDBRANCH  17  22
ENDBRANCH  15  16
ENDBRANCH   1  15
TORSDOF 3
ENDMDL
MODEL 5
REMARK VINA RESULT: -8.175908251      2.089      2.710
REMARK  3 active torsions:
REMARK  status: ('A' for Active; 'I' for Inactive)
REMARK    1  A    between atoms: C1_2  and  C2_3 
REMARK    2  A    between atoms: C7_8  and  C8_9 
REMARK    3  A    between atoms: C8_9  and  N2_10 
ROOT
HETATM    1  N2  UNL     1      15.063  14.367   4.307  1.00  0.00    -0.385 N 
ATOM      2  H2  UNL     1      15.169  13.983   3.368  1.00  0.00     0.160 HD
HETATM    3  C9  UNL     1      15.870  13.917   5.190  1.00  0.00     0.043 A 
HETATM    4  C10 UNL     1      15.846  14.363   6.470  1.00  0.00     0.047 A 
HETATM    5  C11 UNL     1      16.673  13.741   7.410  1.00  0.00     0.092 A 
HETATM    6  N3  UNL     1      17.463  12.720   7.023  1.00  0.00    -0.351 N 
ATOM      7  H3  UNL     1      18.066  12.270   7.711  1.00  0.00     0.166 HD
HETATM    8  C12 UNL     1      17.476  12.281   5.760  1.00  0.00     0.117 A 
HETATM    9  N4  UNL     1      18.236  11.209   5.400  1.00  0.00    -0.352 N 
ATOM     10  H4  UNL     1      18.825  10.767   6.107  1.00  0.00     0.166 HD
HETATM   11  C13 UNL     1      18.242  10.715   4.166  1.00  0.00     0.090 A 
HETATM   12  C14 UNL     1      17.446  11.319   3.199  1.00  0.00     0.018 A 
HETATM   13  C15 UNL     1      16.663  12.394   3.507  1.00  0.00     0.019 A 
HETATM   14  C16 UNL     1      16.692  12.853   4.793  1.00  0.00     0.034 A 
ENDROOT
BRANCH   1  15
HETATM   15  C8  UNL     1      14.030  15.341   4.470  1.00  0.00     0.159 C 
BRANCH  15  16
HETATM   16  C7  UNL     1      13.892  16.236   3.317  1.00  0.00    -0.029 A 
HETATM   17  C2  UNL     1      13.021  15.852   2.321  1.00  0.00    -0.015 A 
HETATM   18  C3  UNL     1      12.923  16.691   1.229  1.00  0.00     0.013 A 
HETATM   19  C4  UNL     1      13.627  17.869   1.085  1.00  0.00     0.001 A 
HETATM   20  C5  UNL     1      14.491  18.243   2.106  1.00  0.00     0.001 A 
HETATM   21  C6  UNL     1      14.618  17.423   3.213  1.00  0.00     0.010 A 
BRANCH  17  22
HETATM   22  C1  UNL     1      12.149  14.694   2.449  1.00  0.00     0.112 C 
HETATM   23  N1  UNL     1      11.671  14.030   1.310  1.00  0.00    -0.114 NA
ENDBRANCH  17  22
ENDBRANCH  15  16
ENDBRANCH   1  15
TORSDOF 3
ENDMDL
