MODEL 1
REMARK VINA RESULT: -7.861788511      0.000      0.000
REMARK  4 active torsions:
REMARK  status: ('A' for Active; 'I' for Inactive)
REMARK    1  A    between atoms: C4_5  and  C5_6 
REMARK    2  A    between atoms: C5_6  and  C6_7 
REMARK    3  A    between atoms: C6_7  and  N2_8 
REMARK    4  A    between atoms: N2_8  and  C7_10 
ROOT
HETATM    1  C7  UNL     1      15.907  10.859   5.928  1.00  0.00     0.114 A 
HETATM    2  N3  UNL     1      15.402  11.544   6.969  1.00  0.00    -0.338 N 
ATOM      3  H3  UNL     1      14.637  11.152   7.518  1.00  0.00     0.168 HD
HETATM    4  C8  UNL     1      15.916  12.757   7.287  1.00  0.00     0.182 A 
HETATM    5  N4  UNL     1      16.925  13.303   6.586  1.00  0.00    -0.352 N 
ATOM      6  H4  UNL     1      17.296  14.218   6.844  1.00  0.00     0.166 HD
HETATM    7  C9  UNL     1      17.437  12.635   5.549  1.00  0.00     0.047 A 
HETATM    8  C10 UNL     1      18.480  13.254   4.864  1.00  0.00     0.030 A 
HETATM    9  C11 UNL     1      19.022  12.597   3.802  1.00  0.00     0.002 A 
HETATM   10  C12 UNL     1      18.539  11.349   3.424  1.00  0.00     0.001 A 
HETATM   11  C13 UNL     1      17.502  10.743   4.114  1.00  0.00     0.017 A 
HETATM   12  C14 UNL     1      16.948  11.398   5.187  1.00  0.00     0.034 A 
ENDROOT
BRANCH   1  13
HETATM   13  N2  UNL     1      15.439   9.704   5.603  1.00  0.00    -0.375 N 
ATOM     14  H2  UNL     1      16.055   8.894   5.674  1.00  0.00     0.161 HD
BRANCH  13  15
HETATM   15  C6  UNL     1      14.084   9.498   5.143  1.00  0.00     0.126 C 
BRANCH  15  16
HETATM   16  C5  UNL     1      14.050   9.483   3.610  1.00  0.00     0.058 C 
BRANCH  16  17
HETATM   17  C4  UNL     1      13.496  10.766   3.116  1.00  0.00    -0.057 A 
HETATM   18  C3  UNL     1      12.114  10.949   3.089  1.00  0.00     0.009 A 
HETATM   19  C2  UNL     1      11.595  12.141   2.630  1.00  0.00     0.027 A 
HETATM   20  C1  UNL     1      12.381  13.185   2.188  1.00  0.00     0.046 A 
HETATM   21  N1  UNL     1      11.793  14.390   1.727  1.00  0.00    -0.102 NA
HETATM   22  C16 UNL     1      13.746  12.986   2.223  1.00  0.00     0.027 A 
HETATM   23  C15 UNL     1      14.293  11.801   2.677  1.00  0.00     0.009 A 
ENDBRANCH  16  17
ENDBRANCH  15  16
ENDBRANCH  13  15
ENDBRANCH   1  13
TORSDOF 4
ENDMDL
MODEL 2
REMARK VINA RESULT: -7.710716957      2.471      5.336
REMARK  4 active torsions:
REMARK  status: ('A' for Active; 'I' for Inactive)
REMARK    1  A    between atoms: C4_5  and  C5_6 
REMARK    2  A    between atoms: C5_6  and  C6_7 
REMARK    3  A    between atoms: C6_7  and  N2_8 
REMARK    4  A    between atoms: N2_8  and  C7_10 
ROOT
HETATM    1  C7  UNL     1      14.278  13.462   4.403  1.00  0.00     0.114 A 
HETATM    2  N3  UNL     1      15.076  13.899   5.393  1.00  0.00    -0.338 N 
ATOM      3  H3  UNL     1      15.518  13.233   6.027  1.00  0.00     0.168 HD
HETATM    4  C8  UNL     1      15.291  15.229   5.545  1.00  0.00     0.182 A 
HETATM    5  N4  UNL     1      14.726  16.135   4.727  1.00  0.00    -0.352 N 
ATOM      6  H4  UNL     1      14.902  17.131   4.861  1.00  0.00     0.166 HD
HETATM    7  C9  UNL     1      13.931  15.716   3.740  1.00  0.00     0.047 A 
HETATM    8  C10 UNL     1      13.375  16.703   2.927  1.00  0.00     0.030 A 
HETATM    9  C11 UNL     1      12.560  16.306   1.912  1.00  0.00     0.002 A 
HETATM   10  C12 UNL     1      12.299  14.957   1.703  1.00  0.00     0.001 A 
HETATM   11  C13 UNL     1      12.857  13.985   2.517  1.00  0.00     0.017 A 
HETATM   12  C14 UNL     1      13.681  14.374   3.545  1.00  0.00     0.034 A 
ENDROOT
BRANCH   1  13
HETATM   13  N2  UNL     1      14.056  12.205   4.234  1.00  0.00    -0.375 N 
ATOM     14  H2  UNL     1      13.388  11.923   3.518  1.00  0.00     0.161 HD
BRANCH  13  15
HETATM   15  C6  UNL     1      14.708  11.174   5.011  1.00  0.00     0.126 C 
BRANCH  15  16
HETATM   16  C5  UNL     1      15.663  10.373   4.118  1.00  0.00     0.058 C 
BRANCH  16  17
HETATM   17  C4  UNL     1      16.916  11.140   3.923  1.00  0.00    -0.057 A 
HETATM   18  C3  UNL     1      17.695  11.471   5.032  1.00  0.00     0.009 A 
HETATM   19  C2  UNL     1      18.861  12.185   4.854  1.00  0.00     0.027 A 
HETATM   20  C1  UNL     1      19.313  12.596   3.618  1.00  0.00     0.046 A 
HETATM   21  N1  UNL     1      20.521  13.327   3.494  1.00  0.00    -0.102 NA
HETATM   22  C16 UNL     1      18.529  12.259   2.532  1.00  0.00     0.027 A 
HETATM   23  C15 UNL     1      17.355  11.546   2.681  1.00  0.00     0.009 A 
ENDBRANCH  16  17
ENDBRANCH  15  16
ENDBRANCH  13  15
ENDBRANCH   1  13
TORSDOF 4
ENDMDL
MODEL 3
REMARK VINA RESULT: -7.707716033      3.203      4.223
REMARK  4 active torsions:
REMARK  status: ('A' for Active; 'I' for Inactive)
REMARK    1  A    between atoms: C4_5  and  C5_6 
REMARK    2  A    between atoms: C5_6  and  C6_7 
REMARK    3  A    between atoms: C6_7  and  N2_8 
REMARK    4  A    between atoms: N2_8  and  C7_10 
ROOT
HETATM    1  C7  UNL     1      15.772  13.631   5.460  1.00  0.00     0.114 A 
HETATM    2  N3  UNL     1      16.044  13.926   6.744  1.00  0.00    -0.338 N 
ATOM      3  H3  UNL     1      15.480  14.613   7.243  1.00  0.00     0.168 HD
HETATM    4  C8  UNL     1      17.073  13.303   7.371  1.00  0.00     0.182 A 
HETATM    5  N4  UNL     1      17.837  12.392   6.744  1.00  0.00    -0.352 N 
ATOM      6  H4  UNL     1      18.605  11.937   7.237  1.00  0.00     0.166 HD
HETATM    7  C9  UNL     1      17.578  12.089   5.469  1.00  0.00     0.047 A 
HETATM    8  C10 UNL     1      18.405  11.138   4.876  1.00  0.00     0.030 A 
HETATM    9  C11 UNL     1      18.166  10.809   3.577  1.00  0.00     0.002 A 
HETATM   10  C12 UNL     1      17.127  11.411   2.877  1.00  0.00     0.001 A 
HETATM   11  C13 UNL     1      16.311  12.356   3.478  1.00  0.00     0.017 A 
HETATM   12  C14 UNL     1      16.544  12.695   4.788  1.00  0.00     0.034 A 
ENDROOT
BRANCH   1  13
HETATM   13  N2  UNL     1      14.802  14.205   4.839  1.00  0.00    -0.375 N 
ATOM     14  H2  UNL     1      14.029  13.628   4.508  1.00  0.00     0.161 HD
BRANCH  13  15
HETATM   15  C6  UNL     1      14.753  15.629   4.587  1.00  0.00     0.126 C 
BRANCH  15  16
HETATM   16  C5  UNL     1      13.345  16.030   4.132  1.00  0.00     0.058 C 
BRANCH  16  17
HETATM   17  C4  UNL     1      13.429  16.734   2.829  1.00  0.00    -0.057 A 
HETATM   18  C3  UNL     1      12.561  16.372   1.800  1.00  0.00     0.009 A 
HETATM   19  C2  UNL     1      12.636  17.023   0.587  1.00  0.00     0.027 A 
HETATM   20  C1  UNL     1      13.538  18.034   0.329  1.00  0.00     0.046 A 
HETATM   21  N1  UNL     1      13.570  18.670  -0.938  1.00  0.00    -0.102 NA
HETATM   22  C16 UNL     1      14.389  18.379   1.359  1.00  0.00     0.027 A 
HETATM   23  C15 UNL     1      14.337  17.742   2.584  1.00  0.00     0.009 A 
ENDBRANCH  16  17
ENDBRANCH  15  16
ENDBRANCH  13  15
ENDBRANCH   1  13
TORSDOF 4
ENDMDL
MODEL 4
REMARK VINA RESULT: -7.682345547      3.109      4.664
REMARK  4 active torsions:
REMARK  status: ('A' for Active; 'I' for Inactive)
REMARK    1  A    between atoms: C4_5  and  C5_6 
REMARK    2  A    between atoms: C5_6  and  C6_7 
REMARK    3  A    between atoms: C6_7  and  N2_8 
REMARK    4  A    between atoms: N2_8  and  C7_10 
ROOT
HETATM    1  C7  UNL     1      15.748  13.677   5.542  1.00  0.00     0.114 A 
HETATM    2  N3  UNL     1      15.947  13.784   6.868  1.00  0.00    -0.338 N 
ATOM      3  H3  UNL     1      16.225  14.677   7.274  1.00  0.00     0.168 HD
HETATM    4  C8  UNL     1      15.775  12.698   7.662  1.00  0.00     0.182 A 
HETATM    5  N4  UNL     1      15.408  11.506   7.161  1.00  0.00    -0.352 N 
ATOM      6  H4  UNL     1      15.285  10.703   7.778  1.00  0.00     0.166 HD
HETATM    7  C9  UNL     1      15.207  11.385   5.846  1.00  0.00     0.047 A 
HETATM    8  C10 UNL     1      14.829  10.124   5.389  1.00  0.00     0.030 A 
HETATM    9  C11 UNL     1      14.617   9.969   4.053  1.00  0.00     0.002 A 
HETATM   10  C12 UNL     1      14.777  11.043   3.185  1.00  0.00     0.001 A 
HETATM   11  C13 UNL     1      15.153  12.292   3.651  1.00  0.00     0.017 A 
HETATM   12  C14 UNL     1      15.370  12.459   4.997  1.00  0.00     0.034 A 
ENDROOT
BRANCH   1  13
HETATM   13  N2  UNL     1      15.903  14.690   4.764  1.00  0.00    -0.375 N 
ATOM     14  H2  UNL     1      16.592  14.625   4.015  1.00  0.00     0.161 HD
BRANCH  13  15
HETATM   15  C6  UNL     1      15.148  15.917   4.898  1.00  0.00     0.126 C 
BRANCH  15  16
HETATM   16  C5  UNL     1      13.746  15.734   4.306  1.00  0.00     0.058 C 
BRANCH  16  17
HETATM   17  C4  UNL     1      13.636  16.515   3.050  1.00  0.00    -0.057 A 
HETATM   18  C3  UNL     1      14.467  17.618   2.855  1.00  0.00     0.009 A 
HETATM   19  C2  UNL     1      14.367  18.346   1.689  1.00  0.00     0.027 A 
HETATM   20  C1  UNL     1      13.475  18.039   0.683  1.00  0.00     0.046 A 
HETATM   21  N1  UNL     1      13.415  18.824  -0.497  1.00  0.00    -0.102 NA
HETATM   22  C16 UNL     1      12.660  16.945   0.893  1.00  0.00     0.027 A 
HETATM   23  C15 UNL     1      12.739  16.198   2.053  1.00  0.00     0.009 A 
ENDBRANCH  16  17
ENDBRANCH  15  16
ENDBRANCH  13  15
ENDBRANCH   1  13
TORSDOF 4
ENDMDL
MODEL 5
REMARK VINA RESULT: -7.673764226      2.482      5.381
REMARK  4 active torsions:
REMARK  status: ('A' for Active; 'I' for Inactive)
REMARK    1  A    between atoms: C4_5  and  C5_6 
REMARK    2  A    between atoms: C5_6  and  C6_7 
REMARK    3  A    between atoms: C6_7  and  N2_8 
REMARK    4  A    between atoms: N2_8  and  C7_10 
ROOT
HETATM    1  C7  UNL     1      14.252  13.485   4.364  1.00  0.00     0.114 A 
HETATM    2  N3  UNL     1      15.053  13.928   5.349  1.00  0.00    -0.338 N 
ATOM      3  H3  UNL     1      15.497  13.266   5.986  1.00  0.00     0.168 HD
HETATM    4  C8  UNL     1      15.267  15.259   5.492  1.00  0.00     0.182 A 
HETATM    5  N4  UNL     1      14.699  16.159   4.671  1.00  0.00    -0.352 N 
ATOM      6  H4  UNL     1      14.875  17.156   4.798  1.00  0.00     0.166 HD
HETATM    7  C9  UNL     1      13.901  15.734   3.688  1.00  0.00     0.047 A 
HETATM    8  C10 UNL     1      13.342  16.715   2.872  1.00  0.00     0.030 A 
HETATM    9  C11 UNL     1      12.525  16.312   1.861  1.00  0.00     0.002 A 
HETATM   10  C12 UNL     1      12.263  14.961   1.662  1.00  0.00     0.001 A 
HETATM   11  C13 UNL     1      12.825  13.995   2.480  1.00  0.00     0.017 A 
HETATM   12  C14 UNL     1      13.652  14.391   3.502  1.00  0.00     0.034 A 
ENDROOT
BRANCH   1  13
HETATM   13  N2  UNL     1      14.031  12.227   4.204  1.00  0.00    -0.375 N 
ATOM     14  H2  UNL     1      13.362  11.939   3.489  1.00  0.00     0.161 HD
BRANCH  13  15
HETATM   15  C6  UNL     1      14.683  11.200   4.987  1.00  0.00     0.126 C 
BRANCH  15  16
HETATM   16  C5  UNL     1      15.659  10.413   4.106  1.00  0.00     0.058 C 
BRANCH  16  17
HETATM   17  C4  UNL     1      16.933  11.164   3.988  1.00  0.00    -0.057 A 
HETATM   18  C3  UNL     1      17.375  11.565   2.727  1.00  0.00     0.009 A 
HETATM   19  C2  UNL     1      18.558  12.263   2.613  1.00  0.00     0.027 A 
HETATM   20  C1  UNL     1      19.345  12.596   3.696  1.00  0.00     0.046 A 
HETATM   21  N1  UNL     1      20.553  13.316   3.520  1.00  0.00    -0.102 NA
HETATM   22  C16 UNL     1      18.891  12.190   4.935  1.00  0.00     0.027 A 
HETATM   23  C15 UNL     1      17.710  11.489   5.079  1.00  0.00     0.009 A 
ENDBRANCH  16  17
ENDBRANCH  15  16
ENDBRANCH  13  15
ENDBRANCH   1  13
TORSDOF 4
ENDMDL
