MODEL 1
REMARK VINA RESULT: -8.457499029      0.000      0.000
REMARK  3 active torsions:
REMARK  status: ('A' for Active; 'I' for Inactive)
REMARK    1  A    between atoms: C4_4  and  C5_5 
REMARK    2  A    between atoms: C9_9  and  C10_10 
REMARK    3  A    between atoms: C10_10  and  N1_11 
ROOT
HETATM    1  C5  UNL     1      14.824  12.872   4.736  1.00  0.00    -0.025 A 
HETATM    2  C6  UNL     1      15.789  13.170   5.678  1.00  0.00     0.012 A 
HETATM    3  C7  UNL     1      16.026  14.487   6.010  1.00  0.00     0.001 A 
HETATM    4  C8  UNL     1      15.297  15.492   5.397  1.00  0.00     0.009 A 
HETATM    5  C9  UNL     1      14.331  15.234   4.457  1.00  0.00    -0.039 A 
HETATM    6  C14 UNL     1      14.115  13.900   4.144  1.00  0.00     0.021 A 
ENDROOT
BRANCH   5   7
HETATM    7  C10 UNL     1      13.544  16.309   3.799  1.00  0.00     0.176 C 
BRANCH   7   8
HETATM    8  N1  UNL     1      14.403  17.394   3.382  1.00  0.00    -0.222 N 
HETATM    9  C11 UNL     1      14.308  17.859   2.185  1.00  0.00     0.680 A 
HETATM   10  N2  UNL     1      15.064  18.865   1.709  1.00  0.00    -0.188 N 
HETATM   11  N4  UNL     1      13.405  17.317   1.350  1.00  0.00    -0.188 N 
HETATM   12  C12 UNL     1      14.902  19.297   0.428  1.00  0.00     0.199 A 
ATOM     13  H2  UNL     1      15.760  19.306   2.310  1.00  0.00     0.185 HD
HETATM   14  N3  UNL     1      13.984  18.724  -0.375  1.00  0.00    -0.348 N 
HETATM   15  C13 UNL     1      13.219  17.717   0.085  1.00  0.00     0.199 A 
ATOM     16  H3  UNL     1      13.868  19.054  -1.333  1.00  0.00     0.167 HD
ATOM     17  H4  UNL     1      12.826  16.554   1.700  1.00  0.00     0.185 HD
ATOM     18  H1  UNL     1      15.082  17.789   4.033  1.00  0.00     0.178 HD
ENDBRANCH   7   8
ENDBRANCH   5   7
BRANCH   1  19
HETATM   19  C4  UNL     1      14.569  11.469   4.404  1.00  0.00    -0.026 A 
HETATM   20  C3  UNL     1      13.874  11.155   3.245  1.00  0.00     0.012 A 
HETATM   21  C2  UNL     1      13.621   9.843   2.898  1.00  0.00     0.001 A 
HETATM   22  C1  UNL     1      14.042   8.787   3.677  1.00  0.00     0.000 A 
HETATM   23  C16 UNL     1      14.737   9.098   4.837  1.00  0.00     0.001 A 
HETATM   24  C15 UNL     1      14.995  10.426   5.191  1.00  0.00     0.012 A 
ENDBRANCH   1  19
TORSDOF 3
ENDMDL
MODEL 2
REMARK VINA RESULT: -8.453775927      0.183      1.070
REMARK  3 active torsions:
REMARK  status: ('A' for Active; 'I' for Inactive)
REMARK    1  A    between atoms: C4_4  and  C5_5 
REMARK    2  A    between atoms: C9_9  and  C10_10 
REMARK    3  A    between atoms: C10_10  and  N1_11 
ROOT
HETATM    1  C5  UNL     1      14.965  12.952   4.788  1.00  0.00    -0.025 A 
HETATM    2  C6  UNL     1      15.963  13.264   5.690  1.00  0.00     0.012 A 
HETATM    3  C7  UNL     1      16.207  14.585   5.998  1.00  0.00     0.001 A 
HETATM    4  C8  UNL     1      15.451  15.581   5.402  1.00  0.00     0.009 A 
HETATM    5  C9  UNL     1      14.452  15.309   4.502  1.00  0.00    -0.039 A 
HETATM    6  C14 UNL     1      14.230  13.971   4.212  1.00  0.00     0.021 A 
ENDROOT
BRANCH   5   7
HETATM    7  C10 UNL     1      13.636  16.374   3.863  1.00  0.00     0.176 C 
BRANCH   7   8
HETATM    8  N1  UNL     1      14.475  17.456   3.400  1.00  0.00    -0.222 N 
HETATM    9  C11 UNL     1      14.344  17.893   2.196  1.00  0.00     0.680 A 
HETATM   10  N2  UNL     1      15.078  18.895   1.678  1.00  0.00    -0.188 N 
HETATM   11  N4  UNL     1      13.425  17.325   1.396  1.00  0.00    -0.188 N 
HETATM   12  C12 UNL     1      14.880  19.297   0.392  1.00  0.00     0.199 A 
ATOM     13  H2  UNL     1      15.786  19.354   2.251  1.00  0.00     0.185 HD
HETATM   14  N3  UNL     1      13.947  18.698  -0.373  1.00  0.00    -0.348 N 
HETATM   15  C13 UNL     1      13.204  17.695   0.129  1.00  0.00     0.199 A 
ATOM     16  H3  UNL     1      13.804  19.006  -1.335  1.00  0.00     0.167 HD
ATOM     17  H4  UNL     1      12.862  16.566   1.778  1.00  0.00     0.185 HD
ATOM     18  H1  UNL     1      15.166  17.872   4.024  1.00  0.00     0.178 HD
ENDBRANCH   7   8
ENDBRANCH   5   7
BRANCH   1  19
HETATM   19  C4  UNL     1      14.704  11.544   4.480  1.00  0.00    -0.026 A 
HETATM   20  C3  UNL     1      15.149  10.559   5.349  1.00  0.00     0.012 A 
HETATM   21  C2  UNL     1      14.916   9.223   5.094  1.00  0.00     0.001 A 
HETATM   22  C1  UNL     1      14.235   8.802   3.972  1.00  0.00     0.000 A 
HETATM   23  C16 UNL     1      13.789   9.785   3.100  1.00  0.00     0.001 A 
HETATM   24  C15 UNL     1      14.024  11.139   3.357  1.00  0.00     0.012 A 
ENDBRANCH   1  19
TORSDOF 3
ENDMDL
MODEL 3
REMARK VINA RESULT: -8.246680217      3.316      4.949
REMARK  3 active torsions:
REMARK  status: ('A' for Active; 'I' for Inactive)
REMARK    1  A    between atoms: C4_4  and  C5_5 
REMARK    2  A    between atoms: C9_9  and  C10_10 
REMARK    3  A    between atoms: C10_10  and  N1_11 
ROOT
HETATM    1  C5  UNL     1      13.246  12.785   3.263  1.00  0.00    -0.025 A 
HETATM    2  C6  UNL     1      12.787  13.945   2.670  1.00  0.00     0.012 A 
HETATM    3  C7  UNL     1      13.296  15.160   3.079  1.00  0.00     0.001 A 
HETATM    4  C8  UNL     1      14.256  15.202   4.076  1.00  0.00     0.009 A 
HETATM    5  C9  UNL     1      14.735  14.071   4.688  1.00  0.00    -0.039 A 
HETATM    6  C14 UNL     1      14.205  12.864   4.255  1.00  0.00     0.021 A 
ENDROOT
BRANCH   5   7
HETATM    7  C10 UNL     1      15.767  14.112   5.754  1.00  0.00     0.176 C 
BRANCH   7   8
HETATM    8  N1  UNL     1      16.940  14.828   5.308  1.00  0.00    -0.222 N 
HETATM    9  C11 UNL     1      17.944  14.176   4.833  1.00  0.00     0.680 A 
HETATM   10  N2  UNL     1      19.076  14.756   4.393  1.00  0.00    -0.188 N 
HETATM   11  N4  UNL     1      17.873  12.835   4.767  1.00  0.00    -0.188 N 
HETATM   12  C12 UNL     1      20.094  13.993   3.907  1.00  0.00     0.199 A 
ATOM     13  H2  UNL     1      19.171  15.771   4.424  1.00  0.00     0.185 HD
HETATM   14  N3  UNL     1      19.978  12.652   3.860  1.00  0.00    -0.348 N 
HETATM   15  C13 UNL     1      18.853  12.055   4.295  1.00  0.00     0.199 A 
ATOM     16  H3  UNL     1      20.744  12.087   3.494  1.00  0.00     0.167 HD
ATOM     17  H4  UNL     1      17.019  12.384   5.096  1.00  0.00     0.185 HD
ATOM     18  H1  UNL     1      16.973  15.846   5.368  1.00  0.00     0.178 HD
ENDBRANCH   7   8
ENDBRANCH   5   7
BRANCH   1  19
HETATM   19  C4  UNL     1      12.710  11.500   2.810  1.00  0.00    -0.026 A 
HETATM   20  C3  UNL     1      11.380  11.409   2.425  1.00  0.00     0.012 A 
HETATM   21  C2  UNL     1      10.844  10.215   1.987  1.00  0.00     0.001 A 
HETATM   22  C1  UNL     1      11.594   9.062   1.910  1.00  0.00     0.000 A 
HETATM   23  C16 UNL     1      12.925   9.149   2.295  1.00  0.00     0.001 A 
HETATM   24  C15 UNL     1      13.471  10.357   2.739  1.00  0.00     0.012 A 
ENDBRANCH   1  19
TORSDOF 3
ENDMDL
MODEL 4
REMARK VINA RESULT: -8.231461042      1.008      1.452
REMARK  3 active torsions:
REMARK  status: ('A' for Active; 'I' for Inactive)
REMARK    1  A    between atoms: C4_4  and  C5_5 
REMARK    2  A    between atoms: C9_9  and  C10_10 
REMARK    3  A    between atoms: C10_10  and  N1_11 
ROOT
HETATM    1  C5  UNL     1      13.878  12.734   3.760  1.00  0.00    -0.025 A 
HETATM    2  C6  UNL     1      15.000  12.593   4.553  1.00  0.00     0.012 A 
HETATM    3  C7  UNL     1      15.594  13.716   5.090  1.00  0.00     0.001 A 
HETATM    4  C8  UNL     1      15.061  14.967   4.828  1.00  0.00     0.009 A 
HETATM    5  C9  UNL     1      13.948  15.145   4.044  1.00  0.00    -0.039 A 
HETATM    6  C14 UNL     1      13.373  13.998   3.519  1.00  0.00     0.021 A 
ENDROOT
BRANCH   5   7
HETATM    7  C10 UNL     1      13.372  16.485   3.764  1.00  0.00     0.176 C 
BRANCH   7   8
HETATM    8  N1  UNL     1      14.394  17.401   3.313  1.00  0.00    -0.222 N 
HETATM    9  C11 UNL     1      14.351  17.864   2.112  1.00  0.00     0.680 A 
HETATM   10  N2  UNL     1      15.256  18.720   1.605  1.00  0.00    -0.188 N 
HETATM   11  N4  UNL     1      13.348  17.478   1.304  1.00  0.00    -0.188 N 
HETATM   12  C12 UNL     1      15.140  19.161   0.322  1.00  0.00     0.199 A 
ATOM     13  H2  UNL     1      16.032  19.040   2.184  1.00  0.00     0.185 HD
HETATM   14  N3  UNL     1      14.118  18.747  -0.452  1.00  0.00    -0.348 N 
HETATM   15  C13 UNL     1      13.203  17.892   0.039  1.00  0.00     0.199 A 
ATOM     16  H3  UNL     1      14.037  19.083  -1.411  1.00  0.00     0.167 HD
ATOM     17  H4  UNL     1      12.655  16.830   1.678  1.00  0.00     0.185 HD
ATOM     18  H1  UNL     1      15.147  17.680   3.943  1.00  0.00     0.178 HD
ENDBRANCH   7   8
ENDBRANCH   5   7
BRANCH   1  19
HETATM   19  C4  UNL     1      13.246  11.533   3.209  1.00  0.00    -0.026 A 
HETATM   20  C3  UNL     1      11.903  11.564   2.861  1.00  0.00     0.012 A 
HETATM   21  C2  UNL     1      11.277  10.453   2.334  1.00  0.00     0.001 A 
HETATM   22  C1  UNL     1      11.947   9.267   2.127  1.00  0.00     0.000 A 
HETATM   23  C16 UNL     1      13.290   9.232   2.475  1.00  0.00     0.001 A 
HETATM   24  C15 UNL     1      13.927  10.356   3.009  1.00  0.00     0.012 A 
ENDBRANCH   1  19
TORSDOF 3
ENDMDL
MODEL 5
REMARK VINA RESULT: -8.207814022      4.111      6.926
REMARK  3 active torsions:
REMARK  status: ('A' for Active; 'I' for Inactive)
REMARK    1  A    between atoms: C4_4  and  C5_5 
REMARK    2  A    between atoms: C9_9  and  C10_10 
REMARK    3  A    between atoms: C10_10  and  N1_11 
ROOT
HETATM    1  C5  UNL     1      12.494  12.670   2.836  1.00  0.00    -0.025 A 
HETATM    2  C6  UNL     1      11.543  11.882   2.218  1.00  0.00     0.012 A 
HETATM    3  C7  UNL     1      11.395  10.568   2.611  1.00  0.00     0.001 A 
HETATM    4  C8  UNL     1      12.200  10.057   3.616  1.00  0.00     0.009 A 
HETATM    5  C9  UNL     1      13.155  10.810   4.251  1.00  0.00    -0.039 A 
HETATM    6  C14 UNL     1      13.279  12.128   3.835  1.00  0.00     0.021 A 
ENDROOT
BRANCH   5   7
HETATM    7  C10 UNL     1      14.017  10.267   5.332  1.00  0.00     0.176 C 
BRANCH   7   8
HETATM    8  N1  UNL     1      15.412  10.514   5.050  1.00  0.00    -0.222 N 
HETATM    9  C11 UNL     1      16.080  11.325   5.796  1.00  0.00     0.680 A 
HETATM   10  N2  UNL     1      17.380  11.616   5.611  1.00  0.00    -0.188 N 
HETATM   11  N4  UNL     1      15.454  11.924   6.824  1.00  0.00    -0.188 N 
HETATM   12  C12 UNL     1      18.013  12.487   6.444  1.00  0.00     0.199 A 
ATOM     13  H2  UNL     1      17.893  11.182   4.844  1.00  0.00     0.185 HD
HETATM   14  N3  UNL     1      17.346  13.065   7.462  1.00  0.00    -0.348 N 
HETATM   15  C13 UNL     1      16.045  12.784   7.662  1.00  0.00     0.199 A 
ATOM     16  H3  UNL     1      17.827  13.715   8.083  1.00  0.00     0.167 HD
ATOM     17  H4  UNL     1      14.468  11.710   6.974  1.00  0.00     0.185 HD
ATOM     18  H1  UNL     1      15.867  10.049   4.264  1.00  0.00     0.178 HD
ENDBRANCH   7   8
ENDBRANCH   5   7
BRANCH   1  19
HETATM   19  C4  UNL     1      12.630  14.068   2.422  1.00  0.00    -0.026 A 
HETATM   20  C3  UNL     1      11.992  14.508   1.271  1.00  0.00     0.012 A 
HETATM   21  C2  UNL     1      12.094  15.819   0.854  1.00  0.00     0.001 A 
HETATM   22  C1  UNL     1      12.829  16.752   1.554  1.00  0.00     0.000 A 
HETATM   23  C16 UNL     1      13.469  16.316   2.705  1.00  0.00     0.001 A 
HETATM   24  C15 UNL     1      13.367  14.988   3.129  1.00  0.00     0.012 A 
ENDBRANCH   1  19
TORSDOF 3
ENDMDL
