MODEL 1
REMARK VINA RESULT: -7.299886644      0.000      0.000
REMARK  3 active torsions:
REMARK  status: ('A' for Active; 'I' for Inactive)
REMARK    1  A    between atoms: C3_7  and  C4_8 
REMARK    2  A    between atoms: N3_12  and  C8_13 
REMARK    3  A    between atoms: C8_13  and  C9_14 
ROOT
HETATM    1  C4  UNL     1      18.016  13.203   5.083  1.00  0.00     0.060 C 
HETATM    2  C5  UNL     1      17.160  12.212   5.840  1.00  0.00     0.020 C 
HETATM    3  C6  UNL     1      16.793  12.884   7.136  1.00  0.00     0.046 C 
HETATM    4  C7  UNL     1      15.805  13.991   6.770  1.00  0.00     0.063 C 
HETATM    5  N3  UNL     1      16.332  14.873   5.846  1.00  0.00    -0.371 N 
HETATM    6  C15 UNL     1      17.457  14.569   5.056  1.00  0.00     0.072 C 
ENDROOT
BRANCH   5   7
HETATM    7  C8  UNL     1      15.460  15.738   5.135  1.00  0.00     0.160 C 
BRANCH   7   8
HETATM    8  C9  UNL     1      14.198  15.186   4.561  1.00  0.00     0.204 C 
HETATM    9  C10 UNL     1      14.385  14.104   3.603  1.00  0.00     0.035 C 
HETATM   10  C11 UNL     1      13.470  14.047   2.425  1.00  0.00     0.002 C 
HETATM   11  C12 UNL     1      12.183  14.792   2.546  1.00  0.00     0.002 C 
HETATM   12  C13 UNL     1      12.465  16.200   1.994  1.00  0.00     0.027 C 
HETATM   13  C14 UNL     1      13.714  16.644   2.775  1.00  0.00     0.233 C 
HETATM   14  N4  UNL     1      13.404  16.321   4.148  1.00  0.00    -0.069 N 
ATOM     15  H42 UNL     1      12.406  16.170   4.294  1.00  0.00     0.277 HD
ATOM     16  H41 UNL     1      13.521  17.122   4.770  1.00  0.00     0.277 HD
ENDBRANCH   7   8
ENDBRANCH   5   7
BRANCH   1  17
HETATM   17  C3  UNL     1      18.259  12.732   3.702  1.00  0.00    -0.015 A 
HETATM   18  C1  UNL     1      19.235  13.205   2.854  1.00  0.00     0.116 A 
HETATM   19  N1  UNL     1      19.172  12.551   1.682  1.00  0.00    -0.312 N 
HETATM   20  N2  UNL     1      18.183  11.689   1.785  1.00  0.00    -0.312 N 
ATOM     21  H1  UNL     1      19.773  12.695   0.871  1.00  0.00     0.186 HD
HETATM   22  C2  UNL     1      17.602  11.760   2.981  1.00  0.00     0.116 A 
ATOM     23  H2  UNL     1      17.899  11.049   1.043  1.00  0.00     0.186 HD
ENDBRANCH   1  17
TORSDOF 3
ENDMDL
MODEL 2
REMARK VINA RESULT: -7.133901933      1.295      1.611
REMARK  3 active torsions:
REMARK  status: ('A' for Active; 'I' for Inactive)
REMARK    1  A    between atoms: C3_7  and  C4_8 
REMARK    2  A    between atoms: N3_12  and  C8_13 
REMARK    3  A    between atoms: C8_13  and  C9_14 
ROOT
HETATM    1  C4  UNL     1      17.604  11.529   4.518  1.00  0.00     0.060 C 
HETATM    2  C5  UNL     1      16.448  10.595   4.229  1.00  0.00     0.020 C 
HETATM    3  C6  UNL     1      15.741  10.393   5.541  1.00  0.00     0.046 C 
HETATM    4  C7  UNL     1      15.048  11.718   5.854  1.00  0.00     0.063 C 
HETATM    5  N3  UNL     1      15.938  12.774   5.890  1.00  0.00    -0.371 N 
HETATM    6  C15 UNL     1      17.226  12.706   5.325  1.00  0.00     0.072 C 
ENDROOT
BRANCH   5   7
HETATM    7  C8  UNL     1      15.445  14.103   5.814  1.00  0.00     0.160 C 
BRANCH   7   8
HETATM    8  C9  UNL     1      14.213  14.375   5.018  1.00  0.00     0.204 C 
HETATM    9  C10 UNL     1      14.174  13.730   3.713  1.00  0.00     0.035 C 
HETATM   10  C11 UNL     1      13.562  14.483   2.578  1.00  0.00     0.002 C 
HETATM   11  C12 UNL     1      12.649  15.606   2.941  1.00  0.00     0.002 C 
HETATM   12  C13 UNL     1      13.540  16.858   3.018  1.00  0.00     0.027 C 
HETATM   13  C14 UNL     1      14.678  16.428   3.959  1.00  0.00     0.233 C 
HETATM   14  N4  UNL     1      14.000  15.804   5.071  1.00  0.00    -0.069 N 
ATOM     15  H42 UNL     1      13.009  16.047   5.105  1.00  0.00     0.277 HD
ATOM     16  H41 UNL     1      14.277  16.205   5.967  1.00  0.00     0.277 HD
ENDBRANCH   7   8
ENDBRANCH   5   7
BRANCH   1  17
HETATM   17  C3  UNL     1      18.244  11.968   3.259  1.00  0.00    -0.015 A 
HETATM   18  C1  UNL     1      19.207  12.947   3.148  1.00  0.00     0.116 A 
HETATM   19  N1  UNL     1      19.567  13.083   1.861  1.00  0.00    -0.312 N 
HETATM   20  N2  UNL     1      18.853  12.216   1.176  1.00  0.00    -0.312 N 
ATOM     21  H1  UNL     1      20.259  13.733   1.488  1.00  0.00     0.186 HD
HETATM   22  C2  UNL     1      18.042  11.522   1.972  1.00  0.00     0.116 A 
ATOM     23  H2  UNL     1      18.914  12.092   0.165  1.00  0.00     0.186 HD
ENDBRANCH   1  17
TORSDOF 3
ENDMDL
MODEL 3
REMARK VINA RESULT: -7.099427091      2.964      4.852
REMARK  3 active torsions:
REMARK  status: ('A' for Active; 'I' for Inactive)
REMARK    1  A    between atoms: C3_7  and  C4_8 
REMARK    2  A    between atoms: N3_12  and  C8_13 
REMARK    3  A    between atoms: C8_13  and  C9_14 
ROOT
HETATM    1  C4  UNL     1      16.348  14.616   4.928  1.00  0.00     0.060 C 
HETATM    2  C5  UNL     1      15.466  15.729   5.450  1.00  0.00     0.020 C 
HETATM    3  C6  UNL     1      14.756  16.294   4.250  1.00  0.00     0.046 C 
HETATM    4  C7  UNL     1      13.751  15.227   3.817  1.00  0.00     0.063 C 
HETATM    5  N3  UNL     1      14.361  14.016   3.550  1.00  0.00    -0.371 N 
HETATM    6  C15 UNL     1      15.657  13.700   4.000  1.00  0.00     0.072 C 
ENDROOT
BRANCH   5   7
HETATM    7  C8  UNL     1      13.570  12.840   3.481  1.00  0.00     0.160 C 
BRANCH   7   8
HETATM    8  C9  UNL     1      14.199  11.523   3.797  1.00  0.00     0.204 C 
HETATM    9  C10 UNL     1      13.965  10.481   2.807  1.00  0.00     0.035 C 
HETATM   10  C11 UNL     1      13.760   9.086   3.296  1.00  0.00     0.002 C 
HETATM   11  C12 UNL     1      14.255   8.784   4.671  1.00  0.00     0.002 C 
HETATM   12  C13 UNL     1      13.068   9.063   5.610  1.00  0.00     0.027 C 
HETATM   13  C14 UNL     1      12.634  10.487   5.219  1.00  0.00     0.233 C 
HETATM   14  N4  UNL     1      13.869  11.232   5.174  1.00  0.00    -0.069 N 
ATOM     15  H42 UNL     1      14.627  10.755   5.661  1.00  0.00     0.277 HD
ATOM     16  H41 UNL     1      13.835  12.074   5.750  1.00  0.00     0.277 HD
ENDBRANCH   7   8
ENDBRANCH   5   7
BRANCH   1  17
HETATM   17  C3  UNL     1      16.934  13.848   6.049  1.00  0.00    -0.015 A 
HETATM   18  C1  UNL     1      16.495  13.874   7.354  1.00  0.00     0.116 A 
HETATM   19  N1  UNL     1      17.252  13.055   8.102  1.00  0.00    -0.312 N 
HETATM   20  N2  UNL     1      18.145  12.524   7.294  1.00  0.00    -0.312 N 
ATOM     21  H1  UNL     1      17.154  12.878   9.101  1.00  0.00     0.186 HD
HETATM   22  C2  UNL     1      17.994  12.970   6.048  1.00  0.00     0.116 A 
ATOM     23  H2  UNL     1      18.859  11.857   7.585  1.00  0.00     0.186 HD
ENDBRANCH   1  17
TORSDOF 3
ENDMDL
MODEL 4
REMARK VINA RESULT: -6.996126896      2.919      5.814
REMARK  3 active torsions:
REMARK  status: ('A' for Active; 'I' for Inactive)
REMARK    1  A    between atoms: C3_7  and  C4_8 
REMARK    2  A    between atoms: N3_12  and  C8_13 
REMARK    3  A    between atoms: C8_13  and  C9_14 
ROOT
HETATM    1  C4  UNL     1      13.477  16.553   3.070  1.00  0.00     0.060 C 
HETATM    2  C5  UNL     1      14.735  16.670   3.904  1.00  0.00     0.020 C 
HETATM    3  C6  UNL     1      14.579  15.687   5.032  1.00  0.00     0.046 C 
HETATM    4  C7  UNL     1      14.706  14.301   4.401  1.00  0.00     0.063 C 
HETATM    5  N3  UNL     1      13.782  14.101   3.393  1.00  0.00    -0.371 N 
HETATM    6  C15 UNL     1      13.096  15.160   2.767  1.00  0.00     0.072 C 
ENDROOT
BRANCH   5   7
HETATM    7  C8  UNL     1      13.974  13.037   2.474  1.00  0.00     0.160 C 
BRANCH   7   8
HETATM    8  C9  UNL     1      13.453  11.681   2.816  1.00  0.00     0.204 C 
HETATM    9  C10 UNL     1      12.596  11.634   3.993  1.00  0.00     0.035 C 
HETATM   10  C11 UNL     1      12.704  10.446   4.889  1.00  0.00     0.002 C 
HETATM   11  C12 UNL     1      13.315   9.220   4.298  1.00  0.00     0.002 C 
HETATM   12  C13 UNL     1      14.821   9.320   4.597  1.00  0.00     0.027 C 
HETATM   13  C14 UNL     1      15.194  10.720   4.079  1.00  0.00     0.233 C 
HETATM   14  N4  UNL     1      14.586  10.784   2.770  1.00  0.00    -0.069 N 
ATOM     15  H42 UNL     1      14.337   9.862   2.414  1.00  0.00     0.277 HD
ATOM     16  H41 UNL     1      15.256  11.043   2.045  1.00  0.00     0.277 HD
ENDBRANCH   7   8
ENDBRANCH   5   7
BRANCH   1  17
HETATM   17  C3  UNL     1      13.613  17.322   1.814  1.00  0.00    -0.015 A 
HETATM   18  C1  UNL     1      14.567  18.281   1.561  1.00  0.00     0.116 A 
HETATM   19  N1  UNL     1      14.399  18.770   0.321  1.00  0.00    -0.312 N 
HETATM   20  N2  UNL     1      13.368  18.138  -0.197  1.00  0.00    -0.312 N 
ATOM     21  H1  UNL     1      14.961  19.491  -0.131  1.00  0.00     0.186 HD
HETATM   22  C2  UNL     1      12.860  17.257   0.663  1.00  0.00     0.116 A 
ATOM     23  H2  UNL     1      13.004  18.303  -1.136  1.00  0.00     0.186 HD
ENDBRANCH   1  17
TORSDOF 3
ENDMDL
MODEL 5
REMARK VINA RESULT: -6.991391131      2.498      3.187
REMARK  3 active torsions:
REMARK  status: ('A' for Active; 'I' for Inactive)
REMARK    1  A    between atoms: C3_7  and  C4_8 
REMARK    2  A    between atoms: N3_12  and  C8_13 
REMARK    3  A    between atoms: C8_13  and  C9_14 
ROOT
HETATM    1  C4  UNL     1      17.693  13.954   5.523  1.00  0.00     0.060 C 
HETATM    2  C5  UNL     1      17.726  12.904   6.614  1.00  0.00     0.020 C 
HETATM    3  C6  UNL     1      16.621  13.263   7.569  1.00  0.00     0.046 C 
HETATM    4  C7  UNL     1      15.316  12.960   6.833  1.00  0.00     0.063 C 
HETATM    5  N3  UNL     1      15.223  13.644   5.636  1.00  0.00    -0.371 N 
HETATM    6  C15 UNL     1      16.339  14.216   4.997  1.00  0.00     0.072 C 
ENDROOT
BRANCH   5   7
HETATM    7  C8  UNL     1      14.271  13.228   4.669  1.00  0.00     0.160 C 
BRANCH   7   8
HETATM    8  C9  UNL     1      14.082  11.768   4.418  1.00  0.00     0.204 C 
HETATM    9  C10 UNL     1      14.797  11.251   3.259  1.00  0.00     0.035 C 
HETATM   10  C11 UNL     1      14.126  10.203   2.434  1.00  0.00     0.002 C 
HETATM   11  C12 UNL     1      13.017   9.451   3.089  1.00  0.00     0.002 C 
HETATM   12  C13 UNL     1      11.733  10.234   2.761  1.00  0.00     0.027 C 
HETATM   13  C14 UNL     1      12.075  11.672   3.189  1.00  0.00     0.233 C 
HETATM   14  N4  UNL     1      12.660  11.520   4.500  1.00  0.00    -0.069 N 
ATOM     15  H42 UNL     1      12.449  10.613   4.915  1.00  0.00     0.277 HD
ATOM     16  H41 UNL     1      12.204  12.108   5.198  1.00  0.00     0.277 HD
ENDBRANCH   7   8
ENDBRANCH   5   7
BRANCH   1  17
HETATM   17  C3  UNL     1      18.599  13.580   4.415  1.00  0.00    -0.015 A 
HETATM   18  C1  UNL     1      18.288  12.732   3.377  1.00  0.00     0.116 A 
HETATM   19  N1  UNL     1      19.342  12.622   2.551  1.00  0.00    -0.312 N 
HETATM   20  N2  UNL     1      20.293  13.381   3.051  1.00  0.00    -0.312 N 
ATOM     21  H1  UNL     1      19.394  12.061   1.701  1.00  0.00     0.186 HD
HETATM   22  C2  UNL     1      19.895  13.978   4.173  1.00  0.00     0.116 A 
ATOM     23  H2  UNL     1      21.217  13.496   2.634  1.00  0.00     0.186 HD
ENDBRANCH   1  17
TORSDOF 3
ENDMDL
