MODEL 1
REMARK VINA RESULT: -4.786478542      0.000      0.000
REMARK  3 active torsions:
REMARK  status: ('A' for Active; 'I' for Inactive)
REMARK    1  A    between atoms: C2_2  and  C3_4 
REMARK    2  A    between atoms: C3_4  and  C4_5 
REMARK    3  A    between atoms: C4_5  and  N1_6 
ROOT
HETATM    1  N1  UNL     1       4.771 141.099 352.488  1.00  0.00     0.115 N 
HETATM    2  C5  UNL     1       3.771 140.085 352.693  1.00  0.00     0.302 C 
HETATM    3  C6  UNL     1       4.585 138.931 353.253  1.00  0.00     0.264 C 
HETATM    4  N2  UNL     1       5.710 139.530 353.905  1.00  0.00    -0.047 N 
ATOM      5  H21 UNL     1       6.589 139.062 353.686  1.00  0.00     0.279 HD
ATOM      6  H22 UNL     1       5.716 139.366 354.912  1.00  0.00     0.279 HD
HETATM    7  C7  UNL     1       5.724 140.936 353.565  1.00  0.00     0.502 C 
ENDROOT
BRANCH   1   8
HETATM    8  C4  UNL     1       4.178 142.414 352.538  1.00  0.00     0.279 C 
BRANCH   8   9
HETATM    9  C3  UNL     1       2.845 142.424 351.800  1.00  0.00     0.076 C 
BRANCH   9  10
HETATM   10  C2  UNL     1       1.849 143.281 352.503  1.00  0.00    -0.019 C 
HETATM   11  C1  UNL     1       0.978 142.725 353.315  1.00  0.00     0.027 C 
HETATM   12 BR1  UNL     1       1.818 145.173 352.238  1.00  0.00    -0.057 Br
ENDBRANCH   9  10
ENDBRANCH   8   9
ENDBRANCH   1   8
TORSDOF 3
ENDMDL
MODEL 2
REMARK VINA RESULT: -4.756974837      3.385      4.716
REMARK  3 active torsions:
REMARK  status: ('A' for Active; 'I' for Inactive)
REMARK    1  A    between atoms: C2_2  and  C3_4 
REMARK    2  A    between atoms: C3_4  and  C4_5 
REMARK    3  A    between atoms: C4_5  and  N1_6 
ROOT
HETATM    1  N1  UNL     1       2.844 144.425 352.482  1.00  0.00     0.115 N 
HETATM    2  C5  UNL     1       2.471 145.776 352.155  1.00  0.00     0.302 C 
HETATM    3  C6  UNL     1       3.691 146.568 352.596  1.00  0.00     0.264 C 
HETATM    4  N2  UNL     1       4.797 145.665 352.495  1.00  0.00    -0.047 N 
ATOM      5  H21 UNL     1       5.410 145.699 353.310  1.00  0.00     0.279 HD
ATOM      6  H22 UNL     1       5.482 145.956 351.798  1.00  0.00     0.279 HD
HETATM    7  C7  UNL     1       4.269 144.341 352.246  1.00  0.00     0.502 C 
ENDROOT
BRANCH   1   8
HETATM    8  C4  UNL     1       2.141 143.486 351.641  1.00  0.00     0.279 C 
BRANCH   8   9
HETATM    9  C3  UNL     1       1.817 142.217 352.419  1.00  0.00     0.076 C 
BRANCH   9  10
HETATM   10  C2  UNL     1       2.544 141.043 351.858  1.00  0.00    -0.019 C 
HETATM   11  C1  UNL     1       2.384 140.729 350.592  1.00  0.00     0.027 C 
HETATM   12 BR1  UNL     1       3.702 139.988 352.952  1.00  0.00    -0.057 Br
ENDBRANCH   9  10
ENDBRANCH   8   9
ENDBRANCH   1   8
TORSDOF 3
ENDMDL
MODEL 3
REMARK VINA RESULT: -4.714325580      2.213      3.043
REMARK  3 active torsions:
REMARK  status: ('A' for Active; 'I' for Inactive)
REMARK    1  A    between atoms: C2_2  and  C3_4 
REMARK    2  A    between atoms: C3_4  and  C4_5 
REMARK    3  A    between atoms: C4_5  and  N1_6 
ROOT
HETATM    1  N1  UNL     1       4.701 138.187 352.681  1.00  0.00     0.115 N 
HETATM    2  C5  UNL     1       4.017 137.280 351.798  1.00  0.00     0.302 C 
HETATM    3  C6  UNL     1       3.630 136.145 352.730  1.00  0.00     0.264 C 
HETATM    4  N2  UNL     1       3.509 136.733 354.029  1.00  0.00    -0.047 N 
ATOM      5  H21 UNL     1       3.960 136.180 354.758  1.00  0.00     0.279 HD
ATOM      6  H22 UNL     1       2.558 136.691 354.395  1.00  0.00     0.279 HD
HETATM    7  C7  UNL     1       4.022 138.085 353.954  1.00  0.00     0.502 C 
ENDROOT
BRANCH   1   8
HETATM    8  C4  UNL     1       4.625 139.538 352.179  1.00  0.00     0.279 C 
BRANCH   8   9
HETATM    9  C3  UNL     1       3.607 140.344 352.978  1.00  0.00     0.076 C 
BRANCH   9  10
HETATM   10  C2  UNL     1       2.616 140.998 352.078  1.00  0.00    -0.019 C 
HETATM   11  C1  UNL     1       2.576 140.662 350.809  1.00  0.00     0.027 C 
HETATM   12 BR1  UNL     1       1.406 142.320 352.742  1.00  0.00    -0.057 Br
ENDBRANCH   9  10
ENDBRANCH   8   9
ENDBRANCH   1   8
TORSDOF 3
ENDMDL
MODEL 4
REMARK VINA RESULT: -4.672742662      1.772      2.314
REMARK  3 active torsions:
REMARK  status: ('A' for Active; 'I' for Inactive)
REMARK    1  A    between atoms: C2_2  and  C3_4 
REMARK    2  A    between atoms: C3_4  and  C4_5 
REMARK    3  A    between atoms: C4_5  and  N1_6 
ROOT
HETATM    1  N1  UNL     1       4.617 138.967 353.422  1.00  0.00     0.115 N 
HETATM    2  C5  UNL     1       4.082 138.108 352.399  1.00  0.00     0.302 C 
HETATM    3  C6  UNL     1       3.690 136.868 353.186  1.00  0.00     0.264 C 
HETATM    4  N2  UNL     1       3.410 137.323 354.513  1.00  0.00    -0.047 N 
ATOM      5  H21 UNL     1       3.829 136.731 355.231  1.00  0.00     0.279 HD
ATOM      6  H22 UNL     1       2.435 137.189 354.780  1.00  0.00     0.279 HD
HETATM    7  C7  UNL     1       3.833 138.703 354.609  1.00  0.00     0.502 C 
ENDROOT
BRANCH   1   8
HETATM    8  C4  UNL     1       4.494 140.352 353.037  1.00  0.00     0.279 C 
BRANCH   8   9
HETATM    9  C3  UNL     1       3.249 140.557 352.182  1.00  0.00     0.076 C 
BRANCH   9  10
HETATM   10  C2  UNL     1       2.668 141.912 352.396  1.00  0.00    -0.019 C 
HETATM   11  C1  UNL     1       1.378 142.035 352.611  1.00  0.00     0.027 C 
HETATM   12 BR1  UNL     1       3.770 143.473 352.360  1.00  0.00    -0.057 Br
ENDBRANCH   9  10
ENDBRANCH   8   9
ENDBRANCH   1   8
TORSDOF 3
ENDMDL
MODEL 5
REMARK VINA RESULT: -4.638831217      2.044      2.781
REMARK  3 active torsions:
REMARK  status: ('A' for Active; 'I' for Inactive)
REMARK    1  A    between atoms: C2_2  and  C3_4 
REMARK    2  A    between atoms: C3_4  and  C4_5 
REMARK    3  A    between atoms: C4_5  and  N1_6 
ROOT
HETATM    1  N1  UNL     1       5.278 138.750 352.903  1.00  0.00     0.115 N 
HETATM    2  C5  UNL     1       5.512 137.465 352.299  1.00  0.00     0.302 C 
HETATM    3  C6  UNL     1       5.771 136.579 353.505  1.00  0.00     0.264 C 
HETATM    4  N2  UNL     1       5.062 137.183 354.591  1.00  0.00    -0.047 N 
ATOM      5  H21 UNL     1       5.615 137.232 355.447  1.00  0.00     0.279 HD
ATOM      6  H22 UNL     1       4.310 136.594 354.949  1.00  0.00     0.279 HD
HETATM    7  C7  UNL     1       4.597 138.481 354.151  1.00  0.00     0.502 C 
ENDROOT
BRANCH   1   8
HETATM    8  C4  UNL     1       4.453 139.570 352.049  1.00  0.00     0.279 C 
BRANCH   8   9
HETATM    9  C3  UNL     1       3.366 140.261 352.865  1.00  0.00     0.076 C 
BRANCH   9  10
HETATM   10  C2  UNL     1       2.471 141.069 351.990  1.00  0.00    -0.019 C 
HETATM   11  C1  UNL     1       2.424 140.814 350.702  1.00  0.00     0.027 C 
HETATM   12 BR1  UNL     1       1.393 142.472 352.713  1.00  0.00    -0.057 Br
ENDBRANCH   9  10
ENDBRANCH   8   9
ENDBRANCH   1   8
TORSDOF 3
ENDMDL
