MODEL 1
REMARK VINA RESULT: -5.593742086      0.000      0.000
REMARK  3 active torsions:
REMARK  status: ('A' for Active; 'I' for Inactive)
REMARK    1  A    between atoms: C1_2  and  N1_3 
REMARK    2  A    between atoms: N1_3  and  C2_5 
REMARK    3  A    between atoms: C2_5  and  C3_6 
ROOT
HETATM    1  C2  UNL     1       3.995 140.679 352.216  1.00  0.00     0.040 C 
HETATM    2  C8  UNL     1       5.035 141.455 353.072  1.00  0.00     0.032 C 
HETATM    3  C9  UNL     1       5.765 140.376 353.825  1.00  0.00     0.002 C 
HETATM    4  C10 UNL     1       4.688 139.418 354.166  1.00  0.00     0.002 C 
HETATM    5  C11 UNL     1       3.481 139.732 353.276  1.00  0.00     0.032 C 
ENDROOT
BRANCH   1   6
HETATM    6  N1  UNL     1       4.836 139.859 351.370  1.00  0.00    -0.358 N 
ATOM      7  H1  UNL     1       5.778 140.217 351.209  1.00  0.00     0.162 HD
BRANCH   6   8
HETATM    8  C1  UNL     1       4.541 138.656 350.748  1.00  0.00     0.349 C 
HETATM    9  O1  UNL     1       5.076 137.549 350.938  1.00  0.00    -0.284 OA
ENDBRANCH   6   8
ENDBRANCH   1   6
BRANCH   1  10
HETATM   10  C3  UNL     1       3.131 141.654 351.669  1.00  0.00    -0.006 A 
HETATM   11  C4  UNL     1       3.161 142.957 352.395  1.00  0.00     0.050 C 
HETATM   12  C5  UNL     1       1.695 142.869 352.576  1.00  0.00     0.175 C 
HETATM   13  F1  UNL     1       1.133 142.006 353.436  1.00  0.00    -0.249 F 
HETATM   14  C6  UNL     1       1.917 142.243 351.238  1.00  0.00     0.031 A 
HETATM   15  C7  UNL     1       2.104 140.962 350.872  1.00  0.00     0.021 A 
ENDBRANCH   1  10
TORSDOF 3
ENDMDL
MODEL 2
REMARK VINA RESULT: -5.548100784      2.583      4.464
REMARK  3 active torsions:
REMARK  status: ('A' for Active; 'I' for Inactive)
REMARK    1  A    between atoms: C1_2  and  N1_3 
REMARK    2  A    between atoms: N1_3  and  C2_5 
REMARK    3  A    between atoms: C2_5  and  C3_6 
ROOT
HETATM    1  C2  UNL     1       4.120 139.802 352.611  1.00  0.00     0.040 C 
HETATM    2  C8  UNL     1       3.738 139.210 351.225  1.00  0.00     0.032 C 
HETATM    3  C9  UNL     1       3.086 140.359 350.505  1.00  0.00     0.002 C 
HETATM    4  C10 UNL     1       2.301 141.021 351.572  1.00  0.00     0.002 C 
HETATM    5  C11 UNL     1       2.826 140.521 352.921  1.00  0.00     0.032 C 
ENDROOT
BRANCH   1   6
HETATM    6  N1  UNL     1       5.047 140.856 352.255  1.00  0.00    -0.358 N 
ATOM      7  H1  UNL     1       5.039 141.135 351.273  1.00  0.00     0.162 HD
BRANCH   6   8
HETATM    8  C1  UNL     1       5.945 141.539 353.061  1.00  0.00     0.349 C 
HETATM    9  O1  UNL     1       5.756 142.601 353.681  1.00  0.00    -0.284 OA
ENDBRANCH   6   8
ENDBRANCH   1   6
BRANCH   1  10
HETATM   10  C3  UNL     1       4.523 138.708 353.408  1.00  0.00    -0.006 A 
HETATM   11  C4  UNL     1       5.168 137.608 352.635  1.00  0.00     0.050 C 
HETATM   12  C5  UNL     1       4.177 136.660 353.191  1.00  0.00     0.175 C 
HETATM   13  F1  UNL     1       2.895 136.656 352.796  1.00  0.00    -0.249 F 
HETATM   14  C6  UNL     1       4.401 137.623 354.310  1.00  0.00     0.031 A 
HETATM   15  C7  UNL     1       3.754 138.748 354.665  1.00  0.00     0.021 A 
ENDBRANCH   1  10
TORSDOF 3
ENDMDL
MODEL 3
REMARK VINA RESULT: -5.517816204      2.551      4.340
REMARK  3 active torsions:
REMARK  status: ('A' for Active; 'I' for Inactive)
REMARK    1  A    between atoms: C1_2  and  N1_3 
REMARK    2  A    between atoms: N1_3  and  C2_5 
REMARK    3  A    between atoms: C2_5  and  C3_6 
ROOT
HETATM    1  C2  UNL     1       3.617 140.973 352.466  1.00  0.00     0.040 C 
HETATM    2  C8  UNL     1       2.846 140.558 351.180  1.00  0.00     0.032 C 
HETATM    3  C9  UNL     1       1.832 141.654 350.995  1.00  0.00     0.002 C 
HETATM    4  C10 UNL     1       1.400 141.949 352.380  1.00  0.00     0.002 C 
HETATM    5  C11 UNL     1       2.437 141.347 353.334  1.00  0.00     0.032 C 
ENDROOT
BRANCH   1   6
HETATM    6  N1  UNL     1       4.205 142.239 352.082  1.00  0.00    -0.358 N 
ATOM      7  H1  UNL     1       4.342 142.375 351.080  1.00  0.00     0.162 HD
BRANCH   6   8
HETATM    8  C1  UNL     1       4.608 143.294 352.886  1.00  0.00     0.349 C 
HETATM    9  O1  UNL     1       4.087 144.420 352.983  1.00  0.00    -0.284 OA
ENDBRANCH   6   8
ENDBRANCH   1   6
BRANCH   1  10
HETATM   10  C3  UNL     1       4.422 139.866 352.815  1.00  0.00    -0.006 A 
HETATM   11  C4  UNL     1       3.787 138.547 352.524  1.00  0.00     0.050 C 
HETATM   12  C5  UNL     1       3.985 138.161 353.939  1.00  0.00     0.175 C 
HETATM   13  F1  UNL     1       3.251 138.687 354.931  1.00  0.00    -0.249 F 
HETATM   14  C6  UNL     1       5.182 139.001 353.639  1.00  0.00     0.031 A 
HETATM   15  C7  UNL     1       5.416 140.315 353.805  1.00  0.00     0.021 A 
ENDBRANCH   1  10
TORSDOF 3
ENDMDL
MODEL 4
REMARK VINA RESULT: -5.425825209      3.282      4.974
REMARK  3 active torsions:
REMARK  status: ('A' for Active; 'I' for Inactive)
REMARK    1  A    between atoms: C1_2  and  N1_3 
REMARK    2  A    between atoms: N1_3  and  C2_5 
REMARK    3  A    between atoms: C2_5  and  C3_6 
ROOT
HETATM    1  C2  UNL     1       3.217 143.707 352.156  1.00  0.00     0.040 C 
HETATM    2  C8  UNL     1       2.253 143.935 350.956  1.00  0.00     0.032 C 
HETATM    3  C9  UNL     1       1.579 145.241 351.274  1.00  0.00     0.002 C 
HETATM    4  C10 UNL     1       1.369 145.163 352.738  1.00  0.00     0.002 C 
HETATM    5  C11 UNL     1       2.270 144.050 353.283  1.00  0.00     0.032 C 
ENDROOT
BRANCH   1   6
HETATM    6  N1  UNL     1       4.104 144.848 352.064  1.00  0.00    -0.358 N 
ATOM      7  H1  UNL     1       4.289 145.185 351.119  1.00  0.00     0.162 HD
BRANCH   6   8
HETATM    8  C1  UNL     1       4.739 145.545 353.080  1.00  0.00     0.349 C 
HETATM    9  O1  UNL     1       4.513 146.708 353.462  1.00  0.00    -0.284 OA
ENDBRANCH   6   8
ENDBRANCH   1   6
BRANCH   1  10
HETATM   10  C3  UNL     1       3.702 142.387 352.024  1.00  0.00    -0.006 A 
HETATM   11  C4  UNL     1       2.743 141.459 351.357  1.00  0.00     0.050 C 
HETATM   12  C5  UNL     1       2.831 140.556 352.526  1.00  0.00     0.175 C 
HETATM   13  F1  UNL     1       2.261 140.856 353.703  1.00  0.00    -0.249 F 
HETATM   14  C6  UNL     1       4.208 141.126 352.424  1.00  0.00     0.031 A 
HETATM   15  C7  UNL     1       4.779 142.193 353.011  1.00  0.00     0.021 A 
ENDBRANCH   1  10
TORSDOF 3
ENDMDL
MODEL 5
REMARK VINA RESULT: -5.419723045      3.114      3.955
REMARK  3 active torsions:
REMARK  status: ('A' for Active; 'I' for Inactive)
REMARK    1  A    between atoms: C1_2  and  N1_3 
REMARK    2  A    between atoms: N1_3  and  C2_5 
REMARK    3  A    between atoms: C2_5  and  C3_6 
ROOT
HETATM    1  C2  UNL     1       4.878 138.035 352.184  1.00  0.00     0.040 C 
HETATM    2  C8  UNL     1       5.194 139.556 352.229  1.00  0.00     0.032 C 
HETATM    3  C9  UNL     1       5.057 139.914 353.684  1.00  0.00     0.002 C 
HETATM    4  C10 UNL     1       3.892 139.111 354.119  1.00  0.00     0.002 C 
HETATM    5  C11 UNL     1       3.649 138.026 353.064  1.00  0.00     0.032 C 
ENDROOT
BRANCH   1   6
HETATM    6  N1  UNL     1       5.925 137.474 353.013  1.00  0.00    -0.358 N 
ATOM      7  H1  UNL     1       6.729 138.081 353.175  1.00  0.00     0.162 HD
BRANCH   6   8
HETATM    8  C1  UNL     1       5.988 136.228 353.617  1.00  0.00     0.349 C 
HETATM    9  O1  UNL     1       6.221 135.972 354.813  1.00  0.00    -0.284 OA
ENDBRANCH   6   8
ENDBRANCH   1   6
BRANCH   1  10
HETATM   10  C3  UNL     1       4.765 137.697 350.817  1.00  0.00    -0.006 A 
HETATM   11  C4  UNL     1       5.217 138.778 349.893  1.00  0.00     0.050 C 
HETATM   12  C5  UNL     1       3.898 138.732 349.224  1.00  0.00     0.175 C 
HETATM   13  F1  UNL     1       2.787 139.213 349.802  1.00  0.00    -0.249 F 
HETATM   14  C6  UNL     1       4.142 137.309 349.606  1.00  0.00     0.031 A 
HETATM   15  C7  UNL     1       3.786 136.603 350.695  1.00  0.00     0.021 A 
ENDBRANCH   1  10
TORSDOF 3
ENDMDL
