MODEL 1
REMARK VINA RESULT: -7.242951290      0.000      0.000
REMARK  9 active torsions:
REMARK  status: ('A' for Active; 'I' for Inactive)
REMARK    1  A    between atoms: C2_2  and  N1_3 
REMARK    2  A    between atoms: N1_3  and  C4_5 
REMARK    3  A    between atoms: C4_5  and  C5_6 
REMARK    4  A    between atoms: C7_8  and  C8_9 
REMARK    5  A    between atoms: C10_13  and  C11_14 
REMARK    6  A    between atoms: C11_14  and  C12_15 
REMARK    7  A    between atoms: C12_15  and  O3_16 
REMARK    8  A    between atoms: C12_15  and  C13_18 
REMARK    9  A    between atoms: C23_31  and  O7_32 
ROOT
HETATM    1  C8  UNL     1      23.959 -24.447 -12.383  1.00  0.00     0.331 C 
HETATM    2  O1  UNL     1      24.433 -23.833 -13.638  1.00  0.00    -0.203 OA
HETATM    3  O2  UNL     1      25.119 -22.754 -13.248  1.00  0.00    -0.236 OA
HETATM    4  C9  UNL     1      24.167 -21.782 -12.878  1.00  0.00     0.242 C 
HETATM    5  C10 UNL     1      22.862 -22.562 -12.812  1.00  0.00     0.154 C 
HETATM    6  O6  UNL     1      23.083 -23.562 -11.830  1.00  0.00    -0.347 OA
ENDROOT
BRANCH   5   7
HETATM    7  C11 UNL     1      21.679 -21.738 -12.425  1.00  0.00     0.071 C 
BRANCH   7   8
HETATM    8  C12 UNL     1      22.116 -20.900 -11.209  1.00  0.00     0.153 C 
BRANCH   8   9
HETATM    9  O3  UNL     1      21.780 -21.720 -10.081  1.00  0.00    -0.391 OA
ATOM     10  H3  UNL     1      21.966 -22.604 -10.375  1.00  0.00     0.210 HD
ENDBRANCH   8   9
BRANCH   8  11
HETATM   11  C13 UNL     1      21.224 -19.706 -11.117  1.00  0.00    -0.027 A 
HETATM   12  C14 UNL     1      21.337 -18.777 -12.116  1.00  0.00     0.012 A 
HETATM   13  C15 UNL     1      20.533 -17.651 -12.172  1.00  0.00     0.040 A 
HETATM   14  C16 UNL     1      19.596 -17.490 -11.173  1.00  0.00     0.102 A 
HETATM   15  C17 UNL     1      19.482 -18.419 -10.175  1.00  0.00     0.102 A 
HETATM   16  O5  UNL     1      18.761 -16.384 -11.166  1.00  0.00    -0.346 OA
HETATM   17  C18 UNL     1      20.301 -19.555 -10.126  1.00  0.00     0.049 A 
HETATM   18  O4  UNL     1      18.536 -18.229  -9.192  1.00  0.00    -0.346 OA
HETATM   19  C19 UNL     1      17.644 -17.147  -9.139  1.00  0.00     0.202 C 
HETATM   20  C20 UNL     1      17.603 -16.301 -10.364  1.00  0.00     0.202 C 
ENDBRANCH   8  11
ENDBRANCH   7   8
ENDBRANCH   5   7
BRANCH   1  21
HETATM   21  C7  UNL     1      25.195 -24.703 -11.604  1.00  0.00    -0.000 A 
HETATM   22  C6  UNL     1      25.562 -24.148 -10.410  1.00  0.00     0.023 A 
HETATM   23  C5  UNL     1      26.819 -24.378  -9.855  1.00  0.00    -0.007 A 
HETATM   24  C23 UNL     1      27.731 -25.208 -10.537  1.00  0.00     0.073 A 
HETATM   25  C22 UNL     1      27.357 -25.762 -11.721  1.00  0.00     0.038 A 
HETATM   26  C21 UNL     1      26.121 -25.529 -12.263  1.00  0.00     0.015 A 
BRANCH  23  27
HETATM   27  C4  UNL     1      27.391 -23.586  -8.769  1.00  0.00     0.163 C 
BRANCH  27  28
HETATM   28  N1  UNL     1      27.242 -24.010  -7.414  1.00  0.00    -0.391 N 
HETATM   29  C3  UNL     1      27.958 -24.901  -6.607  1.00  0.00     0.149 C 
BRANCH  28  30
HETATM   30  C2  UNL     1      26.094 -23.298  -6.792  1.00  0.00     0.075 C 
HETATM   31  C1  UNL     1      25.097 -24.024  -6.401  1.00  0.00     0.029 C 
ENDBRANCH  28  30
ENDBRANCH  27  28
ENDBRANCH  23  27
BRANCH  24  32
HETATM   32  O7  UNL     1      28.993 -25.423  -9.939  1.00  0.00    -0.360 OA
ATOM     33  H7  UNL     1      29.676 -24.785 -10.112  1.00  0.00     0.217 HD
ENDBRANCH  24  32
ENDBRANCH   1  21
TORSDOF 9
ENDMDL
MODEL 2
REMARK VINA RESULT: -7.209430757      4.536      7.129
REMARK  9 active torsions:
REMARK  status: ('A' for Active; 'I' for Inactive)
REMARK    1  A    between atoms: C2_2  and  N1_3 
REMARK    2  A    between atoms: N1_3  and  C4_5 
REMARK    3  A    between atoms: C4_5  and  C5_6 
REMARK    4  A    between atoms: C7_8  and  C8_9 
REMARK    5  A    between atoms: C10_13  and  C11_14 
REMARK    6  A    between atoms: C11_14  and  C12_15 
REMARK    7  A    between atoms: C12_15  and  O3_16 
REMARK    8  A    between atoms: C12_15  and  C13_18 
REMARK    9  A    between atoms: C23_31  and  O7_32 
ROOT
HETATM    1  C8  UNL     1      24.278 -20.190 -14.763  1.00  0.00     0.331 C 
HETATM    2  O1  UNL     1      25.193 -21.175 -14.156  1.00  0.00    -0.203 OA
HETATM    3  O2  UNL     1      24.811 -22.351 -14.667  1.00  0.00    -0.236 OA
HETATM    4  C9  UNL     1      23.625 -22.716 -13.998  1.00  0.00     0.242 C 
HETATM    5  C10 UNL     1      23.217 -21.445 -13.266  1.00  0.00     0.154 C 
HETATM    6  O6  UNL     1      23.034 -20.478 -14.287  1.00  0.00    -0.347 OA
ENDROOT
BRANCH   5   7
HETATM    7  C11 UNL     1      21.959 -21.576 -12.473  1.00  0.00     0.071 C 
BRANCH   7   8
HETATM    8  C12 UNL     1      22.212 -20.846 -11.141  1.00  0.00     0.153 C 
BRANCH   8   9
HETATM    9  O3  UNL     1      21.753 -21.770 -10.144  1.00  0.00    -0.391 OA
ATOM     10  H3  UNL     1      22.528 -22.273  -9.922  1.00  0.00     0.210 HD
ENDBRANCH   8   9
BRANCH   8  11
HETATM   11  C13 UNL     1      21.284 -19.678 -11.063  1.00  0.00    -0.027 A 
HETATM   12  C14 UNL     1      21.376 -18.753 -12.067  1.00  0.00     0.012 A 
HETATM   13  C15 UNL     1      20.539 -17.652 -12.136  1.00  0.00     0.040 A 
HETATM   14  C16 UNL     1      19.591 -17.512 -11.145  1.00  0.00     0.102 A 
HETATM   15  C17 UNL     1      19.498 -18.438 -10.141  1.00  0.00     0.102 A 
HETATM   16  O5  UNL     1      18.723 -16.431 -11.150  1.00  0.00    -0.346 OA
HETATM   17  C18 UNL     1      20.350 -19.548 -10.079  1.00  0.00     0.049 A 
HETATM   18  O4  UNL     1      18.540 -18.270  -9.166  1.00  0.00    -0.346 OA
HETATM   19  C19 UNL     1      17.615 -17.214  -9.126  1.00  0.00     0.202 C 
HETATM   20  C20 UNL     1      17.558 -16.378 -10.357  1.00  0.00     0.202 C 
ENDBRANCH   8  11
ENDBRANCH   7   8
ENDBRANCH   5   7
BRANCH   1  21
HETATM   21  C7  UNL     1      24.465 -20.359 -16.224  1.00  0.00    -0.000 A 
HETATM   22  C6  UNL     1      23.521 -20.690 -17.156  1.00  0.00     0.023 A 
HETATM   23  C5  UNL     1      23.864 -20.951 -18.481  1.00  0.00    -0.007 A 
HETATM   24  C23 UNL     1      25.216 -20.863 -18.871  1.00  0.00     0.073 A 
HETATM   25  C22 UNL     1      26.148 -20.528 -17.941  1.00  0.00     0.038 A 
HETATM   26  C21 UNL     1      25.805 -20.276 -16.639  1.00  0.00     0.015 A 
BRANCH  23  27
HETATM   27  C4  UNL     1      22.980 -21.606 -19.441  1.00  0.00     0.163 C 
BRANCH  27  28
HETATM   28  N1  UNL     1      21.882 -20.894 -20.010  1.00  0.00    -0.391 N 
HETATM   29  C3  UNL     1      21.797 -19.755 -20.819  1.00  0.00     0.149 C 
BRANCH  28  30
HETATM   30  C2  UNL     1      20.608 -21.573 -19.652  1.00  0.00     0.075 C 
HETATM   31  C1  UNL     1      20.071 -21.250 -18.519  1.00  0.00     0.029 C 
ENDBRANCH  28  30
ENDBRANCH  27  28
ENDBRANCH  23  27
BRANCH  24  32
HETATM   32  O7  UNL     1      25.523 -21.127 -20.225  1.00  0.00    -0.360 OA
ATOM     33  H7  UNL     1      24.818 -21.056 -20.858  1.00  0.00     0.217 HD
ENDBRANCH  24  32
ENDBRANCH   1  21
TORSDOF 9
ENDMDL
MODEL 3
REMARK VINA RESULT: -7.147209493      4.761      7.323
REMARK  9 active torsions:
REMARK  status: ('A' for Active; 'I' for Inactive)
REMARK    1  A    between atoms: C2_2  and  N1_3 
REMARK    2  A    between atoms: N1_3  and  C4_5 
REMARK    3  A    between atoms: C4_5  and  C5_6 
REMARK    4  A    between atoms: C7_8  and  C8_9 
REMARK    5  A    between atoms: C10_13  and  C11_14 
REMARK    6  A    between atoms: C11_14  and  C12_15 
REMARK    7  A    between atoms: C12_15  and  O3_16 
REMARK    8  A    between atoms: C12_15  and  C13_18 
REMARK    9  A    between atoms: C23_31  and  O7_32 
ROOT
HETATM    1  C8  UNL     1      23.724 -20.110 -14.946  1.00  0.00     0.331 C 
HETATM    2  O1  UNL     1      24.791 -20.914 -14.322  1.00  0.00    -0.203 OA
HETATM    3  O2  UNL     1      24.512 -22.175 -14.670  1.00  0.00    -0.236 OA
HETATM    4  C9  UNL     1      23.431 -22.586 -13.863  1.00  0.00     0.242 C 
HETATM    5  C10 UNL     1      22.934 -21.291 -13.237  1.00  0.00     0.154 C 
HETATM    6  O6  UNL     1      22.562 -20.473 -14.335  1.00  0.00    -0.347 OA
ENDROOT
BRANCH   5   7
HETATM    7  C11 UNL     1      21.764 -21.464 -12.326  1.00  0.00     0.071 C 
BRANCH   7   8
HETATM    8  C12 UNL     1      22.075 -20.639 -11.064  1.00  0.00     0.153 C 
BRANCH   8   9
HETATM    9  O3  UNL     1      21.700 -21.503  -9.981  1.00  0.00    -0.391 OA
ATOM     10  H3  UNL     1      22.338 -21.314  -9.304  1.00  0.00     0.210 HD
ENDBRANCH   8   9
BRANCH   8  11
HETATM   11  C13 UNL     1      21.123 -19.490 -11.008  1.00  0.00    -0.027 A 
HETATM   12  C14 UNL     1      21.178 -18.596 -12.043  1.00  0.00     0.012 A 
HETATM   13  C15 UNL     1      20.316 -17.516 -12.133  1.00  0.00     0.040 A 
HETATM   14  C16 UNL     1      19.381 -17.364 -11.131  1.00  0.00     0.102 A 
HETATM   15  C17 UNL     1      19.325 -18.259 -10.096  1.00  0.00     0.102 A 
HETATM   16  O5  UNL     1      18.490 -16.303 -11.157  1.00  0.00    -0.346 OA
HETATM   17  C18 UNL     1      20.203 -19.347 -10.012  1.00  0.00     0.049 A 
HETATM   18  O4  UNL     1      18.380 -18.080  -9.111  1.00  0.00    -0.346 OA
HETATM   19  C19 UNL     1      17.433 -17.043  -9.089  1.00  0.00     0.202 C 
HETATM   20  C20 UNL     1      17.337 -16.250 -10.346  1.00  0.00     0.202 C 
ENDBRANCH   8  11
ENDBRANCH   7   8
ENDBRANCH   5   7
BRANCH   1  21
HETATM   21  C7  UNL     1      23.818 -20.425 -16.392  1.00  0.00    -0.000 A 
HETATM   22  C6  UNL     1      24.941 -20.458 -17.171  1.00  0.00     0.023 A 
HETATM   23  C5  UNL     1      24.867 -20.637 -18.550  1.00  0.00    -0.007 A 
HETATM   24  C23 UNL     1      23.604 -20.796 -19.157  1.00  0.00     0.073 A 
HETATM   25  C22 UNL     1      22.492 -20.767 -18.376  1.00  0.00     0.038 A 
HETATM   26  C21 UNL     1      22.571 -20.588 -17.021  1.00  0.00     0.015 A 
BRANCH  23  27
HETATM   27  C4  UNL     1      25.970 -20.371 -19.470  1.00  0.00     0.163 C 
BRANCH  27  28
HETATM   28  N1  UNL     1      26.440 -19.037 -19.662  1.00  0.00    -0.391 N 
HETATM   29  C3  UNL     1      27.084 -18.120 -18.824  1.00  0.00     0.149 C 
BRANCH  28  30
HETATM   30  C2  UNL     1      26.186 -18.616 -21.066  1.00  0.00     0.075 C 
HETATM   31  C1  UNL     1      25.132 -17.895 -21.280  1.00  0.00     0.029 C 
ENDBRANCH  28  30
ENDBRANCH  27  28
ENDBRANCH  23  27
BRANCH  24  32
HETATM   32  O7  UNL     1      23.570 -20.982 -20.557  1.00  0.00    -0.360 OA
ATOM     33  H7  UNL     1      22.720 -20.973 -20.981  1.00  0.00     0.217 HD
ENDBRANCH  24  32
ENDBRANCH   1  21
TORSDOF 9
ENDMDL
MODEL 4
REMARK VINA RESULT: -7.102993948      4.741      7.449
REMARK  9 active torsions:
REMARK  status: ('A' for Active; 'I' for Inactive)
REMARK    1  A    between atoms: C2_2  and  N1_3 
REMARK    2  A    between atoms: N1_3  and  C4_5 
REMARK    3  A    between atoms: C4_5  and  C5_6 
REMARK    4  A    between atoms: C7_8  and  C8_9 
REMARK    5  A    between atoms: C10_13  and  C11_14 
REMARK    6  A    between atoms: C11_14  and  C12_15 
REMARK    7  A    between atoms: C12_15  and  O3_16 
REMARK    8  A    between atoms: C12_15  and  C13_18 
REMARK    9  A    between atoms: C23_31  and  O7_32 
ROOT
HETATM    1  C8  UNL     1      23.956 -20.075 -15.031  1.00  0.00     0.331 C 
HETATM    2  O1  UNL     1      24.954 -20.956 -14.395  1.00  0.00    -0.203 OA
HETATM    3  O2  UNL     1      24.611 -22.190 -14.781  1.00  0.00    -0.236 OA
HETATM    4  C9  UNL     1      23.483 -22.553 -14.017  1.00  0.00     0.242 C 
HETATM    5  C10 UNL     1      23.045 -21.244 -13.375  1.00  0.00     0.154 C 
HETATM    6  O6  UNL     1      22.757 -20.381 -14.463  1.00  0.00    -0.347 OA
ENDROOT
BRANCH   5   7
HETATM    7  C11 UNL     1      21.839 -21.366 -12.503  1.00  0.00     0.071 C 
BRANCH   7   8
HETATM    8  C12 UNL     1      22.213 -20.721 -11.156  1.00  0.00     0.153 C 
BRANCH   8   9
HETATM    9  O3  UNL     1      22.224 -21.821 -10.234  1.00  0.00    -0.391 OA
ATOM     10  H3  UNL     1      22.842 -22.434 -10.615  1.00  0.00     0.210 HD
ENDBRANCH   8   9
BRANCH   8  11
HETATM   11  C13 UNL     1      21.082 -19.847 -10.724  1.00  0.00    -0.027 A 
HETATM   12  C14 UNL     1      20.580 -20.069  -9.471  1.00  0.00     0.012 A 
HETATM   13  C15 UNL     1      19.564 -19.295  -8.934  1.00  0.00     0.040 A 
HETATM   14  C16 UNL     1      19.065 -18.273  -9.714  1.00  0.00     0.102 A 
HETATM   15  C17 UNL     1      19.568 -18.051 -10.968  1.00  0.00     0.102 A 
HETATM   16  O5  UNL     1      18.045 -17.463  -9.241  1.00  0.00    -0.346 OA
HETATM   17  C18 UNL     1      20.594 -18.840 -11.503  1.00  0.00     0.049 A 
HETATM   18  O4  UNL     1      19.048 -17.023 -11.722  1.00  0.00    -0.346 OA
HETATM   19  C19 UNL     1      18.034 -16.150 -11.295  1.00  0.00     0.202 C 
HETATM   20  C20 UNL     1      17.695 -16.238  -9.847  1.00  0.00     0.202 C 
ENDBRANCH   8  11
ENDBRANCH   7   8
ENDBRANCH   5   7
BRANCH   1  21
HETATM   21  C7  UNL     1      24.076 -20.364 -16.481  1.00  0.00    -0.000 A 
HETATM   22  C6  UNL     1      23.070 -20.635 -17.367  1.00  0.00     0.023 A 
HETATM   23  C5  UNL     1      23.338 -21.024 -18.677  1.00  0.00    -0.007 A 
HETATM   24  C23 UNL     1      24.677 -21.134 -19.102  1.00  0.00     0.073 A 
HETATM   25  C22 UNL     1      25.672 -20.857 -18.219  1.00  0.00     0.038 A 
HETATM   26  C21 UNL     1      25.403 -20.478 -16.930  1.00  0.00     0.015 A 
BRANCH  23  27
HETATM   27  C4  UNL     1      22.350 -21.626 -19.569  1.00  0.00     0.163 C 
BRANCH  27  28
HETATM   28  N1  UNL     1      21.446 -20.800 -20.302  1.00  0.00    -0.391 N 
HETATM   29  C3  UNL     1      21.631 -19.743 -21.201  1.00  0.00     0.149 C 
BRANCH  28  30
HETATM   30  C2  UNL     1      20.048 -21.226 -20.029  1.00  0.00     0.075 C 
HETATM   31  C1  UNL     1      19.791 -21.660 -18.837  1.00  0.00     0.029 C 
ENDBRANCH  28  30
ENDBRANCH  27  28
ENDBRANCH  23  27
BRANCH  24  32
HETATM   32  O7  UNL     1      24.908 -21.524 -20.440  1.00  0.00    -0.360 OA
ATOM     33  H7  UNL     1      25.811 -21.611 -20.723  1.00  0.00     0.217 HD
ENDBRANCH  24  32
ENDBRANCH   1  21
TORSDOF 9
ENDMDL
MODEL 5
REMARK VINA RESULT: -7.095882923      3.221      7.971
REMARK  9 active torsions:
REMARK  status: ('A' for Active; 'I' for Inactive)
REMARK    1  A    between atoms: C2_2  and  N1_3 
REMARK    2  A    between atoms: N1_3  and  C4_5 
REMARK    3  A    between atoms: C4_5  and  C5_6 
REMARK    4  A    between atoms: C7_8  and  C8_9 
REMARK    5  A    between atoms: C10_13  and  C11_14 
REMARK    6  A    between atoms: C11_14  and  C12_15 
REMARK    7  A    between atoms: C12_15  and  O3_16 
REMARK    8  A    between atoms: C12_15  and  C13_18 
REMARK    9  A    between atoms: C23_31  and  O7_32 
ROOT
HETATM    1  C8  UNL     1      25.725 -22.612 -13.373  1.00  0.00     0.331 C 
HETATM    2  O1  UNL     1      25.451 -23.938 -13.958  1.00  0.00    -0.203 OA
HETATM    3  O2  UNL     1      24.245 -24.273 -13.488  1.00  0.00    -0.236 OA
HETATM    4  C9  UNL     1      24.429 -24.663 -12.146  1.00  0.00     0.242 C 
HETATM    5  C10 UNL     1      25.845 -24.205 -11.828  1.00  0.00     0.154 C 
HETATM    6  O6  UNL     1      25.830 -22.801 -12.028  1.00  0.00    -0.347 OA
ENDROOT
BRANCH   5   7
HETATM    7  C11 UNL     1      26.283 -24.504 -10.432  1.00  0.00     0.071 C 
BRANCH   7   8
HETATM    8  C12 UNL     1      25.400 -23.642  -9.510  1.00  0.00     0.153 C 
BRANCH   8   9
HETATM    9  O3  UNL     1      26.281 -22.607  -9.051  1.00  0.00    -0.391 OA
ATOM     10  H3  UNL     1      26.015 -21.841  -9.546  1.00  0.00     0.210 HD
ENDBRANCH   8   9
BRANCH   8  11
HETATM   11  C13 UNL     1      25.061 -24.448  -8.299  1.00  0.00    -0.027 A 
HETATM   12  C14 UNL     1      25.264 -23.846  -7.086  1.00  0.00     0.012 A 
HETATM   13  C15 UNL     1      24.944 -24.467  -5.891  1.00  0.00     0.040 A 
HETATM   14  C16 UNL     1      24.403 -25.734  -5.958  1.00  0.00     0.102 A 
HETATM   15  C17 UNL     1      24.200 -26.336  -7.171  1.00  0.00     0.102 A 
HETATM   16  O5  UNL     1      24.063 -26.416  -4.800  1.00  0.00    -0.346 OA
HETATM   17  C18 UNL     1      24.529 -25.700  -8.375  1.00  0.00     0.049 A 
HETATM   18  O4  UNL     1      23.659 -27.601  -7.205  1.00  0.00    -0.346 OA
HETATM   19  C19 UNL     1      23.269 -28.336  -6.074  1.00  0.00     0.202 C 
HETATM   20  C20 UNL     1      23.248 -27.567  -4.799  1.00  0.00     0.202 C 
ENDBRANCH   8  11
ENDBRANCH   7   8
ENDBRANCH   5   7
BRANCH   1  21
HETATM   21  C7  UNL     1      24.592 -21.767 -13.820  1.00  0.00    -0.000 A 
HETATM   22  C6  UNL     1      23.546 -21.305 -13.071  1.00  0.00     0.023 A 
HETATM   23  C5  UNL     1      22.474 -20.631 -13.652  1.00  0.00    -0.007 A 
HETATM   24  C23 UNL     1      22.471 -20.414 -15.045  1.00  0.00     0.073 A 
HETATM   25  C22 UNL     1      23.517 -20.871 -15.783  1.00  0.00     0.038 A 
HETATM   26  C21 UNL     1      24.566 -21.536 -15.206  1.00  0.00     0.015 A 
BRANCH  23  27
HETATM   27  C4  UNL     1      21.198 -20.393 -12.983  1.00  0.00     0.163 C 
BRANCH  27  28
HETATM   28  N1  UNL     1      21.101 -19.416 -11.946  1.00  0.00    -0.391 N 
HETATM   29  C3  UNL     1      21.034 -18.018 -11.953  1.00  0.00     0.149 C 
BRANCH  28  30
HETATM   30  C2  UNL     1      21.033 -20.096 -10.625  1.00  0.00     0.075 C 
HETATM   31  C1  UNL     1      20.659 -21.335 -10.623  1.00  0.00     0.029 C 
ENDBRANCH  28  30
ENDBRANCH  27  28
ENDBRANCH  23  27
BRANCH  24  32
HETATM   32  O7  UNL     1      21.371 -19.721 -15.596  1.00  0.00    -0.360 OA
ATOM     33  H7  UNL     1      21.555 -18.946 -16.115  1.00  0.00     0.217 HD
ENDBRANCH  24  32
ENDBRANCH   1  21
TORSDOF 9
ENDMDL
