MODEL 1
REMARK VINA RESULT: -6.356490126      0.000      0.000
REMARK  10 active torsions:
REMARK  status: ('A' for Active; 'I' for Inactive)
REMARK    1  A    between atoms: C2_2  and  C3_3 
REMARK    2  A    between atoms: C3_3  and  C4_5 
REMARK    3  A    between atoms: C4_5  and  C5_6 
REMARK    4  A    between atoms: C5_6  and  C6_7 
REMARK    5  A    between atoms: C5_6  and  C8_9 
REMARK    6  A    between atoms: C9_10  and  O2_11 
REMARK    7  A    between atoms: N1_13  and  C10_14 
REMARK    8  A    between atoms: C10_14  and  C11_15 
REMARK    9  A    between atoms: C11_15  and  O3_16 
REMARK   10  A    between atoms: C13_23  and  C14_24 
ROOT
HETATM    1  C8  UNL     1      21.941 -20.132 -14.594  1.00  0.00     0.050 A 
HETATM    2  C9  UNL     1      21.103 -20.103 -15.698  1.00  0.00     0.158 A 
HETATM    3  N1  UNL     1      21.458 -20.347 -16.956  1.00  0.00    -0.300 N 
HETATM    4  C12 UNL     1      22.719 -20.652 -17.242  1.00  0.00     0.202 A 
HETATM    5  S1  UNL     1      23.203 -20.963 -18.765  1.00  0.00    -0.038 SA
HETATM    6  N2  UNL     1      23.626 -20.705 -16.216  1.00  0.00    -0.229 N 
HETATM    7  N3  UNL     1      24.903 -21.046 -16.252  1.00  0.00    -0.295 N 
ATOM      8  H3  UNL     1      25.408 -21.277 -17.108  1.00  0.00     0.187 HD
HETATM    9  C13 UNL     1      25.449 -21.050 -15.050  1.00  0.00     0.033 A 
HETATM   10  C21 UNL     1      24.399 -20.668 -14.187  1.00  0.00     0.059 A 
HETATM   11  C22 UNL     1      23.273 -20.461 -14.945  1.00  0.00     0.076 A 
ENDROOT
BRANCH   1  12
HETATM   12  C5  UNL     1      21.506 -20.052 -13.173  1.00  0.00    -0.038 C 
BRANCH  12  13
HETATM   13  C4  UNL     1      21.187 -21.277 -12.457  1.00  0.00     0.117 C 
BRANCH  13  14
HETATM   14  C3  UNL     1      21.889 -21.658 -11.233  1.00  0.00     0.130 C 
HETATM   15  O1  UNL     1      21.498 -21.297 -10.093  1.00  0.00    -0.298 OA
BRANCH  14  16
HETATM   16  C2  UNL     1      23.135 -22.507 -11.164  1.00  0.00     0.074 C 
HETATM   17  C1  UNL     1      23.225 -23.507 -12.288  1.00  0.00     0.013 C 
ENDBRANCH  14  16
ENDBRANCH  13  14
ENDBRANCH  12  13
BRANCH  12  18
HETATM   18  C6  UNL     1      21.729 -18.758 -12.547  1.00  0.00    -0.022 C 
HETATM   19  C7  UNL     1      20.706 -18.064 -11.742  1.00  0.00     0.036 C 
ENDBRANCH  12  18
ENDBRANCH   1  12
BRANCH   2  20
HETATM   20  O2  UNL     1      19.773 -19.790 -15.496  1.00  0.00    -0.345 OA
ATOM     21  H2  UNL     1      19.117 -20.380 -15.847  1.00  0.00     0.219 HD
ENDBRANCH   2  20
BRANCH   3  22
HETATM   22  C10 UNL     1      20.505 -20.249 -18.047  1.00  0.00     0.159 C 
BRANCH  22  23
HETATM   23  C11 UNL     1      19.655 -21.460 -18.194  1.00  0.00     0.184 C 
BRANCH  23  24
HETATM   24  O3  UNL     1      18.414 -21.425 -17.647  1.00  0.00    -0.399 OA
ATOM     25  H3  UNL     1      17.721 -21.894 -18.098  1.00  0.00     0.209 HD
ENDBRANCH  23  24
ENDBRANCH  22  23
ENDBRANCH   3  22
BRANCH   9  26
HETATM   26  C14 UNL     1      26.842 -21.466 -14.608  1.00  0.00     0.042 C 
HETATM   27  C15 UNL     1      27.450 -22.302 -15.671  1.00  0.00     0.037 C 
HETATM   28  C16 UNL     1      28.560 -23.204 -15.262  1.00  0.00     0.169 C 
HETATM   29  O4  UNL     1      28.637 -23.465 -13.898  1.00  0.00    -0.381 OA
HETATM   30  C17 UNL     1      27.410 -23.536 -13.283  1.00  0.00     0.054 C 
HETATM   31  C18 UNL     1      27.653 -23.987 -11.825  1.00  0.00     0.045 C 
HETATM   32  C19 UNL     1      26.473 -24.558 -13.885  1.00  0.00     0.045 C 
HETATM   33  C20 UNL     1      26.707 -22.201 -13.276  1.00  0.00     0.048 C 
ENDBRANCH   9  26
TORSDOF 10
ENDMDL
MODEL 2
REMARK VINA RESULT: -6.274499803      0.985      2.356
REMARK  10 active torsions:
REMARK  status: ('A' for Active; 'I' for Inactive)
REMARK    1  A    between atoms: C2_2  and  C3_3 
REMARK    2  A    between atoms: C3_3  and  C4_5 
REMARK    3  A    between atoms: C4_5  and  C5_6 
REMARK    4  A    between atoms: C5_6  and  C6_7 
REMARK    5  A    between atoms: C5_6  and  C8_9 
REMARK    6  A    between atoms: C9_10  and  O2_11 
REMARK    7  A    between atoms: N1_13  and  C10_14 
REMARK    8  A    between atoms: C10_14  and  C11_15 
REMARK    9  A    between atoms: C11_15  and  O3_16 
REMARK   10  A    between atoms: C13_23  and  C14_24 
ROOT
HETATM    1  C8  UNL     1      22.159 -20.112 -14.575  1.00  0.00     0.050 A 
HETATM    2  C9  UNL     1      21.228 -20.065 -15.602  1.00  0.00     0.158 A 
HETATM    3  N1  UNL     1      21.467 -20.317 -16.885  1.00  0.00    -0.300 N 
HETATM    4  C12 UNL     1      22.690 -20.650 -17.280  1.00  0.00     0.202 A 
HETATM    5  S1  UNL     1      23.033 -20.973 -18.838  1.00  0.00    -0.038 SA
HETATM    6  N2  UNL     1      23.682 -20.724 -16.336  1.00  0.00    -0.229 N 
HETATM    7  N3  UNL     1      24.944 -21.093 -16.483  1.00  0.00    -0.295 N 
ATOM      8  H3  UNL     1      25.366 -21.336 -17.379  1.00  0.00     0.187 HD
HETATM    9  C13 UNL     1      25.592 -21.110 -15.333  1.00  0.00     0.033 A 
HETATM   10  C21 UNL     1      24.630 -20.703 -14.382  1.00  0.00     0.059 A 
HETATM   11  C22 UNL     1      23.447 -20.471 -15.040  1.00  0.00     0.076 A 
ENDROOT
BRANCH   1  12
HETATM   12  C5  UNL     1      21.852 -20.022 -13.122  1.00  0.00    -0.038 C 
BRANCH  12  13
HETATM   13  C4  UNL     1      21.732 -18.712 -12.500  1.00  0.00     0.117 C 
BRANCH  13  14
HETATM   14  C3  UNL     1      20.768 -18.453 -11.433  1.00  0.00     0.130 C 
HETATM   15  O1  UNL     1      20.816 -19.048 -10.324  1.00  0.00    -0.298 OA
BRANCH  14  16
HETATM   16  C2  UNL     1      19.624 -17.471 -11.502  1.00  0.00     0.074 C 
HETATM   17  C1  UNL     1      18.784 -17.462 -10.250  1.00  0.00     0.013 C 
ENDBRANCH  14  16
ENDBRANCH  13  14
ENDBRANCH  12  13
BRANCH  12  18
HETATM   18  C6  UNL     1      21.408 -21.270 -12.521  1.00  0.00    -0.022 C 
HETATM   19  C7  UNL     1      22.220 -22.036 -11.557  1.00  0.00     0.036 C 
ENDBRANCH  12  18
ENDBRANCH   1  12
BRANCH   2  20
HETATM   20  O2  UNL     1      19.929 -19.721 -15.285  1.00  0.00    -0.345 OA
ATOM     21  H2  UNL     1      19.225 -20.222 -15.681  1.00  0.00     0.219 HD
ENDBRANCH   2  20
BRANCH   3  22
HETATM   22  C10 UNL     1      20.425 -20.198 -17.890  1.00  0.00     0.159 C 
BRANCH  22  23
HETATM   23  C11 UNL     1      19.599 -21.427 -18.026  1.00  0.00     0.184 C 
BRANCH  23  24
HETATM   24  O3  UNL     1      18.408 -21.458 -17.376  1.00  0.00    -0.399 OA
ATOM     25  H3  UNL     1      17.967 -22.297 -17.308  1.00  0.00     0.209 HD
ENDBRANCH  23  24
ENDBRANCH  22  23
ENDBRANCH   3  22
BRANCH   9  26
HETATM   26  C14 UNL     1      27.009 -21.557 -15.013  1.00  0.00     0.042 C 
HETATM   27  C15 UNL     1      27.092 -23.028 -15.171  1.00  0.00     0.037 C 
HETATM   28  C16 UNL     1      28.195 -23.718 -14.451  1.00  0.00     0.169 C 
HETATM   29  O4  UNL     1      28.768 -22.992 -13.412  1.00  0.00    -0.381 OA
HETATM   30  C17 UNL     1      27.869 -22.205 -12.732  1.00  0.00     0.054 C 
HETATM   31  C18 UNL     1      28.615 -21.596 -11.524  1.00  0.00     0.045 C 
HETATM   32  C19 UNL     1      26.693 -22.961 -12.159  1.00  0.00     0.045 C 
HETATM   33  C20 UNL     1      27.335 -21.089 -13.596  1.00  0.00     0.048 C 
ENDBRANCH   9  26
TORSDOF 10
ENDMDL
MODEL 3
REMARK VINA RESULT: -6.234820985      2.281      3.772
REMARK  10 active torsions:
REMARK  status: ('A' for Active; 'I' for Inactive)
REMARK    1  A    between atoms: C2_2  and  C3_3 
REMARK    2  A    between atoms: C3_3  and  C4_5 
REMARK    3  A    between atoms: C4_5  and  C5_6 
REMARK    4  A    between atoms: C5_6  and  C6_7 
REMARK    5  A    between atoms: C5_6  and  C8_9 
REMARK    6  A    between atoms: C9_10  and  O2_11 
REMARK    7  A    between atoms: N1_13  and  C10_14 
REMARK    8  A    between atoms: C10_14  and  C11_15 
REMARK    9  A    between atoms: C11_15  and  O3_16 
REMARK   10  A    between atoms: C13_23  and  C14_24 
ROOT
HETATM    1  C8  UNL     1      22.725 -20.583 -13.682  1.00  0.00     0.050 A 
HETATM    2  C9  UNL     1      22.469 -20.396 -15.032  1.00  0.00     0.158 A 
HETATM    3  N1  UNL     1      23.184 -20.888 -16.038  1.00  0.00    -0.300 N 
HETATM    4  C12 UNL     1      24.253 -21.636 -15.790  1.00  0.00     0.202 A 
HETATM    5  S1  UNL     1      25.159 -22.266 -16.987  1.00  0.00    -0.038 SA
HETATM    6  N2  UNL     1      24.589 -21.879 -14.483  1.00  0.00    -0.229 N 
HETATM    7  N3  UNL     1      25.560 -22.637 -14.001  1.00  0.00    -0.295 N 
ATOM      8  H3  UNL     1      26.244 -23.123 -14.580  1.00  0.00     0.187 HD
HETATM    9  C13 UNL     1      25.538 -22.691 -12.681  1.00  0.00     0.033 A 
HETATM   10  C21 UNL     1      24.444 -21.876 -12.316  1.00  0.00     0.059 A 
HETATM   11  C22 UNL     1      23.871 -21.385 -13.463  1.00  0.00     0.076 A 
ENDROOT
BRANCH   1  12
HETATM   12  C5  UNL     1      21.819 -20.197 -12.567  1.00  0.00    -0.038 C 
BRANCH  12  13
HETATM   13  C4  UNL     1      21.657 -18.789 -12.236  1.00  0.00     0.117 C 
BRANCH  13  14
HETATM   14  C3  UNL     1      20.671 -18.338 -11.257  1.00  0.00     0.130 C 
HETATM   15  O1  UNL     1      20.734 -18.660 -10.041  1.00  0.00    -0.298 OA
BRANCH  14  16
HETATM   16  C2  UNL     1      19.484 -17.453 -11.549  1.00  0.00     0.074 C 
HETATM   17  C1  UNL     1      18.685 -17.119 -10.315  1.00  0.00     0.013 C 
ENDBRANCH  14  16
ENDBRANCH  13  14
ENDBRANCH  12  13
BRANCH  12  18
HETATM   18  C6  UNL     1      20.948 -21.264 -12.101  1.00  0.00    -0.022 C 
HETATM   19  C7  UNL     1      21.064 -21.876 -10.763  1.00  0.00     0.036 C 
ENDBRANCH  12  18
ENDBRANCH   1  12
BRANCH   2  20
HETATM   20  O2  UNL     1      21.379 -19.625 -15.386  1.00  0.00    -0.345 OA
ATOM     21  H2  UNL     1      21.286 -19.376 -16.298  1.00  0.00     0.219 HD
ENDBRANCH   2  20
BRANCH   3  22
HETATM   22  C10 UNL     1      22.852 -20.596 -17.422  1.00  0.00     0.159 C 
BRANCH  22  23
HETATM   23  C11 UNL     1      23.404 -19.300 -17.897  1.00  0.00     0.184 C 
BRANCH  23  24
HETATM   24  O3  UNL     1      22.670 -18.596 -18.795  1.00  0.00    -0.399 OA
ATOM     25  H3  UNL     1      22.056 -19.079 -19.336  1.00  0.00     0.209 HD
ENDBRANCH  23  24
ENDBRANCH  22  23
ENDBRANCH   3  22
BRANCH   9  26
HETATM   26  C14 UNL     1      26.387 -23.504 -11.720  1.00  0.00     0.042 C 
HETATM   27  C15 UNL     1      26.045 -24.938 -11.876  1.00  0.00     0.037 C 
HETATM   28  C16 UNL     1      26.368 -25.833 -10.733  1.00  0.00     0.169 C 
HETATM   29  O4  UNL     1      26.574 -25.188  -9.518  1.00  0.00    -0.381 OA
HETATM   30  C17 UNL     1      25.776 -24.082  -9.342  1.00  0.00     0.054 C 
HETATM   31  C18 UNL     1      26.002 -23.579  -7.899  1.00  0.00     0.045 C 
HETATM   32  C19 UNL     1      24.295 -24.361  -9.460  1.00  0.00     0.045 C 
HETATM   33  C20 UNL     1      26.125 -22.978 -10.310  1.00  0.00     0.048 C 
ENDBRANCH   9  26
TORSDOF 10
ENDMDL
MODEL 4
REMARK VINA RESULT: -6.218478920      2.522      6.100
REMARK  10 active torsions:
REMARK  status: ('A' for Active; 'I' for Inactive)
REMARK    1  A    between atoms: C2_2  and  C3_3 
REMARK    2  A    between atoms: C3_3  and  C4_5 
REMARK    3  A    between atoms: C4_5  and  C5_6 
REMARK    4  A    between atoms: C5_6  and  C6_7 
REMARK    5  A    between atoms: C5_6  and  C8_9 
REMARK    6  A    between atoms: C9_10  and  O2_11 
REMARK    7  A    between atoms: N1_13  and  C10_14 
REMARK    8  A    between atoms: C10_14  and  C11_15 
REMARK    9  A    between atoms: C11_15  and  O3_16 
REMARK   10  A    between atoms: C13_23  and  C14_24 
ROOT
HETATM    1  C8  UNL     1      22.803 -21.120 -12.905  1.00  0.00     0.050 A 
HETATM    2  C9  UNL     1      23.862 -21.834 -12.365  1.00  0.00     0.158 A 
HETATM    3  N1  UNL     1      24.904 -22.314 -13.036  1.00  0.00    -0.300 N 
HETATM    4  C12 UNL     1      24.993 -22.124 -14.348  1.00  0.00     0.202 A 
HETATM    5  S1  UNL     1      26.250 -22.688 -15.215  1.00  0.00    -0.038 SA
HETATM    6  N2  UNL     1      23.992 -21.429 -14.976  1.00  0.00    -0.229 N 
HETATM    7  N3  UNL     1      23.900 -21.067 -16.245  1.00  0.00    -0.295 N 
ATOM      8  H3  UNL     1      24.581 -21.319 -16.960  1.00  0.00     0.187 HD
HETATM    9  C13 UNL     1      22.821 -20.342 -16.476  1.00  0.00     0.033 A 
HETATM   10  C21 UNL     1      22.182 -20.254 -15.219  1.00  0.00     0.059 A 
HETATM   11  C22 UNL     1      22.938 -20.941 -14.303  1.00  0.00     0.076 A 
ENDROOT
BRANCH   1  12
HETATM   12  C5  UNL     1      21.744 -20.420 -12.129  1.00  0.00    -0.038 C 
BRANCH  12  13
HETATM   13  C4  UNL     1      21.675 -18.968 -12.169  1.00  0.00     0.117 C 
BRANCH  13  14
HETATM   14  C3  UNL     1      20.739 -18.218 -11.334  1.00  0.00     0.130 C 
HETATM   15  O1  UNL     1      20.813 -18.216 -10.077  1.00  0.00    -0.298 OA
BRANCH  14  16
HETATM   16  C2  UNL     1      19.597 -17.371 -11.838  1.00  0.00     0.074 C 
HETATM   17  C1  UNL     1      18.604 -17.023 -10.757  1.00  0.00     0.013 C 
ENDBRANCH  14  16
ENDBRANCH  13  14
ENDBRANCH  12  13
BRANCH  12  18
HETATM   18  C6  UNL     1      20.688 -21.287 -11.631  1.00  0.00    -0.022 C 
HETATM   19  C7  UNL     1      20.533 -21.637 -10.206  1.00  0.00     0.036 C 
ENDBRANCH  12  18
ENDBRANCH   1  12
BRANCH   2  20
HETATM   20  O2  UNL     1      23.851 -22.084 -11.007  1.00  0.00    -0.345 OA
ATOM     21  H2  UNL     1      23.776 -21.343 -10.417  1.00  0.00     0.219 HD
ENDBRANCH   2  20
BRANCH   3  22
HETATM   22  C10 UNL     1      25.943 -23.086 -12.378  1.00  0.00     0.159 C 
BRANCH  22  23
HETATM   23  C11 UNL     1      25.577 -24.514 -12.180  1.00  0.00     0.184 C 
BRANCH  23  24
HETATM   24  O3  UNL     1      25.043 -24.865 -10.983  1.00  0.00    -0.399 OA
ATOM     25  H3  UNL     1      25.635 -24.948 -10.244  1.00  0.00     0.209 HD
ENDBRANCH  23  24
ENDBRANCH  22  23
ENDBRANCH   3  22
BRANCH   9  26
HETATM   26  C14 UNL     1      22.366 -19.640 -17.744  1.00  0.00     0.042 C 
HETATM   27  C15 UNL     1      21.709 -20.630 -18.629  1.00  0.00     0.037 C 
HETATM   28  C16 UNL     1      21.643 -20.296 -20.076  1.00  0.00     0.169 C 
HETATM   29  O4  UNL     1      22.534 -19.315 -20.498  1.00  0.00    -0.381 OA
HETATM   30  C17 UNL     1      23.740 -19.351 -19.840  1.00  0.00     0.054 C 
HETATM   31  C18 UNL     1      24.667 -18.321 -20.524  1.00  0.00     0.045 C 
HETATM   32  C19 UNL     1      24.456 -20.680 -19.928  1.00  0.00     0.045 C 
HETATM   33  C20 UNL     1      23.594 -18.992 -18.381  1.00  0.00     0.048 C 
ENDBRANCH   9  26
TORSDOF 10
ENDMDL
MODEL 5
REMARK VINA RESULT: -6.093477130      2.228      3.818
REMARK  10 active torsions:
REMARK  status: ('A' for Active; 'I' for Inactive)
REMARK    1  A    between atoms: C2_2  and  C3_3 
REMARK    2  A    between atoms: C3_3  and  C4_5 
REMARK    3  A    between atoms: C4_5  and  C5_6 
REMARK    4  A    between atoms: C5_6  and  C6_7 
REMARK    5  A    between atoms: C5_6  and  C8_9 
REMARK    6  A    between atoms: C9_10  and  O2_11 
REMARK    7  A    between atoms: N1_13  and  C10_14 
REMARK    8  A    between atoms: C10_14  and  C11_15 
REMARK    9  A    between atoms: C11_15  and  O3_16 
REMARK   10  A    between atoms: C13_23  and  C14_24 
ROOT
HETATM    1  C8  UNL     1      22.630 -20.572 -13.509  1.00  0.00     0.050 A 
HETATM    2  C9  UNL     1      22.446 -20.408 -14.874  1.00  0.00     0.158 A 
HETATM    3  N1  UNL     1      23.198 -20.939 -15.833  1.00  0.00    -0.300 N 
HETATM    4  C12 UNL     1      24.235 -21.706 -15.516  1.00  0.00     0.202 A 
HETATM    5  S1  UNL     1      25.183 -22.383 -16.653  1.00  0.00    -0.038 SA
HETATM    6  N2  UNL     1      24.500 -21.929 -14.190  1.00  0.00    -0.229 N 
HETATM    7  N3  UNL     1      25.426 -22.699 -13.644  1.00  0.00    -0.295 N 
ATOM      8  H3  UNL     1      26.126 -23.213 -14.179  1.00  0.00     0.187 HD
HETATM    9  C13 UNL     1      25.338 -22.724 -12.327  1.00  0.00     0.033 A 
HETATM   10  C21 UNL     1      24.247 -21.876 -12.033  1.00  0.00     0.059 A 
HETATM   11  C22 UNL     1      23.744 -21.396 -13.217  1.00  0.00     0.076 A 
ENDROOT
BRANCH   1  12
HETATM   12  C5  UNL     1      21.680 -20.141 -12.448  1.00  0.00    -0.038 C 
BRANCH  12  13
HETATM   13  C4  UNL     1      21.503 -18.722 -12.186  1.00  0.00     0.117 C 
BRANCH  13  14
HETATM   14  C3  UNL     1      20.567 -18.238 -11.173  1.00  0.00     0.130 C 
HETATM   15  O1  UNL     1      20.719 -18.477  -9.947  1.00  0.00    -0.298 OA
BRANCH  14  16
HETATM   16  C2  UNL     1      19.333 -17.412 -11.442  1.00  0.00     0.074 C 
HETATM   17  C1  UNL     1      18.565 -17.080 -10.187  1.00  0.00     0.013 C 
ENDBRANCH  14  16
ENDBRANCH  13  14
ENDBRANCH  12  13
BRANCH  12  18
HETATM   18  C6  UNL     1      20.793 -21.191 -11.971  1.00  0.00    -0.022 C 
HETATM   19  C7  UNL     1      20.882 -21.770 -10.617  1.00  0.00     0.036 C 
ENDBRANCH  12  18
ENDBRANCH   1  12
BRANCH   2  20
HETATM   20  O2  UNL     1      21.394 -19.620 -15.297  1.00  0.00    -0.345 OA
ATOM     21  H2  UNL     1      20.649 -20.050 -15.702  1.00  0.00     0.219 HD
ENDBRANCH   2  20
BRANCH   3  22
HETATM   22  C10 UNL     1      22.941 -20.669 -17.237  1.00  0.00     0.159 C 
BRANCH  22  23
HETATM   23  C11 UNL     1      23.493 -19.367 -17.695  1.00  0.00     0.184 C 
BRANCH  23  24
HETATM   24  O3  UNL     1      22.761 -18.653 -18.587  1.00  0.00    -0.399 OA
ATOM     25  H3  UNL     1      22.190 -17.976 -18.245  1.00  0.00     0.209 HD
ENDBRANCH  23  24
ENDBRANCH  22  23
ENDBRANCH   3  22
BRANCH   9  26
HETATM   26  C14 UNL     1      26.119 -23.536 -11.308  1.00  0.00     0.042 C 
HETATM   27  C15 UNL     1      25.877 -22.972  -9.960  1.00  0.00     0.037 C 
HETATM   28  C16 UNL     1      26.891 -23.272  -8.915  1.00  0.00     0.169 C 
HETATM   29  O4  UNL     1      28.127 -23.692  -9.394  1.00  0.00    -0.381 OA
HETATM   30  C17 UNL     1      28.491 -23.088 -10.574  1.00  0.00     0.054 C 
HETATM   31  C18 UNL     1      29.938 -23.530 -10.888  1.00  0.00     0.045 C 
HETATM   32  C19 UNL     1      28.518 -21.578 -10.516  1.00  0.00     0.045 C 
HETATM   33  C20 UNL     1      27.591 -23.498 -11.715  1.00  0.00     0.048 C 
ENDBRANCH   9  26
TORSDOF 10
ENDMDL
