MODEL 1
REMARK VINA RESULT: -6.409255672      0.000      0.000
REMARK  9 active torsions:
REMARK  status: ('A' for Active; 'I' for Inactive)
REMARK    1  A    between atoms: C2_2  and  C3_3 
REMARK    2  A    between atoms: C3_3  and  C4_4 
REMARK    3  A    between atoms: C4_4  and  C5_5 
REMARK    4  A    between atoms: C6_6  and  O1_7 
REMARK    5  A    between atoms: C8_9  and  O2_10 
REMARK    6  A    between atoms: C12_15  and  N1_16 
REMARK    7  A    between atoms: C14_20  and  O3_21 
REMARK    8  A    between atoms: C16_23  and  O4_24 
REMARK    9  A    between atoms: C18_26  and  O5_27 
ROOT
HETATM    1  C5  UNL     1      24.057 -20.085 -15.706  1.00  0.00     0.013 A 
HETATM    2  C6  UNL     1      25.332 -19.774 -15.981  1.00  0.00     0.111 A 
HETATM    3  C8  UNL     1      25.712 -19.404 -17.268  1.00  0.00     0.106 A 
HETATM    4  C9  UNL     1      24.796 -19.338 -18.342  1.00  0.00    -0.011 A 
HETATM    5  C10 UNL     1      25.155 -18.967 -19.700  1.00  0.00     0.052 C 
HETATM    6  C11 UNL     1      23.511 -19.676 -17.956  1.00  0.00     0.034 A 
HETATM    7  C12 UNL     1      22.649 -19.557 -19.060  1.00  0.00     0.053 C 
HETATM    8  C13 UNL     1      21.437 -20.249 -19.213  1.00  0.00     0.044 A 
HETATM    9  C14 UNL     1      21.129 -20.503 -20.512  1.00  0.00     0.117 A 
HETATM   10  C16 UNL     1      19.908 -21.141 -20.766  1.00  0.00     0.136 A 
HETATM   11  C18 UNL     1      19.040 -21.507 -19.767  1.00  0.00     0.105 A 
HETATM   12  C20 UNL     1      19.402 -21.231 -18.471  1.00  0.00     0.058 A 
HETATM   13  C21 UNL     1      20.599 -20.600 -18.161  1.00  0.00     0.058 A 
HETATM   14  C22 UNL     1      20.785 -20.444 -16.796  1.00  0.00     0.299 C 
HETATM   15  O6  UNL     1      19.726 -20.364 -16.143  1.00  0.00    -0.259 OA
HETATM   16  O7  UNL     1      21.953 -20.381 -16.192  1.00  0.00    -0.273 OA
HETATM   17  C23 UNL     1      23.123 -20.039 -16.700  1.00  0.00     0.101 A 
ENDROOT
BRANCH   1  18
HETATM   18  C4  UNL     1      23.672 -20.479 -14.327  1.00  0.00     0.044 C 
BRANCH  18  19
HETATM   19  C3  UNL     1      23.746 -21.982 -14.141  1.00  0.00     0.004 C 
BRANCH  19  20
HETATM   20  C2  UNL     1      23.019 -22.420 -12.891  1.00  0.00    -0.004 C 
HETATM   21  C1  UNL     1      22.020 -21.335 -12.518  1.00  0.00     0.005 C 
ENDBRANCH  19  20
ENDBRANCH  18  19
ENDBRANCH   1  18
BRANCH   2  22
HETATM   22  O1  UNL     1      26.314 -19.816 -14.968  1.00  0.00    -0.352 OA
HETATM   23  C7  UNL     1      27.099 -20.987 -14.867  1.00  0.00     0.210 C 
ENDBRANCH   2  22
BRANCH   3  24
HETATM   24  O2  UNL     1      27.039 -19.101 -17.452  1.00  0.00    -0.357 OA
ATOM     25  H2  UNL     1      27.667 -19.749 -17.153  1.00  0.00     0.217 HD
ENDBRANCH   3  24
BRANCH   7  26
HETATM   26  N1  UNL     1      22.969 -18.786 -19.909  1.00  0.00    -0.398 N 
ATOM     27  H12 UNL     1      23.633 -18.051 -19.668  1.00  0.00     0.156 HD
ATOM     28  H11 UNL     1      22.570 -18.933 -20.836  1.00  0.00     0.156 HD
ENDBRANCH   7  26
BRANCH   9  29
HETATM   29  O3  UNL     1      21.966 -20.168 -21.559  1.00  0.00    -0.352 OA
HETATM   30  C15 UNL     1      22.690 -21.288 -22.118  1.00  0.00     0.210 C 
ENDBRANCH   9  29
BRANCH  10  31
HETATM   31  O4  UNL     1      19.611 -21.387 -22.096  1.00  0.00    -0.351 OA
HETATM   32  C17 UNL     1      18.939 -20.435 -22.906  1.00  0.00     0.210 C 
ENDBRANCH  10  31
BRANCH  11  33
HETATM   33  O5  UNL     1      17.860 -22.125 -20.045  1.00  0.00    -0.353 OA
HETATM   34  C19 UNL     1      16.615 -21.571 -20.294  1.00  0.00     0.210 C 
ENDBRANCH  11  33
TORSDOF 9
ENDMDL
MODEL 2
REMARK VINA RESULT: -6.408035967      1.097      1.294
REMARK  9 active torsions:
REMARK  status: ('A' for Active; 'I' for Inactive)
REMARK    1  A    between atoms: C2_2  and  C3_3 
REMARK    2  A    between atoms: C3_3  and  C4_4 
REMARK    3  A    between atoms: C4_4  and  C5_5 
REMARK    4  A    between atoms: C6_6  and  O1_7 
REMARK    5  A    between atoms: C8_9  and  O2_10 
REMARK    6  A    between atoms: C12_15  and  N1_16 
REMARK    7  A    between atoms: C14_20  and  O3_21 
REMARK    8  A    between atoms: C16_23  and  O4_24 
REMARK    9  A    between atoms: C18_26  and  O5_27 
ROOT
HETATM    1  C5  UNL     1      23.636 -20.309 -16.270  1.00  0.00     0.013 A 
HETATM    2  C6  UNL     1      24.876 -19.802 -16.239  1.00  0.00     0.111 A 
HETATM    3  C8  UNL     1      25.389 -19.113 -17.335  1.00  0.00     0.106 A 
HETATM    4  C9  UNL     1      24.649 -18.913 -18.523  1.00  0.00    -0.011 A 
HETATM    5  C10 UNL     1      25.153 -18.210 -19.690  1.00  0.00     0.052 C 
HETATM    6  C11 UNL     1      23.386 -19.473 -18.452  1.00  0.00     0.034 A 
HETATM    7  C12 UNL     1      22.696 -19.210 -19.649  1.00  0.00     0.053 C 
HETATM    8  C13 UNL     1      21.640 -19.984 -20.156  1.00  0.00     0.044 A 
HETATM    9  C14 UNL     1      21.576 -19.974 -21.512  1.00  0.00     0.117 A 
HETATM   10  C16 UNL     1      20.518 -20.674 -22.108  1.00  0.00     0.136 A 
HETATM   11  C18 UNL     1      19.572 -21.351 -21.377  1.00  0.00     0.105 A 
HETATM   12  C20 UNL     1      19.686 -21.331 -20.008  1.00  0.00     0.058 A 
HETATM   13  C21 UNL     1      20.713 -20.654 -19.366  1.00  0.00     0.058 A 
HETATM   14  C22 UNL     1      20.661 -20.786 -17.987  1.00  0.00     0.299 C 
HETATM   15  O6  UNL     1      19.515 -20.975 -17.535  1.00  0.00    -0.259 OA
HETATM   16  O7  UNL     1      21.699 -20.727 -17.179  1.00  0.00    -0.273 OA
HETATM   17  C23 UNL     1      22.868 -20.149 -17.387  1.00  0.00     0.101 A 
ENDROOT
BRANCH   1  18
HETATM   18  C4  UNL     1      23.107 -21.042 -15.091  1.00  0.00     0.044 C 
BRANCH  18  19
HETATM   19  C3  UNL     1      22.459 -20.097 -14.098  1.00  0.00     0.004 C 
BRANCH  19  20
HETATM   20  C2  UNL     1      22.121 -20.800 -12.805  1.00  0.00    -0.004 C 
HETATM   21  C1  UNL     1      21.391 -19.813 -11.905  1.00  0.00     0.005 C 
ENDBRANCH  19  20
ENDBRANCH  18  19
ENDBRANCH   1  18
BRANCH   2  22
HETATM   22  O1  UNL     1      25.686 -19.956 -15.094  1.00  0.00    -0.352 OA
HETATM   23  C7  UNL     1      26.548 -21.076 -15.049  1.00  0.00     0.210 C 
ENDBRANCH   2  22
BRANCH   3  24
HETATM   24  O2  UNL     1      26.668 -18.627 -17.210  1.00  0.00    -0.357 OA
ATOM     25  H2  UNL     1      26.764 -17.682 -17.215  1.00  0.00     0.217 HD
ENDBRANCH   3  24
BRANCH   7  26
HETATM   26  N1  UNL     1      23.023 -18.237 -20.253  1.00  0.00    -0.398 N 
ATOM     27  H12 UNL     1      24.017 -18.020 -20.317  1.00  0.00     0.156 HD
ATOM     28  H11 UNL     1      22.276 -17.696 -20.690  1.00  0.00     0.156 HD
ENDBRANCH   7  26
BRANCH   9  29
HETATM   29  O3  UNL     1      22.504 -19.320 -22.301  1.00  0.00    -0.352 OA
HETATM   30  C15 UNL     1      23.455 -20.199 -22.945  1.00  0.00     0.210 C 
ENDBRANCH   9  29
BRANCH  10  31
HETATM   31  O4  UNL     1      20.469 -20.650 -23.492  1.00  0.00    -0.351 OA
HETATM   32  C17 UNL     1      19.676 -19.709 -24.200  1.00  0.00     0.210 C 
ENDBRANCH  10  31
BRANCH  11  33
HETATM   33  O5  UNL     1      18.555 -22.021 -21.984  1.00  0.00    -0.353 OA
HETATM   34  C19 UNL     1      17.198 -21.745 -21.985  1.00  0.00     0.210 C 
ENDBRANCH  11  33
TORSDOF 9
ENDMDL
MODEL 3
REMARK VINA RESULT: -6.281376149      2.297      4.560
REMARK  9 active torsions:
REMARK  status: ('A' for Active; 'I' for Inactive)
REMARK    1  A    between atoms: C2_2  and  C3_3 
REMARK    2  A    between atoms: C3_3  and  C4_4 
REMARK    3  A    between atoms: C4_4  and  C5_5 
REMARK    4  A    between atoms: C6_6  and  O1_7 
REMARK    5  A    between atoms: C8_9  and  O2_10 
REMARK    6  A    between atoms: C12_15  and  N1_16 
REMARK    7  A    between atoms: C14_20  and  O3_21 
REMARK    8  A    between atoms: C16_23  and  O4_24 
REMARK    9  A    between atoms: C18_26  and  O5_27 
ROOT
HETATM    1  C5  UNL     1      23.959 -22.351 -12.783  1.00  0.00     0.013 A 
HETATM    2  C6  UNL     1      25.105 -22.816 -12.266  1.00  0.00     0.111 A 
HETATM    3  C8  UNL     1      26.326 -22.524 -12.868  1.00  0.00     0.106 A 
HETATM    4  C9  UNL     1      26.429 -21.737 -14.037  1.00  0.00    -0.011 A 
HETATM    5  C10 UNL     1      27.683 -21.420 -14.699  1.00  0.00     0.052 C 
HETATM    6  C11 UNL     1      25.195 -21.307 -14.488  1.00  0.00     0.034 A 
HETATM    7  C12 UNL     1      25.373 -20.506 -15.630  1.00  0.00     0.053 C 
HETATM    8  C13 UNL     1      24.407 -20.301 -16.628  1.00  0.00     0.044 A 
HETATM    9  C14 UNL     1      24.948 -20.087 -17.856  1.00  0.00     0.117 A 
HETATM   10  C16 UNL     1      24.061 -19.816 -18.907  1.00  0.00     0.136 A 
HETATM   11  C18 UNL     1      22.699 -19.764 -18.733  1.00  0.00     0.105 A 
HETATM   12  C20 UNL     1      22.205 -19.992 -17.472  1.00  0.00     0.058 A 
HETATM   13  C21 UNL     1      23.038 -20.264 -16.395  1.00  0.00     0.058 A 
HETATM   14  C22 UNL     1      22.337 -20.493 -15.221  1.00  0.00     0.299 C 
HETATM   15  O6  UNL     1      21.233 -19.916 -15.165  1.00  0.00    -0.259 OA
HETATM   16  O7  UNL     1      22.753 -21.246 -14.223  1.00  0.00    -0.273 OA
HETATM   17  C23 UNL     1      23.990 -21.583 -13.911  1.00  0.00     0.101 A 
ENDROOT
BRANCH   1  18
HETATM   18  C4  UNL     1      22.666 -22.675 -12.127  1.00  0.00     0.044 C 
BRANCH  18  19
HETATM   19  C3  UNL     1      22.359 -21.705 -11.003  1.00  0.00     0.004 C 
BRANCH  19  20
HETATM   20  C2  UNL     1      20.984 -21.099 -11.155  1.00  0.00    -0.004 C 
HETATM   21  C1  UNL     1      21.148 -19.612 -11.431  1.00  0.00     0.005 C 
ENDBRANCH  19  20
ENDBRANCH  18  19
ENDBRANCH   1  18
BRANCH   2  22
HETATM   22  O1  UNL     1      25.094 -23.612 -11.101  1.00  0.00    -0.352 OA
HETATM   23  C7  UNL     1      25.085 -25.016 -11.268  1.00  0.00     0.210 C 
ENDBRANCH   2  22
BRANCH   3  24
HETATM   24  O2  UNL     1      27.446 -23.043 -12.264  1.00  0.00    -0.357 OA
ATOM     25  H2  UNL     1      27.543 -23.988 -12.293  1.00  0.00     0.217 HD
ENDBRANCH   3  24
BRANCH   7  26
HETATM   26  N1  UNL     1      26.417 -19.941 -15.731  1.00  0.00    -0.398 N 
ATOM     27  H12 UNL     1      27.243 -20.377 -15.322  1.00  0.00     0.156 HD
ATOM     28  H11 UNL     1      26.414 -19.062 -16.247  1.00  0.00     0.156 HD
ENDBRANCH   7  26
BRANCH   9  29
HETATM   29  O3  UNL     1      26.308 -20.136 -18.095  1.00  0.00    -0.352 OA
HETATM   30  C15 UNL     1      26.747 -21.342 -18.761  1.00  0.00     0.210 C 
ENDBRANCH   9  29
BRANCH  10  31
HETATM   31  O4  UNL     1      24.631 -19.597 -20.150  1.00  0.00    -0.351 OA
HETATM   32  C17 UNL     1      24.902 -18.291 -20.634  1.00  0.00     0.210 C 
ENDBRANCH  10  31
BRANCH  11  33
HETATM   33  O5  UNL     1      21.863 -19.498 -19.773  1.00  0.00    -0.353 OA
HETATM   34  C19 UNL     1      21.151 -20.375 -20.575  1.00  0.00     0.210 C 
ENDBRANCH  11  33
TORSDOF 9
ENDMDL
MODEL 4
REMARK VINA RESULT: -6.145404039      4.118      9.091
REMARK  9 active torsions:
REMARK  status: ('A' for Active; 'I' for Inactive)
REMARK    1  A    between atoms: C2_2  and  C3_3 
REMARK    2  A    between atoms: C3_3  and  C4_4 
REMARK    3  A    between atoms: C4_4  and  C5_5 
REMARK    4  A    between atoms: C6_6  and  O1_7 
REMARK    5  A    between atoms: C8_9  and  O2_10 
REMARK    6  A    between atoms: C12_15  and  N1_16 
REMARK    7  A    between atoms: C14_20  and  O3_21 
REMARK    8  A    between atoms: C16_23  and  O4_24 
REMARK    9  A    between atoms: C18_26  and  O5_27 
ROOT
HETATM    1  C5  UNL     1      22.776 -21.060 -13.681  1.00  0.00     0.013 A 
HETATM    2  C6  UNL     1      22.968 -20.493 -14.880  1.00  0.00     0.111 A 
HETATM    3  C8  UNL     1      24.169 -20.666 -15.564  1.00  0.00     0.106 A 
HETATM    4  C9  UNL     1      25.237 -21.431 -15.044  1.00  0.00    -0.011 A 
HETATM    5  C10 UNL     1      26.508 -21.626 -15.721  1.00  0.00     0.052 C 
HETATM    6  C11 UNL     1      24.939 -21.972 -13.806  1.00  0.00     0.034 A 
HETATM    7  C12 UNL     1      26.028 -22.744 -13.363  1.00  0.00     0.053 C 
HETATM    8  C13 UNL     1      26.319 -23.030 -12.021  1.00  0.00     0.044 A 
HETATM    9  C14 UNL     1      27.648 -23.184 -11.785  1.00  0.00     0.117 A 
HETATM   10  C16 UNL     1      28.030 -23.529 -10.481  1.00  0.00     0.136 A 
HETATM   11  C18 UNL     1      27.123 -23.709  -9.465  1.00  0.00     0.105 A 
HETATM   12  C20 UNL     1      25.792 -23.537  -9.757  1.00  0.00     0.058 A 
HETATM   13  C21 UNL     1      25.357 -23.197 -11.031  1.00  0.00     0.058 A 
HETATM   14  C22 UNL     1      23.981 -23.042 -11.103  1.00  0.00     0.299 C 
HETATM   15  O6  UNL     1      23.347 -23.720 -10.271  1.00  0.00    -0.259 OA
HETATM   16  O7  UNL     1      23.349 -22.262 -11.955  1.00  0.00    -0.273 OA
HETATM   17  C23 UNL     1      23.769 -21.813 -13.123  1.00  0.00     0.101 A 
ENDROOT
BRANCH   1  18
HETATM   18  C4  UNL     1      21.488 -20.863 -12.967  1.00  0.00     0.044 C 
BRANCH  18  19
HETATM   19  C3  UNL     1      21.467 -19.542 -12.221  1.00  0.00     0.004 C 
BRANCH  19  20
HETATM   20  C2  UNL     1      21.026 -19.724 -10.788  1.00  0.00    -0.004 C 
HETATM   21  C1  UNL     1      20.594 -21.172 -10.605  1.00  0.00     0.005 C 
ENDBRANCH  19  20
ENDBRANCH  18  19
ENDBRANCH   1  18
BRANCH   2  22
HETATM   22  O1  UNL     1      21.955 -19.711 -15.474  1.00  0.00    -0.352 OA
HETATM   23  C7  UNL     1      21.249 -20.273 -16.563  1.00  0.00     0.210 C 
ENDBRANCH   2  22
BRANCH   3  24
HETATM   24  O2  UNL     1      24.271 -20.050 -16.787  1.00  0.00    -0.357 OA
ATOM     25  H2  UNL     1      24.502 -19.128 -16.779  1.00  0.00     0.217 HD
ENDBRANCH   3  24
BRANCH   7  26
HETATM   26  N1  UNL     1      26.732 -23.208 -14.204  1.00  0.00    -0.398 N 
ATOM     27  H12 UNL     1      26.672 -22.827 -15.148  1.00  0.00     0.156 HD
ATOM     28  H11 UNL     1      27.370 -23.948 -13.911  1.00  0.00     0.156 HD
ENDBRANCH   7  26
BRANCH   9  29
HETATM   29  O3  UNL     1      28.608 -23.006 -12.763  1.00  0.00    -0.352 OA
HETATM   30  C15 UNL     1      29.190 -21.683 -12.784  1.00  0.00     0.210 C 
ENDBRANCH   9  29
BRANCH  10  31
HETATM   31  O4  UNL     1      29.389 -23.684 -10.262  1.00  0.00    -0.351 OA
HETATM   32  C17 UNL     1      30.152 -22.716  -9.559  1.00  0.00     0.210 C 
ENDBRANCH  10  31
BRANCH  11  33
HETATM   33  O5  UNL     1      27.525 -24.044  -8.209  1.00  0.00    -0.353 OA
HETATM   34  C19 UNL     1      26.903 -23.804  -6.994  1.00  0.00     0.210 C 
ENDBRANCH  11  33
TORSDOF 9
ENDMDL
MODEL 5
REMARK VINA RESULT: -6.059548850      2.208      3.764
REMARK  9 active torsions:
REMARK  status: ('A' for Active; 'I' for Inactive)
REMARK    1  A    between atoms: C2_2  and  C3_3 
REMARK    2  A    between atoms: C3_3  and  C4_4 
REMARK    3  A    between atoms: C4_4  and  C5_5 
REMARK    4  A    between atoms: C6_6  and  O1_7 
REMARK    5  A    between atoms: C8_9  and  O2_10 
REMARK    6  A    between atoms: C12_15  and  N1_16 
REMARK    7  A    between atoms: C14_20  and  O3_21 
REMARK    8  A    between atoms: C16_23  and  O4_24 
REMARK    9  A    between atoms: C18_26  and  O5_27 
ROOT
HETATM    1  C5  UNL     1      22.955 -21.332 -13.571  1.00  0.00     0.013 A 
HETATM    2  C6  UNL     1      23.978 -21.855 -12.881  1.00  0.00     0.111 A 
HETATM    3  C8  UNL     1      25.194 -22.123 -13.505  1.00  0.00     0.106 A 
HETATM    4  C9  UNL     1      25.416 -21.867 -14.877  1.00  0.00    -0.011 A 
HETATM    5  C10 UNL     1      26.666 -22.142 -15.567  1.00  0.00     0.052 C 
HETATM    6  C11 UNL     1      24.303 -21.329 -15.497  1.00  0.00     0.034 A 
HETATM    7  C12 UNL     1      24.603 -21.070 -16.846  1.00  0.00     0.053 C 
HETATM    8  C13 UNL     1      23.659 -21.001 -17.882  1.00  0.00     0.044 A 
HETATM    9  C14 UNL     1      24.157 -21.391 -19.084  1.00  0.00     0.117 A 
HETATM   10  C16 UNL     1      23.302 -21.302 -20.190  1.00  0.00     0.136 A 
HETATM   11  C18 UNL     1      22.010 -20.845 -20.094  1.00  0.00     0.105 A 
HETATM   12  C20 UNL     1      21.555 -20.466 -18.855  1.00  0.00     0.058 A 
HETATM   13  C21 UNL     1      22.359 -20.533 -17.725  1.00  0.00     0.058 A 
HETATM   14  C22 UNL     1      21.699 -20.135 -16.573  1.00  0.00     0.299 C 
HETATM   15  O6  UNL     1      20.780 -19.315 -16.770  1.00  0.00    -0.259 OA
HETATM   16  O7  UNL     1      21.975 -20.554 -15.356  1.00  0.00    -0.273 OA
HETATM   17  C23 UNL     1      23.106 -21.060 -14.900  1.00  0.00     0.101 A 
ENDROOT
BRANCH   1  18
HETATM   18  C4  UNL     1      21.666 -21.054 -12.887  1.00  0.00     0.044 C 
BRANCH  18  19
HETATM   19  C3  UNL     1      21.669 -19.684 -12.238  1.00  0.00     0.004 C 
BRANCH  19  20
HETATM   20  C2  UNL     1      21.089 -19.731 -10.844  1.00  0.00    -0.004 C 
HETATM   21  C1  UNL     1      20.653 -21.160 -10.560  1.00  0.00     0.005 C 
ENDBRANCH  19  20
ENDBRANCH  18  19
ENDBRANCH   1  18
BRANCH   2  22
HETATM   22  O1  UNL     1      23.843 -22.144 -11.506  1.00  0.00    -0.352 OA
HETATM   23  C7  UNL     1      23.493 -23.466 -11.147  1.00  0.00     0.210 C 
ENDBRANCH   2  22
BRANCH   3  24
HETATM   24  O2  UNL     1      26.183 -22.656 -12.716  1.00  0.00    -0.357 OA
ATOM     25  H2  UNL     1      25.938 -23.393 -12.170  1.00  0.00     0.217 HD
ENDBRANCH   3  24
BRANCH   7  26
HETATM   26  N1  UNL     1      25.747 -20.867 -17.110  1.00  0.00    -0.398 N 
ATOM     27  H12 UNL     1      26.422 -21.611 -16.937  1.00  0.00     0.156 HD
ATOM     28  H11 UNL     1      25.968 -19.959 -17.520  1.00  0.00     0.156 HD
ENDBRANCH   7  26
BRANCH   9  29
HETATM   29  O3  UNL     1      25.445 -21.870 -19.241  1.00  0.00    -0.352 OA
HETATM   30  C15 UNL     1      25.525 -23.305 -19.399  1.00  0.00     0.210 C 
ENDBRANCH   9  29
BRANCH  10  31
HETATM   31  O4  UNL     1      23.830 -21.702 -21.407  1.00  0.00    -0.351 OA
HETATM   32  C17 UNL     1      24.431 -20.781 -22.304  1.00  0.00     0.210 C 
ENDBRANCH  10  31
BRANCH  11  33
HETATM   33  O5  UNL     1      21.203 -20.769 -21.188  1.00  0.00    -0.353 OA
HETATM   34  C19 UNL     1      19.890 -21.184 -21.341  1.00  0.00     0.210 C 
ENDBRANCH  11  33
TORSDOF 9
ENDMDL
