MODEL 1
REMARK VINA RESULT: -7.002532994      0.000      0.000
REMARK  9 active torsions:
REMARK  status: ('A' for Active; 'I' for Inactive)
REMARK    1  A    between atoms: O1_2  and  C2_3 
REMARK    2  A    between atoms: C2_3  and  C3_4 
REMARK    3  A    between atoms: C3_4  and  C4_5 
REMARK    4  A    between atoms: C4_5  and  C5_6 
REMARK    5  A    between atoms: C5_6  and  O2_7 
REMARK    6  A    between atoms: O2_7  and  N1_8 
REMARK    7  A    between atoms: C12_17  and  C13_18 
REMARK    8  A    between atoms: C16_22  and  S2_23 
REMARK    9  A    between atoms: N3_30  and  O4_32 
ROOT
HETATM    1  N1  UNL     1      21.629 -20.592 -10.251  1.00  0.00    -0.275 N 
ATOM      2  H1  UNL     1      22.367 -20.461  -9.559  1.00  0.00     0.193 HD
HETATM    3  C6  UNL     1      21.887 -21.300 -11.295  1.00  0.00     0.011 C 
HETATM    4  C7  UNL     1      20.743 -21.424 -12.233  1.00  0.00     0.062 C 
HETATM    5  C8  UNL     1      21.133 -20.659 -13.502  1.00  0.00     0.084 C 
HETATM    6  C9  UNL     1      22.613 -20.810 -13.641  1.00  0.00     0.132 C 
HETATM    7  O3  UNL     1      23.264 -19.765 -13.603  1.00  0.00    -0.298 OA
HETATM    8  C10 UNL     1      23.421 -22.058 -13.822  1.00  0.00     0.063 C 
HETATM    9  C11 UNL     1      24.695 -21.707 -14.456  1.00  0.00     0.042 C 
HETATM   10  C12 UNL     1      25.887 -22.522 -14.078  1.00  0.00     0.118 C 
HETATM   11  N2  UNL     1      25.867 -22.915 -12.723  1.00  0.00    -0.412 N 
ATOM     12  H2  UNL     1      26.660 -22.737 -12.105  1.00  0.00     0.153 HD
HETATM   13  C18 UNL     1      24.701 -23.567 -12.258  1.00  0.00     0.120 C 
HETATM   14  C19 UNL     1      23.459 -22.770 -12.518  1.00  0.00     0.019 C 
HETATM   15  C20 UNL     1      23.258 -21.836 -11.339  1.00  0.00     0.061 C 
ENDROOT
BRANCH   1  16
HETATM   16  O2  UNL     1      20.412 -20.006 -10.024  1.00  0.00    -0.281 OA
BRANCH  16  17
HETATM   17  C5  UNL     1      20.214 -18.605 -10.086  1.00  0.00     0.201 C 
BRANCH  17  18
HETATM   18  C4  UNL     1      18.927 -18.213  -9.368  1.00  0.00     0.037 C 
BRANCH  18  19
HETATM   19  C3  UNL     1      18.460 -16.902  -9.894  1.00  0.00     0.088 C 
BRANCH  19  20
HETATM   20  C2  UNL     1      17.504 -16.964 -10.994  1.00  0.00     0.137 C 
HETATM   21  N3  UNL     1      16.235 -17.024 -10.950  1.00  0.00    -0.251 N 
ATOM     22  H3  UNL     1      15.730 -17.061 -11.835  1.00  0.00     0.196 HD
BRANCH  20  23
HETATM   23  O1  UNL     1      18.048 -16.958 -12.308  1.00  0.00    -0.343 OA
HETATM   24  C1  UNL     1      17.616 -15.986 -13.258  1.00  0.00     0.211 C 
ENDBRANCH  20  23
BRANCH  21  25
HETATM   25  O4  UNL     1      15.514 -17.041  -9.816  1.00  0.00    -0.288 OA
ATOM     26  H4  UNL     1      14.627 -16.710  -9.739  1.00  0.00     0.244 HD
ENDBRANCH  21  25
ENDBRANCH  19  20
ENDBRANCH  18  19
ENDBRANCH  17  18
ENDBRANCH  16  17
ENDBRANCH   1  16
BRANCH  10  27
HETATM   27  C13 UNL     1      25.978 -23.694 -15.029  1.00  0.00     0.021 A 
HETATM   28  S1  UNL     1      25.235 -25.223 -14.926  1.00  0.00    -0.103 SA
HETATM   29  C14 UNL     1      25.840 -25.927 -16.354  1.00  0.00     0.051 A 
HETATM   30  C15 UNL     1      26.619 -24.929 -16.879  1.00  0.00     0.027 A 
HETATM   31  C16 UNL     1      26.689 -23.776 -16.194  1.00  0.00     0.015 A 
BRANCH  31  32
HETATM   32  S2  UNL     1      27.683 -22.366 -16.772  1.00  0.00    -0.133 SA
HETATM   33  C17 UNL     1      26.690 -21.140 -17.611  1.00  0.00     0.095 C 
ENDBRANCH  31  32
ENDBRANCH  10  27
TORSDOF 9
ENDMDL
MODEL 2
REMARK VINA RESULT: -6.968109626      1.461      2.314
REMARK  9 active torsions:
REMARK  status: ('A' for Active; 'I' for Inactive)
REMARK    1  A    between atoms: O1_2  and  C2_3 
REMARK    2  A    between atoms: C2_3  and  C3_4 
REMARK    3  A    between atoms: C3_4  and  C4_5 
REMARK    4  A    between atoms: C4_5  and  C5_6 
REMARK    5  A    between atoms: C5_6  and  O2_7 
REMARK    6  A    between atoms: O2_7  and  N1_8 
REMARK    7  A    between atoms: C12_17  and  C13_18 
REMARK    8  A    between atoms: C16_22  and  S2_23 
REMARK    9  A    between atoms: N3_30  and  O4_32 
ROOT
HETATM    1  N1  UNL     1      21.782 -19.882 -11.436  1.00  0.00    -0.275 N 
ATOM      2  H1  UNL     1      22.279 -19.898 -10.546  1.00  0.00     0.193 HD
HETATM    3  C6  UNL     1      22.065 -20.783 -12.312  1.00  0.00     0.011 C 
HETATM    4  C7  UNL     1      21.283 -20.664 -13.569  1.00  0.00     0.062 C 
HETATM    5  C8  UNL     1      22.277 -20.268 -14.666  1.00  0.00     0.084 C 
HETATM    6  C9  UNL     1      23.575 -20.914 -14.306  1.00  0.00     0.132 C 
HETATM    7  O3  UNL     1      24.515 -20.147 -14.093  1.00  0.00    -0.298 OA
HETATM    8  C10 UNL     1      23.898 -22.370 -14.166  1.00  0.00     0.063 C 
HETATM    9  C11 UNL     1      25.339 -22.554 -14.358  1.00  0.00     0.042 C 
HETATM   10  C12 UNL     1      25.992 -23.649 -13.581  1.00  0.00     0.118 C 
HETATM   11  N2  UNL     1      25.433 -23.807 -12.294  1.00  0.00    -0.412 N 
ATOM     12  H2  UNL     1      26.017 -23.807 -11.457  1.00  0.00     0.153 HD
HETATM   13  C18 UNL     1      24.030 -23.963 -12.215  1.00  0.00     0.120 C 
HETATM   14  C19 UNL     1      23.292 -22.852 -12.898  1.00  0.00     0.019 C 
HETATM   15  C20 UNL     1      23.100 -21.739 -11.884  1.00  0.00     0.061 C 
ENDROOT
BRANCH   1  16
HETATM   16  O2  UNL     1      20.846 -18.903 -11.643  1.00  0.00    -0.281 OA
BRANCH  16  17
HETATM   17  C5  UNL     1      20.578 -17.888 -10.693  1.00  0.00     0.201 C 
BRANCH  17  18
HETATM   18  C4  UNL     1      19.307 -18.205  -9.913  1.00  0.00     0.037 C 
BRANCH  18  19
HETATM   19  C3  UNL     1      18.411 -17.018  -9.945  1.00  0.00     0.088 C 
BRANCH  19  20
HETATM   20  C2  UNL     1      17.426 -16.997 -11.021  1.00  0.00     0.137 C 
HETATM   21  N3  UNL     1      16.157 -17.015 -10.946  1.00  0.00    -0.251 N 
ATOM     22  H3  UNL     1      15.629 -16.995 -11.818  1.00  0.00     0.196 HD
BRANCH  20  23
HETATM   23  O1  UNL     1      17.937 -16.948 -12.347  1.00  0.00    -0.343 OA
HETATM   24  C1  UNL     1      17.603 -15.858 -13.204  1.00  0.00     0.211 C 
ENDBRANCH  20  23
BRANCH  21  25
HETATM   25  O4  UNL     1      15.465 -17.061  -9.795  1.00  0.00    -0.288 OA
ATOM     26  H4  UNL     1      15.230 -16.298  -9.280  1.00  0.00     0.244 HD
ENDBRANCH  21  25
ENDBRANCH  19  20
ENDBRANCH  18  19
ENDBRANCH  17  18
ENDBRANCH  16  17
ENDBRANCH   1  16
BRANCH  10  27
HETATM   27  C13 UNL     1      25.933 -24.914 -14.406  1.00  0.00     0.021 A 
HETATM   28  S1  UNL     1      25.190 -25.180 -15.916  1.00  0.00    -0.103 SA
HETATM   29  C14 UNL     1      25.578 -26.824 -16.135  1.00  0.00     0.051 A 
HETATM   30  C15 UNL     1      26.290 -27.121 -15.003  1.00  0.00     0.027 A 
HETATM   31  C16 UNL     1      26.473 -26.135 -14.111  1.00  0.00     0.015 A 
BRANCH  31  32
HETATM   32  S2  UNL     1      27.397 -26.387 -12.564  1.00  0.00    -0.133 SA
HETATM   33  C17 UNL     1      26.398 -27.157 -11.298  1.00  0.00     0.095 C 
ENDBRANCH  31  32
ENDBRANCH  10  27
TORSDOF 9
ENDMDL
MODEL 3
REMARK VINA RESULT: -6.955614143      1.147      1.477
REMARK  9 active torsions:
REMARK  status: ('A' for Active; 'I' for Inactive)
REMARK    1  A    between atoms: O1_2  and  C2_3 
REMARK    2  A    between atoms: C2_3  and  C3_4 
REMARK    3  A    between atoms: C3_4  and  C4_5 
REMARK    4  A    between atoms: C4_5  and  C5_6 
REMARK    5  A    between atoms: C5_6  and  O2_7 
REMARK    6  A    between atoms: O2_7  and  N1_8 
REMARK    7  A    between atoms: C12_17  and  C13_18 
REMARK    8  A    between atoms: C16_22  and  S2_23 
REMARK    9  A    between atoms: N3_30  and  O4_32 
ROOT
HETATM    1  N1  UNL     1      21.656 -20.495 -10.277  1.00  0.00    -0.275 N 
ATOM      2  H1  UNL     1      22.364 -20.242  -9.588  1.00  0.00     0.193 HD
HETATM    3  C6  UNL     1      21.974 -21.333 -11.202  1.00  0.00     0.011 C 
HETATM    4  C7  UNL     1      20.869 -21.629 -12.148  1.00  0.00     0.062 C 
HETATM    5  C8  UNL     1      21.280 -21.036 -13.500  1.00  0.00     0.084 C 
HETATM    6  C9  UNL     1      22.768 -21.152 -13.570  1.00  0.00     0.132 C 
HETATM    7  O3  UNL     1      23.385 -20.089 -13.660  1.00  0.00    -0.298 OA
HETATM    8  C10 UNL     1      23.621 -22.382 -13.547  1.00  0.00     0.063 C 
HETATM    9  C11 UNL     1      24.906 -22.079 -14.184  1.00  0.00     0.042 C 
HETATM   10  C12 UNL     1      26.108 -22.789 -13.657  1.00  0.00     0.118 C 
HETATM   11  N2  UNL     1      26.052 -22.988 -12.261  1.00  0.00    -0.412 N 
ATOM     12  H2  UNL     1      26.815 -22.697 -11.650  1.00  0.00     0.153 HD
HETATM   13  C18 UNL     1      24.890 -23.610 -11.746  1.00  0.00     0.120 C 
HETATM   14  C19 UNL     1      23.634 -22.903 -12.155  1.00  0.00     0.019 C 
HETATM   15  C20 UNL     1      23.361 -21.821 -11.126  1.00  0.00     0.061 C 
ENDROOT
BRANCH   1  16
HETATM   16  O2  UNL     1      20.413 -19.928 -10.174  1.00  0.00    -0.281 OA
BRANCH  16  17
HETATM   17  C5  UNL     1      20.214 -18.526 -10.138  1.00  0.00     0.201 C 
BRANCH  17  18
HETATM   18  C4  UNL     1      18.931 -18.186  -9.386  1.00  0.00     0.037 C 
BRANCH  18  19
HETATM   19  C3  UNL     1      18.408 -16.886  -9.885  1.00  0.00     0.088 C 
BRANCH  19  20
HETATM   20  C2  UNL     1      17.462 -16.966 -10.992  1.00  0.00     0.137 C 
HETATM   21  N3  UNL     1      16.193 -17.043 -10.959  1.00  0.00    -0.251 N 
ATOM     22  H3  UNL     1      15.696 -17.092 -11.848  1.00  0.00     0.196 HD
BRANCH  20  23
HETATM   23  O1  UNL     1      18.017 -16.959 -12.302  1.00  0.00    -0.343 OA
HETATM   24  C1  UNL     1      17.606 -15.976 -13.248  1.00  0.00     0.211 C 
ENDBRANCH  20  23
BRANCH  21  25
HETATM   25  O4  UNL     1      15.464 -17.064  -9.830  1.00  0.00    -0.288 OA
ATOM     26  H4  UNL     1      15.216 -16.292  -9.337  1.00  0.00     0.244 HD
ENDBRANCH  21  25
ENDBRANCH  19  20
ENDBRANCH  18  19
ENDBRANCH  17  18
ENDBRANCH  16  17
ENDBRANCH   1  16
BRANCH  10  27
HETATM   27  C13 UNL     1      26.270 -24.079 -14.429  1.00  0.00     0.021 A 
HETATM   28  S1  UNL     1      25.072 -25.107 -15.071  1.00  0.00    -0.103 SA
HETATM   29  C14 UNL     1      26.068 -26.300 -15.767  1.00  0.00     0.051 A 
HETATM   30  C15 UNL     1      27.330 -25.852 -15.473  1.00  0.00     0.027 A 
HETATM   31  C16 UNL     1      27.433 -24.705 -14.782  1.00  0.00     0.015 A 
BRANCH  31  32
HETATM   32  S2  UNL     1      29.043 -23.994 -14.323  1.00  0.00    -0.133 SA
HETATM   33  C17 UNL     1      29.459 -24.312 -12.615  1.00  0.00     0.095 C 
ENDBRANCH  31  32
ENDBRANCH  10  27
TORSDOF 9
ENDMDL
MODEL 4
REMARK VINA RESULT: -6.947830422      1.857      2.871
REMARK  9 active torsions:
REMARK  status: ('A' for Active; 'I' for Inactive)
REMARK    1  A    between atoms: O1_2  and  C2_3 
REMARK    2  A    between atoms: C2_3  and  C3_4 
REMARK    3  A    between atoms: C3_4  and  C4_5 
REMARK    4  A    between atoms: C4_5  and  C5_6 
REMARK    5  A    between atoms: C5_6  and  O2_7 
REMARK    6  A    between atoms: O2_7  and  N1_8 
REMARK    7  A    between atoms: C12_17  and  C13_18 
REMARK    8  A    between atoms: C16_22  and  S2_23 
REMARK    9  A    between atoms: N3_30  and  O4_32 
ROOT
HETATM    1  N1  UNL     1      22.475 -20.841 -11.295  1.00  0.00    -0.275 N 
ATOM      2  H1  UNL     1      22.810 -21.138 -10.379  1.00  0.00     0.193 HD
HETATM    3  C6  UNL     1      22.704 -21.602 -12.308  1.00  0.00     0.011 C 
HETATM    4  C7  UNL     1      22.173 -21.072 -13.588  1.00  0.00     0.062 C 
HETATM    5  C8  UNL     1      23.388 -20.720 -14.453  1.00  0.00     0.084 C 
HETATM    6  C9  UNL     1      24.453 -21.706 -14.097  1.00  0.00     0.132 C 
HETATM    7  O3  UNL     1      25.484 -21.232 -13.617  1.00  0.00    -0.298 OA
HETATM    8  C10 UNL     1      24.445 -23.196 -14.242  1.00  0.00     0.063 C 
HETATM    9  C11 UNL     1      25.830 -23.672 -14.304  1.00  0.00     0.042 C 
HETATM   10  C12 UNL     1      26.113 -25.014 -13.715  1.00  0.00     0.118 C 
HETATM   11  N2  UNL     1      25.337 -25.275 -12.565  1.00  0.00    -0.412 N 
ATOM     12  H2  UNL     1      25.768 -25.568 -11.688  1.00  0.00     0.153 HD
HETATM   13  C18 UNL     1      23.937 -25.113 -12.683  1.00  0.00     0.120 C 
HETATM   14  C19 UNL     1      23.559 -23.753 -13.186  1.00  0.00     0.019 C 
HETATM   15  C20 UNL     1      23.440 -22.836 -11.983  1.00  0.00     0.061 C 
ENDROOT
BRANCH   1  16
HETATM   16  O2  UNL     1      21.804 -19.649 -11.388  1.00  0.00    -0.281 OA
BRANCH  16  17
HETATM   17  C5  UNL     1      20.652 -19.358 -10.618  1.00  0.00     0.201 C 
BRANCH  17  18
HETATM   18  C4  UNL     1      20.383 -17.857 -10.602  1.00  0.00     0.037 C 
BRANCH  18  19
HETATM   19  C3  UNL     1      18.973 -17.623 -10.189  1.00  0.00     0.088 C 
BRANCH  19  20
HETATM   20  C2  UNL     1      18.190 -16.761 -11.067  1.00  0.00     0.137 C 
HETATM   21  N3  UNL     1      17.238 -15.972 -10.773  1.00  0.00    -0.251 N 
ATOM     22  H3  UNL     1      16.806 -15.445 -11.532  1.00  0.00     0.196 HD
BRANCH  20  23
HETATM   23  O1  UNL     1      18.522 -16.796 -12.449  1.00  0.00    -0.343 OA
HETATM   24  C1  UNL     1      17.540 -16.470 -13.430  1.00  0.00     0.211 C 
ENDBRANCH  20  23
BRANCH  21  25
HETATM   25  O4  UNL     1      16.763 -15.784  -9.531  1.00  0.00    -0.288 OA
ATOM     26  H4  UNL     1      15.924 -15.385  -9.331  1.00  0.00     0.244 HD
ENDBRANCH  21  25
ENDBRANCH  19  20
ENDBRANCH  18  19
ENDBRANCH  17  18
ENDBRANCH  16  17
ENDBRANCH   1  16
BRANCH  10  27
HETATM   27  C13 UNL     1      25.929 -26.053 -14.797  1.00  0.00     0.021 A 
HETATM   28  S1  UNL     1      25.224 -25.888 -16.339  1.00  0.00    -0.103 SA
HETATM   29  C14 UNL     1      25.409 -27.483 -16.906  1.00  0.00     0.051 A 
HETATM   30  C15 UNL     1      26.029 -28.109 -15.856  1.00  0.00     0.027 A 
HETATM   31  C16 UNL     1      26.296 -27.370 -14.768  1.00  0.00     0.015 A 
BRANCH  31  32
HETATM   32  S2  UNL     1      27.114 -28.069 -13.301  1.00  0.00    -0.133 SA
HETATM   33  C17 UNL     1      25.955 -28.859 -12.194  1.00  0.00     0.095 C 
ENDBRANCH  31  32
ENDBRANCH  10  27
TORSDOF 9
ENDMDL
MODEL 5
REMARK VINA RESULT: -6.730732168      1.905      2.626
REMARK  9 active torsions:
REMARK  status: ('A' for Active; 'I' for Inactive)
REMARK    1  A    between atoms: O1_2  and  C2_3 
REMARK    2  A    between atoms: C2_3  and  C3_4 
REMARK    3  A    between atoms: C3_4  and  C4_5 
REMARK    4  A    between atoms: C4_5  and  C5_6 
REMARK    5  A    between atoms: C5_6  and  O2_7 
REMARK    6  A    between atoms: O2_7  and  N1_8 
REMARK    7  A    between atoms: C12_17  and  C13_18 
REMARK    8  A    between atoms: C16_22  and  S2_23 
REMARK    9  A    between atoms: N3_30  and  O4_32 
ROOT
HETATM    1  N1  UNL     1      20.948 -20.707 -11.982  1.00  0.00    -0.275 N 
ATOM      2  H1  UNL     1      20.328 -20.487 -12.762  1.00  0.00     0.193 HD
HETATM    3  C6  UNL     1      22.200 -20.880 -12.226  1.00  0.00     0.011 C 
HETATM    4  C7  UNL     1      23.008 -21.195 -11.021  1.00  0.00     0.062 C 
HETATM    5  C8  UNL     1      23.483 -22.643 -11.179  1.00  0.00     0.084 C 
HETATM    6  C9  UNL     1      23.674 -22.861 -12.645  1.00  0.00     0.132 C 
HETATM    7  O3  UNL     1      22.967 -23.732 -13.154  1.00  0.00    -0.298 OA
HETATM    8  C10 UNL     1      24.609 -22.169 -13.588  1.00  0.00     0.063 C 
HETATM    9  C11 UNL     1      24.857 -23.046 -14.736  1.00  0.00     0.042 C 
HETATM   10  C12 UNL     1      25.082 -22.386 -16.056  1.00  0.00     0.118 C 
HETATM   11  N2  UNL     1      24.298 -21.225 -16.222  1.00  0.00    -0.412 N 
ATOM     12  H2  UNL     1      23.704 -21.096 -17.042  1.00  0.00     0.153 HD
HETATM   13  C18 UNL     1      24.372 -20.246 -15.203  1.00  0.00     0.120 C 
HETATM   14  C19 UNL     1      24.069 -20.808 -13.848  1.00  0.00     0.019 C 
HETATM   15  C20 UNL     1      22.568 -20.729 -13.644  1.00  0.00     0.061 C 
ENDROOT
BRANCH   1  16
HETATM   16  O2  UNL     1      20.407 -20.804 -10.727  1.00  0.00    -0.281 OA
BRANCH  16  17
HETATM   17  C5  UNL     1      20.169 -19.675  -9.908  1.00  0.00     0.201 C 
BRANCH  17  18
HETATM   18  C4  UNL     1      20.002 -18.420 -10.759  1.00  0.00     0.037 C 
BRANCH  18  19
HETATM   19  C3  UNL     1      18.984 -17.539 -10.127  1.00  0.00     0.088 C 
BRANCH  19  20
HETATM   20  C2  UNL     1      18.186 -16.733 -11.044  1.00  0.00     0.137 C 
HETATM   21  N3  UNL     1      17.210 -15.960 -10.789  1.00  0.00    -0.251 N 
ATOM     22  H3  UNL     1      16.772 -15.474 -11.572  1.00  0.00     0.196 HD
BRANCH  20  23
HETATM   23  O1  UNL     1      18.534 -16.809 -12.421  1.00  0.00    -0.343 OA
HETATM   24  C1  UNL     1      17.569 -16.494 -13.421  1.00  0.00     0.211 C 
ENDBRANCH  20  23
BRANCH  21  25
HETATM   25  O4  UNL     1      16.717 -15.739  -9.559  1.00  0.00    -0.288 OA
ATOM     26  H4  UNL     1      16.042 -15.101  -9.358  1.00  0.00     0.244 HD
ENDBRANCH  21  25
ENDBRANCH  19  20
ENDBRANCH  18  19
ENDBRANCH  17  18
ENDBRANCH  16  17
ENDBRANCH   1  16
BRANCH  10  27
HETATM   27  C13 UNL     1      26.563 -22.123 -16.205  1.00  0.00     0.021 A 
HETATM   28  S1  UNL     1      27.755 -21.963 -14.998  1.00  0.00    -0.103 SA
HETATM   29  C14 UNL     1      29.117 -21.686 -15.981  1.00  0.00     0.051 A 
HETATM   30  C15 UNL     1      28.592 -21.728 -17.247  1.00  0.00     0.027 A 
HETATM   31  C16 UNL     1      27.273 -21.953 -17.361  1.00  0.00     0.015 A 
BRANCH  31  32
HETATM   32  S2  UNL     1      26.442 -22.035 -18.977  1.00  0.00    -0.133 SA
HETATM   33  C17 UNL     1      25.804 -20.446 -19.489  1.00  0.00     0.095 C 
ENDBRANCH  31  32
ENDBRANCH  10  27
TORSDOF 9
ENDMDL
