MODEL 1
REMARK VINA RESULT: -6.691027142      0.000      0.000
REMARK  7 active torsions:
REMARK  status: ('A' for Active; 'I' for Inactive)
REMARK    1  A    between atoms: C2_2  and  N1_3 
REMARK    2  A    between atoms: C2_2  and  C5_9 
REMARK    3  A    between atoms: N1_3  and  O1_4 
REMARK    4  A    between atoms: O1_4  and  C3_5 
REMARK    5  A    between atoms: C3_5  and  C4_6 
REMARK    6  A    between atoms: C4_6  and  O2_7 
REMARK    7  A    between atoms: N2_11  and  C7_12 
ROOT
HETATM    1  C5  UNL     1     -10.273 -11.037   0.927  1.00  0.00     0.076 A 
HETATM    2  C6  UNL     1     -11.578 -11.445   0.646  1.00  0.00     0.123 A 
HETATM    3  N2  UNL     1     -11.615 -11.197  -0.661  1.00  0.00    -0.316 N 
HETATM    4  S1  UNL     1     -10.064 -10.620  -0.676  1.00  0.00    -0.007 SA
ENDROOT
BRANCH   3   5
HETATM    5  C7  UNL     1     -12.649 -11.524  -1.671  1.00  0.00     0.044 C 
HETATM    6  C8  UNL     1     -14.010 -11.335  -1.193  1.00  0.00     0.036 C 
HETATM    7  C9  UNL     1     -14.969 -11.891  -2.257  1.00  0.00    -0.012 C 
HETATM    8  C10 UNL     1     -14.752 -11.164  -3.550  1.00  0.00     0.009 C 
HETATM    9  C14 UNL     1     -14.633 -13.355  -2.430  1.00  0.00     0.009 C 
HETATM   10  C11 UNL     1     -13.310 -11.254  -3.978  1.00  0.00    -0.012 C 
HETATM   11  C12 UNL     1     -13.018 -12.726  -4.261  1.00  0.00     0.009 C 
HETATM   12  C16 UNL     1     -12.390 -10.715  -2.918  1.00  0.00     0.036 C 
HETATM   13  C13 UNL     1     -13.240 -13.517  -2.987  1.00  0.00    -0.012 C 
HETATM   14  C15 UNL     1     -12.295 -12.985  -1.975  1.00  0.00     0.036 C 
ENDBRANCH   3   5
BRANCH   1  15
HETATM   15  C2  UNL     1      -9.408 -11.041   2.145  1.00  0.00     0.133 C 
HETATM   16  C1  UNL     1      -9.953 -11.940   3.276  1.00  0.00     0.089 C 
BRANCH  15  17
HETATM   17  N1  UNL     1      -8.468 -10.361   2.305  1.00  0.00    -0.285 NA
BRANCH  17  18
HETATM   18  O1  UNL     1      -7.454  -9.653   2.673  1.00  0.00    -0.207 OA
BRANCH  18  19
HETATM   19  C3  UNL     1      -6.915  -9.855   4.063  1.00  0.00     0.243 C 
BRANCH  19  20
HETATM   20  C4  UNL     1      -6.330 -11.270   3.826  1.00  0.00     0.194 C 
BRANCH  20  21
HETATM   21  O2  UNL     1      -5.073 -11.270   3.408  1.00  0.00    -0.399 OA
ATOM     22  H2  UNL     1      -4.464 -11.672   4.016  1.00  0.00     0.209 HD
ENDBRANCH  20  21
ENDBRANCH  19  20
ENDBRANCH  18  19
ENDBRANCH  17  18
ENDBRANCH  15  17
ENDBRANCH   1  15
TORSDOF 7
ENDMDL
MODEL 2
REMARK VINA RESULT: -6.669196620      0.347      1.518
REMARK  7 active torsions:
REMARK  status: ('A' for Active; 'I' for Inactive)
REMARK    1  A    between atoms: C2_2  and  N1_3 
REMARK    2  A    between atoms: C2_2  and  C5_9 
REMARK    3  A    between atoms: N1_3  and  O1_4 
REMARK    4  A    between atoms: O1_4  and  C3_5 
REMARK    5  A    between atoms: C3_5  and  C4_6 
REMARK    6  A    between atoms: C4_6  and  O2_7 
REMARK    7  A    between atoms: N2_11  and  C7_12 
ROOT
HETATM    1  C5  UNL     1     -10.134 -10.956   0.861  1.00  0.00     0.076 A 
HETATM    2  C6  UNL     1     -11.422 -11.347   0.490  1.00  0.00     0.123 A 
HETATM    3  N2  UNL     1     -11.355 -11.131  -0.821  1.00  0.00    -0.316 N 
HETATM    4  S1  UNL     1      -9.795 -10.582  -0.731  1.00  0.00    -0.007 SA
ENDROOT
BRANCH   3   5
HETATM    5  C7  UNL     1     -12.316 -11.463  -1.899  1.00  0.00     0.044 C 
HETATM    6  C8  UNL     1     -12.363 -10.471  -2.962  1.00  0.00     0.036 C 
HETATM    7  C9  UNL     1     -13.525 -10.835  -3.900  1.00  0.00    -0.012 C 
HETATM    8  C10 UNL     1     -13.299 -12.206  -4.461  1.00  0.00     0.009 C 
HETATM    9  C14 UNL     1     -14.785 -10.823  -3.064  1.00  0.00     0.009 C 
HETATM   10  C11 UNL     1     -13.123 -13.214  -3.354  1.00  0.00    -0.012 C 
HETATM   11  C12 UNL     1     -14.443 -13.276  -2.589  1.00  0.00     0.009 C 
HETATM   12  C16 UNL     1     -11.988 -12.832  -2.444  1.00  0.00     0.036 C 
HETATM   13  C13 UNL     1     -14.733 -11.905  -2.012  1.00  0.00    -0.012 C 
HETATM   14  C15 UNL     1     -13.616 -11.575  -1.094  1.00  0.00     0.036 C 
ENDBRANCH   3   5
BRANCH   1  15
HETATM   15  C2  UNL     1      -9.364 -10.946   2.141  1.00  0.00     0.133 C 
HETATM   16  C1  UNL     1      -9.974 -11.860   3.226  1.00  0.00     0.089 C 
BRANCH  15  17
HETATM   17  N1  UNL     1      -8.453 -10.248   2.373  1.00  0.00    -0.285 NA
BRANCH  17  18
HETATM   18  O1  UNL     1      -7.443  -9.569   2.803  1.00  0.00    -0.207 OA
BRANCH  18  19
HETATM   19  C3  UNL     1      -6.883  -9.913   4.156  1.00  0.00     0.243 C 
BRANCH  19  20
HETATM   20  C4  UNL     1      -6.352 -11.319   3.781  1.00  0.00     0.194 C 
BRANCH  20  21
HETATM   21  O2  UNL     1      -5.081 -11.332   3.406  1.00  0.00    -0.399 OA
ATOM     22  H2  UNL     1      -4.843 -10.619   2.825  1.00  0.00     0.209 HD
ENDBRANCH  20  21
ENDBRANCH  19  20
ENDBRANCH  18  19
ENDBRANCH  17  18
ENDBRANCH  15  17
ENDBRANCH   1  15
TORSDOF 7
ENDMDL
MODEL 3
REMARK VINA RESULT: -6.642944445      0.230      1.588
REMARK  7 active torsions:
REMARK  status: ('A' for Active; 'I' for Inactive)
REMARK    1  A    between atoms: C2_2  and  N1_3 
REMARK    2  A    between atoms: C2_2  and  C5_9 
REMARK    3  A    between atoms: N1_3  and  O1_4 
REMARK    4  A    between atoms: O1_4  and  C3_5 
REMARK    5  A    between atoms: C3_5  and  C4_6 
REMARK    6  A    between atoms: C4_6  and  O2_7 
REMARK    7  A    between atoms: N2_11  and  C7_12 
ROOT
HETATM    1  C5  UNL     1     -10.334 -11.130   1.010  1.00  0.00     0.076 A 
HETATM    2  C6  UNL     1     -11.586 -11.674   0.718  1.00  0.00     0.123 A 
HETATM    3  N2  UNL     1     -11.646 -11.416  -0.586  1.00  0.00    -0.316 N 
HETATM    4  S1  UNL     1     -10.166 -10.673  -0.587  1.00  0.00    -0.007 SA
ENDROOT
BRANCH   3   5
HETATM    5  C7  UNL     1     -12.636 -11.841  -1.604  1.00  0.00     0.044 C 
HETATM    6  C8  UNL     1     -12.566 -13.258  -1.926  1.00  0.00     0.036 C 
HETATM    7  C9  UNL     1     -13.498 -13.520  -3.120  1.00  0.00    -0.012 C 
HETATM    8  C10 UNL     1     -14.896 -13.123  -2.755  1.00  0.00     0.009 C 
HETATM    9  C14 UNL     1     -13.002 -12.660  -4.261  1.00  0.00     0.009 C 
HETATM   10  C11 UNL     1     -14.943 -11.687  -2.299  1.00  0.00    -0.012 C 
HETATM   11  C12 UNL     1     -14.552 -10.824  -3.496  1.00  0.00     0.009 C 
HETATM   12  C16 UNL     1     -14.017 -11.453  -1.138  1.00  0.00     0.036 C 
HETATM   13  C13 UNL     1     -13.145 -11.196  -3.923  1.00  0.00    -0.012 C 
HETATM   14  C15 UNL     1     -12.255 -10.920  -2.770  1.00  0.00     0.036 C 
ENDBRANCH   3   5
BRANCH   1  15
HETATM   15  C2  UNL     1      -9.477 -11.054   2.231  1.00  0.00     0.133 C 
HETATM   16  C1  UNL     1     -10.006 -11.913   3.400  1.00  0.00     0.089 C 
BRANCH  15  17
HETATM   17  N1  UNL     1      -8.556 -10.343   2.364  1.00  0.00    -0.285 NA
BRANCH  17  18
HETATM   18  O1  UNL     1      -7.521  -9.643   2.688  1.00  0.00    -0.207 OA
BRANCH  18  19
HETATM   19  C3  UNL     1      -6.922  -9.853   4.052  1.00  0.00     0.243 C 
BRANCH  19  20
HETATM   20  C4  UNL     1      -6.373 -11.278   3.791  1.00  0.00     0.194 C 
BRANCH  20  21
HETATM   21  O2  UNL     1      -5.108 -11.303   3.396  1.00  0.00    -0.399 OA
ATOM     22  H2  UNL     1      -4.934 -11.926   2.701  1.00  0.00     0.209 HD
ENDBRANCH  20  21
ENDBRANCH  19  20
ENDBRANCH  18  19
ENDBRANCH  17  18
ENDBRANCH  15  17
ENDBRANCH   1  15
TORSDOF 7
ENDMDL
MODEL 4
REMARK VINA RESULT: -6.367092924      1.329      2.378
REMARK  7 active torsions:
REMARK  status: ('A' for Active; 'I' for Inactive)
REMARK    1  A    between atoms: C2_2  and  N1_3 
REMARK    2  A    between atoms: C2_2  and  C5_9 
REMARK    3  A    between atoms: N1_3  and  O1_4 
REMARK    4  A    between atoms: O1_4  and  C3_5 
REMARK    5  A    between atoms: C3_5  and  C4_6 
REMARK    6  A    between atoms: C4_6  and  O2_7 
REMARK    7  A    between atoms: N2_11  and  C7_12 
ROOT
HETATM    1  C5  UNL     1     -10.270 -11.495   1.044  1.00  0.00     0.076 A 
HETATM    2  C6  UNL     1     -10.718 -11.186  -0.241  1.00  0.00     0.123 A 
HETATM    3  N2  UNL     1     -11.552 -12.204  -0.440  1.00  0.00    -0.316 N 
HETATM    4  S1  UNL     1     -11.224 -12.865   1.042  1.00  0.00    -0.007 SA
ENDROOT
BRANCH   3   5
HETATM    5  C7  UNL     1     -12.509 -12.460  -1.543  1.00  0.00     0.044 C 
HETATM    6  C8  UNL     1     -11.936 -12.267  -2.865  1.00  0.00     0.036 C 
HETATM    7  C9  UNL     1     -13.073 -12.370  -3.895  1.00  0.00    -0.012 C 
HETATM    8  C10 UNL     1     -13.721 -13.717  -3.785  1.00  0.00     0.009 C 
HETATM    9  C14 UNL     1     -14.074 -11.290  -3.553  1.00  0.00     0.009 C 
HETATM   10  C11 UNL     1     -14.201 -13.966  -2.378  1.00  0.00    -0.012 C 
HETATM   11  C12 UNL     1     -15.294 -12.940  -2.088  1.00  0.00     0.009 C 
HETATM   12  C16 UNL     1     -13.075 -13.850  -1.388  1.00  0.00     0.036 C 
HETATM   13  C13 UNL     1     -14.697 -11.551  -2.204  1.00  0.00    -0.012 C 
HETATM   14  C15 UNL     1     -13.616 -11.458  -1.193  1.00  0.00     0.036 C 
ENDBRANCH   3   5
BRANCH   1  15
HETATM   15  C2  UNL     1      -9.365 -10.833   2.031  1.00  0.00     0.133 C 
HETATM   16  C1  UNL     1      -8.871  -9.445   1.570  1.00  0.00     0.089 C 
BRANCH  15  17
HETATM   17  N1  UNL     1      -8.961 -11.329   3.012  1.00  0.00    -0.285 NA
BRANCH  17  18
HETATM   18  O1  UNL     1      -8.377 -11.955   3.979  1.00  0.00    -0.207 OA
BRANCH  18  19
HETATM   19  C3  UNL     1      -6.878 -11.871   4.074  1.00  0.00     0.243 C 
BRANCH  19  20
HETATM   20  C4  UNL     1      -6.824 -10.607   4.968  1.00  0.00     0.194 C 
BRANCH  20  21
HETATM   21  O2  UNL     1      -6.820  -9.469   4.290  1.00  0.00    -0.399 OA
ATOM     22  H2  UNL     1      -7.641  -9.279   3.850  1.00  0.00     0.209 HD
ENDBRANCH  20  21
ENDBRANCH  19  20
ENDBRANCH  18  19
ENDBRANCH  17  18
ENDBRANCH  15  17
ENDBRANCH   1  15
TORSDOF 7
ENDMDL
MODEL 5
REMARK VINA RESULT: -6.349350464      1.331      1.512
REMARK  7 active torsions:
REMARK  status: ('A' for Active; 'I' for Inactive)
REMARK    1  A    between atoms: C2_2  and  N1_3 
REMARK    2  A    between atoms: C2_2  and  C5_9 
REMARK    3  A    between atoms: N1_3  and  O1_4 
REMARK    4  A    between atoms: O1_4  and  C3_5 
REMARK    5  A    between atoms: C3_5  and  C4_6 
REMARK    6  A    between atoms: C4_6  and  O2_7 
REMARK    7  A    between atoms: N2_11  and  C7_12 
ROOT
HETATM    1  C5  UNL     1     -10.341 -11.509   1.135  1.00  0.00     0.076 A 
HETATM    2  C6  UNL     1     -10.829 -11.047  -0.088  1.00  0.00     0.123 A 
HETATM    3  N2  UNL     1     -11.718 -12.001  -0.352  1.00  0.00    -0.316 N 
HETATM    4  S1  UNL     1     -11.359 -12.828   1.037  1.00  0.00    -0.007 SA
ENDROOT
BRANCH   3   5
HETATM    5  C7  UNL     1     -12.732 -12.098  -1.428  1.00  0.00     0.044 C 
HETATM    6  C8  UNL     1     -13.974 -11.406  -1.120  1.00  0.00     0.036 C 
HETATM    7  C9  UNL     1     -14.993 -11.749  -2.218  1.00  0.00    -0.012 C 
HETATM    8  C10 UNL     1     -14.456 -11.315  -3.548  1.00  0.00     0.009 C 
HETATM    9  C14 UNL     1     -15.168 -13.251  -2.202  1.00  0.00     0.009 C 
HETATM   10  C11 UNL     1     -13.107 -11.935  -3.808  1.00  0.00    -0.012 C 
HETATM   11  C12 UNL     1     -13.319 -13.444  -3.904  1.00  0.00     0.009 C 
HETATM   12  C16 UNL     1     -12.130 -11.594  -2.717  1.00  0.00     0.036 C 
HETATM   13  C13 UNL     1     -13.882 -13.939  -2.587  1.00  0.00    -0.012 C 
HETATM   14  C15 UNL     1     -12.880 -13.620  -1.540  1.00  0.00     0.036 C 
ENDBRANCH   3   5
BRANCH   1  15
HETATM   15  C2  UNL     1      -9.364 -10.994   2.141  1.00  0.00     0.133 C 
HETATM   16  C1  UNL     1      -8.756  -9.628   1.756  1.00  0.00     0.089 C 
BRANCH  15  17
HETATM   17  N1  UNL     1      -8.990 -11.586   3.080  1.00  0.00    -0.285 NA
BRANCH  17  18
HETATM   18  O1  UNL     1      -8.400 -12.231   4.029  1.00  0.00    -0.207 OA
BRANCH  18  19
HETATM   19  C3  UNL     1      -6.910 -12.078   4.172  1.00  0.00     0.243 C 
BRANCH  19  20
HETATM   20  C4  UNL     1      -6.935 -10.676   4.831  1.00  0.00     0.194 C 
BRANCH  20  21
HETATM   21  O2  UNL     1      -5.759 -10.066   4.841  1.00  0.00    -0.399 OA
ATOM     22  H2  UNL     1      -5.377  -9.979   5.707  1.00  0.00     0.209 HD
ENDBRANCH  20  21
ENDBRANCH  19  20
ENDBRANCH  18  19
ENDBRANCH  17  18
ENDBRANCH  15  17
ENDBRANCH   1  15
TORSDOF 7
ENDMDL
