MODEL 1
REMARK VINA RESULT: -5.924694842      0.000      0.000
REMARK  7 active torsions:
REMARK  status: ('A' for Active; 'I' for Inactive)
REMARK    1  A    between atoms: C2_2  and  C3_3 
REMARK    2  A    between atoms: C3_3  and  S1_4 
REMARK    3  A    between atoms: S1_4  and  C4_5 
REMARK    4  A    between atoms: C5_8  and  C6_9 
REMARK    5  A    between atoms: C7_10  and  C8_11 
REMARK    6  A    between atoms: C11_14  and  C12_15 
REMARK       I    between atoms: C12_15  and  N2_17 
REMARK    7  A    between atoms: N2_17  and  C13_19 
ROOT
HETATM    1  C4  UNL     1     -13.095 -11.632  -1.470  1.00  0.00     0.114 A 
HETATM    2  N1  UNL     1     -12.268 -11.343  -0.505  1.00  0.00    -0.337 N 
ATOM      3  H1  UNL     1     -12.042 -10.366  -0.316  1.00  0.00     0.168 HD
HETATM    4  C5  UNL     1     -11.721 -12.282   0.225  1.00  0.00     0.111 A 
HETATM    5  C11 UNL     1     -12.042 -13.574  -0.050  1.00  0.00     0.110 A 
HETATM    6  S2  UNL     1     -13.150 -13.322  -1.395  1.00  0.00    -0.057 SA
ENDROOT
BRANCH   5   7
HETATM    7  C12 UNL     1     -11.668 -14.868   0.504  1.00  0.00     0.261 C 
HETATM    8  O1  UNL     1     -12.681 -15.582   0.844  1.00  0.00    -0.267 OA
HETATM    9  N2  UNL     1     -10.384 -15.365   0.684  1.00  0.00    -0.352 N 
ATOM     10  H2  UNL     1      -9.595 -14.784   0.401  1.00  0.00     0.163 HD
BRANCH   9  11
HETATM   11  C13 UNL     1     -10.107 -16.680   1.258  1.00  0.00     0.084 A 
HETATM   12  C14 UNL     1      -8.708 -17.168   1.071  1.00  0.00     0.027 A 
HETATM   13  C15 UNL     1      -9.836 -17.883   0.459  1.00  0.00     0.027 A 
ENDBRANCH   9  11
ENDBRANCH   5   7
BRANCH   4  14
HETATM   14  C6  UNL     1     -10.792 -11.876   1.304  1.00  0.00    -0.047 C 
HETATM   15  C7  UNL     1     -10.048 -11.508   2.175  1.00  0.00    -0.096 C 
BRANCH  15  16
HETATM   16  C8  UNL     1      -9.157 -11.070   3.240  1.00  0.00     0.057 C 
HETATM   17  C9  UNL     1      -8.205 -10.044   2.647  1.00  0.00     0.023 C 
HETATM   18  C10 UNL     1      -8.332 -12.190   3.814  1.00  0.00     0.023 C 
ENDBRANCH  15  16
ENDBRANCH   4  14
BRANCH   1  19
HETATM   19  S1  UNL     1     -13.998 -10.620  -2.633  1.00  0.00    -0.101 SA
BRANCH  19  20
HETATM   20  C3  UNL     1     -15.782 -10.716  -2.351  1.00  0.00     0.107 C 
BRANCH  20  21
HETATM   21  C2  UNL     1     -16.109 -10.161  -1.017  1.00  0.00    -0.026 C 
HETATM   22  C1  UNL     1     -17.212 -10.483  -0.353  1.00  0.00     0.007 C 
ENDBRANCH  20  21
ENDBRANCH  19  20
ENDBRANCH   1  19
TORSDOF 7
ENDMDL
MODEL 2
REMARK VINA RESULT: -5.867967435      1.428      1.849
REMARK  7 active torsions:
REMARK  status: ('A' for Active; 'I' for Inactive)
REMARK    1  A    between atoms: C2_2  and  C3_3 
REMARK    2  A    between atoms: C3_3  and  S1_4 
REMARK    3  A    between atoms: S1_4  and  C4_5 
REMARK    4  A    between atoms: C5_8  and  C6_9 
REMARK    5  A    between atoms: C7_10  and  C8_11 
REMARK    6  A    between atoms: C11_14  and  C12_15 
REMARK       I    between atoms: C12_15  and  N2_17 
REMARK    7  A    between atoms: N2_17  and  C13_19 
ROOT
HETATM    1  C4  UNL     1     -13.155 -11.817  -1.284  1.00  0.00     0.114 A 
HETATM    2  N1  UNL     1     -12.310 -11.509  -0.342  1.00  0.00    -0.337 N 
ATOM      3  H1  UNL     1     -12.123 -10.527  -0.139  1.00  0.00     0.168 HD
HETATM    4  C5  UNL     1     -11.696 -12.436   0.350  1.00  0.00     0.111 A 
HETATM    5  C11 UNL     1     -11.966 -13.736   0.057  1.00  0.00     0.110 A 
HETATM    6  S2  UNL     1     -13.130 -13.509  -1.245  1.00  0.00    -0.057 SA
ENDROOT
BRANCH   5   7
HETATM    7  C12 UNL     1     -11.514 -15.022   0.570  1.00  0.00     0.261 C 
HETATM    8  O1  UNL     1     -12.481 -15.820   0.851  1.00  0.00    -0.267 OA
HETATM    9  N2  UNL     1     -10.202 -15.433   0.769  1.00  0.00    -0.352 N 
ATOM     10  H2  UNL     1      -9.450 -14.785   0.534  1.00  0.00     0.163 HD
BRANCH   9  11
HETATM   11  C13 UNL     1      -9.846 -16.747   1.299  1.00  0.00     0.084 A 
HETATM   12  C14 UNL     1      -8.431 -17.160   1.061  1.00  0.00     0.027 A 
HETATM   13  C15 UNL     1      -9.540 -17.913   0.459  1.00  0.00     0.027 A 
ENDBRANCH   9  11
ENDBRANCH   5   7
BRANCH   4  14
HETATM   14  C6  UNL     1     -10.750 -12.008   1.405  1.00  0.00    -0.047 C 
HETATM   15  C7  UNL     1     -10.003 -11.629   2.269  1.00  0.00    -0.096 C 
BRANCH  15  16
HETATM   16  C8  UNL     1      -9.104 -11.182   3.324  1.00  0.00     0.057 C 
HETATM   17  C9  UNL     1      -8.224 -10.088   2.742  1.00  0.00     0.023 C 
HETATM   18  C10 UNL     1      -8.206 -12.276   3.834  1.00  0.00     0.023 C 
ENDBRANCH  15  16
ENDBRANCH   4  14
BRANCH   1  19
HETATM   19  S1  UNL     1     -14.144 -10.825  -2.394  1.00  0.00    -0.101 SA
BRANCH  19  20
HETATM   20  C3  UNL     1     -13.111  -9.806  -3.473  1.00  0.00     0.107 C 
BRANCH  20  21
HETATM   21  C2  UNL     1     -13.913  -8.690  -4.026  1.00  0.00    -0.026 C 
HETATM   22  C1  UNL     1     -13.537  -7.991  -5.089  1.00  0.00     0.007 C 
ENDBRANCH  20  21
ENDBRANCH  19  20
ENDBRANCH   1  19
TORSDOF 7
ENDMDL
MODEL 3
REMARK VINA RESULT: -5.855825394      2.710      6.547
REMARK  7 active torsions:
REMARK  status: ('A' for Active; 'I' for Inactive)
REMARK    1  A    between atoms: C2_2  and  C3_3 
REMARK    2  A    between atoms: C3_3  and  S1_4 
REMARK    3  A    between atoms: S1_4  and  C4_5 
REMARK    4  A    between atoms: C5_8  and  C6_9 
REMARK    5  A    between atoms: C7_10  and  C8_11 
REMARK    6  A    between atoms: C11_14  and  C12_15 
REMARK       I    between atoms: C12_15  and  N2_17 
REMARK    7  A    between atoms: N2_17  and  C13_19 
ROOT
HETATM    1  C4  UNL     1     -10.398 -17.223   1.189  1.00  0.00     0.114 A 
HETATM    2  N1  UNL     1     -10.199 -15.936   1.170  1.00  0.00    -0.337 N 
ATOM      3  H1  UNL     1      -9.285 -15.567   1.434  1.00  0.00     0.168 HD
HETATM    4  C5  UNL     1     -11.149 -15.106   0.819  1.00  0.00     0.111 A 
HETATM    5  C11 UNL     1     -12.356 -15.627   0.472  1.00  0.00     0.110 A 
HETATM    6  S2  UNL     1     -12.011 -17.340   0.688  1.00  0.00    -0.057 SA
ENDROOT
BRANCH   5   7
HETATM    7  C12 UNL     1     -13.630 -15.072   0.035  1.00  0.00     0.261 C 
HETATM    8  O1  UNL     1     -14.558 -15.185   0.917  1.00  0.00    -0.267 OA
HETATM    9  N2  UNL     1     -13.909 -14.466  -1.183  1.00  0.00    -0.352 N 
ATOM     10  H2  UNL     1     -13.156 -14.382  -1.866  1.00  0.00     0.163 HD
BRANCH   9  11
HETATM   11  C13 UNL     1     -15.227 -13.944  -1.535  1.00  0.00     0.084 A 
HETATM   12  C14 UNL     1     -15.251 -13.041  -2.724  1.00  0.00     0.027 A 
HETATM   13  C15 UNL     1     -15.614 -12.533  -1.394  1.00  0.00     0.027 A 
ENDBRANCH   9  11
ENDBRANCH   5   7
BRANCH   4  14
HETATM   14  C6  UNL     1     -10.847 -13.657   0.822  1.00  0.00    -0.047 C 
HETATM   15  C7  UNL     1     -10.640 -12.471   0.823  1.00  0.00    -0.096 C 
BRANCH  15  16
HETATM   16  C8  UNL     1     -10.386 -11.037   0.839  1.00  0.00     0.057 C 
HETATM   17  C9  UNL     1      -9.893 -10.645  -0.544  1.00  0.00     0.023 C 
HETATM   18  C10 UNL     1      -9.331 -10.640   1.837  1.00  0.00     0.023 C 
ENDBRANCH  15  16
ENDBRANCH   4  14
BRANCH   1  19
HETATM   19  S1  UNL     1      -9.345 -18.604   1.607  1.00  0.00    -0.101 SA
BRANCH  19  20
HETATM   20  C3  UNL     1      -8.121 -18.921   0.314  1.00  0.00     0.107 C 
BRANCH  20  21
HETATM   21  C2  UNL     1      -8.522 -18.233  -0.936  1.00  0.00    -0.026 C 
HETATM   22  C1  UNL     1      -8.465 -18.814  -2.127  1.00  0.00     0.007 C 
ENDBRANCH  20  21
ENDBRANCH  19  20
ENDBRANCH   1  19
TORSDOF 7
ENDMDL
MODEL 4
REMARK VINA RESULT: -5.809820993      1.399      1.595
REMARK  7 active torsions:
REMARK  status: ('A' for Active; 'I' for Inactive)
REMARK    1  A    between atoms: C2_2  and  C3_3 
REMARK    2  A    between atoms: C3_3  and  S1_4 
REMARK    3  A    between atoms: S1_4  and  C4_5 
REMARK    4  A    between atoms: C5_8  and  C6_9 
REMARK    5  A    between atoms: C7_10  and  C8_11 
REMARK    6  A    between atoms: C11_14  and  C12_15 
REMARK       I    between atoms: C12_15  and  N2_17 
REMARK    7  A    between atoms: N2_17  and  C13_19 
ROOT
HETATM    1  C4  UNL     1     -12.620 -11.252  -2.104  1.00  0.00     0.114 A 
HETATM    2  N1  UNL     1     -11.890 -11.038  -1.046  1.00  0.00    -0.337 N 
ATOM      3  H1  UNL     1     -11.502 -10.108  -0.886  1.00  0.00     0.168 HD
HETATM    4  C5  UNL     1     -11.646 -11.993  -0.185  1.00  0.00     0.111 A 
HETATM    5  C11 UNL     1     -12.177 -13.221  -0.425  1.00  0.00     0.110 A 
HETATM    6  S2  UNL     1     -13.021 -12.888  -1.934  1.00  0.00    -0.057 SA
ENDROOT
BRANCH   5   7
HETATM    7  C12 UNL     1     -12.148 -14.508   0.259  1.00  0.00     0.261 C 
HETATM    8  O1  UNL     1     -13.285 -14.841   0.753  1.00  0.00    -0.267 OA
HETATM    9  N2  UNL     1     -11.056 -15.352   0.411  1.00  0.00    -0.352 N 
ATOM     10  H2  UNL     1     -10.164 -15.070   0.005  1.00  0.00     0.163 HD
BRANCH   9  11
HETATM   11  C13 UNL     1     -11.122 -16.626   1.123  1.00  0.00     0.084 A 
HETATM   12  C14 UNL     1      -9.897 -17.474   1.014  1.00  0.00     0.027 A 
HETATM   13  C15 UNL     1     -11.177 -17.936   0.458  1.00  0.00     0.027 A 
ENDBRANCH   9  11
ENDBRANCH   5   7
BRANCH   4  14
HETATM   14  C6  UNL     1     -10.808 -11.674   0.993  1.00  0.00    -0.047 C 
HETATM   15  C7  UNL     1     -10.125 -11.377   1.939  1.00  0.00    -0.096 C 
BRANCH  15  16
HETATM   16  C8  UNL     1      -9.312 -11.019   3.092  1.00  0.00     0.057 C 
HETATM   17  C9  UNL     1      -8.240 -10.053   2.614  1.00  0.00     0.023 C 
HETATM   18  C10 UNL     1      -8.623 -12.203   3.716  1.00  0.00     0.023 C 
ENDBRANCH  15  16
ENDBRANCH   4  14
BRANCH   1  19
HETATM   19  S1  UNL     1     -13.139 -10.197  -3.450  1.00  0.00    -0.101 SA
BRANCH  19  20
HETATM   20  C3  UNL     1     -14.628  -9.263  -3.026  1.00  0.00     0.107 C 
BRANCH  20  21
HETATM   21  C2  UNL     1     -14.406  -7.821  -3.283  1.00  0.00    -0.026 C 
HETATM   22  C1  UNL     1     -15.085  -6.866  -2.662  1.00  0.00     0.007 C 
ENDBRANCH  20  21
ENDBRANCH  19  20
ENDBRANCH   1  19
TORSDOF 7
ENDMDL
MODEL 5
REMARK VINA RESULT: -5.804638172      1.646      2.012
REMARK  7 active torsions:
REMARK  status: ('A' for Active; 'I' for Inactive)
REMARK    1  A    between atoms: C2_2  and  C3_3 
REMARK    2  A    between atoms: C3_3  and  S1_4 
REMARK    3  A    between atoms: S1_4  and  C4_5 
REMARK    4  A    between atoms: C5_8  and  C6_9 
REMARK    5  A    between atoms: C7_10  and  C8_11 
REMARK    6  A    between atoms: C11_14  and  C12_15 
REMARK       I    between atoms: C12_15  and  N2_17 
REMARK    7  A    between atoms: N2_17  and  C13_19 
ROOT
HETATM    1  C4  UNL     1     -12.924 -12.195  -0.929  1.00  0.00     0.114 A 
HETATM    2  N1  UNL     1     -12.091 -11.896   0.027  1.00  0.00    -0.337 N 
ATOM      3  H1  UNL     1     -11.928 -10.917   0.261  1.00  0.00     0.168 HD
HETATM    4  C5  UNL     1     -11.460 -12.830   0.694  1.00  0.00     0.111 A 
HETATM    5  C11 UNL     1     -11.698 -14.126   0.360  1.00  0.00     0.110 A 
HETATM    6  S2  UNL     1     -12.860 -13.887  -0.941  1.00  0.00    -0.057 SA
ENDROOT
BRANCH   5   7
HETATM    7  C12 UNL     1     -11.220 -15.417   0.837  1.00  0.00     0.261 C 
HETATM    8  O1  UNL     1     -12.171 -16.222   1.149  1.00  0.00    -0.267 OA
HETATM    9  N2  UNL     1      -9.899 -15.824   0.975  1.00  0.00    -0.352 N 
ATOM     10  H2  UNL     1      -9.161 -15.169   0.717  1.00  0.00     0.163 HD
BRANCH   9  11
HETATM   11  C13 UNL     1      -9.516 -17.143   1.472  1.00  0.00     0.084 A 
HETATM   12  C14 UNL     1      -8.248 -17.688   0.900  1.00  0.00     0.027 A 
HETATM   13  C15 UNL     1      -9.530 -18.363   0.654  1.00  0.00     0.027 A 
ENDBRANCH   9  11
ENDBRANCH   5   7
BRANCH   4  14
HETATM   14  C6  UNL     1     -10.530 -12.413   1.767  1.00  0.00    -0.047 C 
HETATM   15  C7  UNL     1      -9.747 -12.064   2.613  1.00  0.00    -0.096 C 
BRANCH  15  16
HETATM   16  C8  UNL     1      -8.810 -11.628   3.638  1.00  0.00     0.057 C 
HETATM   17  C9  UNL     1      -8.078 -10.409   3.101  1.00  0.00     0.023 C 
HETATM   18  C10 UNL     1      -7.782 -12.674   3.976  1.00  0.00     0.023 C 
ENDBRANCH  15  16
ENDBRANCH   4  14
BRANCH   1  19
HETATM   19  S1  UNL     1     -13.929 -11.193  -2.015  1.00  0.00    -0.101 SA
BRANCH  19  20
HETATM   20  C3  UNL     1     -13.216 -11.090  -3.674  1.00  0.00     0.107 C 
BRANCH  20  21
HETATM   21  C2  UNL     1     -12.908 -12.451  -4.172  1.00  0.00    -0.026 C 
HETATM   22  C1  UNL     1     -13.844 -13.291  -4.593  1.00  0.00     0.007 C 
ENDBRANCH  20  21
ENDBRANCH  19  20
ENDBRANCH   1  19
TORSDOF 7
ENDMDL
