MODEL 1
REMARK VINA RESULT: -5.994813688      0.000      0.000
REMARK  6 active torsions:
REMARK  status: ('A' for Active; 'I' for Inactive)
REMARK    1  A    between atoms: O1_2  and  C2_3 
REMARK    2  A    between atoms: C4_5  and  C5_6 
REMARK    3  A    between atoms: N1_7  and  C6_9 
REMARK    4  A    between atoms: C13_16  and  O2_17 
REMARK    5  A    between atoms: C14_19  and  O3_20 
REMARK    6  A    between atoms: C16_22  and  O4_23 
ROOT
HETATM    1  C2  UNL     1     -12.116 -18.660   1.514  1.00  0.00     0.105 A 
HETATM    2  C3  UNL     1     -12.286 -17.336   1.167  1.00  0.00     0.055 A 
HETATM    3  C4  UNL     1     -11.227 -16.477   0.972  1.00  0.00     0.018 A 
HETATM    4  C13 UNL     1      -9.957 -16.992   1.139  1.00  0.00     0.113 A 
HETATM    5  C14 UNL     1      -9.784 -18.331   1.491  1.00  0.00     0.138 A 
HETATM    6  C16 UNL     1     -10.851 -19.183   1.683  1.00  0.00     0.138 A 
ENDROOT
BRANCH   3   7
HETATM    7  C5  UNL     1     -11.437 -15.070   0.602  1.00  0.00     0.097 C 
HETATM    8  N1  UNL     1     -10.925 -14.117   1.297  1.00  0.00    -0.393 N 
ATOM      9  H1  UNL     1     -10.361 -14.323   2.121  1.00  0.00     0.159 HD
BRANCH   8  10
HETATM   10  C6  UNL     1     -11.161 -12.749   0.892  1.00  0.00     0.081 C 
HETATM   11  C7  UNL     1      -9.850 -12.008   0.950  1.00  0.00     0.025 C 
HETATM   12  C8  UNL     1     -10.108 -10.592   0.491  1.00  0.00     0.002 C 
HETATM   13  C9  UNL     1     -10.520 -10.568  -0.937  1.00  0.00     0.004 C 
HETATM   14  C10 UNL     1     -11.239 -11.767  -1.422  1.00  0.00    -0.017 C 
HETATM   15  C11 UNL     1     -12.339 -11.284  -2.378  1.00  0.00     0.010 C 
HETATM   16  C12 UNL     1     -11.882 -12.612  -0.393  1.00  0.00     0.029 C 
ENDBRANCH   8  10
ENDBRANCH   3   7
BRANCH   4  17
HETATM   17  O2  UNL     1      -8.862 -16.167   0.955  1.00  0.00    -0.357 OA
ATOM     18  H2  UNL     1      -8.043 -16.542   0.655  1.00  0.00     0.217 HD
ENDBRANCH   4  17
BRANCH   1  19
HETATM   19  O1  UNL     1     -13.193 -19.500   1.703  1.00  0.00    -0.353 OA
HETATM   20  C1  UNL     1     -14.204 -19.158   2.635  1.00  0.00     0.210 C 
ENDBRANCH   1  19
BRANCH   5  21
HETATM   21  O3  UNL     1      -8.508 -18.869   1.664  1.00  0.00    -0.351 OA
HETATM   22  C15 UNL     1      -7.861 -19.382   0.494  1.00  0.00     0.210 C 
ENDBRANCH   5  21
BRANCH   6  23
HETATM   23  O4  UNL     1     -10.631 -20.510   2.033  1.00  0.00    -0.351 OA
HETATM   24  C17 UNL     1     -10.555 -20.940   3.382  1.00  0.00     0.210 C 
ENDBRANCH   6  23
TORSDOF 6
ENDMDL
MODEL 2
REMARK VINA RESULT: -5.839298292      2.842      7.182
REMARK  6 active torsions:
REMARK  status: ('A' for Active; 'I' for Inactive)
REMARK    1  A    between atoms: O1_2  and  C2_3 
REMARK    2  A    between atoms: C4_5  and  C5_6 
REMARK    3  A    between atoms: N1_7  and  C6_9 
REMARK    4  A    between atoms: C13_16  and  O2_17 
REMARK    5  A    between atoms: C14_19  and  O3_20 
REMARK    6  A    between atoms: C16_22  and  O4_23 
ROOT
HETATM    1  C2  UNL     1     -13.309 -13.823  -1.000  1.00  0.00     0.105 A 
HETATM    2  C3  UNL     1     -12.738 -14.949  -0.445  1.00  0.00     0.055 A 
HETATM    3  C4  UNL     1     -11.655 -14.891   0.405  1.00  0.00     0.018 A 
HETATM    4  C13 UNL     1     -11.144 -13.641   0.691  1.00  0.00     0.113 A 
HETATM    5  C14 UNL     1     -11.721 -12.501   0.129  1.00  0.00     0.138 A 
HETATM    6  C16 UNL     1     -12.805 -12.571  -0.720  1.00  0.00     0.138 A 
ENDROOT
BRANCH   3   7
HETATM    7  C5  UNL     1     -11.065 -16.107   0.983  1.00  0.00     0.097 C 
HETATM    8  N1  UNL     1      -9.797 -16.312   0.948  1.00  0.00    -0.393 N 
ATOM      9  H1  UNL     1      -9.174 -15.629   0.516  1.00  0.00     0.159 HD
BRANCH   8  10
HETATM   10  C6  UNL     1      -9.265 -17.524   1.531  1.00  0.00     0.081 C 
HETATM   11  C7  UNL     1     -10.423 -18.371   1.991  1.00  0.00     0.025 C 
HETATM   12  C8  UNL     1      -9.851 -19.647   2.563  1.00  0.00     0.002 C 
HETATM   13  C9  UNL     1      -9.168 -20.440   1.507  1.00  0.00     0.004 C 
HETATM   14  C10 UNL     1      -8.574 -19.660   0.399  1.00  0.00    -0.017 C 
HETATM   15  C11 UNL     1      -7.243 -20.332   0.030  1.00  0.00     0.010 C 
HETATM   16  C12 UNL     1      -8.293 -18.235   0.670  1.00  0.00     0.029 C 
ENDBRANCH   8  10
ENDBRANCH   3   7
BRANCH   4  17
HETATM   17  O2  UNL     1     -10.056 -13.532   1.540  1.00  0.00    -0.357 OA
ATOM     18  H2  UNL     1     -10.139 -13.818   2.441  1.00  0.00     0.217 HD
ENDBRANCH   4  17
BRANCH   1  19
HETATM   19  O1  UNL     1     -14.394 -13.909  -1.849  1.00  0.00    -0.353 OA
HETATM   20  C1  UNL     1     -15.697 -14.068  -1.318  1.00  0.00     0.210 C 
ENDBRANCH   1  19
BRANCH   5  21
HETATM   21  O3  UNL     1     -11.219 -11.230   0.408  1.00  0.00    -0.351 OA
HETATM   22  C15 UNL     1     -10.089 -10.799  -0.359  1.00  0.00     0.210 C 
ENDBRANCH   5  21
BRANCH   6  23
HETATM   23  O4  UNL     1     -13.348 -11.410  -1.256  1.00  0.00    -0.351 OA
HETATM   24  C17 UNL     1     -13.039 -10.957  -2.564  1.00  0.00     0.210 C 
ENDBRANCH   6  23
TORSDOF 6
ENDMDL
MODEL 3
REMARK VINA RESULT: -5.810195945      1.249      1.451
REMARK  6 active torsions:
REMARK  status: ('A' for Active; 'I' for Inactive)
REMARK    1  A    between atoms: O1_2  and  C2_3 
REMARK    2  A    between atoms: C4_5  and  C5_6 
REMARK    3  A    between atoms: N1_7  and  C6_9 
REMARK    4  A    between atoms: C13_16  and  O2_17 
REMARK    5  A    between atoms: C14_19  and  O3_20 
REMARK    6  A    between atoms: C16_22  and  O4_23 
ROOT
HETATM    1  C2  UNL     1     -12.299 -18.410   0.263  1.00  0.00     0.105 A 
HETATM    2  C3  UNL     1     -12.309 -17.032   0.294  1.00  0.00     0.055 A 
HETATM    3  C4  UNL     1     -11.202 -16.288   0.639  1.00  0.00     0.018 A 
HETATM    4  C13 UNL     1     -10.053 -16.981   0.962  1.00  0.00     0.113 A 
HETATM    5  C14 UNL     1     -10.041 -18.376   0.931  1.00  0.00     0.138 A 
HETATM    6  C16 UNL     1     -11.155 -19.110   0.584  1.00  0.00     0.138 A 
ENDROOT
BRANCH   3   7
HETATM    7  C5  UNL     1     -11.240 -14.819   0.665  1.00  0.00     0.097 C 
HETATM    8  N1  UNL     1     -10.632 -14.154   1.581  1.00  0.00    -0.393 N 
ATOM      9  H1  UNL     1     -10.109 -14.638   2.311  1.00  0.00     0.159 HD
BRANCH   8  10
HETATM   10  C6  UNL     1     -10.700 -12.710   1.563  1.00  0.00     0.081 C 
HETATM   11  C7  UNL     1      -9.664 -12.178   2.519  1.00  0.00     0.025 C 
HETATM   12  C8  UNL     1      -9.725 -10.669   2.460  1.00  0.00     0.002 C 
HETATM   13  C9  UNL     1      -9.322 -10.177   1.117  1.00  0.00     0.004 C 
HETATM   14  C10 UNL     1      -9.605 -11.087  -0.015  1.00  0.00    -0.017 C 
HETATM   15  C11 UNL     1     -10.062 -10.219  -1.196  1.00  0.00     0.010 C 
HETATM   16  C12 UNL     1     -10.641 -12.116   0.208  1.00  0.00     0.029 C 
ENDBRANCH   8  10
ENDBRANCH   3   7
BRANCH   4  17
HETATM   17  O2  UNL     1      -8.914 -16.277   1.315  1.00  0.00    -0.357 OA
ATOM     18  H2  UNL     1      -8.663 -15.514   0.809  1.00  0.00     0.217 HD
ENDBRANCH   4  17
BRANCH   1  19
HETATM   19  O1  UNL     1     -13.422 -19.132  -0.087  1.00  0.00    -0.353 OA
HETATM   20  C1  UNL     1     -14.526 -19.197   0.798  1.00  0.00     0.210 C 
ENDBRANCH   1  19
BRANCH   5  21
HETATM   21  O3  UNL     1      -8.889 -19.092   1.253  1.00  0.00    -0.351 OA
HETATM   22  C15 UNL     1      -7.983 -19.375   0.180  1.00  0.00     0.210 C 
ENDBRANCH   5  21
BRANCH   6  23
HETATM   23  O4  UNL     1     -11.099 -20.498   0.566  1.00  0.00    -0.351 OA
HETATM   24  C17 UNL     1     -11.451 -21.290   1.688  1.00  0.00     0.210 C 
ENDBRANCH   6  23
TORSDOF 6
ENDMDL
MODEL 4
REMARK VINA RESULT: -5.794047468      2.597      4.119
REMARK  6 active torsions:
REMARK  status: ('A' for Active; 'I' for Inactive)
REMARK    1  A    between atoms: O1_2  and  C2_3 
REMARK    2  A    between atoms: C4_5  and  C5_6 
REMARK    3  A    between atoms: N1_7  and  C6_9 
REMARK    4  A    between atoms: C13_16  and  O2_17 
REMARK    5  A    between atoms: C14_19  and  O3_20 
REMARK    6  A    between atoms: C16_22  and  O4_23 
ROOT
HETATM    1  C2  UNL     1     -13.433 -14.971  -0.047  1.00  0.00     0.105 A 
HETATM    2  C3  UNL     1     -12.767 -13.884   0.478  1.00  0.00     0.055 A 
HETATM    3  C4  UNL     1     -11.469 -13.957   0.935  1.00  0.00     0.018 A 
HETATM    4  C13 UNL     1     -10.839 -15.183   0.852  1.00  0.00     0.113 A 
HETATM    5  C14 UNL     1     -11.513 -16.284   0.322  1.00  0.00     0.138 A 
HETATM    6  C16 UNL     1     -12.812 -16.199  -0.133  1.00  0.00     0.138 A 
ENDROOT
BRANCH   3   7
HETATM    7  C5  UNL     1     -10.782 -12.783   1.490  1.00  0.00     0.097 C 
HETATM    8  N1  UNL     1     -10.367 -12.768   2.706  1.00  0.00    -0.393 N 
ATOM      9  H1  UNL     1     -10.509 -13.577   3.311  1.00  0.00     0.159 HD
BRANCH   8  10
HETATM   10  C6  UNL     1      -9.697 -11.588   3.205  1.00  0.00     0.081 C 
HETATM   11  C7  UNL     1      -8.351 -12.003   3.742  1.00  0.00     0.025 C 
HETATM   12  C8  UNL     1      -7.652 -10.754   4.226  1.00  0.00     0.002 C 
HETATM   13  C9  UNL     1      -7.366  -9.836   3.092  1.00  0.00     0.004 C 
HETATM   14  C10 UNL     1      -8.314  -9.899   1.957  1.00  0.00    -0.017 C 
HETATM   15  C11 UNL     1      -8.518  -8.463   1.454  1.00  0.00     0.010 C 
HETATM   16  C12 UNL     1      -9.649 -10.464   2.243  1.00  0.00     0.029 C 
ENDBRANCH   8  10
ENDBRANCH   3   7
BRANCH   4  17
HETATM   17  O2  UNL     1      -9.535 -15.306   1.299  1.00  0.00    -0.357 OA
ATOM     18  H2  UNL     1      -8.862 -15.595   0.695  1.00  0.00     0.217 HD
ENDBRANCH   4  17
BRANCH   1  19
HETATM   19  O1  UNL     1     -14.733 -14.871  -0.498  1.00  0.00    -0.353 OA
HETATM   20  C1  UNL     1     -15.188 -13.666  -1.086  1.00  0.00     0.210 C 
ENDBRANCH   1  19
BRANCH   5  21
HETATM   21  O3  UNL     1     -10.892 -17.530   0.229  1.00  0.00    -0.351 OA
HETATM   22  C15 UNL     1     -10.902 -18.345   1.406  1.00  0.00     0.210 C 
ENDBRANCH   5  21
BRANCH   6  23
HETATM   23  O4  UNL     1     -13.444 -17.321  -0.654  1.00  0.00    -0.351 OA
HETATM   24  C17 UNL     1     -14.362 -18.097   0.098  1.00  0.00     0.210 C 
ENDBRANCH   6  23
TORSDOF 6
ENDMDL
MODEL 5
REMARK VINA RESULT: -5.745601462      3.412      5.354
REMARK  6 active torsions:
REMARK  status: ('A' for Active; 'I' for Inactive)
REMARK    1  A    between atoms: O1_2  and  C2_3 
REMARK    2  A    between atoms: C4_5  and  C5_6 
REMARK    3  A    between atoms: N1_7  and  C6_9 
REMARK    4  A    between atoms: C13_16  and  O2_17 
REMARK    5  A    between atoms: C14_19  and  O3_20 
REMARK    6  A    between atoms: C16_22  and  O4_23 
ROOT
HETATM    1  C2  UNL     1     -14.898 -16.866   1.085  1.00  0.00     0.105 A 
HETATM    2  C3  UNL     1     -13.684 -16.213   1.069  1.00  0.00     0.055 A 
HETATM    3  C4  UNL     1     -13.480 -15.040   0.375  1.00  0.00     0.018 A 
HETATM    4  C13 UNL     1     -14.554 -14.525  -0.322  1.00  0.00     0.113 A 
HETATM    5  C14 UNL     1     -15.784 -15.185  -0.306  1.00  0.00     0.138 A 
HETATM    6  C16 UNL     1     -15.977 -16.358   0.392  1.00  0.00     0.138 A 
ENDROOT
BRANCH   3   7
HETATM    7  C5  UNL     1     -12.175 -14.364   0.373  1.00  0.00     0.097 C 
HETATM    8  N1  UNL     1     -12.060 -13.139   0.745  1.00  0.00    -0.393 N 
ATOM      9  H1  UNL     1     -12.879 -12.612   1.049  1.00  0.00     0.159 HD
BRANCH   8  10
HETATM   10  C6  UNL     1     -10.754 -12.519   0.726  1.00  0.00     0.081 C 
HETATM   11  C7  UNL     1     -10.861 -11.221  -0.031  1.00  0.00     0.025 C 
HETATM   12  C8  UNL     1      -9.498 -10.570  -0.011  1.00  0.00     0.002 C 
HETATM   13  C9  UNL     1      -9.111 -10.197   1.375  1.00  0.00     0.004 C 
HETATM   14  C10 UNL     1      -9.667 -11.047   2.451  1.00  0.00    -0.017 C 
HETATM   15  C11 UNL     1      -8.570 -11.217   3.511  1.00  0.00     0.010 C 
HETATM   16  C12 UNL     1     -10.119 -12.398   2.057  1.00  0.00     0.029 C 
ENDBRANCH   8  10
ENDBRANCH   3   7
BRANCH   4  17
HETATM   17  O2  UNL     1     -14.399 -13.348  -1.035  1.00  0.00    -0.357 OA
ATOM     18  H2  UNL     1     -13.537 -13.109  -1.354  1.00  0.00     0.217 HD
ENDBRANCH   4  17
BRANCH   1  19
HETATM   19  O1  UNL     1     -15.076 -18.039   1.789  1.00  0.00    -0.353 OA
HETATM   20  C1  UNL     1     -14.026 -18.553   2.588  1.00  0.00     0.210 C 
ENDBRANCH   1  19
BRANCH   5  21
HETATM   21  O3  UNL     1     -16.881 -14.678  -1.003  1.00  0.00    -0.351 OA
HETATM   22  C15 UNL     1     -17.663 -13.680  -0.339  1.00  0.00     0.210 C 
ENDBRANCH   5  21
BRANCH   6  23
HETATM   23  O4  UNL     1     -17.218 -16.981   0.381  1.00  0.00    -0.351 OA
HETATM   24  C17 UNL     1     -17.540 -18.022  -0.527  1.00  0.00     0.210 C 
ENDBRANCH   6  23
TORSDOF 6
ENDMDL
