MODEL 1
REMARK VINA RESULT: -4.808517860      0.000      0.000
REMARK  3 active torsions:
REMARK  status: ('A' for Active; 'I' for Inactive)
REMARK    1  A    between atoms: O1_1  and  C1_3 
REMARK    2  A    between atoms: C1_3  and  C2_4 
REMARK    3  A    between atoms: N1_8  and  C6_9 
ROOT
HETATM    1  C2  UNL     1      -0.724  20.323  72.559  1.00  0.00     0.110 C 
HETATM    2  C3  UNL     1      -0.159  19.080  71.901  1.00  0.00     0.029 C 
HETATM    3  C4  UNL     1       1.110  19.534  71.224  1.00  0.00     0.022 C 
HETATM    4  C5  UNL     1       1.419  20.834  71.889  1.00  0.00     0.125 C 
HETATM    5  N1  UNL     1       0.477  21.005  72.992  1.00  0.00    -0.355 N 
ENDROOT
BRANCH   5   6
HETATM    6  C6  UNL     1       0.771  21.698  74.172  1.00  0.00     0.142 C 
HETATM    7  N2  UNL     1       0.003  22.381  74.895  1.00  0.00    -0.350 N 
HETATM    8  C7  UNL     1       0.490  23.008  76.053  1.00  0.00     0.073 C 
ATOM      9  H2  UNL     1      -0.979  22.481  74.638  1.00  0.00     0.167 HD
HETATM   10  C8  UNL     1       1.982  23.249  75.980  1.00  0.00     0.127 C 
HETATM   11  S1  UNL     1       2.389  21.781  74.925  1.00  0.00    -0.089 SA
ENDBRANCH   5   6
BRANCH   1  12
HETATM   12  C1  UNL     1      -1.575  19.869  73.720  1.00  0.00     0.189 C 
BRANCH  12  13
HETATM   13  O1  UNL     1      -2.619  19.108  73.210  1.00  0.00    -0.399 OA
ATOM     14  H1  UNL     1      -2.273  18.577  72.502  1.00  0.00     0.209 HD
ENDBRANCH  12  13
ENDBRANCH   1  12
TORSDOF 3
ENDMDL
MODEL 2
REMARK VINA RESULT: -4.708232311      2.574      4.797
REMARK  3 active torsions:
REMARK  status: ('A' for Active; 'I' for Inactive)
REMARK    1  A    between atoms: O1_1  and  C1_3 
REMARK    2  A    between atoms: C1_3  and  C2_4 
REMARK    3  A    between atoms: N1_8  and  C6_9 
ROOT
HETATM    1  C2  UNL     1       0.523  21.779  74.087  1.00  0.00     0.110 C 
HETATM    2  C3  UNL     1       0.774  21.598  75.570  1.00  0.00     0.029 C 
HETATM    3  C4  UNL     1      -0.520  21.056  76.125  1.00  0.00     0.022 C 
HETATM    4  C5  UNL     1      -1.235  20.548  74.918  1.00  0.00     0.125 C 
HETATM    5  N1  UNL     1      -0.320  20.643  73.784  1.00  0.00    -0.355 N 
ENDROOT
BRANCH   5   6
HETATM    6  C6  UNL     1      -0.339  19.771  72.689  1.00  0.00     0.142 C 
HETATM    7  N2  UNL     1      -1.189  18.893  72.398  1.00  0.00    -0.350 N 
HETATM    8  C7  UNL     1      -1.034  18.110  71.244  1.00  0.00     0.073 C 
ATOM      9  H2  UNL     1      -1.997  18.749  73.005  1.00  0.00     0.167 HD
HETATM   10  C8  UNL     1       0.412  18.032  70.805  1.00  0.00     0.127 C 
HETATM   11  S1  UNL     1       0.917  19.705  71.421  1.00  0.00    -0.089 SA
ENDBRANCH   5   6
BRANCH   1  12
HETATM   12  C1  UNL     1       1.862  21.700  73.393  1.00  0.00     0.189 C 
BRANCH  12  13
HETATM   13  O1  UNL     1       2.813  21.353  74.344  1.00  0.00    -0.399 OA
ATOM     14  H1  UNL     1       3.624  21.162  73.888  1.00  0.00     0.209 HD
ENDBRANCH  12  13
ENDBRANCH   1  12
TORSDOF 3
ENDMDL
MODEL 3
REMARK VINA RESULT: -4.611548300      2.151      4.374
REMARK  3 active torsions:
REMARK  status: ('A' for Active; 'I' for Inactive)
REMARK    1  A    between atoms: O1_1  and  C1_3 
REMARK    2  A    between atoms: C1_3  and  C2_4 
REMARK    3  A    between atoms: N1_8  and  C6_9 
ROOT
HETATM    1  C2  UNL     1       1.547  22.556  75.918  1.00  0.00     0.110 C 
HETATM    2  C3  UNL     1       2.606  23.624  75.734  1.00  0.00     0.029 C 
HETATM    3  C4  UNL     1       3.784  22.909  75.119  1.00  0.00     0.022 C 
HETATM    4  C5  UNL     1       3.191  21.646  74.589  1.00  0.00     0.125 C 
HETATM    5  N1  UNL     1       1.742  21.734  74.744  1.00  0.00    -0.355 N 
ENDROOT
BRANCH   5   6
HETATM    6  C6  UNL     1       0.825  21.117  73.885  1.00  0.00     0.142 C 
HETATM    7  N2  UNL     1      -0.271  20.570  74.167  1.00  0.00    -0.350 N 
HETATM    8  C7  UNL     1      -1.060  20.000  73.155  1.00  0.00     0.073 C 
ATOM      9  H2  UNL     1      -0.588  20.539  75.136  1.00  0.00     0.167 HD
HETATM   10  C8  UNL     1      -0.236  19.618  71.944  1.00  0.00     0.127 C 
HETATM   11  S1  UNL     1       1.039  20.949  72.119  1.00  0.00    -0.089 SA
ENDBRANCH   5   6
BRANCH   1  12
HETATM   12  C1  UNL     1       0.206  23.249  75.916  1.00  0.00     0.189 C 
BRANCH  12  13
HETATM   13  O1  UNL     1      -0.681  22.462  76.639  1.00  0.00    -0.399 OA
ATOM     14  H1  UNL     1      -1.489  22.953  76.741  1.00  0.00     0.209 HD
ENDBRANCH  12  13
ENDBRANCH   1  12
TORSDOF 3
ENDMDL
MODEL 4
REMARK VINA RESULT: -4.602868791      1.230      1.410
REMARK  3 active torsions:
REMARK  status: ('A' for Active; 'I' for Inactive)
REMARK    1  A    between atoms: O1_1  and  C1_3 
REMARK    2  A    between atoms: C1_3  and  C2_4 
REMARK    3  A    between atoms: N1_8  and  C6_9 
ROOT
HETATM    1  C2  UNL     1      -0.635  20.058  72.336  1.00  0.00     0.110 C 
HETATM    2  C3  UNL     1      -0.396  18.645  71.843  1.00  0.00     0.029 C 
HETATM    3  C4  UNL     1       0.853  18.728  71.001  1.00  0.00     0.022 C 
HETATM    4  C5  UNL     1       1.478  20.016  71.422  1.00  0.00     0.125 C 
HETATM    5  N1  UNL     1       0.714  20.532  72.555  1.00  0.00    -0.355 N 
ENDROOT
BRANCH   5   6
HETATM    6  C6  UNL     1       1.266  21.309  73.580  1.00  0.00     0.142 C 
HETATM    7  N2  UNL     1       2.477  21.500  73.857  1.00  0.00    -0.350 N 
HETATM    8  C7  UNL     1       2.837  22.324  74.936  1.00  0.00     0.073 C 
ATOM      9  H2  UNL     1       3.202  21.054  73.295  1.00  0.00     0.167 HD
HETATM   10  C8  UNL     1       1.731  22.421  75.965  1.00  0.00     0.127 C 
HETATM   11  S1  UNL     1       0.317  22.225  74.785  1.00  0.00    -0.089 SA
ENDBRANCH   5   6
BRANCH   1  12
HETATM   12  C1  UNL     1      -1.422  19.957  73.620  1.00  0.00     0.189 C 
BRANCH  12  13
HETATM   13  O1  UNL     1      -2.660  19.405  73.317  1.00  0.00    -0.399 OA
ATOM     14  H1  UNL     1      -2.610  19.040  72.441  1.00  0.00     0.209 HD
ENDBRANCH  12  13
ENDBRANCH   1  12
TORSDOF 3
ENDMDL
MODEL 5
REMARK VINA RESULT: -4.565938619      2.020      2.267
REMARK  3 active torsions:
REMARK  status: ('A' for Active; 'I' for Inactive)
REMARK    1  A    between atoms: O1_1  and  C1_3 
REMARK    2  A    between atoms: C1_3  and  C2_4 
REMARK    3  A    between atoms: N1_8  and  C6_9 
ROOT
HETATM    1  C2  UNL     1      -0.357  21.202  74.001  1.00  0.00     0.110 C 
HETATM    2  C3  UNL     1      -0.641  19.887  73.302  1.00  0.00     0.029 C 
HETATM    3  C4  UNL     1       0.089  19.975  71.985  1.00  0.00     0.022 C 
HETATM    4  C5  UNL     1       1.072  21.077  72.200  1.00  0.00     0.125 C 
HETATM    5  N1  UNL     1       1.012  21.460  73.608  1.00  0.00    -0.355 N 
ENDROOT
BRANCH   5   6
HETATM    6  C6  UNL     1       2.102  21.961  74.329  1.00  0.00     0.142 C 
HETATM    7  N2  UNL     1       2.204  23.053  74.943  1.00  0.00    -0.350 N 
HETATM    8  C7  UNL     1       3.391  23.380  75.616  1.00  0.00     0.073 C 
ATOM      9  H2  UNL     1       1.419  23.705  74.951  1.00  0.00     0.167 HD
HETATM   10  C8  UNL     1       4.584  22.640  75.049  1.00  0.00     0.127 C 
HETATM   11  S1  UNL     1       3.666  21.120  74.522  1.00  0.00    -0.089 SA
ENDBRANCH   5   6
BRANCH   1  12
HETATM   12  C1  UNL     1      -0.490  20.959  75.485  1.00  0.00     0.189 C 
BRANCH  12  13
HETATM   13  O1  UNL     1      -0.744  22.181  76.094  1.00  0.00    -0.399 OA
ATOM     14  H1  UNL     1      -0.028  22.768  75.880  1.00  0.00     0.209 HD
ENDBRANCH  12  13
ENDBRANCH   1  12
TORSDOF 3
ENDMDL
