MODEL 1
REMARK VINA RESULT: -5.888565766      0.000      0.000
REMARK  2 active torsions:
REMARK  status: ('A' for Active; 'I' for Inactive)
REMARK    1  A    between atoms: C2_8  and  N4_9 
REMARK    2  A    between atoms: N4_9  and  C3_11 
ROOT
HETATM    1  C1  UNL     1       0.250  19.079  71.270  1.00  0.00     0.216 A 
HETATM    2  N1  UNL     1      -0.900  18.461  71.618  1.00  0.00    -0.281 N 
ATOM      3  H1  UNL     1      -1.230  17.675  71.057  1.00  0.00     0.189 HD
HETATM    4  N2  UNL     1      -1.606  18.843  72.657  1.00  0.00    -0.228 N 
ATOM      5  H2  UNL     1      -2.470  18.351  72.887  1.00  0.00     0.209 HD
HETATM    6  N3  UNL     1      -1.211  19.863  73.413  1.00  0.00    -0.118 N 
ATOM      7  H3  UNL     1      -1.769  20.148  74.218  1.00  0.00     0.207 HD
HETATM    8  C2  UNL     1      -0.087  20.511  73.122  1.00  0.00     0.695 A 
HETATM    9  N5  UNL     1       0.643  20.106  72.035  1.00  0.00    -0.185 N 
ATOM     10  H5  UNL     1       1.506  20.597  71.803  1.00  0.00     0.185 HD
ENDROOT
BRANCH   8  11
HETATM   11  N4  UNL     1       0.409  21.508  73.764  1.00  0.00    -0.220 N 
ATOM     12  H4  UNL     1       0.051  22.439  73.545  1.00  0.00     0.178 HD
BRANCH  11  13
HETATM   13  C3  UNL     1       1.433  21.405  74.772  1.00  0.00     0.099 C 
HETATM   14  C4  UNL     1       2.316  22.616  74.791  1.00  0.00     0.026 C 
HETATM   15  C5  UNL     1       2.100  23.521  75.964  1.00  0.00     0.002 C 
HETATM   16  C6  UNL     1       0.684  24.003  75.928  1.00  0.00     0.000 C 
HETATM   17  C7  UNL     1      -0.043  23.194  76.993  1.00  0.00     0.000 C 
HETATM   18  C8  UNL     1      -0.324  21.801  76.549  1.00  0.00     0.002 C 
HETATM   19  C9  UNL     1       0.867  21.022  76.098  1.00  0.00     0.026 C 
ENDBRANCH  11  13
ENDBRANCH   8  11
TORSDOF 2
ENDMDL
MODEL 2
REMARK VINA RESULT: -5.773364788      1.042      1.534
REMARK  2 active torsions:
REMARK  status: ('A' for Active; 'I' for Inactive)
REMARK    1  A    between atoms: C2_8  and  N4_9 
REMARK    2  A    between atoms: N4_9  and  C3_11 
ROOT
HETATM    1  C1  UNL     1      -0.741  19.554  72.260  1.00  0.00     0.216 A 
HETATM    2  N1  UNL     1       0.181  19.166  71.351  1.00  0.00    -0.281 N 
ATOM      3  H1  UNL     1      -0.060  18.437  70.680  1.00  0.00     0.189 HD
HETATM    4  N2  UNL     1       1.379  19.703  71.307  1.00  0.00    -0.228 N 
ATOM      5  H2  UNL     1       2.048  19.383  70.606  1.00  0.00     0.209 HD
HETATM    6  N3  UNL     1       1.732  20.657  72.164  1.00  0.00    -0.118 N 
ATOM      7  H3  UNL     1       2.666  21.065  72.117  1.00  0.00     0.207 HD
HETATM    8  C2  UNL     1       0.867  21.081  73.081  1.00  0.00     0.695 A 
HETATM    9  N5  UNL     1      -0.380  20.515  73.120  1.00  0.00    -0.185 N 
ATOM     10  H5  UNL     1      -1.050  20.833  73.821  1.00  0.00     0.185 HD
ENDROOT
BRANCH   8  11
HETATM   11  N4  UNL     1       1.076  21.990  73.966  1.00  0.00    -0.220 N 
ATOM     12  H4  UNL     1       0.661  22.909  73.808  1.00  0.00     0.178 HD
BRANCH  11  13
HETATM   13  C3  UNL     1       1.854  21.803  75.163  1.00  0.00     0.099 C 
HETATM   14  C4  UNL     1       2.624  23.038  75.522  1.00  0.00     0.026 C 
HETATM   15  C5  UNL     1       2.089  23.778  76.709  1.00  0.00     0.002 C 
HETATM   16  C6  UNL     1       0.687  24.201  76.403  1.00  0.00     0.000 C 
HETATM   17  C7  UNL     1      -0.201  23.234  77.173  1.00  0.00     0.000 C 
HETATM   18  C8  UNL     1      -0.278  21.898  76.522  1.00  0.00     0.002 C 
HETATM   19  C9  UNL     1       1.035  21.233  76.271  1.00  0.00     0.026 C 
ENDBRANCH  11  13
ENDBRANCH   8  11
TORSDOF 2
ENDMDL
MODEL 3
REMARK VINA RESULT: -5.610017527      1.341      2.075
REMARK  2 active torsions:
REMARK  status: ('A' for Active; 'I' for Inactive)
REMARK    1  A    between atoms: C2_8  and  N4_9 
REMARK    2  A    between atoms: N4_9  and  C3_11 
ROOT
HETATM    1  C1  UNL     1      -0.989  19.782  72.888  1.00  0.00     0.216 A 
HETATM    2  N1  UNL     1      -0.419  19.263  71.778  1.00  0.00    -0.281 N 
ATOM      3  H1  UNL     1      -0.929  18.563  71.239  1.00  0.00     0.189 HD
HETATM    4  N2  UNL     1       0.773  19.635  71.372  1.00  0.00    -0.228 N 
ATOM      5  H2  UNL     1       1.170  19.220  70.529  1.00  0.00     0.209 HD
HETATM    6  N3  UNL     1       1.471  20.545  72.046  1.00  0.00    -0.118 N 
ATOM      7  H3  UNL     1       2.396  20.824  71.718  1.00  0.00     0.207 HD
HETATM    8  C2  UNL     1       0.963  21.092  73.147  1.00  0.00     0.695 A 
HETATM    9  N5  UNL     1      -0.281  20.697  73.562  1.00  0.00    -0.185 N 
ATOM     10  H5  UNL     1      -0.679  21.111  74.406  1.00  0.00     0.185 HD
ENDROOT
BRANCH   8  11
HETATM   11  N4  UNL     1       1.526  21.977  73.890  1.00  0.00    -0.220 N 
ATOM     12  H4  UNL     1       1.356  22.959  73.670  1.00  0.00     0.178 HD
BRANCH  11  13
HETATM   13  C3  UNL     1       2.380  21.681  75.011  1.00  0.00     0.099 C 
HETATM   14  C4  UNL     1       3.785  22.145  74.777  1.00  0.00     0.026 C 
HETATM   15  C5  UNL     1       4.178  23.353  75.570  1.00  0.00     0.002 C 
HETATM   16  C6  UNL     1       3.268  24.478  75.190  1.00  0.00     0.000 C 
HETATM   17  C7  UNL     1       2.280  24.602  76.341  1.00  0.00     0.000 C 
HETATM   18  C8  UNL     1       1.248  23.529  76.316  1.00  0.00     0.002 C 
HETATM   19  C9  UNL     1       1.777  22.133  76.299  1.00  0.00     0.026 C 
ENDBRANCH  11  13
ENDBRANCH   8  11
TORSDOF 2
ENDMDL
MODEL 4
REMARK VINA RESULT: -5.608279152      1.414      2.714
REMARK  2 active torsions:
REMARK  status: ('A' for Active; 'I' for Inactive)
REMARK    1  A    between atoms: C2_8  and  N4_9 
REMARK    2  A    between atoms: N4_9  and  C3_11 
ROOT
HETATM    1  C1  UNL     1       1.017  18.073  70.276  1.00  0.00     0.216 A 
HETATM    2  N1  UNL     1      -0.123  17.499  69.832  1.00  0.00    -0.281 N 
ATOM      3  H1  UNL     1      -0.118  17.020  68.931  1.00  0.00     0.189 HD
HETATM    4  N2  UNL     1      -1.236  17.540  70.526  1.00  0.00    -0.228 N 
ATOM      5  H2  UNL     1      -2.077  17.094  70.157  1.00  0.00     0.209 HD
HETATM    6  N3  UNL     1      -1.283  18.154  71.706  1.00  0.00    -0.118 N 
ATOM      7  H3  UNL     1      -2.156  18.177  72.234  1.00  0.00     0.207 HD
HETATM    8  C2  UNL     1      -0.194  18.737  72.196  1.00  0.00     0.695 A 
HETATM    9  N5  UNL     1       0.963  18.690  71.463  1.00  0.00    -0.185 N 
ATOM     10  H5  UNL     1       1.804  19.135  71.831  1.00  0.00     0.185 HD
ENDROOT
BRANCH   8  11
HETATM   11  N4  UNL     1      -0.100  19.362  73.315  1.00  0.00    -0.220 N 
ATOM     12  H4  UNL     1       0.384  18.893  74.081  1.00  0.00     0.178 HD
BRANCH  11  13
HETATM   13  C3  UNL     1      -0.629  20.678  73.564  1.00  0.00     0.099 C 
HETATM   14  C4  UNL     1      -1.116  20.822  74.974  1.00  0.00     0.026 C 
HETATM   15  C5  UNL     1      -0.241  21.668  75.848  1.00  0.00     0.002 C 
HETATM   16  C6  UNL     1       1.112  21.033  75.907  1.00  0.00     0.000 C 
HETATM   17  C7  UNL     1       1.989  21.873  74.989  1.00  0.00     0.000 C 
HETATM   18  C8  UNL     1       1.730  21.592  73.550  1.00  0.00     0.002 C 
HETATM   19  C9  UNL     1       0.310  21.746  73.114  1.00  0.00     0.026 C 
ENDBRANCH  11  13
ENDBRANCH   8  11
TORSDOF 2
ENDMDL
MODEL 5
REMARK VINA RESULT: -5.542726040      1.267      1.696
REMARK  2 active torsions:
REMARK  status: ('A' for Active; 'I' for Inactive)
REMARK    1  A    between atoms: C2_8  and  N4_9 
REMARK    2  A    between atoms: N4_9  and  C3_11 
ROOT
HETATM    1  C1  UNL     1       0.844  19.576  71.384  1.00  0.00     0.216 A 
HETATM    2  N1  UNL     1      -0.401  19.224  71.773  1.00  0.00    -0.281 N 
ATOM      3  H1  UNL     1      -0.911  18.525  71.232  1.00  0.00     0.189 HD
HETATM    4  N2  UNL     1      -0.975  19.755  72.828  1.00  0.00    -0.228 N 
ATOM      5  H2  UNL     1      -1.916  19.463  73.090  1.00  0.00     0.209 HD
HETATM    6  N3  UNL     1      -0.344  20.669  73.561  1.00  0.00    -0.118 N 
ATOM      7  H3  UNL     1      -0.802  21.073  74.378  1.00  0.00     0.207 HD
HETATM    8  C2  UNL     1       0.884  21.057  73.228  1.00  0.00     0.695 A 
HETATM    9  N5  UNL     1       1.474  20.497  72.125  1.00  0.00    -0.185 N 
ATOM     10  H5  UNL     1       2.415  20.789  71.862  1.00  0.00     0.185 HD
ENDROOT
BRANCH   8  11
HETATM   11  N4  UNL     1       1.604  21.926  73.843  1.00  0.00    -0.220 N 
ATOM     12  H4  UNL     1       1.581  22.888  73.502  1.00  0.00     0.178 HD
BRANCH  11  13
HETATM   13  C3  UNL     1       2.440  21.639  74.980  1.00  0.00     0.099 C 
HETATM   14  C4  UNL     1       3.851  22.091  74.758  1.00  0.00     0.026 C 
HETATM   15  C5  UNL     1       4.243  23.307  75.541  1.00  0.00     0.002 C 
HETATM   16  C6  UNL     1       3.345  24.432  75.133  1.00  0.00     0.000 C 
HETATM   17  C7  UNL     1       2.343  24.578  76.270  1.00  0.00     0.000 C 
HETATM   18  C8  UNL     1       1.304  23.513  76.245  1.00  0.00     0.002 C 
HETATM   19  C9  UNL     1       1.824  22.113  76.253  1.00  0.00     0.026 C 
ENDBRANCH  11  13
ENDBRANCH   8  11
TORSDOF 2
ENDMDL
