MODEL 1
REMARK VINA RESULT: -4.923851735      0.000      0.000
REMARK  1 active torsions:
REMARK  status: ('A' for Active; 'I' for Inactive)
REMARK    1  A    between atoms: N1_5  and  C4_7 
ROOT
HETATM    1  C1  UNL     1       5.944  21.264  74.991  1.00  0.00     0.132 C 
HETATM    2  C2  UNL     1       6.688  22.585  74.800  1.00  0.00     0.102 C 
HETATM    3  S1  UNL     1       5.320  23.753  75.210  1.00  0.00    -0.093 SA
HETATM    4  C3  UNL     1       3.987  22.597  74.931  1.00  0.00     0.136 C 
HETATM    5  N1  UNL     1       2.760  22.854  75.109  1.00  0.00    -0.366 N 
ATOM      6  H1  UNL     1       2.557  23.799  75.435  1.00  0.00     0.162 HD
HETATM    7  N2  UNL     1       4.616  21.410  74.492  1.00  0.00    -0.370 N 
ATOM      8  H2  UNL     1       4.166  20.728  73.881  1.00  0.00     0.161 HD
ENDROOT
BRANCH   5   9
HETATM    9  C4  UNL     1       1.624  22.024  74.922  1.00  0.00     0.087 C 
HETATM   10  C5  UNL     1       0.423  22.430  75.784  1.00  0.00     0.051 C 
HETATM   11  C6  UNL     1      -0.509  21.208  75.741  1.00  0.00     0.169 C 
HETATM   12  O1  UNL     1      -0.934  21.097  74.428  1.00  0.00    -0.391 OA
HETATM   13  C7  UNL     1       0.068  20.775  73.537  1.00  0.00     0.169 C 
HETATM   14  C8  UNL     1       1.185  21.816  73.514  1.00  0.00     0.051 C 
ENDBRANCH   5   9
TORSDOF 1
ENDMDL
MODEL 2
REMARK VINA RESULT: -4.719536737      2.736      3.611
REMARK  1 active torsions:
REMARK  status: ('A' for Active; 'I' for Inactive)
REMARK    1  A    between atoms: N1_5  and  C4_7 
ROOT
HETATM    1  C1  UNL     1       0.895  22.598  76.474  1.00  0.00     0.132 C 
HETATM    2  C2  UNL     1       2.221  23.323  76.694  1.00  0.00     0.102 C 
HETATM    3  S1  UNL     1       2.889  23.237  74.977  1.00  0.00    -0.093 SA
HETATM    4  C3  UNL     1       1.863  21.878  74.435  1.00  0.00     0.136 C 
HETATM    5  N1  UNL     1       1.864  21.395  73.265  1.00  0.00    -0.366 N 
ATOM      6  H1  UNL     1       2.509  21.840  72.612  1.00  0.00     0.162 HD
HETATM    7  N2  UNL     1       1.109  21.512  75.573  1.00  0.00    -0.370 N 
ATOM      8  H2  UNL     1       0.754  20.569  75.734  1.00  0.00     0.161 HD
ENDROOT
BRANCH   5   9
HETATM    9  C4  UNL     1       1.100  20.327  72.726  1.00  0.00     0.087 C 
HETATM   10  C5  UNL     1      -0.409  20.603  72.710  1.00  0.00     0.051 C 
HETATM   11  C6  UNL     1      -1.047  19.222  72.490  1.00  0.00     0.169 C 
HETATM   12  O1  UNL     1      -0.665  18.822  71.221  1.00  0.00    -0.391 OA
HETATM   13  C7  UNL     1       0.686  18.581  71.089  1.00  0.00     0.169 C 
HETATM   14  C8  UNL     1       1.531  19.817  71.395  1.00  0.00     0.051 C 
ENDBRANCH   5   9
TORSDOF 1
ENDMDL
MODEL 3
REMARK VINA RESULT: -4.682375064      3.125      4.899
REMARK  1 active torsions:
REMARK  status: ('A' for Active; 'I' for Inactive)
REMARK    1  A    between atoms: N1_5  and  C4_7 
ROOT
HETATM    1  C1  UNL     1      -0.958  19.257  72.504  1.00  0.00     0.132 C 
HETATM    2  C2  UNL     1      -0.397  18.899  71.129  1.00  0.00     0.102 C 
HETATM    3  S1  UNL     1       1.335  19.493  71.356  1.00  0.00    -0.093 SA
HETATM    4  C3  UNL     1       0.986  20.593  72.720  1.00  0.00     0.136 C 
HETATM    5  N1  UNL     1       1.856  21.272  73.340  1.00  0.00    -0.366 N 
ATOM      6  H1  UNL     1       2.814  21.157  73.009  1.00  0.00     0.162 HD
HETATM    7  N2  UNL     1      -0.412  20.511  72.910  1.00  0.00    -0.370 N 
ATOM      8  H2  UNL     1      -0.973  21.270  73.297  1.00  0.00     0.161 HD
ENDROOT
BRANCH   5   9
HETATM    9  C4  UNL     1       1.698  22.169  74.428  1.00  0.00     0.087 C 
HETATM   10  C5  UNL     1       0.907  21.575  75.600  1.00  0.00     0.051 C 
HETATM   11  C6  UNL     1       0.511  22.792  76.451  1.00  0.00     0.169 C 
HETATM   12  O1  UNL     1       1.695  23.314  76.945  1.00  0.00    -0.391 OA
HETATM   13  C7  UNL     1       2.522  23.846  75.980  1.00  0.00     0.169 C 
HETATM   14  C8  UNL     1       2.942  22.812  74.936  1.00  0.00     0.051 C 
ENDBRANCH   5   9
TORSDOF 1
ENDMDL
MODEL 4
REMARK VINA RESULT: -4.614372634      3.543      4.755
REMARK  1 active torsions:
REMARK  status: ('A' for Active; 'I' for Inactive)
REMARK    1  A    between atoms: N1_5  and  C4_7 
ROOT
HETATM    1  C1  UNL     1       1.060  20.803  71.575  1.00  0.00     0.132 C 
HETATM    2  C2  UNL     1       0.188  19.550  71.609  1.00  0.00     0.102 C 
HETATM    3  S1  UNL     1      -0.848  19.954  73.081  1.00  0.00    -0.093 SA
HETATM    4  C3  UNL     1       0.267  21.163  73.778  1.00  0.00     0.136 C 
HETATM    5  N1  UNL     1       0.041  21.835  74.827  1.00  0.00    -0.366 N 
ATOM      6  H1  UNL     1      -0.853  21.644  75.280  1.00  0.00     0.162 HD
HETATM    7  N2  UNL     1       1.386  21.172  72.914  1.00  0.00    -0.370 N 
ATOM      8  H2  UNL     1       2.329  21.417  73.216  1.00  0.00     0.161 HD
ENDROOT
BRANCH   5   9
HETATM    9  C4  UNL     1       0.844  22.813  75.468  1.00  0.00     0.087 C 
HETATM   10  C5  UNL     1       0.268  23.296  76.805  1.00  0.00     0.051 C 
HETATM   11  C6  UNL     1       1.038  24.592  77.107  1.00  0.00     0.169 C 
HETATM   12  O1  UNL     1       2.355  24.213  77.313  1.00  0.00    -0.391 OA
HETATM   13  C7  UNL     1       2.980  23.717  76.189  1.00  0.00     0.169 C 
HETATM   14  C8  UNL     1       2.285  22.475  75.635  1.00  0.00     0.051 C 
ENDBRANCH   5   9
TORSDOF 1
ENDMDL
MODEL 5
REMARK VINA RESULT: -4.524606074      2.935      4.235
REMARK  1 active torsions:
REMARK  status: ('A' for Active; 'I' for Inactive)
REMARK    1  A    between atoms: N1_5  and  C4_7 
ROOT
HETATM    1  C1  UNL     1       0.265  25.473  77.011  1.00  0.00     0.132 C 
HETATM    2  C2  UNL     1       0.725  25.245  78.449  1.00  0.00     0.102 C 
HETATM    3  S1  UNL     1       1.707  23.703  78.201  1.00  0.00    -0.093 SA
HETATM    4  C3  UNL     1       0.940  23.230  76.658  1.00  0.00     0.136 C 
HETATM    5  N1  UNL     1       1.265  22.217  75.971  1.00  0.00    -0.366 N 
ATOM      6  H1  UNL     1       2.023  21.655  76.359  1.00  0.00     0.162 HD
HETATM    7  N2  UNL     1      -0.050  24.211  76.425  1.00  0.00    -0.370 N 
ATOM      8  H2  UNL     1      -0.902  24.035  75.891  1.00  0.00     0.161 HD
ENDROOT
BRANCH   5   9
HETATM    9  C4  UNL     1       0.733  21.747  74.743  1.00  0.00     0.087 C 
HETATM   10  C5  UNL     1       1.808  21.345  73.726  1.00  0.00     0.051 C 
HETATM   11  C6  UNL     1       1.058  21.270  72.386  1.00  0.00     0.169 C 
HETATM   12  O1  UNL     1       0.162  20.222  72.508  1.00  0.00    -0.391 OA
HETATM   13  C7  UNL     1      -0.839  20.442  73.430  1.00  0.00     0.169 C 
HETATM   14  C8  UNL     1      -0.295  20.673  74.839  1.00  0.00     0.051 C 
ENDBRANCH   5   9
TORSDOF 1
ENDMDL
