MODEL 1
REMARK VINA RESULT: -6.062221355      0.000      0.000
REMARK  2 active torsions:
REMARK  status: ('A' for Active; 'I' for Inactive)
REMARK    1  A    between atoms: C1_2  and  N1_3 
REMARK    2  A    between atoms: C1_2  and  C7_10 
ROOT
HETATM    1  F1  UNL     1     -22.687 -26.903 -13.726  1.00  0.00    -0.227 F 
HETATM    2  C1  UNL     1     -21.441 -26.306 -13.538  1.00  0.00     0.274 C 
ENDROOT
BRANCH   2   3
HETATM    3  N1  UNL     1     -20.471 -26.759 -14.470  1.00  0.00    -0.366 N 
HETATM    4  C2  UNL     1     -19.265 -26.927 -14.126  1.00  0.00    -0.016 C 
HETATM    5  C3  UNL     1     -18.225 -27.409 -15.110  1.00  0.00     0.052 C 
HETATM    6  C6  UNL     1     -18.617 -26.718 -12.814  1.00  0.00     0.052 C 
HETATM    7  C4  UNL     1     -17.007 -27.727 -14.310  1.00  0.00     0.006 C 
HETATM    8  C5  UNL     1     -17.364 -27.557 -12.855  1.00  0.00     0.006 C 
ATOM      9  H1  UNL     1     -20.752 -26.953 -15.432  1.00  0.00     0.162 HD
ENDBRANCH   2   3
BRANCH   2  10
HETATM   10  C7  UNL     1     -21.602 -24.807 -13.533  1.00  0.00     0.052 A 
HETATM   11  C8  UNL     1     -21.163 -24.162 -12.239  1.00  0.00     0.026 A 
HETATM   12  C9  UNL     1     -20.639 -22.766 -12.354  1.00  0.00     0.237 C 
HETATM   13  C11 UNL     1     -22.595 -24.163 -12.635  1.00  0.00     0.026 A 
HETATM   14  N2  UNL     1     -21.811 -21.954 -12.308  1.00  0.00    -0.074 N 
HETATM   15  C10 UNL     1     -22.913 -22.724 -12.839  1.00  0.00     0.237 C 
ATOM     16  H22 UNL     1     -22.000 -21.589 -11.374  1.00  0.00     0.277 HD
ATOM     17  H21 UNL     1     -21.691 -21.060 -12.783  1.00  0.00     0.277 HD
ENDBRANCH   2  10
TORSDOF 2
ENDMDL
MODEL 2
REMARK VINA RESULT: -5.869839513      1.959      5.652
REMARK  2 active torsions:
REMARK  status: ('A' for Active; 'I' for Inactive)
REMARK    1  A    between atoms: C1_2  and  N1_3 
REMARK    2  A    between atoms: C1_2  and  C7_10 
ROOT
HETATM    1  F1  UNL     1     -18.643 -26.329 -10.953  1.00  0.00    -0.227 F 
HETATM    2  C1  UNL     1     -19.506 -25.979 -11.991  1.00  0.00     0.274 C 
ENDROOT
BRANCH   2   3
HETATM    3  N1  UNL     1     -19.766 -24.584 -12.038  1.00  0.00    -0.366 N 
HETATM    4  C2  UNL     1     -20.879 -24.143 -12.449  1.00  0.00    -0.016 C 
HETATM    5  C3  UNL     1     -21.168 -22.661 -12.504  1.00  0.00     0.052 C 
HETATM    6  C6  UNL     1     -22.066 -24.877 -12.936  1.00  0.00     0.052 C 
HETATM    7  C4  UNL     1     -22.626 -22.529 -12.788  1.00  0.00     0.006 C 
HETATM    8  C5  UNL     1     -23.217 -23.915 -12.774  1.00  0.00     0.006 C 
ATOM      9  H1  UNL     1     -19.046 -23.928 -11.735  1.00  0.00     0.162 HD
ENDBRANCH   2   3
BRANCH   2  10
HETATM   10  C7  UNL     1     -18.969 -26.525 -13.290  1.00  0.00     0.052 A 
HETATM   11  C8  UNL     1     -19.466 -27.916 -13.605  1.00  0.00     0.026 A 
HETATM   12  C9  UNL     1     -19.584 -28.251 -15.058  1.00  0.00     0.237 C 
HETATM   13  C11 UNL     1     -18.034 -27.680 -13.288  1.00  0.00     0.026 A 
HETATM   14  N2  UNL     1     -18.273 -28.688 -15.416  1.00  0.00    -0.074 N 
HETATM   15  C10 UNL     1     -17.326 -28.025 -14.550  1.00  0.00     0.237 C 
ATOM     16  H22 UNL     1     -18.178 -29.704 -15.398  1.00  0.00     0.277 HD
ATOM     17  H21 UNL     1     -18.067 -28.548 -16.405  1.00  0.00     0.277 HD
ENDBRANCH   2  10
TORSDOF 2
ENDMDL
MODEL 3
REMARK VINA RESULT: -5.782877522      2.885      6.455
REMARK  2 active torsions:
REMARK  status: ('A' for Active; 'I' for Inactive)
REMARK    1  A    between atoms: C1_2  and  N1_3 
REMARK    2  A    between atoms: C1_2  and  C7_10 
ROOT
HETATM    1  F1  UNL     1     -18.072 -27.163 -15.399  1.00  0.00    -0.227 F 
HETATM    2  C1  UNL     1     -18.857 -27.866 -14.486  1.00  0.00     0.274 C 
ENDROOT
BRANCH   2   3
HETATM    3  N1  UNL     1     -20.196 -27.398 -14.443  1.00  0.00    -0.366 N 
HETATM    4  C2  UNL     1     -20.558 -26.537 -13.589  1.00  0.00    -0.016 C 
HETATM    5  C3  UNL     1     -21.981 -26.031 -13.533  1.00  0.00     0.052 C 
HETATM    6  C6  UNL     1     -19.774 -25.866 -12.530  1.00  0.00     0.052 C 
HETATM    7  C4  UNL     1     -21.977 -24.870 -12.598  1.00  0.00     0.006 C 
HETATM    8  C5  UNL     1     -20.545 -24.611 -12.204  1.00  0.00     0.006 C 
ATOM      9  H1  UNL     1     -20.877 -27.762 -15.110  1.00  0.00     0.162 HD
ENDBRANCH   2   3
BRANCH   2  10
HETATM   10  C7  UNL     1     -18.754 -29.342 -14.775  1.00  0.00     0.052 A 
HETATM   11  C8  UNL     1     -17.753 -30.055 -13.897  1.00  0.00     0.026 A 
HETATM   12  C9  UNL     1     -18.050 -31.493 -13.608  1.00  0.00     0.237 C 
HETATM   13  C11 UNL     1     -17.509 -29.908 -15.355  1.00  0.00     0.026 A 
HETATM   14  N2  UNL     1     -17.498 -32.189 -14.724  1.00  0.00    -0.074 N 
HETATM   15  C10 UNL     1     -17.532 -31.305 -15.867  1.00  0.00     0.237 C 
ATOM     16  H22 UNL     1     -16.564 -32.555 -14.537  1.00  0.00     0.277 HD
ATOM     17  H21 UNL     1     -17.962 -33.079 -14.902  1.00  0.00     0.277 HD
ENDBRANCH   2  10
TORSDOF 2
ENDMDL
MODEL 4
REMARK VINA RESULT: -5.766277636      3.659      5.699
REMARK  2 active torsions:
REMARK  status: ('A' for Active; 'I' for Inactive)
REMARK    1  A    between atoms: C1_2  and  N1_3 
REMARK    2  A    between atoms: C1_2  and  C7_10 
ROOT
HETATM    1  F1  UNL     1     -16.694 -27.458 -11.519  1.00  0.00    -0.227 F 
HETATM    2  C1  UNL     1     -17.061 -26.409 -12.362  1.00  0.00     0.274 C 
ENDROOT
BRANCH   2   3
HETATM    3  N1  UNL     1     -18.324 -25.855 -12.026  1.00  0.00    -0.366 N 
HETATM    4  C2  UNL     1     -19.338 -26.053 -12.758  1.00  0.00    -0.016 C 
HETATM    5  C3  UNL     1     -20.687 -25.469 -12.411  1.00  0.00     0.052 C 
HETATM    6  C6  UNL     1     -19.463 -26.823 -14.014  1.00  0.00     0.052 C 
HETATM    7  C4  UNL     1     -21.670 -26.107 -13.333  1.00  0.00     0.006 C 
HETATM    8  C5  UNL     1     -20.931 -27.151 -14.131  1.00  0.00     0.006 C 
ATOM      9  H1  UNL     1     -18.416 -25.289 -11.182  1.00  0.00     0.162 HD
ENDBRANCH   2   3
BRANCH   2  10
HETATM   10  C7  UNL     1     -15.955 -25.385 -12.395  1.00  0.00     0.052 A 
HETATM   11  C8  UNL     1     -15.779 -24.738 -13.747  1.00  0.00     0.026 A 
HETATM   12  C9  UNL     1     -15.264 -23.333 -13.734  1.00  0.00     0.237 C 
HETATM   13  C11 UNL     1     -14.729 -25.632 -13.196  1.00  0.00     0.026 A 
HETATM   14  N2  UNL     1     -13.846 -23.489 -13.675  1.00  0.00    -0.074 N 
HETATM   15  C10 UNL     1     -13.558 -24.735 -13.002  1.00  0.00     0.237 C 
ATOM     16  H22 UNL     1     -13.405 -23.426 -14.593  1.00  0.00     0.277 HD
ATOM     17  H21 UNL     1     -13.380 -22.691 -13.243  1.00  0.00     0.277 HD
ENDBRANCH   2  10
TORSDOF 2
ENDMDL
MODEL 5
REMARK VINA RESULT: -5.750545924      1.612      2.004
REMARK  2 active torsions:
REMARK  status: ('A' for Active; 'I' for Inactive)
REMARK    1  A    between atoms: C1_2  and  N1_3 
REMARK    2  A    between atoms: C1_2  and  C7_10 
ROOT
HETATM    1  F1  UNL     1     -20.679 -26.028 -11.022  1.00  0.00    -0.227 F 
HETATM    2  C1  UNL     1     -20.040 -25.061 -11.795  1.00  0.00     0.274 C 
ENDROOT
BRANCH   2   3
HETATM    3  N1  UNL     1     -18.873 -25.555 -12.435  1.00  0.00    -0.366 N 
HETATM    4  C2  UNL     1     -18.935 -26.532 -13.237  1.00  0.00    -0.016 C 
HETATM    5  C3  UNL     1     -17.700 -27.067 -13.924  1.00  0.00     0.052 C 
HETATM    6  C6  UNL     1     -20.102 -27.329 -13.671  1.00  0.00     0.052 C 
HETATM    7  C4  UNL     1     -18.179 -28.024 -14.962  1.00  0.00     0.006 C 
HETATM    8  C5  UNL     1     -19.685 -27.960 -14.977  1.00  0.00     0.006 C 
ATOM      9  H1  UNL     1     -17.971 -25.117 -12.245  1.00  0.00     0.162 HD
ENDBRANCH   2   3
BRANCH   2  10
HETATM   10  C7  UNL     1     -21.031 -24.456 -12.757  1.00  0.00     0.052 A 
HETATM   11  C8  UNL     1     -21.311 -22.997 -12.491  1.00  0.00     0.026 A 
HETATM   12  C9  UNL     1     -21.674 -22.175 -13.687  1.00  0.00     0.237 C 
HETATM   13  C11 UNL     1     -22.368 -24.018 -12.279  1.00  0.00     0.026 A 
HETATM   14  N2  UNL     1     -23.082 -22.372 -13.822  1.00  0.00    -0.074 N 
HETATM   15  C10 UNL     1     -23.407 -23.674 -13.286  1.00  0.00     0.237 C 
ATOM     16  H22 UNL     1     -23.627 -21.623 -13.396  1.00  0.00     0.277 HD
ATOM     17  H21 UNL     1     -23.406 -22.249 -14.781  1.00  0.00     0.277 HD
ENDBRANCH   2  10
TORSDOF 2
ENDMDL
