MODEL 1
REMARK VINA RESULT: -5.442611110      0.000      0.000
REMARK  3 active torsions:
REMARK  status: ('A' for Active; 'I' for Inactive)
REMARK    1  A    between atoms: C5_5  and  C11_19 
REMARK    2  A    between atoms: C6_6  and  C7_7 
REMARK    3  A    between atoms: C7_7  and  N1_8 
ROOT
HETATM    1  C1  UNL     1     -15.829 -28.817 -14.316  1.00  0.00     0.019 C 
HETATM    2  C2  UNL     1     -17.249 -28.391 -14.339  1.00  0.00    -0.001 A 
HETATM    3  C3  UNL     1     -18.231 -29.292 -13.604  1.00  0.00     0.020 C 
HETATM    4  C4  UNL     1     -19.324 -28.355 -13.242  1.00  0.00     0.027 C 
HETATM    5  C5  UNL     1     -20.097 -27.810 -14.409  1.00  0.00     0.029 C 
HETATM    6  C6  UNL     1     -20.430 -26.407 -13.926  1.00  0.00     0.216 C 
HETATM    7  N2  UNL     1     -19.572 -26.112 -12.826  1.00  0.00    -0.061 N 
ATOM      8  H21 UNL     1     -20.068 -26.039 -11.938  1.00  0.00     0.278 HD
ATOM      9  H22 UNL     1     -19.205 -25.161 -12.848  1.00  0.00     0.278 HD
HETATM   10  C8  UNL     1     -18.547 -27.110 -12.816  1.00  0.00     0.231 C 
HETATM   11  C9  UNL     1     -17.555 -26.981 -13.926  1.00  0.00     0.144 A 
HETATM   12  F1  UNL     1     -16.472 -26.184 -13.681  1.00  0.00    -0.239 F 
HETATM   13  C10 UNL     1     -18.142 -26.710 -15.264  1.00  0.00     0.038 A 
HETATM   14  C11 UNL     1     -19.255 -27.645 -15.655  1.00  0.00     0.005 A 
HETATM   15  C12 UNL     1     -17.841 -28.070 -15.694  1.00  0.00     0.010 A 
ENDROOT
BRANCH   6  16
HETATM   16  C7  UNL     1     -21.898 -26.339 -13.575  1.00  0.00     0.263 C 
BRANCH  16  17
HETATM   17  N1  UNL     1     -22.390 -24.996 -13.501  1.00  0.00    -0.077 N 
ATOM     18  H13 UNL     1     -21.760 -24.405 -12.959  1.00  0.00     0.274 HD
ATOM     19  H12 UNL     1     -22.317 -24.530 -14.405  1.00  0.00     0.274 HD
ATOM     20  H11 UNL     1     -23.343 -24.942 -13.140  1.00  0.00     0.274 HD
ENDBRANCH  16  17
ENDBRANCH   6  16
TORSDOF 3
ENDMDL
MODEL 2
REMARK VINA RESULT: -5.284523612      1.817      2.700
REMARK  3 active torsions:
REMARK  status: ('A' for Active; 'I' for Inactive)
REMARK    1  A    between atoms: C5_5  and  C11_19 
REMARK    2  A    between atoms: C6_6  and  C7_7 
REMARK    3  A    between atoms: C7_7  and  N1_8 
ROOT
HETATM    1  C1  UNL     1     -15.782 -30.020 -15.650  1.00  0.00     0.019 C 
HETATM    2  C2  UNL     1     -16.570 -28.948 -14.998  1.00  0.00    -0.001 A 
HETATM    3  C3  UNL     1     -17.222 -27.935 -15.928  1.00  0.00     0.020 C 
HETATM    4  C4  UNL     1     -18.382 -27.460 -15.131  1.00  0.00     0.027 C 
HETATM    5  C5  UNL     1     -18.020 -26.679 -13.900  1.00  0.00     0.029 C 
HETATM    6  C6  UNL     1     -19.129 -27.088 -12.944  1.00  0.00     0.216 C 
HETATM    7  N2  UNL     1     -19.744 -28.262 -13.469  1.00  0.00    -0.061 N 
ATOM      8  H21 UNL     1     -20.702 -28.107 -13.784  1.00  0.00     0.278 HD
ATOM      9  H22 UNL     1     -19.954 -28.959 -12.754  1.00  0.00     0.278 HD
HETATM   10  C8  UNL     1     -18.886 -28.757 -14.501  1.00  0.00     0.231 C 
HETATM   11  C9  UNL     1     -17.614 -29.364 -14.003  1.00  0.00     0.144 A 
HETATM   12  F1  UNL     1     -17.655 -30.697 -13.704  1.00  0.00    -0.239 F 
HETATM   13  C10 UNL     1     -16.922 -28.587 -12.942  1.00  0.00     0.038 A 
HETATM   14  C11 UNL     1     -16.722 -27.131 -13.269  1.00  0.00     0.005 A 
HETATM   15  C12 UNL     1     -15.888 -28.182 -13.886  1.00  0.00     0.010 A 
ENDROOT
BRANCH   6  16
HETATM   16  C7  UNL     1     -20.089 -25.934 -12.775  1.00  0.00     0.263 C 
BRANCH  16  17
HETATM   17  N1  UNL     1     -19.772 -25.106 -11.649  1.00  0.00    -0.077 N 
ATOM     18  H13 UNL     1     -18.769 -24.925 -11.600  1.00  0.00     0.274 HD
ATOM     19  H12 UNL     1     -20.105 -24.153 -11.791  1.00  0.00     0.274 HD
ATOM     20  H11 UNL     1     -20.118 -25.485 -10.768  1.00  0.00     0.274 HD
ENDBRANCH  16  17
ENDBRANCH   6  16
TORSDOF 3
ENDMDL
MODEL 3
REMARK VINA RESULT: -5.243403880      1.862      2.858
REMARK  3 active torsions:
REMARK  status: ('A' for Active; 'I' for Inactive)
REMARK    1  A    between atoms: C5_5  and  C11_19 
REMARK    2  A    between atoms: C6_6  and  C7_7 
REMARK    3  A    between atoms: C7_7  and  N1_8 
ROOT
HETATM    1  C1  UNL     1     -14.120 -29.752 -13.817  1.00  0.00     0.019 C 
HETATM    2  C2  UNL     1     -15.419 -29.077 -14.049  1.00  0.00    -0.001 A 
HETATM    3  C3  UNL     1     -15.971 -29.154 -15.466  1.00  0.00     0.020 C 
HETATM    4  C4  UNL     1     -17.434 -29.018 -15.252  1.00  0.00     0.027 C 
HETATM    5  C5  UNL     1     -17.872 -27.677 -14.739  1.00  0.00     0.029 C 
HETATM    6  C6  UNL     1     -19.045 -28.060 -13.850  1.00  0.00     0.216 C 
HETATM    7  N2  UNL     1     -18.958 -29.460 -13.596  1.00  0.00    -0.061 N 
ATOM      8  H21 UNL     1     -19.709 -29.995 -14.033  1.00  0.00     0.278 HD
ATOM      9  H22 UNL     1     -19.170 -29.706 -12.629  1.00  0.00     0.278 HD
HETATM   10  C8  UNL     1     -17.655 -29.879 -14.010  1.00  0.00     0.231 C 
HETATM   11  C9  UNL     1     -16.549 -29.413 -13.120  1.00  0.00     0.144 A 
HETATM   12  F1  UNL     1     -16.233 -30.226 -12.068  1.00  0.00    -0.239 F 
HETATM   13  C10 UNL     1     -16.637 -27.989 -12.704  1.00  0.00     0.038 A 
HETATM   14  C11 UNL     1     -16.849 -27.022 -13.837  1.00  0.00     0.005 A 
HETATM   15  C12 UNL     1     -15.531 -27.641 -13.587  1.00  0.00     0.010 A 
ENDROOT
BRANCH   6  16
HETATM   16  C7  UNL     1     -20.333 -27.653 -14.527  1.00  0.00     0.263 C 
BRANCH  16  17
HETATM   17  N1  UNL     1     -20.938 -26.501 -13.926  1.00  0.00    -0.077 N 
ATOM     18  H13 UNL     1     -21.011 -25.735 -14.596  1.00  0.00     0.274 HD
ATOM     19  H12 UNL     1     -21.929 -26.661 -13.747  1.00  0.00     0.274 HD
ATOM     20  H11 UNL     1     -20.458 -26.199 -13.078  1.00  0.00     0.274 HD
ENDBRANCH  16  17
ENDBRANCH   6  16
TORSDOF 3
ENDMDL
MODEL 4
REMARK VINA RESULT: -5.076026059      2.783      4.335
REMARK  3 active torsions:
REMARK  status: ('A' for Active; 'I' for Inactive)
REMARK    1  A    between atoms: C5_5  and  C11_19 
REMARK    2  A    between atoms: C6_6  and  C7_7 
REMARK    3  A    between atoms: C7_7  and  N1_8 
ROOT
HETATM    1  C1  UNL     1     -18.741 -26.186 -12.209  1.00  0.00     0.019 C 
HETATM    2  C2  UNL     1     -18.106 -27.163 -13.127  1.00  0.00    -0.001 A 
HETATM    3  C3  UNL     1     -16.875 -27.881 -12.594  1.00  0.00     0.020 C 
HETATM    4  C4  UNL     1     -16.881 -29.151 -13.364  1.00  0.00     0.027 C 
HETATM    5  C5  UNL     1     -16.630 -28.992 -14.836  1.00  0.00     0.029 C 
HETATM    6  C6  UNL     1     -17.498 -30.099 -15.414  1.00  0.00     0.216 C 
HETATM    7  N2  UNL     1     -18.416 -30.503 -14.401  1.00  0.00    -0.061 N 
ATOM      8  H21 UNL     1     -18.244 -31.448 -14.057  1.00  0.00     0.278 HD
ATOM      9  H22 UNL     1     -19.359 -30.665 -14.756  1.00  0.00     0.278 HD
HETATM   10  C8  UNL     1     -18.365 -29.512 -13.371  1.00  0.00     0.231 C 
HETATM   11  C9  UNL     1     -18.990 -28.207 -13.744  1.00  0.00     0.144 A 
HETATM   12  F1  UNL     1     -20.327 -28.081 -13.491  1.00  0.00    -0.239 F 
HETATM   13  C10 UNL     1     -18.641 -27.709 -15.100  1.00  0.00     0.038 A 
HETATM   14  C11 UNL     1     -17.165 -27.693 -15.395  1.00  0.00     0.005 A 
HETATM   15  C12 UNL     1     -17.789 -26.676 -14.524  1.00  0.00     0.010 A 
ENDROOT
BRANCH   6  16
HETATM   16  C7  UNL     1     -16.611 -31.221 -15.901  1.00  0.00     0.263 C 
BRANCH  16  17
HETATM   17  N1  UNL     1     -15.313 -30.770 -16.304  1.00  0.00    -0.077 N 
ATOM     18  H13 UNL     1     -15.357 -29.827 -16.691  1.00  0.00     0.274 HD
ATOM     19  H12 UNL     1     -14.722 -30.588 -15.493  1.00  0.00     0.274 HD
ATOM     20  H11 UNL     1     -14.854 -31.409 -16.953  1.00  0.00     0.274 HD
ENDBRANCH  16  17
ENDBRANCH   6  16
TORSDOF 3
ENDMDL
MODEL 5
REMARK VINA RESULT: -5.037856497      2.852      3.728
REMARK  3 active torsions:
REMARK  status: ('A' for Active; 'I' for Inactive)
REMARK    1  A    between atoms: C5_5  and  C11_19 
REMARK    2  A    between atoms: C6_6  and  C7_7 
REMARK    3  A    between atoms: C7_7  and  N1_8 
ROOT
HETATM    1  C1  UNL     1     -17.899 -31.081 -15.764  1.00  0.00     0.019 C 
HETATM    2  C2  UNL     1     -17.661 -29.934 -14.855  1.00  0.00    -0.001 A 
HETATM    3  C3  UNL     1     -17.557 -30.263 -13.373  1.00  0.00     0.020 C 
HETATM    4  C4  UNL     1     -16.715 -29.157 -12.852  1.00  0.00     0.027 C 
HETATM    5  C5  UNL     1     -17.357 -27.801 -12.904  1.00  0.00     0.029 C 
HETATM    6  C6  UNL     1     -16.159 -26.906 -13.181  1.00  0.00     0.216 C 
HETATM    7  N2  UNL     1     -15.095 -27.737 -13.643  1.00  0.00    -0.061 N 
ATOM      8  H21 UNL     1     -14.318 -27.795 -12.985  1.00  0.00     0.278 HD
ATOM      9  H22 UNL     1     -14.577 -27.328 -14.420  1.00  0.00     0.278 HD
HETATM   10  C8  UNL     1     -15.665 -29.011 -13.954  1.00  0.00     0.231 C 
HETATM   11  C9  UNL     1     -16.516 -29.019 -15.182  1.00  0.00     0.144 A 
HETATM   12  F1  UNL     1     -15.874 -29.267 -16.363  1.00  0.00    -0.239 F 
HETATM   13  C10 UNL     1     -17.457 -27.875 -15.301  1.00  0.00     0.038 A 
HETATM   14  C11 UNL     1     -18.298 -27.631 -14.077  1.00  0.00     0.005 A 
HETATM   15  C12 UNL     1     -18.586 -28.746 -15.002  1.00  0.00     0.010 A 
ENDROOT
BRANCH   6  16
HETATM   16  C7  UNL     1     -15.816 -26.134 -11.929  1.00  0.00     0.263 C 
BRANCH  16  17
HETATM   17  N1  UNL     1     -15.488 -24.764 -12.192  1.00  0.00    -0.077 N 
ATOM     18  H13 UNL     1     -14.774 -24.692 -12.917  1.00  0.00     0.274 HD
ATOM     19  H12 UNL     1     -16.256 -24.290 -12.667  1.00  0.00     0.274 HD
ATOM     20  H11 UNL     1     -15.209 -24.255 -11.353  1.00  0.00     0.274 HD
ENDBRANCH  16  17
ENDBRANCH   6  16
TORSDOF 3
ENDMDL
