MODEL 1
REMARK VINA RESULT: -6.344626436      0.000      0.000
REMARK  2 active torsions:
REMARK  status: ('A' for Active; 'I' for Inactive)
REMARK    1  A    between atoms: C2_2  and  C3_3 
REMARK    2  A    between atoms: C4_4  and  C5_5 
REMARK       I    between atoms: N2_10  and  C8_12 
ROOT
HETATM    1  C5  UNL     1     -19.646 -27.036 -14.110  1.00  0.00     0.169 C 
HETATM    2  F1  UNL     1     -19.428 -26.478 -15.377  1.00  0.00    -0.229 F 
HETATM    3  C6  UNL     1     -18.832 -26.257 -13.136  1.00  0.00     0.078 C 
HETATM    4  C7  UNL     1     -19.626 -25.775 -11.939  1.00  0.00     0.147 C 
HETATM    5  N1  UNL     1     -20.764 -25.045 -12.506  1.00  0.00    -0.325 N 
HETATM    6  N2  UNL     1     -20.876 -23.809 -12.309  1.00  0.00    -0.276 N 
ATOM      7  H2  UNL     1     -20.185 -23.300 -11.758  1.00  0.00     0.189 HD
HETATM    8  C8  UNL     1     -21.996 -23.140 -12.877  1.00  0.00     0.200 C 
HETATM    9  N3  UNL     1     -21.898 -22.597 -14.030  1.00  0.00    -0.372 N 
ATOM     10  H31 UNL     1     -22.701 -22.118 -14.437  1.00  0.00     0.158 HD
ATOM     11  H32 UNL     1     -21.041 -22.614 -14.583  1.00  0.00     0.158 HD
HETATM   12  N4  UNL     1     -23.190 -23.117 -12.107  1.00  0.00    -0.062 NA
HETATM   13  C9  UNL     1     -21.697 -25.837 -13.274  1.00  0.00     0.147 C 
HETATM   14  C10 UNL     1     -21.100 -27.073 -13.852  1.00  0.00     0.078 C 
ENDROOT
BRANCH   1  15
HETATM   15  C4  UNL     1     -19.107 -28.407 -14.193  1.00  0.00    -0.063 C 
HETATM   16  C3  UNL     1     -18.653 -29.522 -14.276  1.00  0.00    -0.104 C 
BRANCH  16  17
HETATM   17  C2  UNL     1     -18.086 -30.880 -14.400  1.00  0.00     0.089 C 
HETATM   18  C1  UNL     1     -17.860 -31.243 -15.852  1.00  0.00     0.018 C 
ENDBRANCH  16  17
ENDBRANCH   1  15
TORSDOF 2
ENDMDL
MODEL 2
REMARK VINA RESULT: -5.853236915      3.673      6.409
REMARK  2 active torsions:
REMARK  status: ('A' for Active; 'I' for Inactive)
REMARK    1  A    between atoms: C2_2  and  C3_3 
REMARK    2  A    between atoms: C4_4  and  C5_5 
REMARK       I    between atoms: N2_10  and  C8_12 
ROOT
HETATM    1  C5  UNL     1     -19.718 -27.085 -13.466  1.00  0.00     0.169 C 
HETATM    2  F1  UNL     1     -20.247 -28.227 -12.850  1.00  0.00    -0.229 F 
HETATM    3  C6  UNL     1     -18.495 -26.698 -12.708  1.00  0.00     0.078 C 
HETATM    4  C7  UNL     1     -17.281 -26.492 -13.590  1.00  0.00     0.147 C 
HETATM    5  N1  UNL     1     -17.156 -27.734 -14.360  1.00  0.00    -0.325 N 
HETATM    6  N2  UNL     1     -16.153 -28.474 -14.196  1.00  0.00    -0.276 N 
ATOM      7  H2  UNL     1     -15.420 -28.224 -13.532  1.00  0.00     0.189 HD
HETATM    8  C8  UNL     1     -16.071 -29.668 -14.964  1.00  0.00     0.200 C 
HETATM    9  N3  UNL     1     -16.525 -30.765 -14.489  1.00  0.00    -0.372 N 
ATOM     10  H31 UNL     1     -16.466 -31.621 -15.040  1.00  0.00     0.158 HD
ATOM     11  H32 UNL     1     -16.955 -30.837 -13.567  1.00  0.00     0.158 HD
HETATM   12  N4  UNL     1     -15.473 -29.568 -16.248  1.00  0.00    -0.062 NA
HETATM   13  C9  UNL     1     -18.235 -28.015 -15.277  1.00  0.00     0.147 C 
HETATM   14  C10 UNL     1     -19.524 -27.367 -14.903  1.00  0.00     0.078 C 
ENDROOT
BRANCH   1  15
HETATM   15  C4  UNL     1     -20.742 -26.038 -13.286  1.00  0.00    -0.063 C 
HETATM   16  C3  UNL     1     -21.581 -25.188 -13.117  1.00  0.00    -0.104 C 
BRANCH  16  17
HETATM   17  C2  UNL     1     -22.615 -24.157 -12.890  1.00  0.00     0.089 C 
HETATM   18  C1  UNL     1     -21.985 -22.813 -12.597  1.00  0.00     0.018 C 
ENDBRANCH  16  17
ENDBRANCH   1  15
TORSDOF 2
ENDMDL
MODEL 3
REMARK VINA RESULT: -5.315337025      4.246      6.776
REMARK  2 active torsions:
REMARK  status: ('A' for Active; 'I' for Inactive)
REMARK    1  A    between atoms: C2_2  and  C3_3 
REMARK    2  A    between atoms: C4_4  and  C5_5 
REMARK       I    between atoms: N2_10  and  C8_12 
ROOT
HETATM    1  C5  UNL     1     -18.955 -27.667 -14.703  1.00  0.00     0.169 C 
HETATM    2  F1  UNL     1     -19.012 -27.427 -16.083  1.00  0.00    -0.229 F 
HETATM    3  C6  UNL     1     -19.267 -29.108 -14.490  1.00  0.00     0.078 C 
HETATM    4  C7  UNL     1     -18.249 -29.823 -13.626  1.00  0.00     0.147 C 
HETATM    5  N1  UNL     1     -16.957 -29.566 -14.271  1.00  0.00    -0.325 N 
HETATM    6  N2  UNL     1     -16.304 -30.520 -14.765  1.00  0.00    -0.276 N 
ATOM      7  H2  UNL     1     -16.658 -31.475 -14.726  1.00  0.00     0.189 HD
HETATM    8  C8  UNL     1     -15.055 -30.226 -15.381  1.00  0.00     0.200 C 
HETATM    9  N3  UNL     1     -15.001 -29.993 -16.636  1.00  0.00    -0.372 N 
ATOM     10  H31 UNL     1     -14.106 -29.783 -17.077  1.00  0.00     0.158 HD
ATOM     11  H32 UNL     1     -15.822 -30.006 -17.241  1.00  0.00     0.158 HD
HETATM   12  N4  UNL     1     -13.911 -30.209 -14.538  1.00  0.00    -0.062 NA
HETATM   13  C9  UNL     1     -16.527 -28.188 -14.286  1.00  0.00     0.147 C 
HETATM   14  C10 UNL     1     -17.646 -27.209 -14.195  1.00  0.00     0.078 C 
ENDROOT
BRANCH   1  15
HETATM   15  C4  UNL     1     -20.041 -26.853 -14.123  1.00  0.00    -0.063 C 
HETATM   16  C3  UNL     1     -20.941 -26.205 -13.650  1.00  0.00    -0.104 C 
BRANCH  16  17
HETATM   17  C2  UNL     1     -22.059 -25.429 -13.075  1.00  0.00     0.089 C 
HETATM   18  C1  UNL     1     -21.602 -24.048 -12.658  1.00  0.00     0.018 C 
ENDBRANCH  16  17
ENDBRANCH   1  15
TORSDOF 2
ENDMDL
MODEL 4
REMARK VINA RESULT: -5.249578212      3.871      6.597
REMARK  2 active torsions:
REMARK  status: ('A' for Active; 'I' for Inactive)
REMARK    1  A    between atoms: C2_2  and  C3_3 
REMARK    2  A    between atoms: C4_4  and  C5_5 
REMARK       I    between atoms: N2_10  and  C8_12 
ROOT
HETATM    1  C5  UNL     1     -19.015 -26.938 -13.058  1.00  0.00     0.169 C 
HETATM    2  F1  UNL     1     -18.456 -27.017 -11.775  1.00  0.00    -0.229 F 
HETATM    3  C6  UNL     1     -17.992 -26.326 -13.951  1.00  0.00     0.078 C 
HETATM    4  C7  UNL     1     -17.743 -27.121 -15.216  1.00  0.00     0.147 C 
HETATM    5  N1  UNL     1     -17.421 -28.476 -14.756  1.00  0.00    -0.325 N 
HETATM    6  N2  UNL     1     -16.275 -28.951 -14.960  1.00  0.00    -0.276 N 
ATOM      7  H2  UNL     1     -15.561 -28.407 -15.444  1.00  0.00     0.189 HD
HETATM    8  C8  UNL     1     -16.006 -30.269 -14.497  1.00  0.00     0.200 C 
HETATM    9  N3  UNL     1     -15.495 -30.447 -13.340  1.00  0.00    -0.372 N 
ATOM     10  H31 UNL     1     -15.302 -31.392 -13.008  1.00  0.00     0.158 HD
ATOM     11  H32 UNL     1     -15.262 -29.680 -12.709  1.00  0.00     0.158 HD
HETATM   12  N4  UNL     1     -16.331 -31.338 -15.375  1.00  0.00    -0.062 NA
HETATM   13  C9  UNL     1     -18.487 -29.179 -14.080  1.00  0.00     0.147 C 
HETATM   14  C10 UNL     1     -19.494 -28.279 -13.451  1.00  0.00     0.078 C 
ENDROOT
BRANCH   1  15
HETATM   15  C4  UNL     1     -20.153 -26.007 -12.928  1.00  0.00    -0.063 C 
HETATM   16  C3  UNL     1     -21.095 -25.263 -12.816  1.00  0.00    -0.104 C 
BRANCH  16  17
HETATM   17  C2  UNL     1     -22.265 -24.371 -12.678  1.00  0.00     0.089 C 
HETATM   18  C1  UNL     1     -21.836 -22.920 -12.624  1.00  0.00     0.018 C 
ENDBRANCH  16  17
ENDBRANCH   1  15
TORSDOF 2
ENDMDL
MODEL 5
REMARK VINA RESULT: -5.208919211      4.599      7.143
REMARK  2 active torsions:
REMARK  status: ('A' for Active; 'I' for Inactive)
REMARK    1  A    between atoms: C2_2  and  C3_3 
REMARK    2  A    between atoms: C4_4  and  C5_5 
REMARK       I    between atoms: N2_10  and  C8_12 
ROOT
HETATM    1  C5  UNL     1     -17.968 -27.688 -14.306  1.00  0.00     0.169 C 
HETATM    2  F1  UNL     1     -17.354 -26.815 -15.215  1.00  0.00    -0.229 F 
HETATM    3  C6  UNL     1     -18.832 -28.611 -15.093  1.00  0.00     0.078 C 
HETATM    4  C7  UNL     1     -18.598 -30.073 -14.774  1.00  0.00     0.147 C 
HETATM    5  N1  UNL     1     -17.158 -30.276 -14.961  1.00  0.00    -0.325 N 
HETATM    6  N2  UNL     1     -16.746 -31.038 -15.872  1.00  0.00    -0.276 N 
ATOM      7  H2  UNL     1     -17.400 -31.521 -16.488  1.00  0.00     0.189 HD
HETATM    8  C8  UNL     1     -15.341 -31.207 -16.018  1.00  0.00     0.200 C 
HETATM    9  N3  UNL     1     -14.688 -30.460 -16.824  1.00  0.00    -0.372 N 
ATOM     10  H31 UNL     1     -13.681 -30.581 -16.929  1.00  0.00     0.158 HD
ATOM     11  H32 UNL     1     -15.126 -29.730 -17.385  1.00  0.00     0.158 HD
HETATM   12  N4  UNL     1     -14.731 -32.225 -15.237  1.00  0.00    -0.062 NA
HETATM   13  C9  UNL     1     -16.299 -29.556 -14.050  1.00  0.00     0.147 C 
HETATM   14  C10 UNL     1     -16.922 -28.328 -13.482  1.00  0.00     0.078 C 
ENDROOT
BRANCH   1  15
HETATM   15  C4  UNL     1     -18.826 -26.830 -13.466  1.00  0.00    -0.063 C 
HETATM   16  C3  UNL     1     -19.539 -26.124 -12.796  1.00  0.00    -0.104 C 
BRANCH  16  17
HETATM   17  C2  UNL     1     -20.422 -25.250 -11.997  1.00  0.00     0.089 C 
HETATM   18  C1  UNL     1     -21.722 -24.984 -12.724  1.00  0.00     0.018 C 
ENDBRANCH  16  17
ENDBRANCH   1  15
TORSDOF 2
ENDMDL
