MODEL 1
REMARK VINA RESULT: -4.996707201      0.000      0.000
REMARK  2 active torsions:
REMARK  status: ('A' for Active; 'I' for Inactive)
REMARK    1  A    between atoms: N1_1  and  C1_5 
REMARK    2  A    between atoms: S1_13  and  C6_14 
ROOT
HETATM    1  C1  UNL     1     -20.223 -25.111 -11.957  1.00  0.00     0.184 C 
HETATM    2  C2  UNL     1     -21.479 -25.668 -12.510  1.00  0.00     0.034 C 
HETATM    3  C3  UNL     1     -21.380 -26.210 -13.908  1.00  0.00     0.036 C 
HETATM    4  C4  UNL     1     -20.159 -26.960 -14.204  1.00  0.00     0.200 C 
HETATM    5  N2  UNL     1     -20.311 -28.298 -14.662  1.00  0.00    -0.062 N 
ATOM      6  H21 UNL     1     -20.988 -28.411 -15.416  1.00  0.00     0.278 HD
ATOM      7  H22 UNL     1     -20.779 -28.918 -14.001  1.00  0.00     0.278 HD
HETATM    8  C5  UNL     1     -18.939 -28.706 -15.011  1.00  0.00     0.297 C 
HETATM    9  S1  UNL     1     -18.036 -28.119 -13.569  1.00  0.00    -0.174 SA
HETATM   10  C7  UNL     1     -19.386 -27.148 -12.887  1.00  0.00     0.072 C 
HETATM   11  C8  UNL     1     -18.965 -25.780 -12.482  1.00  0.00     0.049 C 
ENDROOT
BRANCH   1  12
HETATM   12  N1  UNL     1     -20.133 -23.668 -12.055  1.00  0.00    -0.075 N 
ATOM     13  H13 UNL     1     -20.773 -23.222 -11.398  1.00  0.00     0.274 HD
ATOM     14  H12 UNL     1     -19.245 -23.337 -11.679  1.00  0.00     0.274 HD
ATOM     15  H11 UNL     1     -20.280 -23.310 -12.999  1.00  0.00     0.274 HD
ENDBRANCH   1  12
BRANCH   9  16
HETATM   16  C6  UNL     1     -16.767 -27.028 -14.170  1.00  0.00     0.179 C 
HETATM   17 CL1  UNL     1     -15.282 -27.174 -13.218  1.00  0.00    -0.120 Cl
ENDBRANCH   9  16
TORSDOF 2
ENDMDL
MODEL 2
REMARK VINA RESULT: -4.702337081      1.894      2.523
REMARK  2 active torsions:
REMARK  status: ('A' for Active; 'I' for Inactive)
REMARK    1  A    between atoms: N1_1  and  C1_5 
REMARK    2  A    between atoms: S1_13  and  C6_14 
ROOT
HETATM    1  C1  UNL     1     -20.569 -26.752 -13.455  1.00  0.00     0.184 C 
HETATM    2  C2  UNL     1     -20.484 -27.687 -14.600  1.00  0.00     0.034 C 
HETATM    3  C3  UNL     1     -19.220 -27.602 -15.407  1.00  0.00     0.036 C 
HETATM    4  C4  UNL     1     -17.992 -27.423 -14.631  1.00  0.00     0.200 C 
HETATM    5  N2  UNL     1     -16.967 -28.393 -14.801  1.00  0.00    -0.062 N 
ATOM      6  H21 UNL     1     -16.745 -28.606 -15.773  1.00  0.00     0.278 HD
ATOM      7  H22 UNL     1     -17.239 -29.341 -14.542  1.00  0.00     0.278 HD
HETATM    8  C5  UNL     1     -15.840 -27.851 -14.024  1.00  0.00     0.297 C 
HETATM    9  S1  UNL     1     -16.678 -27.371 -12.504  1.00  0.00    -0.174 SA
HETATM   10  C7  UNL     1     -18.346 -27.574 -13.141  1.00  0.00     0.072 C 
HETATM   11  C8  UNL     1     -19.227 -26.416 -12.829  1.00  0.00     0.049 C 
ENDROOT
BRANCH   1  12
HETATM   12  N1  UNL     1     -21.334 -25.553 -13.737  1.00  0.00    -0.075 N 
ATOM     13  H13 UNL     1     -21.163 -25.234 -14.690  1.00  0.00     0.274 HD
ATOM     14  H12 UNL     1     -22.328 -25.769 -13.804  1.00  0.00     0.274 HD
ATOM     15  H11 UNL     1     -21.173 -24.798 -13.070  1.00  0.00     0.274 HD
ENDBRANCH   1  12
BRANCH   9  16
HETATM   16  C6  UNL     1     -16.343 -25.642 -12.260  1.00  0.00     0.179 C 
HETATM   17 CL1  UNL     1     -16.006 -24.825 -13.794  1.00  0.00    -0.120 Cl
ENDBRANCH   9  16
TORSDOF 2
ENDMDL
MODEL 3
REMARK VINA RESULT: -4.646763152      1.310      1.350
REMARK  2 active torsions:
REMARK  status: ('A' for Active; 'I' for Inactive)
REMARK    1  A    between atoms: N1_1  and  C1_5 
REMARK    2  A    between atoms: S1_13  and  C6_14 
ROOT
HETATM    1  C1  UNL     1     -21.242 -24.644 -12.394  1.00  0.00     0.184 C 
HETATM    2  C2  UNL     1     -22.060 -25.744 -12.954  1.00  0.00     0.034 C 
HETATM    3  C3  UNL     1     -21.393 -26.557 -14.027  1.00  0.00     0.036 C 
HETATM    4  C4  UNL     1     -19.980 -26.859 -13.798  1.00  0.00     0.200 C 
HETATM    5  N2  UNL     1     -19.601 -28.230 -13.781  1.00  0.00    -0.062 N 
ATOM      6  H21 UNL     1     -19.957 -28.775 -14.566  1.00  0.00     0.278 HD
ATOM      7  H22 UNL     1     -20.051 -28.782 -13.052  1.00  0.00     0.278 HD
HETATM    8  C5  UNL     1     -18.131 -28.185 -13.689  1.00  0.00     0.297 C 
HETATM    9  S1  UNL     1     -17.912 -26.954 -12.394  1.00  0.00    -0.174 SA
HETATM   10  C7  UNL     1     -19.622 -26.401 -12.373  1.00  0.00     0.072 C 
HETATM   11  C8  UNL     1     -19.749 -24.919 -12.395  1.00  0.00     0.049 C 
ENDROOT
BRANCH   1  12
HETATM   12  N1  UNL     1     -21.539 -23.346 -12.968  1.00  0.00    -0.075 N 
ATOM     13  H13 UNL     1     -22.157 -23.443 -13.774  1.00  0.00     0.274 HD
ATOM     14  H12 UNL     1     -22.147 -22.810 -12.350  1.00  0.00     0.274 HD
ATOM     15  H11 UNL     1     -20.709 -22.807 -13.215  1.00  0.00     0.274 HD
ENDBRANCH   1  12
BRANCH   9  16
HETATM   16  C6  UNL     1     -16.884 -25.673 -13.076  1.00  0.00     0.179 C 
HETATM   17 CL1  UNL     1     -15.467 -25.371 -12.060  1.00  0.00    -0.120 Cl
ENDBRANCH   9  16
TORSDOF 2
ENDMDL
MODEL 4
REMARK VINA RESULT: -4.511893079      2.271      2.780
REMARK  2 active torsions:
REMARK  status: ('A' for Active; 'I' for Inactive)
REMARK    1  A    between atoms: N1_1  and  C1_5 
REMARK    2  A    between atoms: S1_13  and  C6_14 
ROOT
HETATM    1  C1  UNL     1     -17.263 -26.229 -12.445  1.00  0.00     0.184 C 
HETATM    2  C2  UNL     1     -18.734 -26.384 -12.375  1.00  0.00     0.034 C 
HETATM    3  C3  UNL     1     -19.375 -26.982 -13.595  1.00  0.00     0.036 C 
HETATM    4  C4  UNL     1     -18.641 -28.089 -14.210  1.00  0.00     0.200 C 
HETATM    5  N2  UNL     1     -19.325 -29.328 -14.347  1.00  0.00    -0.062 N 
ATOM      6  H21 UNL     1     -20.257 -29.251 -14.754  1.00  0.00     0.278 HD
ATOM      7  H22 UNL     1     -19.625 -29.743 -13.466  1.00  0.00     0.278 HD
HETATM    8  C5  UNL     1     -18.390 -30.159 -15.124  1.00  0.00     0.297 C 
HETATM    9  S1  UNL     1     -16.847 -29.831 -14.256  1.00  0.00    -0.174 SA
HETATM   10  C7  UNL     1     -17.474 -28.459 -13.277  1.00  0.00     0.072 C 
HETATM   11  C8  UNL     1     -16.569 -27.279 -13.295  1.00  0.00     0.049 C 
ENDROOT
BRANCH   1  12
HETATM   12  N1  UNL     1     -16.834 -24.892 -12.806  1.00  0.00    -0.075 N 
ATOM     13  H13 UNL     1     -17.018 -24.708 -13.792  1.00  0.00     0.274 HD
ATOM     14  H12 UNL     1     -17.445 -24.192 -12.385  1.00  0.00     0.274 HD
ATOM     15  H11 UNL     1     -15.858 -24.699 -12.580  1.00  0.00     0.274 HD
ENDBRANCH   1  12
BRANCH   9  16
HETATM   16  C6  UNL     1     -15.700 -29.219 -15.468  1.00  0.00     0.179 C 
HETATM   17 CL1  UNL     1     -15.093 -30.520 -16.502  1.00  0.00    -0.120 Cl
ENDBRANCH   9  16
TORSDOF 2
ENDMDL
MODEL 5
REMARK VINA RESULT: -4.357457668      2.278      4.115
REMARK  2 active torsions:
REMARK  status: ('A' for Active; 'I' for Inactive)
REMARK    1  A    between atoms: N1_1  and  C1_5 
REMARK    2  A    between atoms: S1_13  and  C6_14 
ROOT
HETATM    1  C1  UNL     1     -18.386 -28.694 -14.811  1.00  0.00     0.184 C 
HETATM    2  C2  UNL     1     -19.149 -27.436 -14.649  1.00  0.00     0.034 C 
HETATM    3  C3  UNL     1     -18.946 -26.725 -13.341  1.00  0.00     0.036 C 
HETATM    4  C4  UNL     1     -17.569 -26.710 -12.844  1.00  0.00     0.200 C 
HETATM    5  N2  UNL     1     -16.981 -25.440 -12.594  1.00  0.00    -0.062 N 
ATOM      6  H21 UNL     1     -17.562 -24.807 -12.046  1.00  0.00     0.278 HD
ATOM      7  H22 UNL     1     -16.910 -24.840 -13.415  1.00  0.00     0.278 HD
HETATM    8  C5  UNL     1     -15.688 -25.771 -11.970  1.00  0.00     0.297 C 
HETATM    9  S1  UNL     1     -15.105 -27.070 -13.071  1.00  0.00    -0.174 SA
HETATM   10  C7  UNL     1     -16.661 -27.284 -13.946  1.00  0.00     0.072 C 
HETATM   11  C8  UNL     1     -17.057 -28.712 -14.076  1.00  0.00     0.049 C 
ENDROOT
BRANCH   1  12
HETATM   12  N1  UNL     1     -19.160 -29.887 -14.529  1.00  0.00    -0.075 N 
ATOM     13  H13 UNL     1     -20.155 -29.670 -14.497  1.00  0.00     0.274 HD
ATOM     14  H12 UNL     1     -19.149 -30.520 -15.328  1.00  0.00     0.274 HD
ATOM     15  H11 UNL     1     -18.870 -30.373 -13.681  1.00  0.00     0.274 HD
ENDBRANCH   1  12
BRANCH   9  16
HETATM   16  C6  UNL     1     -14.794 -28.497 -12.058  1.00  0.00     0.179 C 
HETATM   17 CL1  UNL     1     -15.436 -28.283 -10.422  1.00  0.00    -0.120 Cl
ENDBRANCH   9  16
TORSDOF 2
ENDMDL
