MODEL 1
REMARK VINA RESULT: -5.587940826      0.000      0.000
REMARK  1 active torsions:
REMARK  status: ('A' for Active; 'I' for Inactive)
REMARK    1  A    between atoms: C3_3  and  C4_5 
REMARK       I    between atoms: N1_8  and  C7_9 
ROOT
HETATM    1  C1  UNL     1     -20.114 -21.453 -11.974  1.00  0.00     0.013 C 
HETATM    2  C2  UNL     1     -20.883 -22.261 -12.442  1.00  0.00    -0.097 C 
HETATM    3  C3  UNL     1     -21.825 -23.231 -13.026  1.00  0.00     0.164 C 
HETATM    4 CL1  UNL     1     -23.275 -23.389 -12.010  1.00  0.00    -0.111 Cl
ENDROOT
BRANCH   3   5
HETATM    5  C4  UNL     1     -21.161 -24.576 -13.194  1.00  0.00     0.019 C 
HETATM    6  C5  UNL     1     -22.130 -25.623 -13.648  1.00  0.00     0.027 C 
HETATM    7  C6  UNL     1     -21.516 -26.974 -13.381  1.00  0.00     0.126 C 
HETATM    8  N1  UNL     1     -20.057 -26.901 -13.359  1.00  0.00    -0.356 N 
HETATM    9  C7  UNL     1     -19.262 -27.687 -14.225  1.00  0.00     0.183 C 
HETATM   10  C8  UNL     1     -19.348 -26.013 -12.443  1.00  0.00     0.126 C 
HETATM   11  N2  UNL     1     -19.181 -27.375 -15.467  1.00  0.00    -0.374 N 
HETATM   12  N3  UNL     1     -18.561 -28.806 -13.741  1.00  0.00    -0.064 NA
ATOM     13  H22 UNL     1     -19.689 -26.563 -15.818  1.00  0.00     0.158 HD
ATOM     14  H21 UNL     1     -18.608 -27.942 -16.091  1.00  0.00     0.158 HD
HETATM   15  C9  UNL     1     -20.360 -24.980 -11.992  1.00  0.00     0.027 C 
ENDBRANCH   3   5
TORSDOF 1
ENDMDL
MODEL 2
REMARK VINA RESULT: -5.569627207      3.169      4.851
REMARK  1 active torsions:
REMARK  status: ('A' for Active; 'I' for Inactive)
REMARK    1  A    between atoms: C3_3  and  C4_5 
REMARK       I    between atoms: N1_8  and  C7_9 
ROOT
HETATM    1  C1  UNL     1     -15.763 -25.475 -13.112  1.00  0.00     0.013 C 
HETATM    2  C2  UNL     1     -16.725 -26.161 -13.372  1.00  0.00    -0.097 C 
HETATM    3  C3  UNL     1     -17.886 -27.013 -13.679  1.00  0.00     0.164 C 
HETATM    4 CL1  UNL     1     -17.876 -27.498 -15.389  1.00  0.00    -0.111 Cl
ENDROOT
BRANCH   3   5
HETATM    5  C4  UNL     1     -19.171 -26.291 -13.354  1.00  0.00     0.019 C 
HETATM    6  C5  UNL     1     -19.174 -25.760 -11.954  1.00  0.00     0.027 C 
HETATM    7  C6  UNL     1     -20.600 -25.450 -11.575  1.00  0.00     0.126 C 
HETATM    8  N1  UNL     1     -21.415 -25.170 -12.755  1.00  0.00    -0.356 N 
HETATM    9  C7  UNL     1     -22.114 -23.948 -12.900  1.00  0.00     0.183 C 
HETATM   10  C8  UNL     1     -21.550 -26.136 -13.840  1.00  0.00     0.126 C 
HETATM   11  N2  UNL     1     -21.464 -22.880 -13.191  1.00  0.00    -0.374 N 
HETATM   12  N3  UNL     1     -23.508 -23.891 -12.729  1.00  0.00    -0.064 NA
ATOM     13  H22 UNL     1     -20.453 -22.921 -13.316  1.00  0.00     0.158 HD
ATOM     14  H21 UNL     1     -21.968 -22.000 -13.296  1.00  0.00     0.158 HD
HETATM   15  C9  UNL     1     -20.390 -27.099 -13.691  1.00  0.00     0.027 C 
ENDBRANCH   3   5
TORSDOF 1
ENDMDL
MODEL 3
REMARK VINA RESULT: -5.090387473      2.985      4.694
REMARK  1 active torsions:
REMARK  status: ('A' for Active; 'I' for Inactive)
REMARK    1  A    between atoms: C3_3  and  C4_5 
REMARK       I    between atoms: N1_8  and  C7_9 
ROOT
HETATM    1  C1  UNL     1     -20.425 -25.340 -12.284  1.00  0.00     0.013 C 
HETATM    2  C2  UNL     1     -19.306 -25.793 -12.355  1.00  0.00    -0.097 C 
HETATM    3  C3  UNL     1     -17.941 -26.343 -12.421  1.00  0.00     0.164 C 
HETATM    4 CL1  UNL     1     -16.822 -25.162 -13.137  1.00  0.00    -0.111 Cl
ENDROOT
BRANCH   3   5
HETATM    5  C4  UNL     1     -17.925 -27.622 -13.221  1.00  0.00     0.019 C 
HETATM    6  C5  UNL     1     -16.584 -28.286 -13.184  1.00  0.00     0.027 C 
HETATM    7  C6  UNL     1     -16.525 -29.282 -14.315  1.00  0.00     0.126 C 
HETATM    8  N1  UNL     1     -17.860 -29.740 -14.691  1.00  0.00    -0.356 N 
HETATM    9  C7  UNL     1     -18.207 -31.111 -14.670  1.00  0.00     0.183 C 
HETATM   10  C8  UNL     1     -18.901 -28.806 -15.109  1.00  0.00     0.126 C 
HETATM   11  N2  UNL     1     -18.409 -31.694 -13.545  1.00  0.00    -0.374 N 
HETATM   12  N3  UNL     1     -18.331 -31.841 -15.865  1.00  0.00    -0.064 NA
ATOM     13  H22 UNL     1     -18.319 -31.165 -12.677  1.00  0.00     0.158 HD
ATOM     14  H21 UNL     1     -18.659 -32.682 -13.529  1.00  0.00     0.158 HD
HETATM   15  C9  UNL     1     -18.468 -27.443 -14.609  1.00  0.00     0.027 C 
ENDBRANCH   3   5
TORSDOF 1
ENDMDL
MODEL 4
REMARK VINA RESULT: -4.939875083      3.175      4.802
REMARK  1 active torsions:
REMARK  status: ('A' for Active; 'I' for Inactive)
REMARK    1  A    between atoms: C3_3  and  C4_5 
REMARK       I    between atoms: N1_8  and  C7_9 
ROOT
HETATM    1  C1  UNL     1     -15.259 -27.164 -11.422  1.00  0.00     0.013 C 
HETATM    2  C2  UNL     1     -15.749 -26.593 -12.368  1.00  0.00    -0.097 C 
HETATM    3  C3  UNL     1     -16.331 -25.905 -13.534  1.00  0.00     0.164 C 
HETATM    4 CL1  UNL     1     -15.985 -24.163 -13.473  1.00  0.00    -0.111 Cl
ENDROOT
BRANCH   3   5
HETATM    5  C4  UNL     1     -17.821 -26.135 -13.593  1.00  0.00     0.019 C 
HETATM    6  C5  UNL     1     -18.416 -26.292 -12.228  1.00  0.00     0.027 C 
HETATM    7  C6  UNL     1     -19.774 -26.929 -12.381  1.00  0.00     0.126 C 
HETATM    8  N1  UNL     1     -20.346 -26.655 -13.697  1.00  0.00    -0.356 N 
HETATM    9  C7  UNL     1     -21.600 -26.018 -13.844  1.00  0.00     0.183 C 
HETATM   10  C8  UNL     1     -19.651 -27.026 -14.926  1.00  0.00     0.126 C 
HETATM   11  N2  UNL     1     -21.697 -24.757 -13.625  1.00  0.00    -0.374 N 
HETATM   12  N3  UNL     1     -22.739 -26.749 -14.223  1.00  0.00    -0.064 NA
ATOM     13  H22 UNL     1     -20.871 -24.226 -13.349  1.00  0.00     0.158 HD
ATOM     14  H21 UNL     1     -22.601 -24.298 -13.731  1.00  0.00     0.158 HD
HETATM   15  C9  UNL     1     -18.200 -27.234 -14.542  1.00  0.00     0.027 C 
ENDBRANCH   3   5
TORSDOF 1
ENDMDL
MODEL 5
REMARK VINA RESULT: -4.880452650      2.442      3.726
REMARK  1 active torsions:
REMARK  status: ('A' for Active; 'I' for Inactive)
REMARK    1  A    between atoms: C3_3  and  C4_5 
REMARK       I    between atoms: N1_8  and  C7_9 
ROOT
HETATM    1  C1  UNL     1     -22.838 -26.147 -14.068  1.00  0.00     0.013 C 
HETATM    2  C2  UNL     1     -21.849 -26.102 -13.373  1.00  0.00    -0.097 C 
HETATM    3  C3  UNL     1     -20.656 -26.052 -12.510  1.00  0.00     0.164 C 
HETATM    4 CL1  UNL     1     -20.237 -24.371 -12.112  1.00  0.00    -0.111 Cl
ENDROOT
BRANCH   3   5
HETATM    5  C4  UNL     1     -19.489 -26.732 -13.183  1.00  0.00     0.019 C 
HETATM    6  C5  UNL     1     -18.188 -26.074 -12.842  1.00  0.00     0.027 C 
HETATM    7  C6  UNL     1     -17.162 -26.515 -13.855  1.00  0.00     0.126 C 
HETATM    8  N1  UNL     1     -17.508 -27.812 -14.433  1.00  0.00    -0.356 N 
HETATM    9  C7  UNL     1     -16.626 -28.915 -14.361  1.00  0.00     0.183 C 
HETATM   10  C8  UNL     1     -18.780 -28.032 -15.113  1.00  0.00     0.126 C 
HETATM   11  N2  UNL     1     -16.482 -29.537 -13.248  1.00  0.00    -0.374 N 
HETATM   12  N3  UNL     1     -15.906 -29.335 -15.493  1.00  0.00    -0.064 NA
ATOM     13  H22 UNL     1     -17.004 -29.232 -12.427  1.00  0.00     0.158 HD
ATOM     14  H21 UNL     1     -15.845 -30.332 -13.197  1.00  0.00     0.158 HD
HETATM   15  C9  UNL     1     -19.699 -26.917 -14.657  1.00  0.00     0.027 C 
ENDBRANCH   3   5
TORSDOF 1
ENDMDL
