MODEL 1
REMARK VINA RESULT: -5.047152944      0.000      0.000
REMARK  2 active torsions:
REMARK  status: ('A' for Active; 'I' for Inactive)
REMARK    1  A    between atoms: C2_2  and  C3_3 
REMARK    2  A    between atoms: C3_3  and  N1_4 
REMARK       I    between atoms: C4_6  and  N3_8 
ROOT
HETATM    1  N1  UNL     1     -21.114 -25.057 -12.601  1.00  0.00    -0.365 N 
ATOM      2  H1  UNL     1     -20.276 -24.799 -12.080  1.00  0.00     0.162 HD
HETATM    3  C4  UNL     1     -21.039 -26.048 -13.429  1.00  0.00     0.186 C 
HETATM    4  N2  UNL     1     -22.223 -26.377 -14.134  1.00  0.00    -0.064 NA
HETATM    5  N3  UNL     1     -19.840 -26.770 -13.626  1.00  0.00    -0.352 N 
HETATM    6  C5  UNL     1     -19.878 -28.137 -14.094  1.00  0.00     0.156 C 
HETATM    7  C6  UNL     1     -18.655 -28.906 -13.662  1.00  0.00     0.291 C 
HETATM    8  N4  UNL     1     -17.426 -28.277 -14.032  1.00  0.00     0.087 N 
HETATM    9  C7  UNL     1     -16.405 -28.640 -13.079  1.00  0.00     0.310 C 
HETATM   10  C8  UNL     1     -17.521 -26.870 -14.278  1.00  0.00     0.291 C 
HETATM   11  C9  UNL     1     -18.537 -26.188 -13.373  1.00  0.00     0.156 C 
ENDROOT
BRANCH   1  12
HETATM   12  C3  UNL     1     -22.311 -24.302 -12.375  1.00  0.00     0.122 C 
BRANCH  12  13
HETATM   13  C2  UNL     1     -22.154 -22.845 -12.776  1.00  0.00     0.015 C 
HETATM   14  C1  UNL     1     -20.811 -22.305 -12.343  1.00  0.00     0.006 C 
ENDBRANCH  12  13
ENDBRANCH   1  12
TORSDOF 2
ENDMDL
MODEL 2
REMARK VINA RESULT: -4.755638704      1.446      1.830
REMARK  2 active torsions:
REMARK  status: ('A' for Active; 'I' for Inactive)
REMARK    1  A    between atoms: C2_2  and  C3_3 
REMARK    2  A    between atoms: C3_3  and  N1_4 
REMARK       I    between atoms: C4_6  and  N3_8 
ROOT
HETATM    1  N1  UNL     1     -20.564 -26.027 -12.871  1.00  0.00    -0.365 N 
ATOM      2  H1  UNL     1     -20.089 -25.416 -12.208  1.00  0.00     0.162 HD
HETATM    3  C4  UNL     1     -19.858 -26.900 -13.514  1.00  0.00     0.186 C 
HETATM    4  N2  UNL     1     -20.554 -27.731 -14.426  1.00  0.00    -0.064 NA
HETATM    5  N3  UNL     1     -18.464 -27.025 -13.319  1.00  0.00    -0.352 N 
HETATM    6  C5  UNL     1     -17.797 -28.279 -13.589  1.00  0.00     0.156 C 
HETATM    7  C6  UNL     1     -16.535 -28.423 -12.777  1.00  0.00     0.291 C 
HETATM    8  N4  UNL     1     -15.632 -27.325 -12.929  1.00  0.00     0.087 N 
HETATM    9  C7  UNL     1     -14.857 -27.182 -11.721  1.00  0.00     0.310 C 
HETATM   10  C8  UNL     1     -16.235 -26.109 -13.382  1.00  0.00     0.291 C 
HETATM   11  C9  UNL     1     -17.648 -25.924 -12.847  1.00  0.00     0.156 C 
ENDROOT
BRANCH   1  12
HETATM   12  C3  UNL     1     -21.978 -25.871 -13.042  1.00  0.00     0.122 C 
BRANCH  12  13
HETATM   13  C2  UNL     1     -22.420 -24.427 -12.876  1.00  0.00     0.015 C 
HETATM   14  C1  UNL     1     -21.255 -23.542 -12.501  1.00  0.00     0.006 C 
ENDBRANCH  12  13
ENDBRANCH   1  12
TORSDOF 2
ENDMDL
MODEL 3
REMARK VINA RESULT: -4.736350139      0.863      1.023
REMARK  2 active torsions:
REMARK  status: ('A' for Active; 'I' for Inactive)
REMARK    1  A    between atoms: C2_2  and  C3_3 
REMARK    2  A    between atoms: C3_3  and  N1_4 
REMARK       I    between atoms: C4_6  and  N3_8 
ROOT
HETATM    1  N1  UNL     1     -20.707 -25.620 -12.736  1.00  0.00    -0.365 N 
ATOM      2  H1  UNL     1     -19.814 -25.428 -12.283  1.00  0.00     0.162 HD
HETATM    3  C4  UNL     1     -20.741 -26.523 -13.662  1.00  0.00     0.186 C 
HETATM    4  N2  UNL     1     -21.999 -26.763 -14.268  1.00  0.00    -0.064 NA
HETATM    5  N3  UNL     1     -19.587 -27.238 -14.053  1.00  0.00    -0.352 N 
HETATM    6  C5  UNL     1     -19.707 -28.551 -14.647  1.00  0.00     0.156 C 
HETATM    7  C6  UNL     1     -18.465 -29.377 -14.423  1.00  0.00     0.291 C 
HETATM    8  N4  UNL     1     -17.266 -28.732 -14.855  1.00  0.00     0.087 N 
HETATM    9  C7  UNL     1     -16.162 -29.203 -14.055  1.00  0.00     0.310 C 
HETATM   10  C8  UNL     1     -17.350 -27.306 -14.950  1.00  0.00     0.291 C 
HETATM   11  C9  UNL     1     -18.251 -26.704 -13.881  1.00  0.00     0.156 C 
ENDROOT
BRANCH   1  12
HETATM   12  C3  UNL     1     -21.855 -24.874 -12.313  1.00  0.00     0.122 C 
BRANCH  12  13
HETATM   13  C2  UNL     1     -21.763 -23.409 -12.703  1.00  0.00     0.015 C 
HETATM   14  C1  UNL     1     -23.118 -22.862 -13.086  1.00  0.00     0.006 C 
ENDBRANCH  12  13
ENDBRANCH   1  12
TORSDOF 2
ENDMDL
MODEL 4
REMARK VINA RESULT: -4.649047699      1.281      1.623
REMARK  2 active torsions:
REMARK  status: ('A' for Active; 'I' for Inactive)
REMARK    1  A    between atoms: C2_2  and  C3_3 
REMARK    2  A    between atoms: C3_3  and  N1_4 
REMARK       I    between atoms: C4_6  and  N3_8 
ROOT
HETATM    1  N1  UNL     1     -20.268 -26.193 -12.725  1.00  0.00    -0.365 N 
ATOM      2  H1  UNL     1     -19.558 -25.855 -12.077  1.00  0.00     0.162 HD
HETATM    3  C4  UNL     1     -19.953 -27.155 -13.531  1.00  0.00     0.186 C 
HETATM    4  N2  UNL     1     -20.966 -27.598 -14.417  1.00  0.00    -0.064 NA
HETATM    5  N3  UNL     1     -18.667 -27.740 -13.532  1.00  0.00    -0.352 N 
HETATM    6  C5  UNL     1     -18.480 -29.096 -13.999  1.00  0.00     0.156 C 
HETATM    7  C6  UNL     1     -17.266 -29.736 -13.375  1.00  0.00     0.291 C 
HETATM    8  N4  UNL     1     -16.070 -28.972 -13.542  1.00  0.00     0.087 N 
HETATM    9  C7  UNL     1     -15.182 -29.239 -12.437  1.00  0.00     0.310 C 
HETATM   10  C8  UNL     1     -16.276 -27.579 -13.800  1.00  0.00     0.291 C 
HETATM   11  C9  UNL     1     -17.493 -27.026 -13.072  1.00  0.00     0.156 C 
ENDROOT
BRANCH   1  12
HETATM   12  C3  UNL     1     -21.561 -25.575 -12.696  1.00  0.00     0.122 C 
BRANCH  12  13
HETATM   13  C2  UNL     1     -21.471 -24.063 -12.580  1.00  0.00     0.015 C 
HETATM   14  C1  UNL     1     -22.845 -23.435 -12.604  1.00  0.00     0.006 C 
ENDBRANCH  12  13
ENDBRANCH   1  12
TORSDOF 2
ENDMDL
MODEL 5
REMARK VINA RESULT: -4.548316623      2.350      4.936
REMARK  2 active torsions:
REMARK  status: ('A' for Active; 'I' for Inactive)
REMARK    1  A    between atoms: C2_2  and  C3_3 
REMARK    2  A    between atoms: C3_3  and  N1_4 
REMARK       I    between atoms: C4_6  and  N3_8 
ROOT
HETATM    1  N1  UNL     1     -16.849 -25.322 -12.441  1.00  0.00    -0.365 N 
ATOM      2  H1  UNL     1     -17.274 -24.400 -12.349  1.00  0.00     0.162 HD
HETATM    3  C4  UNL     1     -17.626 -26.337 -12.643  1.00  0.00     0.186 C 
HETATM    4  N2  UNL     1     -16.999 -27.602 -12.765  1.00  0.00    -0.064 NA
HETATM    5  N3  UNL     1     -19.029 -26.199 -12.740  1.00  0.00    -0.352 N 
HETATM    6  C5  UNL     1     -19.810 -27.168 -13.475  1.00  0.00     0.156 C 
HETATM    7  C6  UNL     1     -21.096 -26.570 -13.989  1.00  0.00     0.291 C 
HETATM    8  N4  UNL     1     -21.883 -25.950 -12.969  1.00  0.00     0.087 N 
HETATM    9  C7  UNL     1     -22.663 -24.888 -13.557  1.00  0.00     0.310 C 
HETATM   10  C8  UNL     1     -21.155 -25.561 -11.800  1.00  0.00     0.291 C 
HETATM   11  C9  UNL     1     -19.741 -25.099 -12.121  1.00  0.00     0.156 C 
ENDROOT
BRANCH   1  12
HETATM   12  C3  UNL     1     -15.424 -25.424 -12.336  1.00  0.00     0.122 C 
BRANCH  12  13
HETATM   13  C2  UNL     1     -14.711 -24.387 -13.188  1.00  0.00     0.015 C 
HETATM   14  C1  UNL     1     -15.652 -23.276 -13.590  1.00  0.00     0.006 C 
ENDBRANCH  12  13
ENDBRANCH   1  12
TORSDOF 2
ENDMDL
