MODEL 1
REMARK VINA RESULT: -7.855655808      0.000      0.000
REMARK  12 active torsions:
REMARK  status: ('A' for Active; 'I' for Inactive)
REMARK    1  A    between atoms: C4_4  and  C5_5 
REMARK    2  A    between atoms: C9_10  and  O2_11 
REMARK    3  A    between atoms: C10_13  and  O3_14 
REMARK    4  A    between atoms: C10_13  and  C11_16 
REMARK    5  A    between atoms: C11_16  and  C12_17 
REMARK    6  A    between atoms: C12_17  and  C13_18 
REMARK    7  A    between atoms: C17_22  and  C18_23 
REMARK    8  A    between atoms: C19_24  and  C20_25 
REMARK    9  A    between atoms: C22_28  and  O5_29 
REMARK   10  A    between atoms: C29_36  and  O6_38 
REMARK   11  A    between atoms: C32_40  and  O7_41 
REMARK   12  A    between atoms: C32_40  and  O8_43 
ROOT
HETATM    1  C13 UNL     1       1.879 -18.852 -14.343  1.00  0.00     0.064 C 
HETATM    2  C14 UNL     1       1.547 -18.910 -12.871  1.00  0.00    -0.008 C 
HETATM    3  C15 UNL     1       0.146 -19.255 -12.544  1.00  0.00     0.021 C 
HETATM    4  C16 UNL     1       2.453 -20.009 -12.355  1.00  0.00    -0.061 C 
HETATM    5  C17 UNL     1       3.541 -19.791 -11.664  1.00  0.00    -0.055 C 
HETATM    6  C24 UNL     1       4.063 -18.427 -11.308  1.00  0.00     0.039 C 
HETATM    7  C25 UNL     1       3.379 -17.382 -12.137  1.00  0.00     0.010 C 
HETATM    8  C26 UNL     1       1.907 -17.648 -12.179  1.00  0.00    -0.005 C 
HETATM    9  C27 UNL     1       1.462 -17.781 -10.709  1.00  0.00     0.011 C 
HETATM   10  C28 UNL     1       1.957 -21.339 -12.758  1.00  0.00     0.078 C 
HETATM   11  C29 UNL     1       1.834 -21.382 -14.275  1.00  0.00     0.116 C 
HETATM   12  C30 UNL     1       3.333 -21.763 -14.678  1.00  0.00     0.052 C 
HETATM   13  C32 UNL     1       1.537 -20.197 -15.038  1.00  0.00     0.197 C 
ENDROOT
BRANCH   1  14
HETATM   14  C12 UNL     1       1.253 -17.712 -15.032  1.00  0.00     0.014 C 
BRANCH  14  15
HETATM   15  C11 UNL     1       2.121 -16.834 -15.878  1.00  0.00     0.046 C 
BRANCH  15  16
HETATM   16  C10 UNL     1       1.537 -15.440 -15.901  1.00  0.00     0.107 C 
HETATM   17  C3  UNL     1       1.778 -14.777 -17.250  1.00  0.00    -0.036 C 
HETATM   18  C2  UNL     1       2.556 -15.291 -18.141  1.00  0.00    -0.024 C 
HETATM   19  C4  UNL     1       1.035 -13.504 -17.372  1.00  0.00     0.082 C 
HETATM   20  C1  UNL     1       2.925 -14.792 -19.482  1.00  0.00     0.036 C 
HETATM   21  C6  UNL     1       1.574 -12.523 -16.333  1.00  0.00    -0.001 C 
HETATM   22  C7  UNL     1       0.588 -11.367 -16.299  1.00  0.00     0.011 C 
HETATM   23  C8  UNL     1       1.639 -13.122 -14.977  1.00  0.00     0.040 C 
HETATM   24  C9  UNL     1       2.093 -14.530 -14.868  1.00  0.00     0.157 C 
BRANCH  19  25
HETATM   25  C5  UNL     1       0.946 -12.886 -18.675  1.00  0.00     0.240 C 
HETATM   26  O1  UNL     1      -0.106 -13.019 -19.334  1.00  0.00    -0.306 OA
ENDBRANCH  19  25
BRANCH  24  27
HETATM   27  O2  UNL     1       3.483 -14.575 -14.824  1.00  0.00    -0.392 OA
ATOM     28  H2  UNL     1       3.829 -14.719 -15.697  1.00  0.00     0.210 HD
ENDBRANCH  24  27
BRANCH  16  29
HETATM   29  O3  UNL     1       0.160 -15.550 -15.771  1.00  0.00    -0.383 OA
ATOM     30  H3  UNL     1      -0.089 -14.922 -15.103  1.00  0.00     0.211 HD
ENDBRANCH  16  29
ENDBRANCH  15  16
ENDBRANCH  14  15
ENDBRANCH   1  14
BRANCH  13  31
HETATM   31  O7  UNL     1       2.512 -20.112 -16.130  1.00  0.00    -0.363 OA
ATOM     32  H7  UNL     1       3.294 -20.024 -15.599  1.00  0.00     0.213 HD
ENDBRANCH  13  31
BRANCH  13  33
HETATM   33  O8  UNL     1       0.358 -20.092 -15.692  1.00  0.00    -0.357 OA
HETATM   34  C33 UNL     1       0.241 -19.834 -17.002  1.00  0.00     0.205 C 
ENDBRANCH  13  33
BRANCH  11  35
HETATM   35  O6  UNL     1       1.172 -22.534 -14.645  1.00  0.00    -0.379 OA
HETATM   36  C31 UNL     1       1.851 -23.719 -14.512  1.00  0.00     0.202 C 
ENDBRANCH  11  35
BRANCH   5  37
HETATM   37  C18 UNL     1       4.355 -20.914 -11.202  1.00  0.00     0.006 C 
HETATM   38  C19 UNL     1       5.617 -21.063 -11.556  1.00  0.00     0.008 C 
BRANCH  38  39
HETATM   39  C20 UNL     1       6.434 -22.217 -11.077  1.00  0.00     0.175 C 
HETATM   40  O4  UNL     1       7.457 -21.760 -10.222  1.00  0.00    -0.377 OA
HETATM   41  C21 UNL     1       7.256 -22.906  -9.468  1.00  0.00     0.203 C 
HETATM   42  C22 UNL     1       5.821 -22.982  -9.945  1.00  0.00     0.177 C 
BRANCH  42  43
HETATM   43  O5  UNL     1       5.424 -24.284 -10.255  1.00  0.00    -0.386 OA
HETATM   44  C23 UNL     1       4.124 -24.450  -9.838  1.00  0.00     0.202 C 
ENDBRANCH  42  43
ENDBRANCH  38  39
ENDBRANCH   5  37
TORSDOF 12
ENDMDL
MODEL 2
REMARK VINA RESULT: -7.700169480      2.482      4.310
REMARK  12 active torsions:
REMARK  status: ('A' for Active; 'I' for Inactive)
REMARK    1  A    between atoms: C4_4  and  C5_5 
REMARK    2  A    between atoms: C9_10  and  O2_11 
REMARK    3  A    between atoms: C10_13  and  O3_14 
REMARK    4  A    between atoms: C10_13  and  C11_16 
REMARK    5  A    between atoms: C11_16  and  C12_17 
REMARK    6  A    between atoms: C12_17  and  C13_18 
REMARK    7  A    between atoms: C17_22  and  C18_23 
REMARK    8  A    between atoms: C19_24  and  C20_25 
REMARK    9  A    between atoms: C22_28  and  O5_29 
REMARK   10  A    between atoms: C29_36  and  O6_38 
REMARK   11  A    between atoms: C32_40  and  O7_41 
REMARK   12  A    between atoms: C32_40  and  O8_43 
ROOT
HETATM    1  C13 UNL     1       0.593 -16.550 -13.972  1.00  0.00     0.064 C 
HETATM    2  C14 UNL     1       1.693 -17.239 -14.744  1.00  0.00    -0.008 C 
HETATM    3  C15 UNL     1       3.002 -16.551 -14.744  1.00  0.00     0.021 C 
HETATM    4  C16 UNL     1       1.838 -18.566 -14.028  1.00  0.00    -0.061 C 
HETATM    5  C17 UNL     1       1.384 -19.699 -14.495  1.00  0.00    -0.055 C 
HETATM    6  C24 UNL     1       0.633 -19.845 -15.789  1.00  0.00     0.039 C 
HETATM    7  C25 UNL     1       0.177 -18.501 -16.274  1.00  0.00     0.010 C 
HETATM    8  C26 UNL     1       1.290 -17.509 -16.146  1.00  0.00    -0.005 C 
HETATM    9  C27 UNL     1       2.500 -18.141 -16.862  1.00  0.00     0.011 C 
HETATM   10  C28 UNL     1       2.530 -18.398 -12.735  1.00  0.00     0.078 C 
HETATM   11  C29 UNL     1       1.764 -17.389 -11.892  1.00  0.00     0.116 C 
HETATM   12  C30 UNL     1       0.659 -18.337 -11.235  1.00  0.00     0.052 C 
HETATM   13  C32 UNL     1       1.017 -16.316 -12.498  1.00  0.00     0.197 C 
ENDROOT
BRANCH   1  14
HETATM   14  C12 UNL     1       0.135 -15.302 -14.608  1.00  0.00     0.014 C 
BRANCH  14  15
HETATM   15  C11 UNL     1       1.169 -14.339 -15.100  1.00  0.00     0.046 C 
BRANCH  15  16
HETATM   16  C10 UNL     1       0.533 -13.405 -16.103  1.00  0.00     0.107 C 
HETATM   17  C3  UNL     1       1.023 -13.711 -17.511  1.00  0.00    -0.036 C 
HETATM   18  C2  UNL     1       2.000 -14.521 -17.741  1.00  0.00    -0.024 C 
HETATM   19  C4  UNL     1       0.259 -12.958 -18.530  1.00  0.00     0.082 C 
HETATM   20  C1  UNL     1       2.622 -14.923 -19.019  1.00  0.00     0.036 C 
HETATM   21  C6  UNL     1       0.511 -11.466 -18.325  1.00  0.00    -0.001 C 
HETATM   22  C7  UNL     1      -0.518 -10.747 -19.183  1.00  0.00     0.011 C 
HETATM   23  C8  UNL     1       0.314 -11.052 -16.914  1.00  0.00     0.040 C 
HETATM   24  C9  UNL     1       0.807 -11.967 -15.855  1.00  0.00     0.157 C 
BRANCH  19  25
HETATM   25  C5  UNL     1       0.420 -13.328 -19.918  1.00  0.00     0.240 C 
HETATM   26  O1  UNL     1      -0.374 -14.151 -20.417  1.00  0.00    -0.306 OA
ENDBRANCH  19  25
BRANCH  24  27
HETATM   27  O2  UNL     1       2.155 -11.725 -15.612  1.00  0.00    -0.392 OA
ATOM     28  H2  UNL     1       2.495 -11.117 -16.259  1.00  0.00     0.210 HD
ENDBRANCH  24  27
BRANCH  16  29
HETATM   29  O3  UNL     1      -0.832 -13.652 -16.113  1.00  0.00    -0.383 OA
ATOM     30  H3  UNL     1      -1.241 -12.868 -15.766  1.00  0.00     0.211 HD
ENDBRANCH  16  29
ENDBRANCH  15  16
ENDBRANCH  14  15
ENDBRANCH   1  14
BRANCH  13  31
HETATM   31  O7  UNL     1      -0.323 -16.313 -11.902  1.00  0.00    -0.363 OA
ATOM     32  H7  UNL     1      -0.277 -17.160 -11.474  1.00  0.00     0.213 HD
ENDBRANCH  13  31
BRANCH  13  33
HETATM   33  O8  UNL     1       1.414 -15.035 -12.328  1.00  0.00    -0.357 OA
HETATM   34  C33 UNL     1       0.960 -14.226 -11.362  1.00  0.00     0.205 C 
ENDBRANCH  13  33
BRANCH  11  35
HETATM   35  O6  UNL     1       2.513 -17.064 -10.780  1.00  0.00    -0.379 OA
HETATM   36  C31 UNL     1       2.077 -17.540  -9.569  1.00  0.00     0.202 C 
ENDBRANCH  11  35
BRANCH   5  37
HETATM   37  C18 UNL     1       1.574 -20.935 -13.737  1.00  0.00     0.006 C 
HETATM   38  C19 UNL     1       1.644 -22.116 -14.321  1.00  0.00     0.008 C 
BRANCH  38  39
HETATM   39  C20 UNL     1       1.837 -23.369 -13.532  1.00  0.00     0.175 C 
HETATM   40  O4  UNL     1       2.943 -24.086 -14.030  1.00  0.00    -0.377 OA
HETATM   41  C21 UNL     1       3.234 -24.428 -12.718  1.00  0.00     0.203 C 
HETATM   42  C22 UNL     1       2.541 -23.176 -12.225  1.00  0.00     0.177 C 
BRANCH  42  43
HETATM   43  O5  UNL     1       1.761 -23.403 -11.090  1.00  0.00    -0.386 OA
HETATM   44  C23 UNL     1       1.868 -22.307 -10.266  1.00  0.00     0.202 C 
ENDBRANCH  42  43
ENDBRANCH  38  39
ENDBRANCH   5  37
TORSDOF 12
ENDMDL
MODEL 3
REMARK VINA RESULT: -7.639305069      2.774      5.636
REMARK  12 active torsions:
REMARK  status: ('A' for Active; 'I' for Inactive)
REMARK    1  A    between atoms: C4_4  and  C5_5 
REMARK    2  A    between atoms: C9_10  and  O2_11 
REMARK    3  A    between atoms: C10_13  and  O3_14 
REMARK    4  A    between atoms: C10_13  and  C11_16 
REMARK    5  A    between atoms: C11_16  and  C12_17 
REMARK    6  A    between atoms: C12_17  and  C13_18 
REMARK    7  A    between atoms: C17_22  and  C18_23 
REMARK    8  A    between atoms: C19_24  and  C20_25 
REMARK    9  A    between atoms: C22_28  and  O5_29 
REMARK   10  A    between atoms: C29_36  and  O6_38 
REMARK   11  A    between atoms: C32_40  and  O7_41 
REMARK   12  A    between atoms: C32_40  and  O8_43 
ROOT
HETATM    1  C13 UNL     1       1.687 -14.853 -13.946  1.00  0.00     0.064 C 
HETATM    2  C14 UNL     1       2.681 -15.644 -14.760  1.00  0.00    -0.008 C 
HETATM    3  C15 UNL     1       4.106 -15.376 -14.466  1.00  0.00     0.021 C 
HETATM    4  C16 UNL     1       2.369 -17.079 -14.389  1.00  0.00    -0.061 C 
HETATM    5  C17 UNL     1       1.721 -17.908 -15.165  1.00  0.00    -0.055 C 
HETATM    6  C24 UNL     1       1.171 -17.551 -16.517  1.00  0.00     0.039 C 
HETATM    7  C25 UNL     1       1.155 -16.062 -16.690  1.00  0.00     0.010 C 
HETATM    8  C26 UNL     1       2.450 -15.480 -16.216  1.00  0.00    -0.005 C 
HETATM    9  C27 UNL     1       3.556 -16.262 -16.953  1.00  0.00     0.011 C 
HETATM   10  C28 UNL     1       2.867 -17.398 -13.037  1.00  0.00     0.078 C 
HETATM   11  C29 UNL     1       2.261 -16.418 -12.042  1.00  0.00     0.116 C 
HETATM   12  C30 UNL     1       0.861 -17.130 -11.748  1.00  0.00     0.052 C 
HETATM   13  C32 UNL     1       1.918 -15.073 -12.427  1.00  0.00     0.197 C 
ENDROOT
BRANCH   1  14
HETATM   14  C12 UNL     1       1.669 -13.421 -14.288  1.00  0.00     0.014 C 
BRANCH  14  15
HETATM   15  C11 UNL     1       0.355 -12.705 -14.265  1.00  0.00     0.046 C 
BRANCH  15  16
HETATM   16  C10 UNL     1       0.227 -11.872 -15.519  1.00  0.00     0.107 C 
HETATM   17  C3  UNL     1      -0.812 -10.774 -15.333  1.00  0.00    -0.036 C 
HETATM   18  C2  UNL     1      -1.594 -10.732 -14.309  1.00  0.00    -0.024 C 
HETATM   19  C4  UNL     1      -0.802  -9.818 -16.462  1.00  0.00     0.082 C 
HETATM   20  C1  UNL     1      -2.663  -9.770 -13.968  1.00  0.00     0.036 C 
HETATM   21  C6  UNL     1      -1.214 -10.559 -17.732  1.00  0.00    -0.001 C 
HETATM   22  C7  UNL     1      -0.895  -9.620 -18.885  1.00  0.00     0.011 C 
HETATM   23  C8  UNL     1      -0.446 -11.813 -17.924  1.00  0.00     0.040 C 
HETATM   24  C9  UNL     1      -0.172 -12.642 -16.725  1.00  0.00     0.157 C 
BRANCH  19  25
HETATM   25  C5  UNL     1      -1.537  -8.582 -16.317  1.00  0.00     0.240 C 
HETATM   26  O1  UNL     1      -0.935  -7.568 -15.909  1.00  0.00    -0.306 OA
ENDBRANCH  19  25
BRANCH  24  27
HETATM   27  O2  UNL     1      -1.252 -13.483 -16.475  1.00  0.00    -0.392 OA
ATOM     28  H2  UNL     1      -1.017 -14.120 -15.810  1.00  0.00     0.210 HD
ENDBRANCH  24  27
BRANCH  16  29
HETATM   29  O3  UNL     1       1.435 -11.222 -15.727  1.00  0.00    -0.383 OA
ATOM     30  H3  UNL     1       1.909 -11.285 -14.907  1.00  0.00     0.211 HD
ENDBRANCH  16  29
ENDBRANCH  15  16
ENDBRANCH  14  15
ENDBRANCH   1  14
BRANCH  13  31
HETATM   31  O7  UNL     1       0.546 -14.816 -11.976  1.00  0.00    -0.363 OA
ATOM     32  H7  UNL     1       0.754 -14.498 -11.105  1.00  0.00     0.213 HD
ENDBRANCH  13  31
BRANCH  13  33
HETATM   33  O8  UNL     1       2.597 -14.026 -11.906  1.00  0.00    -0.357 OA
HETATM   34  C33 UNL     1       2.247 -13.383 -10.784  1.00  0.00     0.205 C 
ENDBRANCH  13  33
BRANCH  11  35
HETATM   35  O6  UNL     1       2.883 -16.568 -10.820  1.00  0.00    -0.379 OA
HETATM   36  C31 UNL     1       2.240 -17.331  -9.878  1.00  0.00     0.202 C 
ENDBRANCH  11  35
BRANCH   5  37
HETATM   37  C18 UNL     1       1.466 -19.279 -14.726  1.00  0.00     0.006 C 
HETATM   38  C19 UNL     1       2.163 -20.305 -15.178  1.00  0.00     0.008 C 
BRANCH  38  39
HETATM   39  C20 UNL     1       1.889 -21.699 -14.721  1.00  0.00     0.175 C 
HETATM   40  O4  UNL     1       2.856 -22.577 -15.251  1.00  0.00    -0.377 OA
HETATM   41  C21 UNL     1       2.806 -23.262 -14.046  1.00  0.00     0.203 C 
HETATM   42  C22 UNL     1       2.366 -22.000 -13.334  1.00  0.00     0.177 C 
BRANCH  42  43
HETATM   43  O5  UNL     1       1.357 -22.234 -12.397  1.00  0.00    -0.386 OA
HETATM   44  C23 UNL     1       1.434 -21.261 -11.429  1.00  0.00     0.202 C 
ENDBRANCH  42  43
ENDBRANCH  38  39
ENDBRANCH   5  37
TORSDOF 12
ENDMDL
MODEL 4
REMARK VINA RESULT: -7.603321613      2.423      4.315
REMARK  12 active torsions:
REMARK  status: ('A' for Active; 'I' for Inactive)
REMARK    1  A    between atoms: C4_4  and  C5_5 
REMARK    2  A    between atoms: C9_10  and  O2_11 
REMARK    3  A    between atoms: C10_13  and  O3_14 
REMARK    4  A    between atoms: C10_13  and  C11_16 
REMARK    5  A    between atoms: C11_16  and  C12_17 
REMARK    6  A    between atoms: C12_17  and  C13_18 
REMARK    7  A    between atoms: C17_22  and  C18_23 
REMARK    8  A    between atoms: C19_24  and  C20_25 
REMARK    9  A    between atoms: C22_28  and  O5_29 
REMARK   10  A    between atoms: C29_36  and  O6_38 
REMARK   11  A    between atoms: C32_40  and  O7_41 
REMARK   12  A    between atoms: C32_40  and  O8_43 
ROOT
HETATM    1  C13 UNL     1       0.723 -16.583 -14.083  1.00  0.00     0.064 C 
HETATM    2  C14 UNL     1       1.847 -17.212 -14.871  1.00  0.00    -0.008 C 
HETATM    3  C15 UNL     1       3.113 -16.446 -14.902  1.00  0.00     0.021 C 
HETATM    4  C16 UNL     1       2.086 -18.521 -14.148  1.00  0.00    -0.061 C 
HETATM    5  C17 UNL     1       1.693 -19.684 -14.597  1.00  0.00    -0.055 C 
HETATM    6  C24 UNL     1       0.927 -19.886 -15.874  1.00  0.00     0.039 C 
HETATM    7  C25 UNL     1       0.381 -18.577 -16.360  1.00  0.00     0.010 C 
HETATM    8  C26 UNL     1       1.434 -17.518 -16.263  1.00  0.00    -0.005 C 
HETATM    9  C27 UNL     1       2.666 -18.083 -16.998  1.00  0.00     0.011 C 
HETATM   10  C28 UNL     1       2.792 -18.301 -12.871  1.00  0.00     0.078 C 
HETATM   11  C29 UNL     1       1.984 -17.331 -12.020  1.00  0.00     0.116 C 
HETATM   12  C30 UNL     1       0.951 -18.339 -11.333  1.00  0.00     0.052 C 
HETATM   13  C32 UNL     1       1.161 -16.311 -12.619  1.00  0.00     0.197 C 
ENDROOT
BRANCH   1  14
HETATM   14  C12 UNL     1       0.179 -15.371 -14.718  1.00  0.00     0.014 C 
BRANCH  14  15
HETATM   15  C11 UNL     1       1.130 -14.275 -15.080  1.00  0.00     0.046 C 
BRANCH  15  16
HETATM   16  C10 UNL     1       0.468 -13.360 -16.084  1.00  0.00     0.107 C 
HETATM   17  C3  UNL     1       0.955 -13.665 -17.494  1.00  0.00    -0.036 C 
HETATM   18  C2  UNL     1       1.947 -14.456 -17.724  1.00  0.00    -0.024 C 
HETATM   19  C4  UNL     1       0.168 -12.935 -18.512  1.00  0.00     0.082 C 
HETATM   20  C1  UNL     1       2.569 -14.854 -19.004  1.00  0.00     0.036 C 
HETATM   21  C6  UNL     1       0.391 -11.436 -18.318  1.00  0.00    -0.001 C 
HETATM   22  C7  UNL     1      -0.658 -10.745 -19.174  1.00  0.00     0.011 C 
HETATM   23  C8  UNL     1       0.195 -11.018 -16.909  1.00  0.00     0.040 C 
HETATM   24  C9  UNL     1       0.713 -11.915 -15.847  1.00  0.00     0.157 C 
BRANCH  19  25
HETATM   25  C5  UNL     1       0.328 -13.311 -19.898  1.00  0.00     0.240 C 
HETATM   26  O1  UNL     1      -0.453 -14.152 -20.387  1.00  0.00    -0.306 OA
ENDBRANCH  19  25
BRANCH  24  27
HETATM   27  O2  UNL     1       2.058 -11.643 -15.614  1.00  0.00    -0.392 OA
ATOM     28  H2  UNL     1       2.432 -11.202 -16.368  1.00  0.00     0.210 HD
ENDBRANCH  24  27
BRANCH  16  29
HETATM   29  O3  UNL     1      -0.892 -13.636 -16.083  1.00  0.00    -0.383 OA
ATOM     30  H3  UNL     1      -1.293 -12.970 -16.629  1.00  0.00     0.211 HD
ENDBRANCH  16  29
ENDBRANCH  15  16
ENDBRANCH  14  15
ENDBRANCH   1  14
BRANCH  13  31
HETATM   31  O7  UNL     1      -0.165 -16.384 -11.996  1.00  0.00    -0.363 OA
ATOM     32  H7  UNL     1      -0.349 -15.452 -11.973  1.00  0.00     0.213 HD
ENDBRANCH  13  31
BRANCH  13  33
HETATM   33  O8  UNL     1       1.483 -15.007 -12.467  1.00  0.00    -0.357 OA
HETATM   34  C33 UNL     1       1.089 -14.247 -11.437  1.00  0.00     0.205 C 
ENDBRANCH  13  33
BRANCH  11  35
HETATM   35  O6  UNL     1       2.733 -16.952 -10.926  1.00  0.00    -0.379 OA
HETATM   36  C31 UNL     1       2.378 -17.478  -9.709  1.00  0.00     0.202 C 
ENDBRANCH  11  35
BRANCH   5  37
HETATM   37  C18 UNL     1       1.971 -20.899 -13.833  1.00  0.00     0.006 C 
HETATM   38  C19 UNL     1       3.048 -21.633 -14.044  1.00  0.00     0.008 C 
BRANCH  38  39
HETATM   39  C20 UNL     1       3.317 -22.872 -13.256  1.00  0.00     0.175 C 
HETATM   40  O4  UNL     1       2.848 -22.714 -11.936  1.00  0.00    -0.377 OA
HETATM   41  C21 UNL     1       2.470 -24.048 -11.976  1.00  0.00     0.203 C 
HETATM   42  C22 UNL     1       2.331 -23.976 -13.482  1.00  0.00     0.177 C 
BRANCH  42  43
HETATM   43  O5  UNL     1       2.840 -25.105 -14.125  1.00  0.00    -0.386 OA
HETATM   44  C23 UNL     1       1.944 -25.492 -15.093  1.00  0.00     0.202 C 
ENDBRANCH  42  43
ENDBRANCH  38  39
ENDBRANCH   5  37
TORSDOF 12
ENDMDL
MODEL 5
REMARK VINA RESULT: -7.551820989      2.481      5.430
REMARK  12 active torsions:
REMARK  status: ('A' for Active; 'I' for Inactive)
REMARK    1  A    between atoms: C4_4  and  C5_5 
REMARK    2  A    between atoms: C9_10  and  O2_11 
REMARK    3  A    between atoms: C10_13  and  O3_14 
REMARK    4  A    between atoms: C10_13  and  C11_16 
REMARK    5  A    between atoms: C11_16  and  C12_17 
REMARK    6  A    between atoms: C12_17  and  C13_18 
REMARK    7  A    between atoms: C17_22  and  C18_23 
REMARK    8  A    between atoms: C19_24  and  C20_25 
REMARK    9  A    between atoms: C22_28  and  O5_29 
REMARK   10  A    between atoms: C29_36  and  O6_38 
REMARK   11  A    between atoms: C32_40  and  O7_41 
REMARK   12  A    between atoms: C32_40  and  O8_43 
ROOT
HETATM    1  C13 UNL     1       1.432 -14.692 -14.013  1.00  0.00     0.064 C 
HETATM    2  C14 UNL     1       2.566 -15.614 -14.393  1.00  0.00    -0.008 C 
HETATM    3  C15 UNL     1       3.867 -15.327 -13.749  1.00  0.00     0.021 C 
HETATM    4  C16 UNL     1       2.079 -16.970 -13.925  1.00  0.00    -0.061 C 
HETATM    5  C17 UNL     1       1.624 -17.897 -14.727  1.00  0.00    -0.055 C 
HETATM    6  C24 UNL     1       1.492 -17.742 -16.216  1.00  0.00     0.039 C 
HETATM    7  C25 UNL     1       1.612 -16.296 -16.596  1.00  0.00     0.010 C 
HETATM    8  C26 UNL     1       2.756 -15.670 -15.863  1.00  0.00    -0.005 C 
HETATM    9  C27 UNL     1       3.975 -16.573 -16.139  1.00  0.00     0.011 C 
HETATM   10  C28 UNL     1       2.164 -17.088 -12.457  1.00  0.00     0.078 C 
HETATM   11  C29 UNL     1       1.365 -15.958 -11.823  1.00  0.00     0.116 C 
HETATM   12  C30 UNL     1      -0.101 -16.594 -11.839  1.00  0.00     0.052 C 
HETATM   13  C32 UNL     1       1.221 -14.682 -12.476  1.00  0.00     0.197 C 
ENDROOT
BRANCH   1  14
HETATM   14  C12 UNL     1       1.593 -13.328 -14.546  1.00  0.00     0.014 C 
BRANCH  14  15
HETATM   15  C11 UNL     1       0.402 -12.665 -15.163  1.00  0.00     0.046 C 
BRANCH  15  16
HETATM   16  C10 UNL     1       0.563 -12.665 -16.665  1.00  0.00     0.107 C 
HETATM   17  C3  UNL     1      -0.064 -11.419 -17.274  1.00  0.00    -0.036 C 
HETATM   18  C2  UNL     1      -0.800 -10.611 -16.588  1.00  0.00    -0.024 C 
HETATM   19  C4  UNL     1       0.266 -11.289 -18.711  1.00  0.00     0.082 C 
HETATM   20  C1  UNL     1      -1.501  -9.379 -17.002  1.00  0.00     0.036 C 
HETATM   21  C6  UNL     1      -0.354 -12.466 -19.462  1.00  0.00    -0.001 C 
HETATM   22  C7  UNL     1       0.264 -12.445 -20.850  1.00  0.00     0.011 C 
HETATM   23  C8  UNL     1      -0.033 -13.767 -18.826  1.00  0.00     0.040 C 
HETATM   24  C9  UNL     1      -0.053 -13.833 -17.344  1.00  0.00     0.157 C 
BRANCH  19  25
HETATM   25  C5  UNL     1      -0.030 -10.037 -19.369  1.00  0.00     0.240 C 
HETATM   26  O1  UNL     1      -1.024  -9.971 -20.120  1.00  0.00    -0.306 OA
ENDBRANCH  19  25
BRANCH  24  27
HETATM   27  O2  UNL     1      -1.350 -14.072 -16.900  1.00  0.00    -0.392 OA
ATOM     28  H2  UNL     1      -1.951 -13.467 -17.319  1.00  0.00     0.210 HD
ENDBRANCH  24  27
BRANCH  16  29
HETATM   29  O3  UNL     1       1.919 -12.588 -16.951  1.00  0.00    -0.383 OA
ATOM     30  H3  UNL     1       2.044 -13.079 -17.754  1.00  0.00     0.211 HD
ENDBRANCH  16  29
ENDBRANCH  15  16
ENDBRANCH  14  15
ENDBRANCH   1  14
BRANCH  13  31
HETATM   31  O7  UNL     1      -0.205 -14.337 -12.471  1.00  0.00    -0.363 OA
ATOM     32  H7  UNL     1      -0.114 -13.408 -12.646  1.00  0.00     0.213 HD
ENDBRANCH  13  31
BRANCH  13  33
HETATM   33  O8  UNL     1       1.789 -13.579 -11.937  1.00  0.00    -0.357 OA
HETATM   34  C33 UNL     1       1.162 -12.737 -11.104  1.00  0.00     0.205 C 
ENDBRANCH  13  33
BRANCH  11  35
HETATM   35  O6  UNL     1       1.614 -15.930 -10.466  1.00  0.00    -0.379 OA
HETATM   36  C31 UNL     1       0.664 -16.478  -9.642  1.00  0.00     0.202 C 
ENDBRANCH  11  35
BRANCH   5  37
HETATM   37  C18 UNL     1       1.178 -19.181 -14.188  1.00  0.00     0.006 C 
HETATM   38  C19 UNL     1       1.706 -20.328 -14.572  1.00  0.00     0.008 C 
BRANCH  38  39
HETATM   39  C20 UNL     1       1.239 -21.630 -14.013  1.00  0.00     0.175 C 
HETATM   40  O4  UNL     1       1.584 -22.681 -14.887  1.00  0.00    -0.377 OA
HETATM   41  C21 UNL     1       1.831 -23.454 -13.763  1.00  0.00     0.203 C 
HETATM   42  C22 UNL     1       2.130 -22.207 -12.957  1.00  0.00     0.177 C 
BRANCH  42  43
HETATM   43  O5  UNL     1       1.580 -22.249 -11.675  1.00  0.00    -0.386 OA
HETATM   44  C23 UNL     1       2.489 -21.707 -10.797  1.00  0.00     0.202 C 
ENDBRANCH  42  43
ENDBRANCH  38  39
ENDBRANCH   5  37
TORSDOF 12
ENDMDL
