MODEL 1
REMARK VINA RESULT: -7.663498828      0.000      0.000
REMARK  11 active torsions:
REMARK  status: ('A' for Active; 'I' for Inactive)
REMARK    1  A    between atoms: S1_2  and  C2_3 
REMARK    2  A    between atoms: C2_3  and  C3_4 
REMARK    3  A    between atoms: C3_4  and  C4_5 
REMARK    4  A    between atoms: C4_5  and  C5_6 
REMARK    5  A    between atoms: C4_5  and  S2_37 
REMARK    6  A    between atoms: C5_6  and  O2_8 
REMARK    7  A    between atoms: O2_8  and  C6_9 
REMARK    8  A    between atoms: C19_23  and  O4_24 
REMARK    9  A    between atoms: C20_26  and  O5_27 
REMARK   10  A    between atoms: C21_29  and  O6_30 
REMARK   11  A    between atoms: S2_37  and  C28_39 
ROOT
HETATM    1  C6  UNL     1       2.275 -15.981 -14.169  1.00  0.00     0.073 C 
HETATM    2  C7  UNL     1       3.058 -14.994 -13.306  1.00  0.00     0.047 C 
HETATM    3  C8  UNL     1       0.903 -15.931 -13.725  1.00  0.00     0.043 C 
HETATM    4  C9  UNL     1       0.421 -15.273 -12.521  1.00  0.00    -0.015 C 
HETATM    5  C10 UNL     1      -1.120 -15.515 -12.520  1.00  0.00     0.010 C 
HETATM    6  C11 UNL     1       0.847 -15.498 -11.163  1.00  0.00     0.008 C 
HETATM    7  C12 UNL     1       0.764 -16.850 -10.542  1.00  0.00     0.028 C 
HETATM    8  C13 UNL     1       2.143 -17.391 -10.296  1.00  0.00    -0.024 C 
HETATM    9  C14 UNL     1       2.767 -18.252 -11.101  1.00  0.00    -0.080 C 
HETATM   10  C15 UNL     1       4.154 -18.641 -10.626  1.00  0.00     0.043 C 
HETATM   11  C16 UNL     1       2.171 -18.764 -12.319  1.00  0.00     0.054 C 
HETATM   12  C17 UNL     1       2.808 -18.470 -13.609  1.00  0.00     0.137 C 
HETATM   13  O3  UNL     1       2.007 -19.311 -14.449  1.00  0.00    -0.376 OA
HETATM   14  C18 UNL     1       2.276 -20.502 -13.872  1.00  0.00     0.162 C 
HETATM   15  C19 UNL     1       1.543 -21.708 -14.250  1.00  0.00     0.179 C 
HETATM   16  C20 UNL     1       2.088 -22.865 -13.458  1.00  0.00     0.178 C 
HETATM   17  C21 UNL     1       2.529 -22.588 -12.085  1.00  0.00     0.150 C 
HETATM   18  C22 UNL     1       2.759 -21.171 -11.669  1.00  0.00     0.047 C 
HETATM   19  C23 UNL     1       1.897 -20.237 -12.399  1.00  0.00    -0.003 C 
HETATM   20  C24 UNL     1       0.416 -20.552 -12.210  1.00  0.00     0.019 C 
HETATM   21  C25 UNL     1       3.098 -17.197 -14.187  1.00  0.00     0.046 C 
HETATM   22  C26 UNL     1       4.605 -16.875 -14.019  1.00  0.00     0.016 C 
ENDROOT
BRANCH   1  23
HETATM   23  O2  UNL     1       2.434 -15.307 -15.450  1.00  0.00    -0.309 OA
BRANCH  23  24
HETATM   24  C5  UNL     1       1.497 -15.227 -16.408  1.00  0.00     0.272 C 
HETATM   25  O1  UNL     1       1.100 -16.283 -16.924  1.00  0.00    -0.264 OA
BRANCH  24  26
HETATM   26  C4  UNL     1       0.988 -13.866 -16.794  1.00  0.00     0.138 C 
BRANCH  26  27
HETATM   27  C3  UNL     1      -0.466 -13.770 -16.463  1.00  0.00     0.035 C 
BRANCH  27  28
HETATM   28  C2  UNL     1      -0.807 -12.917 -15.276  1.00  0.00     0.075 C 
BRANCH  28  29
HETATM   29  S1  UNL     1      -1.690 -11.398 -15.821  1.00  0.00    -0.173 SA
HETATM   30  C1  UNL     1      -0.563 -10.005 -15.551  1.00  0.00     0.089 C 
ENDBRANCH  28  29
ENDBRANCH  27  28
ENDBRANCH  26  27
BRANCH  26  31
HETATM   31  S2  UNL     1       1.485 -13.435 -18.386  1.00  0.00    -0.206 SA
HETATM   32  C27 UNL     1       2.512 -14.548 -19.216  1.00  0.00     0.080 C 
BRANCH  31  33
HETATM   33  C28 UNL     1       0.245 -12.646 -19.303  1.00  0.00     0.030 C 
HETATM   34  C29 UNL     1       0.234 -11.141 -19.052  1.00  0.00     0.020 C 
HETATM   35  C30 UNL     1       0.328 -12.957 -20.769  1.00  0.00     0.020 C 
ENDBRANCH  31  33
ENDBRANCH  26  31
ENDBRANCH  24  26
ENDBRANCH  23  24
ENDBRANCH   1  23
BRANCH  15  36
HETATM   36  O4  UNL     1       1.747 -21.946 -15.629  1.00  0.00    -0.390 OA
ATOM     37  H4  UNL     1       1.283 -22.739 -15.871  1.00  0.00     0.210 HD
ENDBRANCH  15  36
BRANCH  17  38
HETATM   38  O6  UNL     1       1.708 -23.236 -11.124  1.00  0.00    -0.393 OA
ATOM     39  H6  UNL     1       1.495 -22.664 -10.396  1.00  0.00     0.210 HD
ENDBRANCH  17  38
BRANCH  16  40
HETATM   40  O5  UNL     1       3.103 -23.446 -14.257  1.00  0.00    -0.390 OA
ATOM     41  H5  UNL     1       2.839 -24.346 -14.408  1.00  0.00     0.210 HD
ENDBRANCH  16  40
TORSDOF 11
ENDMDL
MODEL 2
REMARK VINA RESULT: -7.477710417      0.901      2.110
REMARK  11 active torsions:
REMARK  status: ('A' for Active; 'I' for Inactive)
REMARK    1  A    between atoms: S1_2  and  C2_3 
REMARK    2  A    between atoms: C2_3  and  C3_4 
REMARK    3  A    between atoms: C3_4  and  C4_5 
REMARK    4  A    between atoms: C4_5  and  C5_6 
REMARK    5  A    between atoms: C4_5  and  S2_37 
REMARK    6  A    between atoms: C5_6  and  O2_8 
REMARK    7  A    between atoms: O2_8  and  C6_9 
REMARK    8  A    between atoms: C19_23  and  O4_24 
REMARK    9  A    between atoms: C20_26  and  O5_27 
REMARK   10  A    between atoms: C21_29  and  O6_30 
REMARK   11  A    between atoms: S2_37  and  C28_39 
ROOT
HETATM    1  C6  UNL     1       2.165 -15.969 -14.076  1.00  0.00     0.073 C 
HETATM    2  C7  UNL     1       2.914 -14.979 -13.187  1.00  0.00     0.047 C 
HETATM    3  C8  UNL     1       0.787 -15.958 -13.649  1.00  0.00     0.043 C 
HETATM    4  C9  UNL     1       0.275 -15.332 -12.440  1.00  0.00    -0.015 C 
HETATM    5  C10 UNL     1      -1.261 -15.609 -12.463  1.00  0.00     0.010 C 
HETATM    6  C11 UNL     1       0.689 -15.571 -11.081  1.00  0.00     0.008 C 
HETATM    7  C12 UNL     1       0.629 -16.935 -10.484  1.00  0.00     0.028 C 
HETATM    8  C13 UNL     1       2.017 -17.448 -10.230  1.00  0.00    -0.024 C 
HETATM    9  C14 UNL     1       2.671 -18.281 -11.042  1.00  0.00    -0.080 C 
HETATM   10  C15 UNL     1       4.061 -18.646 -10.555  1.00  0.00     0.043 C 
HETATM   11  C16 UNL     1       2.102 -18.785 -12.275  1.00  0.00     0.054 C 
HETATM   12  C17 UNL     1       2.748 -18.455 -13.552  1.00  0.00     0.137 C 
HETATM   13  O3  UNL     1       1.977 -19.299 -14.416  1.00  0.00    -0.376 OA
HETATM   14  C18 UNL     1       2.267 -20.493 -13.856  1.00  0.00     0.162 C 
HETATM   15  C19 UNL     1       1.566 -21.709 -14.264  1.00  0.00     0.179 C 
HETATM   16  C20 UNL     1       2.129 -22.867 -13.485  1.00  0.00     0.178 C 
HETATM   17  C21 UNL     1       2.545 -22.604 -12.102  1.00  0.00     0.150 C 
HETATM   18  C22 UNL     1       2.738 -21.189 -11.659  1.00  0.00     0.047 C 
HETATM   19  C23 UNL     1       1.863 -20.262 -12.384  1.00  0.00    -0.003 C 
HETATM   20  C24 UNL     1       0.388 -20.614 -12.219  1.00  0.00     0.019 C 
HETATM   21  C25 UNL     1       3.015 -17.165 -14.104  1.00  0.00     0.046 C 
HETATM   22  C26 UNL     1       4.513 -16.812 -13.911  1.00  0.00     0.016 C 
ENDROOT
BRANCH   1  23
HETATM   23  O2  UNL     1       2.324 -15.270 -15.344  1.00  0.00    -0.309 OA
BRANCH  23  24
HETATM   24  C5  UNL     1       1.566 -15.458 -16.437  1.00  0.00     0.272 C 
HETATM   25  O1  UNL     1       1.596 -16.573 -16.980  1.00  0.00    -0.264 OA
BRANCH  24  26
HETATM   26  C4  UNL     1       0.732 -14.310 -16.931  1.00  0.00     0.138 C 
BRANCH  26  27
HETATM   27  C3  UNL     1       1.071 -14.031 -18.360  1.00  0.00     0.035 C 
BRANCH  27  28
HETATM   28  C2  UNL     1      -0.096 -13.743 -19.259  1.00  0.00     0.075 C 
BRANCH  28  29
HETATM   29  S1  UNL     1       0.295 -12.326 -20.366  1.00  0.00    -0.173 SA
HETATM   30  C1  UNL     1      -0.095 -10.813 -19.447  1.00  0.00     0.089 C 
ENDBRANCH  28  29
ENDBRANCH  27  28
ENDBRANCH  26  27
BRANCH  26  31
HETATM   31  S2  UNL     1       0.756 -12.990 -15.823  1.00  0.00    -0.206 SA
HETATM   32  C27 UNL     1       1.709 -11.617 -16.260  1.00  0.00     0.080 C 
BRANCH  31  33
HETATM   33  C28 UNL     1      -0.774 -12.700 -15.066  1.00  0.00     0.030 C 
HETATM   34  C29 UNL     1      -0.605 -12.097 -13.675  1.00  0.00     0.020 C 
HETATM   35  C30 UNL     1      -1.688 -11.868 -15.917  1.00  0.00     0.020 C 
ENDBRANCH  31  33
ENDBRANCH  26  31
ENDBRANCH  24  26
ENDBRANCH  23  24
ENDBRANCH   1  23
BRANCH  15  36
HETATM   36  O4  UNL     1       1.793 -21.919 -15.644  1.00  0.00    -0.390 OA
ATOM     37  H4  UNL     1       1.280 -21.288 -16.135  1.00  0.00     0.210 HD
ENDBRANCH  15  36
BRANCH  17  38
HETATM   38  O6  UNL     1       1.729 -23.287 -11.163  1.00  0.00    -0.393 OA
ATOM     39  H6  UNL     1       0.816 -23.299 -11.428  1.00  0.00     0.210 HD
ENDBRANCH  17  38
BRANCH  16  40
HETATM   40  O5  UNL     1       3.167 -23.410 -14.280  1.00  0.00    -0.390 OA
ATOM     41  H5  UNL     1       3.981 -23.140 -13.873  1.00  0.00     0.210 HD
ENDBRANCH  16  40
TORSDOF 11
ENDMDL
MODEL 3
REMARK VINA RESULT: -7.447541235      1.284      1.576
REMARK  11 active torsions:
REMARK  status: ('A' for Active; 'I' for Inactive)
REMARK    1  A    between atoms: S1_2  and  C2_3 
REMARK    2  A    between atoms: C2_3  and  C3_4 
REMARK    3  A    between atoms: C3_4  and  C4_5 
REMARK    4  A    between atoms: C4_5  and  C5_6 
REMARK    5  A    between atoms: C4_5  and  S2_37 
REMARK    6  A    between atoms: C5_6  and  O2_8 
REMARK    7  A    between atoms: O2_8  and  C6_9 
REMARK    8  A    between atoms: C19_23  and  O4_24 
REMARK    9  A    between atoms: C20_26  and  O5_27 
REMARK   10  A    between atoms: C21_29  and  O6_30 
REMARK   11  A    between atoms: S2_37  and  C28_39 
ROOT
HETATM    1  C6  UNL     1       2.942 -17.313 -14.293  1.00  0.00     0.073 C 
HETATM    2  C7  UNL     1       4.037 -16.418 -13.719  1.00  0.00     0.047 C 
HETATM    3  C8  UNL     1       1.777 -17.140 -13.459  1.00  0.00     0.043 C 
HETATM    4  C9  UNL     1       1.743 -16.457 -12.176  1.00  0.00    -0.015 C 
HETATM    5  C10 UNL     1       0.257 -16.551 -11.710  1.00  0.00     0.010 C 
HETATM    6  C11 UNL     1       2.532 -16.742 -11.005  1.00  0.00     0.008 C 
HETATM    7  C12 UNL     1       2.511 -18.089 -10.369  1.00  0.00     0.028 C 
HETATM    8  C13 UNL     1       3.843 -18.761 -10.540  1.00  0.00    -0.024 C 
HETATM    9  C14 UNL     1       4.112 -19.666 -11.482  1.00  0.00    -0.080 C 
HETATM   10  C15 UNL     1       5.535 -20.191 -11.439  1.00  0.00     0.043 C 
HETATM   11  C16 UNL     1       3.133 -20.100 -12.458  1.00  0.00     0.054 C 
HETATM   12  C17 UNL     1       3.379 -19.850 -13.884  1.00  0.00     0.137 C 
HETATM   13  O3  UNL     1       2.287 -20.598 -14.433  1.00  0.00    -0.376 OA
HETATM   14  C18 UNL     1       2.602 -21.818 -13.946  1.00  0.00     0.162 C 
HETATM   15  C19 UNL     1       1.678 -22.942 -14.069  1.00  0.00     0.179 C 
HETATM   16  C20 UNL     1       2.324 -24.158 -13.461  1.00  0.00     0.178 C 
HETATM   17  C21 UNL     1       3.180 -23.945 -12.288  1.00  0.00     0.150 C 
HETATM   18  C22 UNL     1       3.657 -22.562 -11.980  1.00  0.00     0.047 C 
HETATM   19  C23 UNL     1       2.709 -21.539 -12.431  1.00  0.00    -0.003 C 
HETATM   20  C24 UNL     1       1.330 -21.716 -11.802  1.00  0.00     0.019 C 
HETATM   21  C25 UNL     1       3.602 -18.601 -14.540  1.00  0.00     0.046 C 
HETATM   22  C26 UNL     1       5.114 -18.426 -14.836  1.00  0.00     0.016 C 
ENDROOT
BRANCH   1  23
HETATM   23  O2  UNL     1       2.773 -16.638 -15.573  1.00  0.00    -0.309 OA
BRANCH  23  24
HETATM   24  C5  UNL     1       1.596 -16.367 -16.160  1.00  0.00     0.272 C 
HETATM   25  O1  UNL     1       0.941 -17.316 -16.616  1.00  0.00    -0.264 OA
BRANCH  24  26
HETATM   26  C4  UNL     1       1.147 -14.934 -16.226  1.00  0.00     0.138 C 
BRANCH  26  27
HETATM   27  C3  UNL     1      -0.274 -14.839 -15.774  1.00  0.00     0.035 C 
BRANCH  27  28
HETATM   28  C2  UNL     1      -0.498 -14.097 -14.488  1.00  0.00     0.075 C 
BRANCH  28  29
HETATM   29  S1  UNL     1      -0.149 -12.306 -14.723  1.00  0.00    -0.173 SA
HETATM   30  C1  UNL     1      -1.598 -11.587 -15.540  1.00  0.00     0.089 C 
ENDBRANCH  28  29
ENDBRANCH  27  28
ENDBRANCH  26  27
BRANCH  26  31
HETATM   31  S2  UNL     1       1.566 -14.210 -17.732  1.00  0.00    -0.206 SA
HETATM   32  C27 UNL     1       2.586 -15.123 -18.784  1.00  0.00     0.080 C 
BRANCH  31  33
HETATM   33  C28 UNL     1       0.268 -13.313 -18.448  1.00  0.00     0.030 C 
HETATM   34  C29 UNL     1       0.613 -11.832 -18.572  1.00  0.00     0.020 C 
HETATM   35  C30 UNL     1      -0.169 -13.886 -19.764  1.00  0.00     0.020 C 
ENDBRANCH  31  33
ENDBRANCH  26  31
ENDBRANCH  24  26
ENDBRANCH  23  24
ENDBRANCH   1  23
BRANCH  15  36
HETATM   36  O4  UNL     1       1.436 -23.179 -15.443  1.00  0.00    -0.390 OA
ATOM     37  H4  UNL     1       1.246 -24.102 -15.563  1.00  0.00     0.210 HD
ENDBRANCH  15  36
BRANCH  17  38
HETATM   38  O6  UNL     1       2.627 -24.526 -11.116  1.00  0.00    -0.393 OA
ATOM     39  H6  UNL     1       3.159 -24.352 -10.348  1.00  0.00     0.210 HD
ENDBRANCH  17  38
BRANCH  16  40
HETATM   40  O5  UNL     1       2.993 -24.821 -14.519  1.00  0.00    -0.390 OA
ATOM     41  H5  UNL     1       2.330 -25.020 -15.168  1.00  0.00     0.210 HD
ENDBRANCH  16  40
TORSDOF 11
ENDMDL
MODEL 4
REMARK VINA RESULT: -7.274476344      2.186      4.099
REMARK  11 active torsions:
REMARK  status: ('A' for Active; 'I' for Inactive)
REMARK    1  A    between atoms: S1_2  and  C2_3 
REMARK    2  A    between atoms: C2_3  and  C3_4 
REMARK    3  A    between atoms: C3_4  and  C4_5 
REMARK    4  A    between atoms: C4_5  and  C5_6 
REMARK    5  A    between atoms: C4_5  and  S2_37 
REMARK    6  A    between atoms: C5_6  and  O2_8 
REMARK    7  A    between atoms: O2_8  and  C6_9 
REMARK    8  A    between atoms: C19_23  and  O4_24 
REMARK    9  A    between atoms: C20_26  and  O5_27 
REMARK   10  A    between atoms: C21_29  and  O6_30 
REMARK   11  A    between atoms: S2_37  and  C28_39 
ROOT
HETATM    1  C6  UNL     1       1.453 -17.218 -15.502  1.00  0.00     0.073 C 
HETATM    2  C7  UNL     1       1.741 -17.263 -17.001  1.00  0.00     0.047 C 
HETATM    3  C8  UNL     1       2.513 -16.451 -14.893  1.00  0.00     0.043 C 
HETATM    4  C9  UNL     1       3.746 -16.037 -15.543  1.00  0.00    -0.015 C 
HETATM    5  C10 UNL     1       4.527 -15.240 -14.452  1.00  0.00     0.010 C 
HETATM    6  C11 UNL     1       4.728 -16.874 -16.185  1.00  0.00     0.008 C 
HETATM    7  C12 UNL     1       5.404 -17.977 -15.445  1.00  0.00     0.028 C 
HETATM    8  C13 UNL     1       4.974 -19.306 -15.994  1.00  0.00    -0.024 C 
HETATM    9  C14 UNL     1       4.030 -20.075 -15.448  1.00  0.00    -0.080 C 
HETATM   10  C15 UNL     1       3.784 -21.370 -16.199  1.00  0.00     0.043 C 
HETATM   11  C16 UNL     1       3.308 -19.701 -14.249  1.00  0.00     0.054 C 
HETATM   12  C17 UNL     1       1.854 -19.505 -14.318  1.00  0.00     0.137 C 
HETATM   13  O3  UNL     1       1.584 -19.350 -12.919  1.00  0.00    -0.376 OA
HETATM   14  C18 UNL     1       2.037 -20.547 -12.484  1.00  0.00     0.162 C 
HETATM   15  C19 UNL     1       2.160 -20.835 -11.057  1.00  0.00     0.179 C 
HETATM   16  C20 UNL     1       2.659 -22.246 -10.898  1.00  0.00     0.178 C 
HETATM   17  C21 UNL     1       3.610 -22.736 -11.903  1.00  0.00     0.150 C 
HETATM   18  C22 UNL     1       3.754 -21.991 -13.191  1.00  0.00     0.047 C 
HETATM   19  C23 UNL     1       3.480 -20.559 -13.031  1.00  0.00    -0.003 C 
HETATM   20  C24 UNL     1       4.400 -19.909 -12.001  1.00  0.00     0.019 C 
HETATM   21  C25 UNL     1       1.118 -18.602 -15.143  1.00  0.00     0.046 C 
HETATM   22  C26 UNL     1       0.495 -19.371 -16.337  1.00  0.00     0.016 C 
ENDROOT
BRANCH   1  23
HETATM   23  O2  UNL     1       0.216 -16.451 -15.552  1.00  0.00    -0.309 OA
BRANCH  23  24
HETATM   24  C5  UNL     1      -0.159 -15.520 -14.660  1.00  0.00     0.272 C 
HETATM   25  O1  UNL     1      -0.835 -15.887 -13.687  1.00  0.00    -0.264 OA
BRANCH  24  26
HETATM   26  C4  UNL     1       0.263 -14.097 -14.895  1.00  0.00     0.138 C 
BRANCH  26  27
HETATM   27  C3  UNL     1       0.318 -13.375 -13.588  1.00  0.00     0.035 C 
BRANCH  27  28
HETATM   28  C2  UNL     1       1.596 -13.527 -12.815  1.00  0.00     0.075 C 
BRANCH  28  29
HETATM   29  S1  UNL     1       1.255 -14.287 -11.174  1.00  0.00    -0.173 SA
HETATM   30  C1  UNL     1       1.826 -16.005 -11.258  1.00  0.00     0.089 C 
ENDBRANCH  28  29
ENDBRANCH  27  28
ENDBRANCH  26  27
BRANCH  26  31
HETATM   31  S2  UNL     1      -0.633 -13.377 -16.179  1.00  0.00    -0.206 SA
HETATM   32  C27 UNL     1      -1.617 -12.016 -15.781  1.00  0.00     0.080 C 
BRANCH  31  33
HETATM   33  C28 UNL     1       0.230 -13.336 -17.680  1.00  0.00     0.030 C 
HETATM   34  C29 UNL     1       0.128 -11.968 -18.347  1.00  0.00     0.020 C 
HETATM   35  C30 UNL     1       1.659 -13.769 -17.534  1.00  0.00     0.020 C 
ENDBRANCH  31  33
ENDBRANCH  26  31
ENDBRANCH  24  26
ENDBRANCH  23  24
ENDBRANCH   1  23
BRANCH  15  36
HETATM   36  O4  UNL     1       0.881 -20.721 -10.462  1.00  0.00    -0.390 OA
ATOM     37  H4  UNL     1       0.549 -21.593 -10.288  1.00  0.00     0.210 HD
ENDBRANCH  15  36
BRANCH  17  38
HETATM   38  O6  UNL     1       4.895 -22.972 -11.346  1.00  0.00    -0.393 OA
ATOM     39  H6  UNL     1       5.490 -23.359 -11.978  1.00  0.00     0.210 HD
ENDBRANCH  17  38
BRANCH  16  40
HETATM   40  O5  UNL     1       1.507 -23.061 -10.783  1.00  0.00    -0.390 OA
ATOM     41  H5  UNL     1       1.603 -23.543  -9.970  1.00  0.00     0.210 HD
ENDBRANCH  16  40
TORSDOF 11
ENDMDL
MODEL 5
REMARK VINA RESULT: -7.264460056      2.400      5.026
REMARK  11 active torsions:
REMARK  status: ('A' for Active; 'I' for Inactive)
REMARK    1  A    between atoms: S1_2  and  C2_3 
REMARK    2  A    between atoms: C2_3  and  C3_4 
REMARK    3  A    between atoms: C3_4  and  C4_5 
REMARK    4  A    between atoms: C4_5  and  C5_6 
REMARK    5  A    between atoms: C4_5  and  S2_37 
REMARK    6  A    between atoms: C5_6  and  O2_8 
REMARK    7  A    between atoms: O2_8  and  C6_9 
REMARK    8  A    between atoms: C19_23  and  O4_24 
REMARK    9  A    between atoms: C20_26  and  O5_27 
REMARK   10  A    between atoms: C21_29  and  O6_30 
REMARK   11  A    between atoms: S2_37  and  C28_39 
ROOT
HETATM    1  C6  UNL     1       2.616 -18.441 -16.439  1.00  0.00     0.073 C 
HETATM    2  C7  UNL     1       2.128 -19.688 -17.173  1.00  0.00     0.047 C 
HETATM    3  C8  UNL     1       3.954 -18.721 -15.980  1.00  0.00     0.043 C 
HETATM    4  C9  UNL     1       4.601 -20.024 -15.983  1.00  0.00    -0.015 C 
HETATM    5  C10 UNL     1       6.023 -19.768 -15.394  1.00  0.00     0.010 C 
HETATM    6  C11 UNL     1       4.139 -21.238 -15.360  1.00  0.00     0.008 C 
HETATM    7  C12 UNL     1       3.864 -21.299 -13.896  1.00  0.00     0.028 C 
HETATM    8  C13 UNL     1       2.393 -21.473 -13.655  1.00  0.00    -0.024 C 
HETATM    9  C14 UNL     1       1.557 -20.478 -13.351  1.00  0.00    -0.080 C 
HETATM   10  C15 UNL     1       0.120 -20.922 -13.157  1.00  0.00     0.043 C 
HETATM   11  C16 UNL     1       1.989 -19.101 -13.223  1.00  0.00     0.054 C 
HETATM   12  C17 UNL     1       1.445 -18.089 -14.138  1.00  0.00     0.137 C 
HETATM   13  O3  UNL     1       1.990 -16.916 -13.521  1.00  0.00    -0.376 OA
HETATM   14  C18 UNL     1       1.417 -17.035 -12.303  1.00  0.00     0.162 C 
HETATM   15  C19 UNL     1       1.803 -16.159 -11.199  1.00  0.00     0.179 C 
HETATM   16  C20 UNL     1       0.974 -16.517  -9.995  1.00  0.00     0.178 C 
HETATM   17  C21 UNL     1       0.631 -17.934  -9.817  1.00  0.00     0.150 C 
HETATM   18  C22 UNL     1       0.788 -18.869 -10.972  1.00  0.00     0.047 C 
HETATM   19  C23 UNL     1       1.862 -18.450 -11.877  1.00  0.00    -0.003 C 
HETATM   20  C24 UNL     1       3.208 -18.348 -11.164  1.00  0.00     0.019 C 
HETATM   21  C25 UNL     1       1.500 -18.061 -15.564  1.00  0.00     0.046 C 
HETATM   22  C26 UNL     1       0.133 -18.499 -16.151  1.00  0.00     0.016 C 
ENDROOT
BRANCH   1  23
HETATM   23  O2  UNL     1       2.633 -17.528 -17.574  1.00  0.00    -0.309 OA
BRANCH  23  24
HETATM   24  C5  UNL     1       2.786 -16.195 -17.497  1.00  0.00     0.272 C 
HETATM   25  O1  UNL     1       3.926 -15.752 -17.289  1.00  0.00    -0.264 OA
BRANCH  24  26
HETATM   26  C4  UNL     1       1.570 -15.329 -17.668  1.00  0.00     0.138 C 
BRANCH  26  27
HETATM   27  C3  UNL     1       1.729 -14.493 -18.897  1.00  0.00     0.035 C 
BRANCH  27  28
HETATM   28  C2  UNL     1       0.474 -14.255 -19.686  1.00  0.00     0.075 C 
BRANCH  28  29
HETATM   29  S1  UNL     1       0.457 -12.537 -20.345  1.00  0.00    -0.173 SA
HETATM   30  C1  UNL     1       0.487 -11.422 -18.916  1.00  0.00     0.089 C 
ENDBRANCH  28  29
ENDBRANCH  27  28
ENDBRANCH  26  27
BRANCH  26  31
HETATM   31  S2  UNL     1       1.151 -14.533 -16.199  1.00  0.00    -0.206 SA
HETATM   32  C27 UNL     1       1.974 -13.057 -15.844  1.00  0.00     0.080 C 
BRANCH  31  33
HETATM   33  C28 UNL     1      -0.538 -14.623 -15.827  1.00  0.00     0.030 C 
HETATM   34  C29 UNL     1      -0.772 -14.874 -14.340  1.00  0.00     0.020 C 
HETATM   35  C30 UNL     1      -1.297 -13.420 -16.305  1.00  0.00     0.020 C 
ENDBRANCH  31  33
ENDBRANCH  26  31
ENDBRANCH  24  26
ENDBRANCH  23  24
ENDBRANCH   1  23
BRANCH  15  36
HETATM   36  O4  UNL     1       1.534 -14.820 -11.570  1.00  0.00    -0.390 OA
ATOM     37  H4  UNL     1       1.758 -14.709 -12.486  1.00  0.00     0.210 HD
ENDBRANCH  15  36
BRANCH  17  38
HETATM   38  O6  UNL     1       1.256 -18.490  -8.669  1.00  0.00    -0.393 OA
ATOM     39  H6  UNL     1       1.060 -19.415  -8.572  1.00  0.00     0.210 HD
ENDBRANCH  17  38
BRANCH  16  40
HETATM   40  O5  UNL     1      -0.164 -15.675 -10.033  1.00  0.00    -0.390 OA
ATOM     41  H5  UNL     1      -0.315 -15.394  -9.139  1.00  0.00     0.210 HD
ENDBRANCH  16  40
TORSDOF 11
ENDMDL
