MODEL 1
REMARK VINA RESULT: -7.437076474      0.000      0.000
REMARK  1 active torsions:
REMARK  status: ('A' for Active; 'I' for Inactive)
REMARK       I    between atoms: C2_2  and  N1_4 
REMARK    1  A    between atoms: N1_4  and  C3_5 
ROOT
HETATM    1  C3  UNL     1      17.790  25.972 -13.834  1.00  0.00     0.285 C 
HETATM    2  C4  UNL     1      18.404  25.715 -15.206  1.00  0.00     0.203 C 
HETATM    3  O2  UNL     1      19.362  24.915 -15.339  1.00  0.00    -0.289 OA
HETATM    4  C5  UNL     1      17.836  26.425 -16.334  1.00  0.00     0.072 A 
HETATM    5  C6  UNL     1      18.162  26.049 -17.629  1.00  0.00     0.074 A 
HETATM    6 CL1  UNL     1      19.262  24.713 -17.912  1.00  0.00    -0.081 Cl
HETATM    7  C7  UNL     1      17.629  26.718 -18.711  1.00  0.00     0.080 A 
HETATM    8 CL2  UNL     1      18.047  26.233 -20.340  1.00  0.00    -0.081 Cl
HETATM    9  C8  UNL     1      16.754  27.781 -18.521  1.00  0.00     0.082 A 
HETATM   10 CL3  UNL     1      16.111  28.588 -19.930  1.00  0.00    -0.081 Cl
HETATM   11  C9  UNL     1      16.455  28.123 -17.235  1.00  0.00     0.091 A 
HETATM   12 CL4  UNL     1      15.354  29.463 -16.970  1.00  0.00    -0.079 Cl
HETATM   13  C10 UNL     1      16.970  27.477 -16.148  1.00  0.00     0.110 A 
HETATM   14  O3  UNL     1      16.682  27.806 -14.820  1.00  0.00    -0.324 OA
HETATM   15  C11 UNL     1      17.636  27.494 -13.795  1.00  0.00     0.268 C 
HETATM   16 CL5  UNL     1      17.032  28.084 -12.257  1.00  0.00    -0.091 Cl
ENDROOT
BRANCH   1  17
HETATM   17  N1  UNL     1      16.552  25.360 -13.707  1.00  0.00    -0.398 NA
HETATM   18  C2  UNL     1      15.345  24.762 -13.583  1.00  0.00     0.283 C 
HETATM   19  C1  UNL     1      14.632  24.681 -12.214  1.00  0.00     0.134 C 
HETATM   20  O1  UNL     1      14.602  24.193 -14.462  1.00  0.00    -0.258 OA
ENDBRANCH   1  17
TORSDOF 1
ENDMDL
MODEL 2
REMARK VINA RESULT: -6.877145057      3.390      5.581
REMARK  1 active torsions:
REMARK  status: ('A' for Active; 'I' for Inactive)
REMARK       I    between atoms: C2_2  and  N1_4 
REMARK    1  A    between atoms: N1_4  and  C3_5 
ROOT
HETATM    1  C3  UNL     1      18.701  26.119 -15.215  1.00  0.00     0.285 C 
HETATM    2  C4  UNL     1      19.032  24.754 -14.623  1.00  0.00     0.203 C 
HETATM    3  O2  UNL     1      20.202  24.301 -14.674  1.00  0.00    -0.289 OA
HETATM    4  C5  UNL     1      17.950  24.015 -14.005  1.00  0.00     0.072 A 
HETATM    5  C6  UNL     1      18.226  22.902 -13.223  1.00  0.00     0.074 A 
HETATM    6 CL1  UNL     1      19.881  22.381 -12.977  1.00  0.00    -0.081 Cl
HETATM    7  C7  UNL     1      17.204  22.190 -12.629  1.00  0.00     0.080 A 
HETATM    8 CL2  UNL     1      17.563  20.789 -11.645  1.00  0.00    -0.081 Cl
HETATM    9  C8  UNL     1      15.880  22.577 -12.805  1.00  0.00     0.082 A 
HETATM   10 CL3  UNL     1      14.631  21.635 -12.027  1.00  0.00    -0.081 Cl
HETATM   11  C9  UNL     1      15.647  23.675 -13.579  1.00  0.00     0.091 A 
HETATM   12 CL4  UNL     1      13.985  24.182 -13.815  1.00  0.00    -0.079 Cl
HETATM   13  C10 UNL     1      16.640  24.396 -14.177  1.00  0.00     0.110 A 
HETATM   14  O3  UNL     1      16.431  25.525 -14.974  1.00  0.00    -0.324 OA
HETATM   15  C11 UNL     1      17.398  25.867 -15.977  1.00  0.00     0.268 C 
HETATM   16 CL5  UNL     1      16.832  27.277 -16.856  1.00  0.00    -0.091 Cl
ENDROOT
BRANCH   1  17
HETATM   17  N1  UNL     1      18.503  27.070 -14.225  1.00  0.00    -0.398 NA
HETATM   18  C2  UNL     1      18.309  27.997 -13.259  1.00  0.00     0.283 C 
HETATM   19  C1  UNL     1      17.062  27.950 -12.347  1.00  0.00     0.134 C 
HETATM   20  O1  UNL     1      19.025  29.006 -12.917  1.00  0.00    -0.258 OA
ENDBRANCH   1  17
TORSDOF 1
ENDMDL
MODEL 3
REMARK VINA RESULT: -6.589071392      3.091      5.657
REMARK  1 active torsions:
REMARK  status: ('A' for Active; 'I' for Inactive)
REMARK       I    between atoms: C2_2  and  N1_4 
REMARK    1  A    between atoms: N1_4  and  C3_5 
ROOT
HETATM    1  C3  UNL     1      19.776  25.466 -15.235  1.00  0.00     0.285 C 
HETATM    2  C4  UNL     1      19.124  26.473 -14.294  1.00  0.00     0.203 C 
HETATM    3  O2  UNL     1      19.700  27.551 -14.011  1.00  0.00    -0.289 OA
HETATM    4  C5  UNL     1      17.825  26.132 -13.750  1.00  0.00     0.072 A 
HETATM    5  C6  UNL     1      17.064  27.098 -13.108  1.00  0.00     0.074 A 
HETATM    6 CL1  UNL     1      17.667  28.737 -12.948  1.00  0.00    -0.081 Cl
HETATM    7  C7  UNL     1      15.826  26.787 -12.586  1.00  0.00     0.080 A 
HETATM    8 CL2  UNL     1      14.875  28.014 -11.779  1.00  0.00    -0.081 Cl
HETATM    9  C8  UNL     1      15.319  25.496 -12.696  1.00  0.00     0.082 A 
HETATM   10 CL3  UNL     1      13.746  25.163 -12.015  1.00  0.00    -0.081 Cl
HETATM   11  C9  UNL     1      16.093  24.572 -13.334  1.00  0.00     0.091 A 
HETATM   12 CL4  UNL     1      15.476  22.938 -13.484  1.00  0.00    -0.079 Cl
HETATM   13  C10 UNL     1      17.322  24.856 -13.858  1.00  0.00     0.110 A 
HETATM   14  O3  UNL     1      18.136  23.931 -14.516  1.00  0.00    -0.324 OA
HETATM   15  C11 UNL     1      19.557  24.127 -14.529  1.00  0.00     0.268 C 
HETATM   16 CL5  UNL     1      20.311  22.779 -15.361  1.00  0.00    -0.091 Cl
ENDROOT
BRANCH   1  17
HETATM   17  N1  UNL     1      19.162  25.460 -16.479  1.00  0.00    -0.398 NA
HETATM   18  C2  UNL     1      18.562  25.453 -17.692  1.00  0.00     0.283 C 
HETATM   19  C1  UNL     1      17.991  26.751 -18.306  1.00  0.00     0.134 C 
HETATM   20  O1  UNL     1      18.352  24.488 -18.513  1.00  0.00    -0.258 OA
ENDBRANCH   1  17
TORSDOF 1
ENDMDL
MODEL 4
REMARK VINA RESULT: -6.541299572      3.701      4.599
REMARK  1 active torsions:
REMARK  status: ('A' for Active; 'I' for Inactive)
REMARK       I    between atoms: C2_2  and  N1_4 
REMARK    1  A    between atoms: N1_4  and  C3_5 
ROOT
HETATM    1  C3  UNL     1      15.615  29.932 -13.212  1.00  0.00     0.285 C 
HETATM    2  C4  UNL     1      15.973  29.757 -14.684  1.00  0.00     0.203 C 
HETATM    3  O2  UNL     1      17.109  29.342 -15.020  1.00  0.00    -0.289 OA
HETATM    4  C5  UNL     1      14.956  30.084 -15.661  1.00  0.00     0.072 A 
HETATM    5  C6  UNL     1      15.115  29.704 -16.986  1.00  0.00     0.074 A 
HETATM    6 CL1  UNL     1      16.547  28.826 -17.488  1.00  0.00    -0.081 Cl
HETATM    7  C7  UNL     1      14.154  30.011 -17.927  1.00  0.00     0.080 A 
HETATM    8 CL2  UNL     1      14.365  29.525 -19.594  1.00  0.00    -0.081 Cl
HETATM    9  C8  UNL     1      13.007  30.706 -17.561  1.00  0.00     0.082 A 
HETATM   10 CL3  UNL     1      11.825  31.064 -18.796  1.00  0.00    -0.081 Cl
HETATM   11  C9  UNL     1      12.882  31.063 -16.250  1.00  0.00     0.091 A 
HETATM   12 CL4  UNL     1      11.444  31.942 -15.765  1.00  0.00    -0.079 Cl
HETATM   13  C10 UNL     1      13.820  30.772 -15.301  1.00  0.00     0.110 A 
HETATM   14  O3  UNL     1      13.720  31.124 -13.953  1.00  0.00    -0.324 OA
HETATM   15  C11 UNL     1      14.915  31.292 -13.178  1.00  0.00     0.268 C 
HETATM   16 CL5  UNL     1      14.477  31.799 -11.557  1.00  0.00    -0.091 Cl
ENDROOT
BRANCH   1  17
HETATM   17  N1  UNL     1      14.753  28.937 -12.775  1.00  0.00    -0.398 NA
HETATM   18  C2  UNL     1      13.913  27.966 -12.350  1.00  0.00     0.283 C 
HETATM   19  C1  UNL     1      14.454  26.652 -11.745  1.00  0.00     0.134 C 
HETATM   20  O1  UNL     1      12.630  27.915 -12.350  1.00  0.00    -0.258 OA
ENDBRANCH   1  17
TORSDOF 1
ENDMDL
MODEL 5
REMARK VINA RESULT: -6.372317315      1.813      2.767
REMARK  1 active torsions:
REMARK  status: ('A' for Active; 'I' for Inactive)
REMARK       I    between atoms: C2_2  and  N1_4 
REMARK    1  A    between atoms: N1_4  and  C3_5 
ROOT
HETATM    1  C3  UNL     1      17.619  26.647 -15.067  1.00  0.00     0.285 C 
HETATM    2  C4  UNL     1      17.283  27.046 -16.500  1.00  0.00     0.203 C 
HETATM    3  O2  UNL     1      17.818  26.455 -17.470  1.00  0.00    -0.289 OA
HETATM    4  C5  UNL     1      16.331  28.121 -16.687  1.00  0.00     0.072 A 
HETATM    5  C6  UNL     1      15.785  28.357 -17.941  1.00  0.00     0.074 A 
HETATM    6 CL1  UNL     1      16.243  27.358 -19.307  1.00  0.00    -0.081 Cl
HETATM    7  C7  UNL     1      14.877  29.378 -18.132  1.00  0.00     0.080 A 
HETATM    8 CL2  UNL     1      14.195  29.665 -19.718  1.00  0.00    -0.081 Cl
HETATM    9  C8  UNL     1      14.493  30.188 -17.069  1.00  0.00     0.082 A 
HETATM   10 CL3  UNL     1      13.340  31.464 -17.374  1.00  0.00    -0.081 Cl
HETATM   11  C9  UNL     1      15.049  29.927 -15.852  1.00  0.00     0.091 A 
HETATM   12 CL4  UNL     1      14.581  30.936 -14.495  1.00  0.00    -0.079 Cl
HETATM   13  C10 UNL     1      15.949  28.923 -15.637  1.00  0.00     0.110 A 
HETATM   14  O3  UNL     1      16.534  28.633 -14.402  1.00  0.00    -0.324 OA
HETATM   15  C11 UNL     1      17.817  27.991 -14.363  1.00  0.00     0.268 C 
HETATM   16 CL5  UNL     1      18.320  27.823 -12.690  1.00  0.00    -0.091 Cl
ENDROOT
BRANCH   1  17
HETATM   17  N1  UNL     1      16.579  25.944 -14.477  1.00  0.00    -0.398 NA
HETATM   18  C2  UNL     1      15.565  25.258 -13.902  1.00  0.00     0.283 C 
HETATM   19  C1  UNL     1      15.184  25.489 -12.422  1.00  0.00     0.134 C 
HETATM   20  O1  UNL     1      14.780  24.366 -14.389  1.00  0.00    -0.258 OA
ENDBRANCH   1  17
TORSDOF 1
ENDMDL
