MODEL 1
REMARK VINA RESULT: -6.771175392      0.000      0.000
REMARK  4 active torsions:
REMARK  status: ('A' for Active; 'I' for Inactive)
REMARK    1  A    between atoms: C4_7  and  O2_8 
REMARK    2  A    between atoms: C4_7  and  N2_10 
REMARK    3  A    between atoms: N2_10  and  C6_12 
REMARK    4  A    between atoms: C9_16  and  N3_17 
ROOT
HETATM    1  C1  UNL     1       6.087  17.614 -19.847  1.00  0.00     0.073 C 
HETATM    2  C2  UNL     1       4.984  18.603 -19.936  1.00  0.00     0.065 A 
HETATM    3  N1  UNL     1       3.962  18.590 -20.740  1.00  0.00    -0.263 N 
ATOM      4  H1  UNL     1       3.794  17.865 -21.437  1.00  0.00     0.194 HD
HETATM    5  O1  UNL     1       3.205  19.578 -20.557  1.00  0.00    -0.231 OA
HETATM    6  C3  UNL     1       3.685  20.374 -19.560  1.00  0.00     0.184 A 
HETATM    7  C4  UNL     1       2.928  21.543 -19.234  1.00  0.00     0.178 C 
HETATM    8  C9  UNL     1       4.830  19.773 -19.143  1.00  0.00     0.167 A 
ENDROOT
BRANCH   7   9
HETATM    9  O2  UNL     1       1.909  21.730 -20.094  1.00  0.00    -0.344 OA
ATOM     10  H2  UNL     1       1.179  21.152 -19.905  1.00  0.00     0.219 HD
ENDBRANCH   7   9
BRANCH   7  11
HETATM   11  N2  UNL     1       2.965  22.536 -18.261  1.00  0.00    -0.342 N 
HETATM   12  C5  UNL     1       2.275  22.526 -17.028  1.00  0.00     0.154 C 
BRANCH  11  13
HETATM   13  C6  UNL     1       3.809  23.738 -18.509  1.00  0.00     0.104 C 
HETATM   14  C7  UNL     1       3.377  24.920 -17.715  1.00  0.00     0.056 C 
HETATM   15  C8  UNL     1       5.245  23.429 -18.179  1.00  0.00     0.056 C 
HETATM   16 CL1  UNL     1       3.656  24.048 -20.259  1.00  0.00    -0.096 Cl
ENDBRANCH  11  13
ENDBRANCH   7  11
BRANCH   8  17
HETATM   17  N3  UNL     1       5.802  20.129 -18.200  1.00  0.00    -0.110 N 
HETATM   18  O3  UNL     1       6.881  20.698 -18.469  1.00  0.00    -0.532 OA
HETATM   19  O4  UNL     1       5.546  19.859 -16.855  1.00  0.00    -0.532 OA
ENDBRANCH   8  17
TORSDOF 4
ENDMDL
MODEL 2
REMARK VINA RESULT: -6.662510602      0.803      1.102
REMARK  4 active torsions:
REMARK  status: ('A' for Active; 'I' for Inactive)
REMARK    1  A    between atoms: C4_7  and  O2_8 
REMARK    2  A    between atoms: C4_7  and  N2_10 
REMARK    3  A    between atoms: N2_10  and  C6_12 
REMARK    4  A    between atoms: C9_16  and  N3_17 
ROOT
HETATM    1  C1  UNL     1       6.066  17.629 -19.798  1.00  0.00     0.073 C 
HETATM    2  C2  UNL     1       4.973  18.628 -19.904  1.00  0.00     0.065 A 
HETATM    3  N1  UNL     1       3.959  18.620 -20.718  1.00  0.00    -0.263 N 
ATOM      4  H1  UNL     1       3.791  17.891 -21.412  1.00  0.00     0.194 HD
HETATM    5  O1  UNL     1       3.210  19.616 -20.549  1.00  0.00    -0.231 OA
HETATM    6  C3  UNL     1       3.688  20.414 -19.553  1.00  0.00     0.184 A 
HETATM    7  C4  UNL     1       2.939  21.592 -19.242  1.00  0.00     0.178 C 
HETATM    8  C9  UNL     1       4.823  19.804 -19.120  1.00  0.00     0.167 A 
ENDROOT
BRANCH   7   9
HETATM    9  O2  UNL     1       1.930  21.783 -20.113  1.00  0.00    -0.344 OA
ATOM     10  H2  UNL     1       1.663  22.694 -20.145  1.00  0.00     0.219 HD
ENDBRANCH   7   9
BRANCH   7  11
HETATM   11  N2  UNL     1       2.976  22.591 -18.275  1.00  0.00    -0.342 N 
HETATM   12  C5  UNL     1       2.316  22.572 -17.026  1.00  0.00     0.154 C 
BRANCH  11  13
HETATM   13  C6  UNL     1       3.785  23.811 -18.548  1.00  0.00     0.104 C 
HETATM   14  C7  UNL     1       3.740  24.226 -19.977  1.00  0.00     0.056 C 
HETATM   15  C8  UNL     1       3.294  24.950 -17.695  1.00  0.00     0.056 C 
HETATM   16 CL1  UNL     1       5.444  23.376 -18.058  1.00  0.00    -0.096 Cl
ENDBRANCH  11  13
ENDBRANCH   7  11
BRANCH   8  17
HETATM   17  N3  UNL     1       5.789  20.157 -18.170  1.00  0.00    -0.110 N 
HETATM   18  O3  UNL     1       6.902  20.657 -18.437  1.00  0.00    -0.532 OA
HETATM   19  O4  UNL     1       5.487  19.968 -16.820  1.00  0.00    -0.532 OA
ENDBRANCH   8  17
TORSDOF 4
ENDMDL
MODEL 3
REMARK VINA RESULT: -5.814882440      1.167      1.506
REMARK  4 active torsions:
REMARK  status: ('A' for Active; 'I' for Inactive)
REMARK    1  A    between atoms: C4_7  and  O2_8 
REMARK    2  A    between atoms: C4_7  and  N2_10 
REMARK    3  A    between atoms: N2_10  and  C6_12 
REMARK    4  A    between atoms: C9_16  and  N3_17 
ROOT
HETATM    1  C1  UNL     1       5.939  17.323 -20.407  1.00  0.00     0.073 C 
HETATM    2  C2  UNL     1       4.950  18.410 -20.194  1.00  0.00     0.065 A 
HETATM    3  N1  UNL     1       3.751  18.506 -20.687  1.00  0.00    -0.263 N 
ATOM      4  H1  UNL     1       3.332  17.814 -21.308  1.00  0.00     0.194 HD
HETATM    5  O1  UNL     1       3.168  19.554 -20.308  1.00  0.00    -0.231 OA
HETATM    6  C3  UNL     1       3.974  20.283 -19.485  1.00  0.00     0.184 A 
HETATM    7  C4  UNL     1       3.448  21.508 -18.968  1.00  0.00     0.178 C 
HETATM    8  C9  UNL     1       5.129  19.571 -19.395  1.00  0.00     0.167 A 
ENDROOT
BRANCH   7   9
HETATM    9  O2  UNL     1       2.254  21.805 -19.516  1.00  0.00    -0.344 OA
ATOM     10  H2  UNL     1       1.736  22.363 -18.948  1.00  0.00     0.219 HD
ENDBRANCH   7   9
BRANCH   7  11
HETATM   11  N2  UNL     1       3.842  22.473 -18.048  1.00  0.00    -0.342 N 
HETATM   12  C5  UNL     1       4.182  22.249 -16.695  1.00  0.00     0.154 C 
BRANCH  11  13
HETATM   13  C6  UNL     1       3.931  23.889 -18.500  1.00  0.00     0.104 C 
HETATM   14  C7  UNL     1       3.650  24.050 -19.953  1.00  0.00     0.056 C 
HETATM   15  C8  UNL     1       2.960  24.735 -17.720  1.00  0.00     0.056 C 
HETATM   16 CL1  UNL     1       5.599  24.388 -18.110  1.00  0.00    -0.096 Cl
ENDBRANCH  11  13
ENDBRANCH   7  11
BRANCH   8  17
HETATM   17  N3  UNL     1       6.351  19.818 -18.757  1.00  0.00    -0.110 N 
HETATM   18  O3  UNL     1       7.064  18.944 -18.221  1.00  0.00    -0.532 OA
HETATM   19  O4  UNL     1       6.832  21.128 -18.736  1.00  0.00    -0.532 OA
ENDBRANCH   8  17
TORSDOF 4
ENDMDL
MODEL 4
REMARK VINA RESULT: -5.646187179      2.908      4.962
REMARK  4 active torsions:
REMARK  status: ('A' for Active; 'I' for Inactive)
REMARK    1  A    between atoms: C4_7  and  O2_8 
REMARK    2  A    between atoms: C4_7  and  N2_10 
REMARK    3  A    between atoms: N2_10  and  C6_12 
REMARK    4  A    between atoms: C9_16  and  N3_17 
ROOT
HETATM    1  C1  UNL     1       4.044  27.083 -19.684  1.00  0.00     0.073 C 
HETATM    2  C2  UNL     1       3.762  25.635 -19.849  1.00  0.00     0.065 A 
HETATM    3  N1  UNL     1       3.227  25.037 -20.872  1.00  0.00    -0.263 N 
ATOM      4  H1  UNL     1       2.924  25.517 -21.719  1.00  0.00     0.194 HD
HETATM    5  O1  UNL     1       3.128  23.796 -20.694  1.00  0.00    -0.231 OA
HETATM    6  C3  UNL     1       3.616  23.444 -19.471  1.00  0.00     0.184 A 
HETATM    7  C4  UNL     1       3.572  22.058 -19.122  1.00  0.00     0.178 C 
HETATM    8  C9  UNL     1       4.029  24.608 -18.904  1.00  0.00     0.167 A 
ENDROOT
BRANCH   7   9
HETATM    9  O2  UNL     1       2.906  21.335 -20.042  1.00  0.00    -0.344 OA
ATOM     10  H2  UNL     1       3.070  20.405 -19.943  1.00  0.00     0.219 HD
ENDBRANCH   7   9
BRANCH   7  11
HETATM   11  N2  UNL     1       4.038  21.259 -18.083  1.00  0.00    -0.342 N 
HETATM   12  C5  UNL     1       3.394  21.038 -16.845  1.00  0.00     0.154 C 
BRANCH  11  13
HETATM   13  C6  UNL     1       5.335  20.549 -18.262  1.00  0.00     0.104 C 
HETATM   14  C7  UNL     1       5.346  19.659 -19.455  1.00  0.00     0.056 C 
HETATM   15  C8  UNL     1       6.450  21.552 -18.393  1.00  0.00     0.056 C 
HETATM   16 CL1  UNL     1       5.552  19.612 -16.759  1.00  0.00    -0.096 Cl
ENDBRANCH  11  13
ENDBRANCH   7  11
BRANCH   8  17
HETATM   17  N3  UNL     1       4.558  24.917 -17.645  1.00  0.00    -0.110 N 
HETATM   18  O3  UNL     1       3.916  24.884 -16.574  1.00  0.00    -0.532 OA
HETATM   19  O4  UNL     1       5.909  25.261 -17.563  1.00  0.00    -0.532 OA
ENDBRANCH   8  17
TORSDOF 4
ENDMDL
MODEL 5
REMARK VINA RESULT: -5.590417183      2.833      4.885
REMARK  4 active torsions:
REMARK  status: ('A' for Active; 'I' for Inactive)
REMARK    1  A    between atoms: C4_7  and  O2_8 
REMARK    2  A    between atoms: C4_7  and  N2_10 
REMARK    3  A    between atoms: N2_10  and  C6_12 
REMARK    4  A    between atoms: C9_16  and  N3_17 
ROOT
HETATM    1  C1  UNL     1       4.057  27.099 -19.656  1.00  0.00     0.073 C 
HETATM    2  C2  UNL     1       3.763  25.654 -19.831  1.00  0.00     0.065 A 
HETATM    3  N1  UNL     1       3.234  25.066 -20.863  1.00  0.00    -0.263 N 
ATOM      4  H1  UNL     1       2.944  25.554 -21.711  1.00  0.00     0.194 HD
HETATM    5  O1  UNL     1       3.122  23.825 -20.693  1.00  0.00    -0.231 OA
HETATM    6  C3  UNL     1       3.594  23.463 -19.467  1.00  0.00     0.184 A 
HETATM    7  C4  UNL     1       3.534  22.075 -19.126  1.00  0.00     0.178 C 
HETATM    8  C9  UNL     1       4.012  24.620 -18.889  1.00  0.00     0.167 A 
ENDROOT
BRANCH   7   9
HETATM    9  O2  UNL     1       2.872  21.363 -20.057  1.00  0.00    -0.344 OA
ATOM     10  H2  UNL     1       3.001  20.429 -19.942  1.00  0.00     0.219 HD
ENDBRANCH   7   9
BRANCH   7  11
HETATM   11  N2  UNL     1       3.982  21.266 -18.087  1.00  0.00    -0.342 N 
HETATM   12  C5  UNL     1       3.338  21.066 -16.845  1.00  0.00     0.154 C 
BRANCH  11  13
HETATM   13  C6  UNL     1       5.259  20.521 -18.269  1.00  0.00     0.104 C 
HETATM   14  C7  UNL     1       6.412  21.414 -18.564  1.00  0.00     0.056 C 
HETATM   15  C8  UNL     1       5.564  19.724 -17.029  1.00  0.00     0.056 C 
HETATM   16 CL1  UNL     1       4.945  19.407 -19.627  1.00  0.00    -0.096 Cl
ENDBRANCH  11  13
ENDBRANCH   7  11
BRANCH   8  17
HETATM   17  N3  UNL     1       4.531  24.917 -17.623  1.00  0.00    -0.110 N 
HETATM   18  O3  UNL     1       3.881  24.875 -16.558  1.00  0.00    -0.532 OA
HETATM   19  O4  UNL     1       5.881  25.261 -17.527  1.00  0.00    -0.532 OA
ENDBRANCH   8  17
TORSDOF 4
ENDMDL
