MODEL 1
REMARK VINA RESULT: -6.444434608      0.000      0.000
REMARK  2 active torsions:
REMARK  status: ('A' for Active; 'I' for Inactive)
REMARK    1  A    between atoms: N2_5  and  C4_6 
REMARK    2  A    between atoms: C5_10  and  C6_11 
ROOT
HETATM    1  C4  UNL     1       4.323  22.389 -18.779  1.00  0.00     0.702 A 
HETATM    2  N3  UNL     1       4.348  23.057 -17.613  1.00  0.00    -0.089 N 
ATOM      3  H3  UNL     1       4.612  22.672 -16.706  1.00  0.00     0.213 HD
HETATM    4  O1  UNL     1       3.972  24.291 -17.852  1.00  0.00    -0.209 OA
HETATM    5  C5  UNL     1       3.703  24.451 -19.127  1.00  0.00     0.169 A 
HETATM    6  N4  UNL     1       3.920  23.271 -19.709  1.00  0.00    -0.170 N 
ATOM      7  H4  UNL     1       3.799  23.070 -20.701  1.00  0.00     0.186 HD
ENDROOT
BRANCH   1   8
HETATM    8  N2  UNL     1       4.660  21.016 -18.984  1.00  0.00    -0.213 N 
HETATM    9  C3  UNL     1       6.010  20.536 -18.779  1.00  0.00     0.171 C 
HETATM   10  C2  UNL     1       5.932  19.049 -18.418  1.00  0.00     0.292 C 
HETATM   11  N1  UNL     1       5.285  18.278 -19.434  1.00  0.00     0.087 N 
HETATM   12  C1  UNL     1       6.190  17.428 -20.181  1.00  0.00     0.310 C 
HETATM   13  C12 UNL     1       4.407  19.033 -20.280  1.00  0.00     0.292 C 
HETATM   14  C11 UNL     1       3.673  20.041 -19.405  1.00  0.00     0.171 C 
ENDBRANCH   1   8
BRANCH   5  15
HETATM   15  C6  UNL     1       3.253  25.703 -19.751  1.00  0.00     0.097 C 
HETATM   16  C7  UNL     1       3.429  25.677 -21.277  1.00  0.00     0.016 C 
HETATM   17  C8  UNL     1       3.110  27.149 -21.576  1.00  0.00     0.004 C 
HETATM   18  C9  UNL     1       4.034  27.834 -20.588  1.00  0.00     0.038 C 
HETATM   19  C10 UNL     1       4.079  26.898 -19.381  1.00  0.00     0.182 C 
HETATM   20  F1  UNL     1       3.435  27.562 -18.351  1.00  0.00    -0.249 F 
ENDBRANCH   5  15
TORSDOF 2
ENDMDL
MODEL 2
REMARK VINA RESULT: -6.177932047      5.054      7.277
REMARK  2 active torsions:
REMARK  status: ('A' for Active; 'I' for Inactive)
REMARK    1  A    between atoms: N2_5  and  C4_6 
REMARK    2  A    between atoms: C5_10  and  C6_11 
ROOT
HETATM    1  C4  UNL     1       6.841  16.121 -21.185  1.00  0.00     0.702 A 
HETATM    2  N3  UNL     1       7.803  16.768 -20.506  1.00  0.00    -0.089 N 
ATOM      3  H3  UNL     1       8.801  16.558 -20.530  1.00  0.00     0.213 HD
HETATM    4  O1  UNL     1       7.227  17.719 -19.808  1.00  0.00    -0.209 OA
HETATM    5  C5  UNL     1       5.930  17.713 -20.007  1.00  0.00     0.169 A 
HETATM    6  N4  UNL     1       5.683  16.721 -20.863  1.00  0.00    -0.170 N 
ATOM      7  H4  UNL     1       4.763  16.460 -21.217  1.00  0.00     0.186 HD
ENDROOT
BRANCH   1   8
HETATM    8  N2  UNL     1       7.019  15.016 -22.073  1.00  0.00    -0.213 N 
HETATM    9  C3  UNL     1       7.996  15.060 -23.140  1.00  0.00     0.171 C 
HETATM   10  C2  UNL     1       8.421  13.622 -23.451  1.00  0.00     0.292 C 
HETATM   11  N1  UNL     1       7.315  12.799 -23.831  1.00  0.00     0.087 N 
HETATM   12  C1  UNL     1       7.304  12.458 -25.239  1.00  0.00     0.310 C 
HETATM   13  C12 UNL     1       6.043  13.267 -23.363  1.00  0.00     0.292 C 
HETATM   14  C11 UNL     1       6.236  13.802 -21.950  1.00  0.00     0.171 C 
ENDBRANCH   1   8
BRANCH   5  15
HETATM   15  C6  UNL     1       4.970  18.637 -19.387  1.00  0.00     0.097 C 
HETATM   16  C7  UNL     1       4.056  19.298 -20.430  1.00  0.00     0.016 C 
HETATM   17  C8  UNL     1       3.373  20.333 -19.525  1.00  0.00     0.004 C 
HETATM   18  C9  UNL     1       4.588  20.972 -18.878  1.00  0.00     0.038 C 
HETATM   19  C10 UNL     1       5.605  19.839 -18.752  1.00  0.00     0.182 C 
HETATM   20  F1  UNL     1       5.740  19.587 -17.397  1.00  0.00    -0.249 F 
ENDBRANCH   5  15
TORSDOF 2
ENDMDL
MODEL 3
REMARK VINA RESULT: -6.041760466      1.562      1.956
REMARK  2 active torsions:
REMARK  status: ('A' for Active; 'I' for Inactive)
REMARK    1  A    between atoms: N2_5  and  C4_6 
REMARK    2  A    between atoms: C5_10  and  C6_11 
ROOT
HETATM    1  C4  UNL     1       3.958  21.127 -19.348  1.00  0.00     0.702 A 
HETATM    2  N3  UNL     1       2.650  21.288 -19.609  1.00  0.00    -0.089 N 
ATOM      3  H3  UNL     1       2.010  20.567 -19.943  1.00  0.00     0.213 HD
HETATM    4  O1  UNL     1       2.344  22.539 -19.357  1.00  0.00    -0.209 OA
HETATM    5  C5  UNL     1       3.402  23.196 -18.943  1.00  0.00     0.169 A 
HETATM    6  N4  UNL     1       4.409  22.322 -18.935  1.00  0.00    -0.170 N 
ATOM      7  H4  UNL     1       5.369  22.529 -18.659  1.00  0.00     0.186 HD
ENDROOT
BRANCH   1   8
HETATM    8  N2  UNL     1       4.713  19.921 -19.482  1.00  0.00    -0.213 N 
HETATM    9  C3  UNL     1       6.133  19.890 -19.204  1.00  0.00     0.171 C 
HETATM   10  C2  UNL     1       6.501  18.463 -18.786  1.00  0.00     0.292 C 
HETATM   11  N1  UNL     1       6.177  17.503 -19.794  1.00  0.00     0.087 N 
HETATM   12  C1  UNL     1       7.337  16.957 -20.469  1.00  0.00     0.310 C 
HETATM   13  C12 UNL     1       5.153  17.924 -20.706  1.00  0.00     0.292 C 
HETATM   14  C11 UNL     1       4.099  18.677 -19.903  1.00  0.00     0.171 C 
ENDBRANCH   1   8
BRANCH   5  15
HETATM   15  C6  UNL     1       3.430  24.617 -18.571  1.00  0.00     0.097 C 
HETATM   16  C7  UNL     1       3.337  25.533 -19.800  1.00  0.00     0.016 C 
HETATM   17  C8  UNL     1       3.625  26.877 -19.116  1.00  0.00     0.004 C 
HETATM   18  C9  UNL     1       4.894  26.532 -18.361  1.00  0.00     0.038 C 
HETATM   19  C10 UNL     1       4.730  25.064 -17.970  1.00  0.00     0.182 C 
HETATM   20  F1  UNL     1       4.596  25.042 -16.592  1.00  0.00    -0.249 F 
ENDBRANCH   5  15
TORSDOF 2
ENDMDL
MODEL 4
REMARK VINA RESULT: -6.025682457      1.183      1.483
REMARK  2 active torsions:
REMARK  status: ('A' for Active; 'I' for Inactive)
REMARK    1  A    between atoms: N2_5  and  C4_6 
REMARK    2  A    between atoms: C5_10  and  C6_11 
ROOT
HETATM    1  C4  UNL     1       4.029  22.096 -18.996  1.00  0.00     0.702 A 
HETATM    2  N3  UNL     1       3.065  22.520 -18.161  1.00  0.00    -0.089 N 
ATOM      3  H3  UNL     1       2.511  21.935 -17.536  1.00  0.00     0.213 HD
HETATM    4  O1  UNL     1       2.966  23.822 -18.296  1.00  0.00    -0.209 OA
HETATM    5  C5  UNL     1       3.827  24.259 -19.185  1.00  0.00     0.169 A 
HETATM    6  N4  UNL     1       4.491  23.189 -19.624  1.00  0.00    -0.170 N 
ATOM      7  H4  UNL     1       5.232  23.200 -20.325  1.00  0.00     0.186 HD
ENDROOT
BRANCH   1   8
HETATM    8  N2  UNL     1       4.471  20.749 -19.175  1.00  0.00    -0.213 N 
HETATM    9  C3  UNL     1       5.837  20.363 -18.887  1.00  0.00     0.171 C 
HETATM   10  C2  UNL     1       5.840  18.874 -18.527  1.00  0.00     0.292 C 
HETATM   11  N1  UNL     1       5.310  18.061 -19.576  1.00  0.00     0.087 N 
HETATM   12  C1  UNL     1       6.315  17.276 -20.265  1.00  0.00     0.310 C 
HETATM   13  C12 UNL     1       4.435  18.754 -20.477  1.00  0.00     0.292 C 
HETATM   14  C11 UNL     1       3.581  19.709 -19.652  1.00  0.00     0.171 C 
ENDBRANCH   1   8
BRANCH   5  15
HETATM   15  C6  UNL     1       3.994  25.661 -19.590  1.00  0.00     0.097 C 
HETATM   16  C7  UNL     1       3.260  26.622 -18.643  1.00  0.00     0.016 C 
HETATM   17  C8  UNL     1       3.424  27.919 -19.447  1.00  0.00     0.004 C 
HETATM   18  C9  UNL     1       2.928  27.462 -20.805  1.00  0.00     0.038 C 
HETATM   19  C10 UNL     1       3.350  25.996 -20.903  1.00  0.00     0.182 C 
HETATM   20  F1  UNL     1       4.324  25.938 -21.885  1.00  0.00    -0.249 F 
ENDBRANCH   5  15
TORSDOF 2
ENDMDL
MODEL 5
REMARK VINA RESULT: -5.783126381      2.833      6.996
REMARK  2 active torsions:
REMARK  status: ('A' for Active; 'I' for Inactive)
REMARK    1  A    between atoms: N2_5  and  C4_6 
REMARK    2  A    between atoms: C5_10  and  C6_11 
ROOT
HETATM    1  C4  UNL     1       4.793  22.290 -17.948  1.00  0.00     0.702 A 
HETATM    2  N3  UNL     1       4.938  21.724 -16.738  1.00  0.00    -0.089 N 
ATOM      3  H3  UNL     1       4.838  22.194 -15.838  1.00  0.00     0.213 HD
HETATM    4  O1  UNL     1       5.231  20.458 -16.924  1.00  0.00    -0.209 OA
HETATM    5  C5  UNL     1       5.282  20.181 -18.206  1.00  0.00     0.169 A 
HETATM    6  N4  UNL     1       5.010  21.317 -18.848  1.00  0.00    -0.170 N 
ATOM      7  H4  UNL     1       4.973  21.430 -19.861  1.00  0.00     0.186 HD
ENDROOT
BRANCH   1   8
HETATM    8  N2  UNL     1       4.470  23.656 -18.218  1.00  0.00    -0.213 N 
HETATM    9  C3  UNL     1       3.742  24.033 -19.411  1.00  0.00     0.171 C 
HETATM   10  C2  UNL     1       2.995  25.337 -19.114  1.00  0.00     0.292 C 
HETATM   11  N1  UNL     1       3.879  26.392 -18.724  1.00  0.00     0.087 N 
HETATM   12  C1  UNL     1       4.036  27.420 -19.733  1.00  0.00     0.310 C 
HETATM   13  C12 UNL     1       5.131  25.945 -18.187  1.00  0.00     0.292 C 
HETATM   14  C11 UNL     1       4.855  24.725 -17.317  1.00  0.00     0.171 C 
ENDBRANCH   1   8
BRANCH   5  15
HETATM   15  C6  UNL     1       5.584  18.863 -18.780  1.00  0.00     0.097 C 
HETATM   16  C7  UNL     1       7.086  18.687 -19.052  1.00  0.00     0.016 C 
HETATM   17  C8  UNL     1       7.031  17.368 -19.836  1.00  0.00     0.004 C 
HETATM   18  C9  UNL     1       5.976  17.710 -20.871  1.00  0.00     0.038 C 
HETATM   19  C10 UNL     1       5.012  18.650 -20.150  1.00  0.00     0.182 C 
HETATM   20  F1  UNL     1       3.821  17.956 -20.014  1.00  0.00    -0.249 F 
ENDBRANCH   5  15
TORSDOF 2
ENDMDL
