MODEL 1
REMARK VINA RESULT: -7.274555056      0.000      0.000
REMARK  4 active torsions:
REMARK  status: ('A' for Active; 'I' for Inactive)
REMARK    1  A    between atoms: C2_2  and  C4_5 
REMARK    2  A    between atoms: C5_6  and  C6_7 
REMARK    3  A    between atoms: C7_10  and  C8_11 
REMARK    4  A    between atoms: C8_11  and  N2_12 
ROOT
HETATM    1  C6  UNL     1       6.237  17.961 -19.933  1.00  0.00     0.226 A 
HETATM    2  N1  UNL     1       5.579  17.200 -20.822  1.00  0.00    -0.315 N 
ATOM      3  H1  UNL     1       4.604  17.305 -21.101  1.00  0.00     0.170 HD
HETATM    4  C7  UNL     1       6.433  16.278 -21.273  1.00  0.00     0.122 A 
HETATM    5  N3  UNL     1       7.598  16.496 -20.650  1.00  0.00    -0.244 N 
ATOM      6  H3  UNL     1       8.452  15.954 -20.782  1.00  0.00     0.196 HD
HETATM    7  O1  UNL     1       7.464  17.507 -19.851  1.00  0.00    -0.209 OA
ENDROOT
BRANCH   4   8
HETATM    8  C8  UNL     1       6.171  15.186 -22.276  1.00  0.00     0.195 C 
BRANCH   8   9
HETATM    9  N2  UNL     1       7.340  14.419 -22.474  1.00  0.00    -0.406 N 
HETATM   10  C9  UNL     1       8.168  14.715 -23.579  1.00  0.00     0.117 C 
HETATM   11  C10 UNL     1       9.604  14.387 -23.195  1.00  0.00     0.019 C 
HETATM   12  C11 UNL     1       9.662  12.930 -22.780  1.00  0.00     0.003 C 
HETATM   13  C12 UNL     1       8.801  12.777 -21.548  1.00  0.00     0.019 C 
HETATM   14  C13 UNL     1       7.362  13.093 -21.974  1.00  0.00     0.117 C 
ENDBRANCH   8   9
ENDBRANCH   4   8
BRANCH   1  15
HETATM   15  C5  UNL     1       5.661  19.078 -19.211  1.00  0.00    -0.017 C 
HETATM   16  C4  UNL     1       5.192  20.006 -18.593  1.00  0.00    -0.054 C 
BRANCH  16  17
HETATM   17  C2  UNL     1       4.641  21.136 -17.826  1.00  0.00     0.159 C 
HETATM   18  C1  UNL     1       3.381  21.674 -18.495  1.00  0.00     0.066 C 
HETATM   19  C3  UNL     1       5.641  22.269 -17.808  1.00  0.00     0.066 C 
HETATM   20  F1  UNL     1       4.297  20.700 -16.584  1.00  0.00    -0.230 F 
ENDBRANCH  16  17
ENDBRANCH   1  15
TORSDOF 4
ENDMDL
MODEL 2
REMARK VINA RESULT: -7.042884313      0.760      1.053
REMARK  4 active torsions:
REMARK  status: ('A' for Active; 'I' for Inactive)
REMARK    1  A    between atoms: C2_2  and  C4_5 
REMARK    2  A    between atoms: C5_6  and  C6_7 
REMARK    3  A    between atoms: C7_10  and  C8_11 
REMARK    4  A    between atoms: C8_11  and  N2_12 
ROOT
HETATM    1  C6  UNL     1       6.262  17.867 -20.049  1.00  0.00     0.226 A 
HETATM    2  N1  UNL     1       5.633  17.105 -20.958  1.00  0.00    -0.315 N 
ATOM      3  H1  UNL     1       4.689  17.250 -21.317  1.00  0.00     0.170 HD
HETATM    4  C7  UNL     1       6.467  16.122 -21.306  1.00  0.00     0.122 A 
HETATM    5  N3  UNL     1       7.591  16.304 -20.601  1.00  0.00    -0.244 N 
ATOM      6  H3  UNL     1       8.421  15.713 -20.645  1.00  0.00     0.196 HD
HETATM    7  O1  UNL     1       7.452  17.352 -19.853  1.00  0.00    -0.209 OA
ENDROOT
BRANCH   4   8
HETATM    8  C8  UNL     1       6.222  15.004 -22.284  1.00  0.00     0.195 C 
BRANCH   8   9
HETATM    9  N2  UNL     1       7.410  14.270 -22.489  1.00  0.00    -0.406 N 
HETATM   10  C9  UNL     1       8.228  14.594 -23.593  1.00  0.00     0.117 C 
HETATM   11  C10 UNL     1       9.673  14.303 -23.214  1.00  0.00     0.019 C 
HETATM   12  C11 UNL     1       9.770  12.845 -22.807  1.00  0.00     0.003 C 
HETATM   13  C12 UNL     1       8.916  12.662 -21.575  1.00  0.00     0.019 C 
HETATM   14  C13 UNL     1       7.468  12.942 -21.997  1.00  0.00     0.117 C 
ENDBRANCH   8   9
ENDBRANCH   4   8
BRANCH   1  15
HETATM   15  C5  UNL     1       5.696  19.042 -19.416  1.00  0.00    -0.017 C 
HETATM   16  C4  UNL     1       5.241  20.028 -18.885  1.00  0.00    -0.054 C 
BRANCH  16  17
HETATM   17  C2  UNL     1       4.708  21.241 -18.241  1.00  0.00     0.159 C 
HETATM   18  C1  UNL     1       4.574  21.035 -16.737  1.00  0.00     0.066 C 
HETATM   19  C3  UNL     1       3.320  21.523 -18.767  1.00  0.00     0.066 C 
HETATM   20  F1  UNL     1       5.580  22.267 -18.442  1.00  0.00    -0.230 F 
ENDBRANCH  16  17
ENDBRANCH   1  15
TORSDOF 4
ENDMDL
MODEL 3
REMARK VINA RESULT: -6.961356291      3.001      8.192
REMARK  4 active torsions:
REMARK  status: ('A' for Active; 'I' for Inactive)
REMARK    1  A    between atoms: C2_2  and  C4_5 
REMARK    2  A    between atoms: C5_6  and  C6_7 
REMARK    3  A    between atoms: C7_10  and  C8_11 
REMARK    4  A    between atoms: C8_11  and  N2_12 
ROOT
HETATM    1  C6  UNL     1       5.921  18.205 -19.963  1.00  0.00     0.226 A 
HETATM    2  N1  UNL     1       4.811  18.939 -20.144  1.00  0.00    -0.315 N 
ATOM      3  H1  UNL     1       4.129  18.825 -20.893  1.00  0.00     0.170 HD
HETATM    4  C7  UNL     1       4.764  19.845 -19.165  1.00  0.00     0.122 A 
HETATM    5  N3  UNL     1       5.848  19.648 -18.405  1.00  0.00    -0.244 N 
ATOM      6  H3  UNL     1       6.097  20.185 -17.574  1.00  0.00     0.196 HD
HETATM    7  O1  UNL     1       6.530  18.663 -18.896  1.00  0.00    -0.209 OA
ENDROOT
BRANCH   4   8
HETATM    8  C8  UNL     1       3.720  20.906 -18.936  1.00  0.00     0.195 C 
BRANCH   8   9
HETATM    9  N2  UNL     1       4.334  22.114 -18.541  1.00  0.00    -0.406 N 
HETATM   10  C9  UNL     1       3.743  23.336 -18.930  1.00  0.00     0.117 C 
HETATM   11  C10 UNL     1       4.036  24.368 -17.850  1.00  0.00     0.019 C 
HETATM   12  C11 UNL     1       5.540  24.460 -17.680  1.00  0.00     0.003 C 
HETATM   13  C12 UNL     1       6.022  23.117 -17.187  1.00  0.00     0.019 C 
HETATM   14  C13 UNL     1       5.731  22.108 -18.305  1.00  0.00     0.117 C 
ENDBRANCH   8   9
ENDBRANCH   4   8
BRANCH   1  15
HETATM   15  C5  UNL     1       6.341  17.112 -20.817  1.00  0.00    -0.017 C 
HETATM   16  C4  UNL     1       6.674  16.192 -21.528  1.00  0.00    -0.054 C 
BRANCH  16  17
HETATM   17  C2  UNL     1       7.056  15.067 -22.397  1.00  0.00     0.159 C 
HETATM   18  C1  UNL     1       5.946  14.022 -22.440  1.00  0.00     0.066 C 
HETATM   19  C3  UNL     1       8.276  14.381 -21.828  1.00  0.00     0.066 C 
HETATM   20  F1  UNL     1       7.238  15.529 -23.664  1.00  0.00    -0.230 F 
ENDBRANCH  16  17
ENDBRANCH   1  15
TORSDOF 4
ENDMDL
MODEL 4
REMARK VINA RESULT: -6.937498521      2.998      8.245
REMARK  4 active torsions:
REMARK  status: ('A' for Active; 'I' for Inactive)
REMARK    1  A    between atoms: C2_2  and  C4_5 
REMARK    2  A    between atoms: C5_6  and  C6_7 
REMARK    3  A    between atoms: C7_10  and  C8_11 
REMARK    4  A    between atoms: C8_11  and  N2_12 
ROOT
HETATM    1  C6  UNL     1       5.922  18.239 -19.983  1.00  0.00     0.226 A 
HETATM    2  N1  UNL     1       4.785  18.932 -20.155  1.00  0.00    -0.315 N 
ATOM      3  H1  UNL     1       4.079  18.765 -20.872  1.00  0.00     0.170 HD
HETATM    4  C7  UNL     1       4.745  19.881 -19.216  1.00  0.00     0.122 A 
HETATM    5  N3  UNL     1       5.862  19.749 -18.489  1.00  0.00    -0.244 N 
ATOM      6  H3  UNL     1       6.124  20.330 -17.693  1.00  0.00     0.196 HD
HETATM    7  O1  UNL     1       6.555  18.762 -18.961  1.00  0.00    -0.209 OA
ENDROOT
BRANCH   4   8
HETATM    8  C8  UNL     1       3.679  20.921 -18.996  1.00  0.00     0.195 C 
BRANCH   8   9
HETATM    9  N2  UNL     1       4.226  22.044 -18.339  1.00  0.00    -0.406 N 
HETATM   10  C9  UNL     1       5.063  21.837 -17.221  1.00  0.00     0.117 C 
HETATM   11  C10 UNL     1       6.084  22.965 -17.179  1.00  0.00     0.019 C 
HETATM   12  C11 UNL     1       5.332  24.281 -17.125  1.00  0.00     0.003 C 
HETATM   13  C12 UNL     1       4.549  24.407 -18.410  1.00  0.00     0.019 C 
HETATM   14  C13 UNL     1       3.519  23.270 -18.410  1.00  0.00     0.117 C 
ENDBRANCH   8   9
ENDBRANCH   4   8
BRANCH   1  15
HETATM   15  C5  UNL     1       6.343  17.119 -20.802  1.00  0.00    -0.017 C 
HETATM   16  C4  UNL     1       6.677  16.187 -21.494  1.00  0.00    -0.054 C 
BRANCH  16  17
HETATM   17  C2  UNL     1       7.067  15.056 -22.353  1.00  0.00     0.159 C 
HETATM   18  C1  UNL     1       5.959  14.009 -22.396  1.00  0.00     0.066 C 
HETATM   19  C3  UNL     1       8.284  14.376 -21.771  1.00  0.00     0.066 C 
HETATM   20  F1  UNL     1       7.257  15.510 -23.622  1.00  0.00    -0.230 F 
ENDBRANCH  16  17
ENDBRANCH   1  15
TORSDOF 4
ENDMDL
MODEL 5
REMARK VINA RESULT: -6.825672877      3.032      8.217
REMARK  4 active torsions:
REMARK  status: ('A' for Active; 'I' for Inactive)
REMARK    1  A    between atoms: C2_2  and  C4_5 
REMARK    2  A    between atoms: C5_6  and  C6_7 
REMARK    3  A    between atoms: C7_10  and  C8_11 
REMARK    4  A    between atoms: C8_11  and  N2_12 
ROOT
HETATM    1  C6  UNL     1       5.954  18.116 -20.075  1.00  0.00     0.226 A 
HETATM    2  N1  UNL     1       4.791  18.765 -20.247  1.00  0.00    -0.315 N 
ATOM      3  H1  UNL     1       4.067  18.535 -20.928  1.00  0.00     0.170 HD
HETATM    4  C7  UNL     1       4.754  19.767 -19.366  1.00  0.00     0.122 A 
HETATM    5  N3  UNL     1       5.898  19.711 -18.671  1.00  0.00    -0.244 N 
ATOM      6  H3  UNL     1       6.169  20.346 -17.921  1.00  0.00     0.196 HD
HETATM    7  O1  UNL     1       6.605  18.717 -19.109  1.00  0.00    -0.209 OA
ENDROOT
BRANCH   4   8
HETATM    8  C8  UNL     1       3.665  20.788 -19.170  1.00  0.00     0.195 C 
BRANCH   8   9
HETATM    9  N2  UNL     1       4.167  21.904 -18.467  1.00  0.00    -0.406 N 
HETATM   10  C9  UNL     1       4.870  21.689 -17.262  1.00  0.00     0.117 C 
HETATM   11  C10 UNL     1       5.911  22.790 -17.117  1.00  0.00     0.019 C 
HETATM   12  C11 UNL     1       5.195  24.126 -17.160  1.00  0.00     0.003 C 
HETATM   13  C12 UNL     1       4.561  24.256 -18.524  1.00  0.00     0.019 C 
HETATM   14  C13 UNL     1       3.506  23.147 -18.627  1.00  0.00     0.117 C 
ENDBRANCH   8   9
ENDBRANCH   4   8
BRANCH   1  15
HETATM   15  C5  UNL     1       6.382  16.962 -20.841  1.00  0.00    -0.017 C 
HETATM   16  C4  UNL     1       6.723  15.990 -21.474  1.00  0.00    -0.054 C 
BRANCH  16  17
HETATM   17  C2  UNL     1       7.115  14.798 -22.243  1.00  0.00     0.159 C 
HETATM   18  C1  UNL     1       7.471  15.177 -23.676  1.00  0.00     0.066 C 
HETATM   19  C3  UNL     1       5.947  13.843 -22.324  1.00  0.00     0.066 C 
HETATM   20  F1  UNL     1       8.222  14.249 -21.673  1.00  0.00    -0.230 F 
ENDBRANCH  16  17
ENDBRANCH   1  15
TORSDOF 4
ENDMDL
