MODEL 1
REMARK VINA RESULT: -6.550455941      0.000      0.000
REMARK  2 active torsions:
REMARK  status: ('A' for Active; 'I' for Inactive)
REMARK    1  A    between atoms: N1_2  and  C1_4 
REMARK    2  A    between atoms: C2_7  and  N3_8 
ROOT
HETATM    1  C1  UNL     1       3.914  21.741 -19.143  1.00  0.00     0.200 A 
HETATM    2  N2  UNL     1       3.560  22.809 -19.818  1.00  0.00    -0.316 N 
ATOM      3  H2  UNL     1       3.186  22.714 -20.762  1.00  0.00     0.169 HD
HETATM    4  C2  UNL     1       3.688  24.005 -19.278  1.00  0.00     0.149 A 
HETATM    5  S1  UNL     1       4.334  23.634 -17.745  1.00  0.00    -0.042 SA
HETATM    6  C7  UNL     1       4.410  21.939 -17.877  1.00  0.00     0.105 A 
HETATM    7 BR1  UNL     1       5.015  20.620 -16.615  1.00  0.00    -0.039 Br
ENDROOT
BRANCH   4   8
HETATM    8  N3  UNL     1       3.366  25.256 -19.852  1.00  0.00    -0.361 N 
HETATM    9  C3  UNL     1       2.989  26.495 -19.210  1.00  0.00     0.125 C 
HETATM   10  C4  UNL     1       4.081  27.410 -19.810  1.00  0.00     0.021 C 
HETATM   11  C5  UNL     1       4.059  26.971 -21.273  1.00  0.00     0.021 C 
HETATM   12  C6  UNL     1       3.347  25.608 -21.275  1.00  0.00     0.125 C 
ENDBRANCH   4   8
BRANCH   1  13
HETATM   13  N1  UNL     1       3.830  20.411 -19.701  1.00  0.00    -0.096 N 
HETATM   14  O1  UNL     1       2.817  20.000 -20.267  1.00  0.00    -0.530 OA
HETATM   15  O2  UNL     1       4.912  19.575 -19.606  1.00  0.00    -0.530 OA
ENDBRANCH   1  13
TORSDOF 2
ENDMDL
MODEL 2
REMARK VINA RESULT: -6.083845696      0.777      1.148
REMARK  2 active torsions:
REMARK  status: ('A' for Active; 'I' for Inactive)
REMARK    1  A    between atoms: N1_2  and  C1_4 
REMARK    2  A    between atoms: C2_7  and  N3_8 
ROOT
HETATM    1  C1  UNL     1       4.165  21.052 -19.217  1.00  0.00     0.200 A 
HETATM    2  N2  UNL     1       3.745  22.174 -19.752  1.00  0.00    -0.316 N 
ATOM      3  H2  UNL     1       3.314  22.168 -20.676  1.00  0.00     0.169 HD
HETATM    4  C2  UNL     1       3.879  23.310 -19.096  1.00  0.00     0.149 A 
HETATM    5  S1  UNL     1       4.629  22.799 -17.654  1.00  0.00    -0.042 SA
HETATM    6  C7  UNL     1       4.736  21.130 -17.970  1.00  0.00     0.105 A 
HETATM    7 BR1  UNL     1       5.449  19.705 -16.895  1.00  0.00    -0.039 Br
ENDROOT
BRANCH   4   8
HETATM    8  N3  UNL     1       3.493  24.604 -19.513  1.00  0.00    -0.361 N 
HETATM    9  C3  UNL     1       3.281  25.800 -18.729  1.00  0.00     0.125 C 
HETATM   10  C4  UNL     1       4.267  26.737 -19.463  1.00  0.00     0.021 C 
HETATM   11  C5  UNL     1       3.957  26.405 -20.921  1.00  0.00     0.021 C 
HETATM   12  C6  UNL     1       3.217  25.057 -20.880  1.00  0.00     0.125 C 
ENDBRANCH   4   8
BRANCH   1  13
HETATM   13  N1  UNL     1       4.077  19.785 -19.908  1.00  0.00    -0.096 N 
HETATM   14  O1  UNL     1       5.028  19.009 -19.977  1.00  0.00    -0.530 OA
HETATM   15  O2  UNL     1       2.895  19.429 -20.503  1.00  0.00    -0.530 OA
ENDBRANCH   1  13
TORSDOF 2
ENDMDL
MODEL 3
REMARK VINA RESULT: -5.963569976      0.706      1.264
REMARK  2 active torsions:
REMARK  status: ('A' for Active; 'I' for Inactive)
REMARK    1  A    between atoms: N1_2  and  C1_4 
REMARK    2  A    between atoms: C2_7  and  N3_8 
ROOT
HETATM    1  C1  UNL     1       4.062  21.928 -18.987  1.00  0.00     0.200 A 
HETATM    2  N2  UNL     1       3.859  23.065 -19.608  1.00  0.00    -0.316 N 
ATOM      3  H2  UNL     1       3.438  23.070 -20.537  1.00  0.00     0.169 HD
HETATM    4  C2  UNL     1       4.200  24.203 -19.035  1.00  0.00     0.149 A 
HETATM    5  S1  UNL     1       4.838  23.671 -17.547  1.00  0.00    -0.042 SA
HETATM    6  C7  UNL     1       4.633  21.992 -17.739  1.00  0.00     0.105 A 
HETATM    7 BR1  UNL     1       5.067  20.544 -16.551  1.00  0.00    -0.039 Br
ENDROOT
BRANCH   4   8
HETATM    8  N3  UNL     1       4.061  25.512 -19.551  1.00  0.00    -0.361 N 
HETATM    9  C3  UNL     1       3.650  25.944 -20.867  1.00  0.00     0.125 C 
HETATM   10  C4  UNL     1       2.467  26.850 -20.456  1.00  0.00     0.021 C 
HETATM   11  C5  UNL     1       3.073  27.607 -19.276  1.00  0.00     0.021 C 
HETATM   12  C6  UNL     1       4.296  26.777 -18.850  1.00  0.00     0.125 C 
ENDBRANCH   4   8
BRANCH   1  13
HETATM   13  N1  UNL     1       3.743  20.652 -19.586  1.00  0.00    -0.096 N 
HETATM   14  O1  UNL     1       2.666  20.440 -20.142  1.00  0.00    -0.530 OA
HETATM   15  O2  UNL     1       4.667  19.641 -19.540  1.00  0.00    -0.530 OA
ENDBRANCH   1  13
TORSDOF 2
ENDMDL
MODEL 4
REMARK VINA RESULT: -5.658670259      2.408      2.649
REMARK  2 active torsions:
REMARK  status: ('A' for Active; 'I' for Inactive)
REMARK    1  A    between atoms: N1_2  and  C1_4 
REMARK    2  A    between atoms: C2_7  and  N3_8 
ROOT
HETATM    1  C1  UNL     1       4.851  20.841 -18.478  1.00  0.00     0.200 A 
HETATM    2  N2  UNL     1       4.835  22.099 -18.106  1.00  0.00    -0.316 N 
ATOM      3  H2  UNL     1       5.483  22.426 -17.389  1.00  0.00     0.169 HD
HETATM    4  C2  UNL     1       3.983  22.941 -18.657  1.00  0.00     0.149 A 
HETATM    5  S1  UNL     1       3.155  21.937 -19.757  1.00  0.00    -0.042 SA
HETATM    6  C7  UNL     1       3.953  20.466 -19.449  1.00  0.00     0.105 A 
HETATM    7 BR1  UNL     1       3.701  18.727 -20.230  1.00  0.00    -0.039 Br
ENDROOT
BRANCH   4   8
HETATM    8  N3  UNL     1       3.822  24.318 -18.381  1.00  0.00    -0.361 N 
HETATM    9  C3  UNL     1       4.264  25.087 -17.241  1.00  0.00     0.125 C 
HETATM   10  C4  UNL     1       5.089  26.160 -17.988  1.00  0.00     0.021 C 
HETATM   11  C5  UNL     1       4.151  26.498 -19.145  1.00  0.00     0.021 C 
HETATM   12  C6  UNL     1       3.159  25.324 -19.216  1.00  0.00     0.125 C 
ENDBRANCH   4   8
BRANCH   1  13
HETATM   13  N1  UNL     1       5.738  19.869 -17.880  1.00  0.00    -0.096 N 
HETATM   14  O1  UNL     1       5.569  19.443 -16.739  1.00  0.00    -0.530 OA
HETATM   15  O2  UNL     1       6.801  19.397 -18.606  1.00  0.00    -0.530 OA
ENDBRANCH   1  13
TORSDOF 2
ENDMDL
MODEL 5
REMARK VINA RESULT: -5.579003844      2.399      2.539
REMARK  2 active torsions:
REMARK  status: ('A' for Active; 'I' for Inactive)
REMARK    1  A    between atoms: N1_2  and  C1_4 
REMARK    2  A    between atoms: C2_7  and  N3_8 
ROOT
HETATM    1  C1  UNL     1       5.447  22.914 -18.430  1.00  0.00     0.200 A 
HETATM    2  N2  UNL     1       5.075  24.115 -18.805  1.00  0.00    -0.316 N 
ATOM      3  H2  UNL     1       5.699  24.909 -18.663  1.00  0.00     0.169 HD
HETATM    4  C2  UNL     1       3.895  24.297 -19.364  1.00  0.00     0.149 A 
HETATM    5  S1  UNL     1       3.261  22.716 -19.375  1.00  0.00    -0.042 SA
HETATM    6  C7  UNL     1       4.560  21.889 -18.650  1.00  0.00     0.105 A 
HETATM    7 BR1  UNL     1       4.770  20.022 -18.237  1.00  0.00    -0.039 Br
ENDROOT
BRANCH   4   8
HETATM    8  N3  UNL     1       3.330  25.509 -19.823  1.00  0.00    -0.361 N 
HETATM    9  C3  UNL     1       2.827  26.635 -19.070  1.00  0.00     0.125 C 
HETATM   10  C4  UNL     1       3.701  27.744 -19.697  1.00  0.00     0.021 C 
HETATM   11  C5  UNL     1       3.611  27.386 -21.179  1.00  0.00     0.021 C 
HETATM   12  C6  UNL     1       3.124  25.928 -21.213  1.00  0.00     0.125 C 
ENDBRANCH   4   8
BRANCH   1  13
HETATM   13  N1  UNL     1       6.713  22.665 -17.778  1.00  0.00    -0.096 N 
HETATM   14  O1  UNL     1       6.864  22.801 -16.565  1.00  0.00    -0.530 OA
HETATM   15  O2  UNL     1       7.785  22.258 -18.530  1.00  0.00    -0.530 OA
ENDBRANCH   1  13
TORSDOF 2
ENDMDL
