MODEL 1
REMARK VINA RESULT: -6.187618277      0.000      0.000
REMARK  2 active torsions:
REMARK  status: ('A' for Active; 'I' for Inactive)
REMARK       I    between atoms: N1_6  and  C5_7 
REMARK    1  A    between atoms: C5_7  and  C6_9 
REMARK    2  A    between atoms: C8_11  and  C9_12 
ROOT
HETATM    1  C1  UNL     1       3.438  24.821 -17.077  1.00  0.00     0.026 C 
HETATM    2  C2  UNL     1       4.460  24.533 -18.148  1.00  0.00     0.097 C 
HETATM    3  S1  UNL     1       3.688  24.335 -19.782  1.00  0.00    -0.158 SA
HETATM    4  C3  UNL     1       2.845  22.722 -19.729  1.00  0.00     0.094 C 
HETATM    5  C4  UNL     1       3.381  21.916 -18.536  1.00  0.00     0.139 C 
HETATM    6  N1  UNL     1       4.800  22.093 -18.400  1.00  0.00    -0.314 N 
HETATM    7  C5  UNL     1       5.753  21.141 -18.772  1.00  0.00     0.274 C 
HETATM    8  O1  UNL     1       6.989  21.469 -18.564  1.00  0.00    -0.266 OA
HETATM    9  C10 UNL     1       5.328  23.352 -17.850  1.00  0.00     0.287 C 
HETATM   10  F1  UNL     1       5.585  23.265 -16.506  1.00  0.00    -0.225 F 
ENDROOT
BRANCH   7  11
HETATM   11  C6  UNL     1       5.525  19.840 -19.362  1.00  0.00     0.125 A 
HETATM   12  C7  UNL     1       6.522  18.865 -19.576  1.00  0.00     0.079 A 
HETATM   13  C8  UNL     1       5.945  17.758 -20.153  1.00  0.00     0.138 A 
HETATM   14  O3  UNL     1       4.685  18.036 -20.283  1.00  0.00    -0.234 OA
HETATM   15  N2  UNL     1       4.429  19.231 -19.832  1.00  0.00    -0.255 N 
ATOM     16  H2  UNL     1       3.501  19.654 -19.836  1.00  0.00     0.195 HD
BRANCH  13  17
HETATM   17  C9  UNL     1       6.618  16.531 -20.535  1.00  0.00     0.297 C 
HETATM   18  O2  UNL     1       6.543  16.086 -21.711  1.00  0.00    -0.299 OA
ENDBRANCH  13  17
ENDBRANCH   7  11
TORSDOF 2
ENDMDL
MODEL 2
REMARK VINA RESULT: -6.149788714      1.856      2.268
REMARK  2 active torsions:
REMARK  status: ('A' for Active; 'I' for Inactive)
REMARK       I    between atoms: N1_6  and  C5_7 
REMARK    1  A    between atoms: C5_7  and  C6_9 
REMARK    2  A    between atoms: C8_11  and  C9_12 
ROOT
HETATM    1  C1  UNL     1       2.924  26.665 -18.768  1.00  0.00     0.026 C 
HETATM    2  C2  UNL     1       4.162  26.067 -19.386  1.00  0.00     0.097 C 
HETATM    3  S1  UNL     1       3.764  25.021 -20.819  1.00  0.00    -0.158 SA
HETATM    4  C3  UNL     1       3.015  23.513 -20.127  1.00  0.00     0.094 C 
HETATM    5  C4  UNL     1       3.329  23.443 -18.625  1.00  0.00     0.139 C 
HETATM    6  N1  UNL     1       4.676  23.870 -18.367  1.00  0.00    -0.314 N 
HETATM    7  C5  UNL     1       5.735  23.006 -18.074  1.00  0.00     0.274 C 
HETATM    8  O1  UNL     1       6.880  23.571 -17.857  1.00  0.00    -0.266 OA
HETATM    9  C10 UNL     1       5.009  25.302 -18.419  1.00  0.00     0.287 C 
HETATM   10  F1  UNL     1       4.981  25.888 -17.181  1.00  0.00    -0.225 F 
ENDROOT
BRANCH   7  11
HETATM   11  C6  UNL     1       5.705  21.562 -17.988  1.00  0.00     0.125 A 
HETATM   12  C7  UNL     1       5.956  20.684 -19.063  1.00  0.00     0.079 A 
HETATM   13  C8  UNL     1       5.842  19.389 -18.615  1.00  0.00     0.138 A 
HETATM   14  O3  UNL     1       5.542  19.468 -17.357  1.00  0.00    -0.234 OA
HETATM   15  N2  UNL     1       5.460  20.713 -16.981  1.00  0.00    -0.255 N 
ATOM     16  H2  UNL     1       5.236  21.007 -16.031  1.00  0.00     0.195 HD
BRANCH  13  17
HETATM   17  C9  UNL     1       6.022  18.182 -19.401  1.00  0.00     0.297 C 
HETATM   18  O2  UNL     1       7.173  17.739 -19.657  1.00  0.00    -0.299 OA
ENDBRANCH  13  17
ENDBRANCH   7  11
TORSDOF 2
ENDMDL
MODEL 3
REMARK VINA RESULT: -5.837203924      2.254      2.925
REMARK  2 active torsions:
REMARK  status: ('A' for Active; 'I' for Inactive)
REMARK       I    between atoms: N1_6  and  C5_7 
REMARK    1  A    between atoms: C5_7  and  C6_9 
REMARK    2  A    between atoms: C8_11  and  C9_12 
ROOT
HETATM    1  C1  UNL     1       3.381  23.606 -18.235  1.00  0.00     0.026 C 
HETATM    2  C2  UNL     1       2.931  22.182 -18.027  1.00  0.00     0.097 C 
HETATM    3  S1  UNL     1       3.731  21.425 -16.580  1.00  0.00    -0.158 SA
HETATM    4  C3  UNL     1       5.456  21.126 -17.080  1.00  0.00     0.094 C 
HETATM    5  C4  UNL     1       5.557  21.220 -18.610  1.00  0.00     0.139 C 
HETATM    6  N1  UNL     1       4.415  20.610 -19.233  1.00  0.00    -0.314 N 
HETATM    7  C5  UNL     1       4.431  19.358 -19.854  1.00  0.00     0.274 C 
HETATM    8  O1  UNL     1       3.309  18.973 -20.374  1.00  0.00    -0.266 OA
HETATM    9  C10 UNL     1       3.120  21.309 -19.226  1.00  0.00     0.287 C 
HETATM   10  F1  UNL     1       2.906  22.017 -20.380  1.00  0.00    -0.225 F 
ENDROOT
BRANCH   7  11
HETATM   11  C6  UNL     1       5.545  18.444 -19.982  1.00  0.00     0.125 A 
HETATM   12  C7  UNL     1       5.635  17.412 -20.940  1.00  0.00     0.079 A 
HETATM   13  C8  UNL     1       6.828  16.748 -20.766  1.00  0.00     0.138 A 
HETATM   14  O3  UNL     1       7.423  17.332 -19.774  1.00  0.00    -0.234 OA
HETATM   15  N2  UNL     1       6.697  18.310 -19.312  1.00  0.00    -0.255 N 
ATOM     16  H2  UNL     1       6.973  18.905 -18.531  1.00  0.00     0.195 HD
BRANCH  13  17
HETATM   17  C9  UNL     1       7.313  15.623 -21.543  1.00  0.00     0.297 C 
HETATM   18  O2  UNL     1       6.679  15.203 -22.547  1.00  0.00    -0.299 OA
ENDBRANCH  13  17
ENDBRANCH   7  11
TORSDOF 2
ENDMDL
MODEL 4
REMARK VINA RESULT: -5.824800799      1.983      2.433
REMARK  2 active torsions:
REMARK  status: ('A' for Active; 'I' for Inactive)
REMARK       I    between atoms: N1_6  and  C5_7 
REMARK    1  A    between atoms: C5_7  and  C6_9 
REMARK    2  A    between atoms: C8_11  and  C9_12 
ROOT
HETATM    1  C1  UNL     1       4.698  25.513 -18.429  1.00  0.00     0.026 C 
HETATM    2  C2  UNL     1       4.164  24.317 -17.683  1.00  0.00     0.097 C 
HETATM    3  S1  UNL     1       5.312  23.761 -16.388  1.00  0.00    -0.158 SA
HETATM    4  C3  UNL     1       6.695  22.972 -17.271  1.00  0.00     0.094 C 
HETATM    5  C4  UNL     1       6.264  22.679 -18.716  1.00  0.00     0.139 C 
HETATM    6  N1  UNL     1       4.907  22.213 -18.757  1.00  0.00    -0.314 N 
HETATM    7  C5  UNL     1       4.536  20.879 -18.953  1.00  0.00     0.274 C 
HETATM    8  O1  UNL     1       3.262  20.646 -18.973  1.00  0.00    -0.266 OA
HETATM    9  C10 UNL     1       3.802  23.167 -18.568  1.00  0.00     0.287 C 
HETATM   10  F1  UNL     1       3.293  23.614 -19.760  1.00  0.00    -0.225 F 
ENDROOT
BRANCH   7  11
HETATM   11  C6  UNL     1       5.401  19.734 -19.133  1.00  0.00     0.125 A 
HETATM   12  C7  UNL     1       5.208  18.721 -20.096  1.00  0.00     0.079 A 
HETATM   13  C8  UNL     1       6.221  17.798 -19.977  1.00  0.00     0.138 A 
HETATM   14  O3  UNL     1       6.979  18.216 -19.013  1.00  0.00    -0.234 OA
HETATM   15  N2  UNL     1       6.519  19.330 -18.517  1.00  0.00    -0.255 N 
ATOM     16  H2  UNL     1       6.960  19.836 -17.749  1.00  0.00     0.195 HD
BRANCH  13  17
HETATM   17  C9  UNL     1       6.398  16.600 -20.777  1.00  0.00     0.297 C 
HETATM   18  O2  UNL     1       7.547  16.195 -21.097  1.00  0.00    -0.299 OA
ENDBRANCH  13  17
ENDBRANCH   7  11
TORSDOF 2
ENDMDL
MODEL 5
REMARK VINA RESULT: -5.771289414      2.093      2.527
REMARK  2 active torsions:
REMARK  status: ('A' for Active; 'I' for Inactive)
REMARK       I    between atoms: N1_6  and  C5_7 
REMARK    1  A    between atoms: C5_7  and  C6_9 
REMARK    2  A    between atoms: C8_11  and  C9_12 
ROOT
HETATM    1  C1  UNL     1       5.381  25.565 -17.958  1.00  0.00     0.026 C 
HETATM    2  C2  UNL     1       4.529  24.484 -17.342  1.00  0.00     0.097 C 
HETATM    3  S1  UNL     1       5.517  23.338 -16.335  1.00  0.00    -0.158 SA
HETATM    4  C3  UNL     1       6.460  22.335 -17.525  1.00  0.00     0.094 C 
HETATM    5  C4  UNL     1       5.835  22.493 -18.919  1.00  0.00     0.139 C 
HETATM    6  N1  UNL     1       4.401  22.513 -18.834  1.00  0.00    -0.314 N 
HETATM    7  C5  UNL     1       3.575  21.440 -19.183  1.00  0.00     0.274 C 
HETATM    8  O1  UNL     1       2.303  21.644 -19.052  1.00  0.00    -0.266 OA
HETATM    9  C10 UNL     1       3.717  23.717 -18.336  1.00  0.00     0.287 C 
HETATM   10  F1  UNL     1       3.296  24.534 -19.353  1.00  0.00    -0.225 F 
ENDROOT
BRANCH   7  11
HETATM   11  C6  UNL     1       3.971  20.136 -19.668  1.00  0.00     0.125 A 
HETATM   12  C7  UNL     1       5.210  19.518 -19.401  1.00  0.00     0.079 A 
HETATM   13  C8  UNL     1       5.237  18.290 -20.021  1.00  0.00     0.138 A 
HETATM   14  O3  UNL     1       4.096  18.167 -20.623  1.00  0.00    -0.234 OA
HETATM   15  N2  UNL     1       3.357  19.222 -20.429  1.00  0.00    -0.255 N 
ATOM     16  H2  UNL     1       2.418  19.337 -20.813  1.00  0.00     0.195 HD
BRANCH  13  17
HETATM   17  C9  UNL     1       6.327  17.333 -19.998  1.00  0.00     0.297 C 
HETATM   18  O2  UNL     1       7.477  17.665 -19.605  1.00  0.00    -0.299 OA
ENDBRANCH  13  17
ENDBRANCH   7  11
TORSDOF 2
ENDMDL
