MODEL 1
REMARK VINA RESULT: -6.404765144      0.000      0.000
REMARK  3 active torsions:
REMARK  status: ('A' for Active; 'I' for Inactive)
REMARK    1  A    between atoms: O1_2  and  C2_3 
REMARK    2  A    between atoms: C2_3  and  C3_5 
REMARK    3  A    between atoms: C8_12  and  S1_13 
ROOT
HETATM    1  C3  UNL     1       4.619  23.945 -18.979  1.00  0.00     0.133 C 
HETATM    2  C4  UNL     1       5.782  24.183 -18.082  1.00  0.00     0.019 C 
HETATM    3  C5  UNL     1       5.566  23.705 -16.677  1.00  0.00     0.007 C 
HETATM    4  C6  UNL     1       5.491  22.216 -16.664  1.00  0.00     0.056 C 
HETATM    5  C7  UNL     1       4.678  21.795 -17.880  1.00  0.00     0.031 A 
HETATM    6  N1  UNL     1       4.827  20.603 -18.334  1.00  0.00    -0.341 N 
ATOM      7  H1  UNL     1       5.489  19.990 -17.859  1.00  0.00     0.167 HD
HETATM    8  C8  UNL     1       4.128  20.088 -19.453  1.00  0.00     0.140 A 
HETATM    9  N2  UNL     1       3.313  20.867 -20.018  1.00  0.00    -0.367 N 
ATOM     10  H2  UNL     1       2.813  20.495 -20.824  1.00  0.00     0.161 HD
HETATM   11  C10 UNL     1       3.017  22.209 -19.650  1.00  0.00     0.172 A 
HETATM   12  C11 UNL     1       3.776  22.750 -18.506  1.00  0.00     0.170 A 
HETATM   13  F1  UNL     1       2.829  23.218 -17.583  1.00  0.00    -0.234 F 
ENDROOT
BRANCH   1  14
HETATM   14  C2  UNL     1       3.785  25.170 -19.046  1.00  0.00     0.266 C 
HETATM   15  O2  UNL     1       3.656  25.932 -18.047  1.00  0.00    -0.265 OA
BRANCH  14  16
HETATM   16  O1  UNL     1       3.104  25.550 -20.198  1.00  0.00    -0.326 OA
HETATM   17  C1  UNL     1       3.716  26.276 -21.246  1.00  0.00     0.213 C 
ENDBRANCH  14  16
ENDBRANCH   1  14
BRANCH   8  18
HETATM   18  S1  UNL     1       4.463  18.415 -19.949  1.00  0.00    -0.099 SA
HETATM   19  C9  UNL     1       6.212  18.044 -20.022  1.00  0.00     0.099 C 
ENDBRANCH   8  18
TORSDOF 3
ENDMDL
MODEL 2
REMARK VINA RESULT: -5.979912195      0.765      1.089
REMARK  3 active torsions:
REMARK  status: ('A' for Active; 'I' for Inactive)
REMARK    1  A    between atoms: O1_2  and  C2_3 
REMARK    2  A    between atoms: C2_3  and  C3_5 
REMARK    3  A    between atoms: C8_12  and  S1_13 
ROOT
HETATM    1  C3  UNL     1       4.727  23.543 -19.006  1.00  0.00     0.133 C 
HETATM    2  C4  UNL     1       5.838  23.822 -18.057  1.00  0.00     0.019 C 
HETATM    3  C5  UNL     1       5.558  23.375 -16.653  1.00  0.00     0.007 C 
HETATM    4  C6  UNL     1       5.507  21.885 -16.607  1.00  0.00     0.056 C 
HETATM    5  C7  UNL     1       4.764  21.421 -17.852  1.00  0.00     0.031 A 
HETATM    6  N1  UNL     1       4.956  20.222 -18.268  1.00  0.00    -0.341 N 
ATOM      7  H1  UNL     1       5.603  19.632 -17.745  1.00  0.00     0.167 HD
HETATM    8  C8  UNL     1       4.324  19.668 -19.409  1.00  0.00     0.140 A 
HETATM    9  N2  UNL     1       3.527  20.418 -20.033  1.00  0.00    -0.367 N 
ATOM     10  H2  UNL     1       3.075  20.019 -20.855  1.00  0.00     0.161 HD
HETATM   11  C10 UNL     1       3.190  21.764 -19.714  1.00  0.00     0.172 A 
HETATM   12  C11 UNL     1       3.880  22.345 -18.547  1.00  0.00     0.170 A 
HETATM   13  F1  UNL     1       2.879  22.818 -17.686  1.00  0.00    -0.234 F 
ENDROOT
BRANCH   1  14
HETATM   14  C2  UNL     1       3.877  24.752 -19.146  1.00  0.00     0.266 C 
HETATM   15  O2  UNL     1       3.028  24.852 -20.075  1.00  0.00    -0.265 OA
BRANCH  14  16
HETATM   16  O1  UNL     1       3.962  25.831 -18.273  1.00  0.00    -0.326 OA
HETATM   17  C1  UNL     1       4.210  27.152 -18.711  1.00  0.00     0.213 C 
ENDBRANCH  14  16
ENDBRANCH   1  14
BRANCH   8  18
HETATM   18  S1  UNL     1       4.711  17.989 -19.845  1.00  0.00    -0.099 SA
HETATM   19  C9  UNL     1       6.436  17.754 -20.258  1.00  0.00     0.099 C 
ENDBRANCH   8  18
TORSDOF 3
ENDMDL
MODEL 3
REMARK VINA RESULT: -5.737062278      3.499      5.209
REMARK  3 active torsions:
REMARK  status: ('A' for Active; 'I' for Inactive)
REMARK    1  A    between atoms: O1_2  and  C2_3 
REMARK    2  A    between atoms: C2_3  and  C3_5 
REMARK    3  A    between atoms: C8_12  and  S1_13 
ROOT
HETATM    1  C3  UNL     1       3.723  21.369 -18.421  1.00  0.00     0.133 C 
HETATM    2  C4  UNL     1       4.110  21.108 -17.008  1.00  0.00     0.019 C 
HETATM    3  C5  UNL     1       5.520  21.504 -16.686  1.00  0.00     0.007 C 
HETATM    4  C6  UNL     1       5.646  22.988 -16.750  1.00  0.00     0.056 C 
HETATM    5  C7  UNL     1       4.845  23.457 -17.957  1.00  0.00     0.031 A 
HETATM    6  N1  UNL     1       4.439  24.675 -17.985  1.00  0.00    -0.341 N 
ATOM      7  H1  UNL     1       4.669  25.275 -17.194  1.00  0.00     0.167 HD
HETATM    8  C8  UNL     1       3.691  25.235 -19.050  1.00  0.00     0.140 A 
HETATM    9  N2  UNL     1       3.425  24.472 -20.017  1.00  0.00    -0.367 N 
ATOM     10  H2  UNL     1       2.884  24.876 -20.781  1.00  0.00     0.161 HD
HETATM   11  C10 UNL     1       3.797  23.105 -20.157  1.00  0.00     0.172 A 
HETATM   12  C11 UNL     1       4.544  22.519 -19.028  1.00  0.00     0.170 A 
HETATM   13  F1  UNL     1       5.724  21.982 -19.564  1.00  0.00    -0.234 F 
ENDROOT
BRANCH   1  14
HETATM   14  C2  UNL     1       3.899  20.132 -19.222  1.00  0.00     0.266 C 
HETATM   15  O2  UNL     1       3.147  19.873 -20.202  1.00  0.00    -0.265 OA
BRANCH  14  16
HETATM   16  O1  UNL     1       4.891  19.198 -18.946  1.00  0.00    -0.326 OA
HETATM   17  C1  UNL     1       5.477  18.385 -19.943  1.00  0.00     0.213 C 
ENDBRANCH  14  16
ENDBRANCH   1  14
BRANCH   8  18
HETATM   18  S1  UNL     1       3.204  26.940 -18.922  1.00  0.00    -0.099 SA
HETATM   19  C9  UNL     1       3.223  27.793 -20.495  1.00  0.00     0.099 C 
ENDBRANCH   8  18
TORSDOF 3
ENDMDL
MODEL 4
REMARK VINA RESULT: -5.706273528      1.524      1.849
REMARK  3 active torsions:
REMARK  status: ('A' for Active; 'I' for Inactive)
REMARK    1  A    between atoms: O1_2  and  C2_3 
REMARK    2  A    between atoms: C2_3  and  C3_5 
REMARK    3  A    between atoms: C8_12  and  S1_13 
ROOT
HETATM    1  C3  UNL     1       4.670  22.501 -19.033  1.00  0.00     0.133 C 
HETATM    2  C4  UNL     1       5.691  22.857 -18.013  1.00  0.00     0.019 C 
HETATM    3  C5  UNL     1       5.424  22.267 -16.660  1.00  0.00     0.007 C 
HETATM    4  C6  UNL     1       5.585  20.786 -16.724  1.00  0.00     0.056 C 
HETATM    5  C7  UNL     1       4.964  20.321 -18.034  1.00  0.00     0.031 A 
HETATM    6  N1  UNL     1       5.342  19.196 -18.525  1.00  0.00    -0.341 N 
ATOM      7  H1  UNL     1       6.046  18.664 -18.014  1.00  0.00     0.167 HD
HETATM    8  C8  UNL     1       4.840  18.650 -19.733  1.00  0.00     0.140 A 
HETATM    9  N2  UNL     1       3.969  19.329 -20.340  1.00  0.00    -0.367 N 
ATOM     10  H2  UNL     1       3.611  18.935 -21.210  1.00  0.00     0.161 HD
HETATM   11  C10 UNL     1       3.431  20.585 -19.942  1.00  0.00     0.172 A 
HETATM   12  C11 UNL     1       3.985  21.164 -18.704  1.00  0.00     0.170 A 
HETATM   13  F1  UNL     1       2.894  21.424 -17.861  1.00  0.00    -0.234 F 
ENDROOT
BRANCH   1  14
HETATM   14  C2  UNL     1       3.662  23.586 -19.128  1.00  0.00     0.266 C 
HETATM   15  O2  UNL     1       2.870  23.661 -20.109  1.00  0.00    -0.265 OA
BRANCH  14  16
HETATM   16  O1  UNL     1       3.530  24.571 -18.156  1.00  0.00    -0.326 OA
HETATM   17  C1  UNL     1       3.818  25.933 -18.401  1.00  0.00     0.213 C 
ENDBRANCH  14  16
ENDBRANCH   1  14
BRANCH   8  18
HETATM   18  S1  UNL     1       5.480  17.081 -20.268  1.00  0.00    -0.099 SA
HETATM   19  C9  UNL     1       7.258  17.083 -20.468  1.00  0.00     0.099 C 
ENDBRANCH   8  18
TORSDOF 3
ENDMDL
MODEL 5
REMARK VINA RESULT: -5.610991750      1.022      1.075
REMARK  3 active torsions:
REMARK  status: ('A' for Active; 'I' for Inactive)
REMARK    1  A    between atoms: O1_2  and  C2_3 
REMARK    2  A    between atoms: C2_3  and  C3_5 
REMARK    3  A    between atoms: C8_12  and  S1_13 
ROOT
HETATM    1  C3  UNL     1       4.529  24.742 -19.075  1.00  0.00     0.133 C 
HETATM    2  C4  UNL     1       5.524  25.340 -18.145  1.00  0.00     0.019 C 
HETATM    3  C5  UNL     1       5.245  25.055 -16.700  1.00  0.00     0.007 C 
HETATM    4  C6  UNL     1       5.439  23.601 -16.433  1.00  0.00     0.056 C 
HETATM    5  C7  UNL     1       4.853  22.843 -17.616  1.00  0.00     0.031 A 
HETATM    6  N1  UNL     1       5.264  21.648 -17.842  1.00  0.00    -0.341 N 
ATOM      7  H1  UNL     1       5.970  21.259 -17.217  1.00  0.00     0.167 HD
HETATM    8  C8  UNL     1       4.796  20.837 -18.905  1.00  0.00     0.140 A 
HETATM    9  N2  UNL     1       3.921  21.343 -19.659  1.00  0.00    -0.367 N 
ATOM     10  H2  UNL     1       3.587  20.758 -20.425  1.00  0.00     0.161 HD
HETATM   11  C10 UNL     1       3.349  22.641 -19.555  1.00  0.00     0.172 A 
HETATM   12  C11 UNL     1       3.868  23.493 -18.468  1.00  0.00     0.170 A 
HETATM   13  F1  UNL     1       2.756  23.904 -17.717  1.00  0.00    -0.234 F 
ENDROOT
BRANCH   1  14
HETATM   14  C2  UNL     1       3.499  25.753 -19.420  1.00  0.00     0.266 C 
HETATM   15  O2  UNL     1       3.016  26.522 -18.543  1.00  0.00    -0.265 OA
BRANCH  14  16
HETATM   16  O1  UNL     1       3.012  25.914 -20.712  1.00  0.00    -0.326 OA
HETATM   17  C1  UNL     1       3.810  26.389 -21.779  1.00  0.00     0.213 C 
ENDBRANCH  14  16
ENDBRANCH   1  14
BRANCH   8  18
HETATM   18  S1  UNL     1       5.480  19.205 -19.074  1.00  0.00    -0.099 SA
HETATM   19  C9  UNL     1       4.528  18.158 -20.169  1.00  0.00     0.099 C 
ENDBRANCH   8  18
TORSDOF 3
ENDMDL
