MODEL 1
REMARK VINA RESULT: -5.875289178      0.000      0.000
REMARK  3 active torsions:
REMARK  status: ('A' for Active; 'I' for Inactive)
REMARK    1  A    between atoms: O1_2  and  C2_3 
REMARK    2  A    between atoms: C2_3  and  C3_5 
REMARK    3  A    between atoms: C6_10  and  N1_11 
ROOT
HETATM    1  C3  UNL     1       4.829  22.492 -18.077  1.00  0.00     0.114 A 
HETATM    2  S1  UNL     1       5.386  24.098 -17.694  1.00  0.00    -0.074 SA
HETATM    3  C4  UNL     1       4.308  24.998 -18.636  1.00  0.00     0.054 A 
HETATM    4 BR1  UNL     1       4.183  26.913 -18.839  1.00  0.00    -0.043 Br
HETATM    5  C5  UNL     1       3.544  24.046 -19.223  1.00  0.00     0.064 A 
HETATM    6  C6  UNL     1       3.808  22.745 -18.936  1.00  0.00     0.127 A 
ENDROOT
BRANCH   1   7
HETATM    7  C2  UNL     1       5.414  21.247 -17.546  1.00  0.00     0.302 C 
HETATM    8  O2  UNL     1       4.875  20.784 -16.475  1.00  0.00    -0.259 OA
BRANCH   7   9
HETATM    9  O1  UNL     1       6.444  20.535 -18.040  1.00  0.00    -0.322 OA
HETATM   10  C1  UNL     1       6.444  19.194 -18.444  1.00  0.00     0.213 C 
ENDBRANCH   7   9
ENDBRANCH   1   7
BRANCH   6  11
HETATM   11  N1  UNL     1       3.016  21.679 -19.552  1.00  0.00    -0.114 N 
HETATM   12  O3  UNL     1       1.887  21.863 -19.925  1.00  0.00    -0.532 OA
HETATM   13  O4  UNL     1       3.584  20.439 -19.749  1.00  0.00    -0.532 OA
ENDBRANCH   6  11
TORSDOF 3
ENDMDL
MODEL 2
REMARK VINA RESULT: -5.826781292      3.583      5.146
REMARK  3 active torsions:
REMARK  status: ('A' for Active; 'I' for Inactive)
REMARK    1  A    between atoms: O1_2  and  C2_3 
REMARK    2  A    between atoms: C2_3  and  C3_5 
REMARK    3  A    between atoms: C6_10  and  N1_11 
ROOT
HETATM    1  C3  UNL     1       4.105  20.916 -19.125  1.00  0.00     0.114 A 
HETATM    2  S1  UNL     1       3.942  19.438 -20.033  1.00  0.00    -0.074 SA
HETATM    3  C4  UNL     1       5.474  18.775 -19.760  1.00  0.00     0.054 A 
HETATM    4 BR1  UNL     1       6.204  17.107 -20.400  1.00  0.00    -0.043 Br
HETATM    5  C5  UNL     1       6.076  19.702 -18.977  1.00  0.00     0.064 A 
HETATM    6  C6  UNL     1       5.371  20.814 -18.644  1.00  0.00     0.127 A 
ENDROOT
BRANCH   1   7
HETATM    7  C2  UNL     1       3.060  21.949 -18.999  1.00  0.00     0.302 C 
HETATM    8  O2  UNL     1       2.050  21.827 -19.786  1.00  0.00    -0.259 OA
BRANCH   7   9
HETATM    9  O1  UNL     1       3.031  23.006 -18.167  1.00  0.00    -0.322 OA
HETATM   10  C1  UNL     1       3.564  24.283 -18.384  1.00  0.00     0.213 C 
ENDBRANCH   7   9
ENDBRANCH   1   7
BRANCH   6  11
HETATM   11  N1  UNL     1       5.980  21.850 -17.807  1.00  0.00    -0.114 N 
HETATM   12  O3  UNL     1       5.654  22.012 -16.661  1.00  0.00    -0.532 OA
HETATM   13  O4  UNL     1       6.984  22.639 -18.327  1.00  0.00    -0.532 OA
ENDBRANCH   6  11
TORSDOF 3
ENDMDL
MODEL 3
REMARK VINA RESULT: -5.802454400      3.331      4.245
REMARK  3 active torsions:
REMARK  status: ('A' for Active; 'I' for Inactive)
REMARK    1  A    between atoms: O1_2  and  C2_3 
REMARK    2  A    between atoms: C2_3  and  C3_5 
REMARK    3  A    between atoms: C6_10  and  N1_11 
ROOT
HETATM    1  C3  UNL     1       5.130  21.860 -18.411  1.00  0.00     0.114 A 
HETATM    2  S1  UNL     1       6.367  20.665 -18.687  1.00  0.00    -0.074 SA
HETATM    3  C4  UNL     1       5.427  19.451 -19.395  1.00  0.00     0.054 A 
HETATM    4 BR1  UNL     1       5.974  17.714 -20.036  1.00  0.00    -0.043 Br
HETATM    5  C5  UNL     1       4.185  19.989 -19.404  1.00  0.00     0.064 A 
HETATM    6  C6  UNL     1       4.024  21.239 -18.897  1.00  0.00     0.127 A 
ENDROOT
BRANCH   1   7
HETATM    7  C2  UNL     1       5.352  23.176 -17.784  1.00  0.00     0.302 C 
HETATM    8  O2  UNL     1       5.719  23.157 -16.551  1.00  0.00    -0.259 OA
BRANCH   7   9
HETATM    9  O1  UNL     1       5.216  24.395 -18.337  1.00  0.00    -0.322 OA
HETATM   10  C1  UNL     1       4.078  25.212 -18.342  1.00  0.00     0.213 C 
ENDBRANCH   7   9
ENDBRANCH   1   7
BRANCH   6  11
HETATM   11  N1  UNL     1       2.699  21.862 -18.877  1.00  0.00    -0.114 N 
HETATM   12  O3  UNL     1       2.036  21.973 -19.874  1.00  0.00    -0.532 OA
HETATM   13  O4  UNL     1       2.173  22.300 -17.680  1.00  0.00    -0.532 OA
ENDBRANCH   6  11
TORSDOF 3
ENDMDL
MODEL 4
REMARK VINA RESULT: -5.795108165      2.268      3.491
REMARK  3 active torsions:
REMARK  status: ('A' for Active; 'I' for Inactive)
REMARK    1  A    between atoms: O1_2  and  C2_3 
REMARK    2  A    between atoms: C2_3  and  C3_5 
REMARK    3  A    between atoms: C6_10  and  N1_11 
ROOT
HETATM    1  C3  UNL     1       4.203  20.490 -19.158  1.00  0.00     0.114 A 
HETATM    2  S1  UNL     1       3.359  21.973 -19.511  1.00  0.00    -0.074 SA
HETATM    3  C4  UNL     1       4.055  22.973 -18.339  1.00  0.00     0.054 A 
HETATM    4 BR1  UNL     1       3.711  24.838 -17.980  1.00  0.00    -0.043 Br
HETATM    5  C5  UNL     1       4.920  22.148 -17.703  1.00  0.00     0.064 A 
HETATM    6  C6  UNL     1       5.002  20.859 -18.123  1.00  0.00     0.127 A 
ENDROOT
BRANCH   1   7
HETATM    7  C2  UNL     1       4.000  19.213 -19.868  1.00  0.00     0.302 C 
HETATM    8  O2  UNL     1       3.013  19.177 -20.691  1.00  0.00    -0.259 OA
BRANCH   7   9
HETATM    9  O1  UNL     1       4.716  18.079 -19.760  1.00  0.00    -0.322 OA
HETATM   10  C1  UNL     1       5.906  17.749 -20.422  1.00  0.00     0.213 C 
ENDBRANCH   7   9
ENDBRANCH   1   7
BRANCH   6  11
HETATM   11  N1  UNL     1       5.916  19.925 -17.463  1.00  0.00    -0.114 N 
HETATM   12  O3  UNL     1       5.604  19.333 -16.463  1.00  0.00    -0.532 OA
HETATM   13  O4  UNL     1       7.154  19.680 -18.017  1.00  0.00    -0.532 OA
ENDBRANCH   6  11
TORSDOF 3
ENDMDL
MODEL 5
REMARK VINA RESULT: -5.770122391      0.927      1.184
REMARK  3 active torsions:
REMARK  status: ('A' for Active; 'I' for Inactive)
REMARK    1  A    between atoms: O1_2  and  C2_3 
REMARK    2  A    between atoms: C2_3  and  C3_5 
REMARK    3  A    between atoms: C6_10  and  N1_11 
ROOT
HETATM    1  C3  UNL     1       4.772  23.171 -18.103  1.00  0.00     0.114 A 
HETATM    2  S1  UNL     1       5.083  24.875 -17.909  1.00  0.00    -0.074 SA
HETATM    3  C4  UNL     1       3.912  25.492 -18.961  1.00  0.00     0.054 A 
HETATM    4 BR1  UNL     1       3.519  27.333 -19.390  1.00  0.00    -0.043 Br
HETATM    5  C5  UNL     1       3.307  24.378 -19.437  1.00  0.00     0.064 A 
HETATM    6  C6  UNL     1       3.748  23.172 -18.996  1.00  0.00     0.127 A 
ENDROOT
BRANCH   1   7
HETATM    7  C2  UNL     1       5.515  22.094 -17.424  1.00  0.00     0.302 C 
HETATM    8  O2  UNL     1       6.797  22.193 -17.448  1.00  0.00    -0.259 OA
BRANCH   7   9
HETATM    9  O1  UNL     1       5.022  21.018 -16.785  1.00  0.00    -0.322 OA
HETATM   10  C1  UNL     1       5.412  19.681 -16.929  1.00  0.00     0.213 C 
ENDBRANCH   7   9
ENDBRANCH   1   7
BRANCH   6  11
HETATM   11  N1  UNL     1       3.132  21.937 -19.487  1.00  0.00    -0.114 N 
HETATM   12  O3  UNL     1       1.954  21.865 -19.720  1.00  0.00    -0.532 OA
HETATM   13  O4  UNL     1       3.923  20.835 -19.731  1.00  0.00    -0.532 OA
ENDBRANCH   6  11
TORSDOF 3
ENDMDL
