MODEL 1
REMARK VINA RESULT: -5.810922880      0.000      0.000
REMARK  4 active torsions:
REMARK  status: ('A' for Active; 'I' for Inactive)
REMARK    1  A    between atoms: C4_5  and  C5_6 
REMARK    2  A    between atoms: C5_6  and  C6_7 
REMARK    3  A    between atoms: C7_8  and  N1_9 
REMARK    4  A    between atoms: S1_15  and  C11_17 
ROOT
HETATM    1  C1  UNL     1       2.913  26.996 -19.042  1.00  0.00     0.080 C 
HETATM    2  C2  UNL     1       3.674  25.826 -19.503  1.00  0.00     0.174 C 
HETATM    3  C3  UNL     1       3.846  25.876 -21.009  1.00  0.00     0.080 C 
HETATM    4  O1  UNL     1       3.047  24.582 -19.240  1.00  0.00    -0.324 OA
HETATM    5  C4  UNL     1       3.922  23.602 -18.933  1.00  0.00     0.313 C 
HETATM    6  S1  UNL     1       4.859  24.665 -17.797  1.00  0.00     0.185 S 
HETATM    7  O2  UNL     1       4.119  25.042 -16.610  1.00  0.00    -0.230 OA
HETATM    8  O3  UNL     1       4.947  25.884 -18.937  1.00  0.00    -0.258 OA
ENDROOT
BRANCH   5   9
HETATM    9  C5  UNL     1       4.220  22.389 -19.156  1.00  0.00    -0.108 C 
BRANCH   9  10
HETATM   10  C6  UNL     1       4.535  21.106 -19.393  1.00  0.00     0.072 C 
HETATM   11  C7  UNL     1       5.669  20.444 -19.091  1.00  0.00     0.105 C 
BRANCH  11  12
HETATM   12  N1  UNL     1       5.838  19.074 -19.427  1.00  0.00    -0.327 N 
HETATM   13  C8  UNL     1       4.854  18.254 -19.826  1.00  0.00     0.114 A 
HETATM   14  C9  UNL     1       5.389  16.997 -20.055  1.00  0.00     0.106 A 
HETATM   15  N2  UNL     1       6.699  17.079 -19.800  1.00  0.00    -0.360 N 
HETATM   16  C10 UNL     1       6.948  18.312 -19.430  1.00  0.00     0.187 A 
ATOM     17  H2  UNL     1       7.379  16.323 -19.878  1.00  0.00     0.166 HD
ENDBRANCH  11  12
ENDBRANCH   9  10
ENDBRANCH   5   9
BRANCH   6  18
HETATM   18  C11 UNL     1       6.168  24.069 -17.283  1.00  0.00     0.349 C 
HETATM   19  F1  UNL     1       6.126  23.563 -16.073  1.00  0.00    -0.161 F 
HETATM   20  F2  UNL     1       7.262  24.008 -18.014  1.00  0.00    -0.161 F 
ENDBRANCH   6  18
TORSDOF 4
ENDMDL
MODEL 2
REMARK VINA RESULT: -5.697446832      0.428      1.108
REMARK  4 active torsions:
REMARK  status: ('A' for Active; 'I' for Inactive)
REMARK    1  A    between atoms: C4_5  and  C5_6 
REMARK    2  A    between atoms: C5_6  and  C6_7 
REMARK    3  A    between atoms: C7_8  and  N1_9 
REMARK    4  A    between atoms: S1_15  and  C11_17 
ROOT
HETATM    1  C1  UNL     1       2.816  26.973 -19.110  1.00  0.00     0.080 C 
HETATM    2  C2  UNL     1       3.607  25.814 -19.551  1.00  0.00     0.174 C 
HETATM    3  C3  UNL     1       3.848  25.888 -21.047  1.00  0.00     0.080 C 
HETATM    4  O1  UNL     1       2.977  24.563 -19.335  1.00  0.00    -0.324 OA
HETATM    5  C4  UNL     1       3.845  23.584 -19.002  1.00  0.00     0.313 C 
HETATM    6  S1  UNL     1       4.720  24.637 -17.809  1.00  0.00     0.185 S 
HETATM    7  O2  UNL     1       3.923  24.992 -16.652  1.00  0.00    -0.230 OA
HETATM    8  O3  UNL     1       4.852  25.874 -18.926  1.00  0.00    -0.258 OA
ENDROOT
BRANCH   5   9
HETATM    9  C5  UNL     1       4.162  22.377 -19.229  1.00  0.00    -0.108 C 
BRANCH   9  10
HETATM   10  C6  UNL     1       4.497  21.100 -19.470  1.00  0.00     0.072 C 
HETATM   11  C7  UNL     1       5.636  20.451 -19.158  1.00  0.00     0.105 C 
BRANCH  11  12
HETATM   12  N1  UNL     1       5.827  19.086 -19.500  1.00  0.00    -0.327 N 
HETATM   13  C8  UNL     1       7.016  18.464 -19.547  1.00  0.00     0.114 A 
HETATM   14  C9  UNL     1       6.814  17.147 -19.926  1.00  0.00     0.106 A 
HETATM   15  N2  UNL     1       5.496  16.988 -20.094  1.00  0.00    -0.360 N 
HETATM   16  C10 UNL     1       4.929  18.141 -19.839  1.00  0.00     0.187 A 
ATOM     17  H2  UNL     1       5.021  16.128 -20.370  1.00  0.00     0.166 HD
ENDBRANCH  11  12
ENDBRANCH   9  10
ENDBRANCH   5   9
BRANCH   6  18
HETATM   18  C11 UNL     1       6.008  24.043 -17.244  1.00  0.00     0.349 C 
HETATM   19  F1  UNL     1       7.081  24.203 -17.983  1.00  0.00    -0.161 F 
HETATM   20  F2  UNL     1       6.068  23.453 -16.068  1.00  0.00    -0.161 F 
ENDBRANCH   6  18
TORSDOF 4
ENDMDL
MODEL 3
REMARK VINA RESULT: -5.259214044      7.593     10.073
REMARK  4 active torsions:
REMARK  status: ('A' for Active; 'I' for Inactive)
REMARK    1  A    between atoms: C4_5  and  C5_6 
REMARK    2  A    between atoms: C5_6  and  C6_7 
REMARK    3  A    between atoms: C7_8  and  N1_9 
REMARK    4  A    between atoms: S1_15  and  C11_17 
ROOT
HETATM    1  C1  UNL     1      10.621  13.308 -23.792  1.00  0.00     0.080 C 
HETATM    2  C2  UNL     1       9.529  14.286 -23.679  1.00  0.00     0.174 C 
HETATM    3  C3  UNL     1       9.631  15.311 -24.792  1.00  0.00     0.080 C 
HETATM    4  O1  UNL     1       9.541  15.037 -22.477  1.00  0.00    -0.324 OA
HETATM    5  C4  UNL     1       8.304  15.312 -22.013  1.00  0.00     0.313 C 
HETATM    6  S1  UNL     1       7.721  13.614 -22.286  1.00  0.00     0.185 S 
HETATM    7  O2  UNL     1       8.355  12.636 -21.425  1.00  0.00    -0.230 OA
HETATM    8  O3  UNL     1       8.321  13.610 -23.846  1.00  0.00    -0.258 OA
ENDROOT
BRANCH   5   9
HETATM    9  C5  UNL     1       7.573  16.230 -21.528  1.00  0.00    -0.108 C 
BRANCH   9  10
HETATM   10  C6  UNL     1       6.801  17.200 -21.016  1.00  0.00     0.072 C 
HETATM   11  C7  UNL     1       6.819  17.729 -19.776  1.00  0.00     0.105 C 
BRANCH  11  12
HETATM   12  N1  UNL     1       5.913  18.756 -19.397  1.00  0.00    -0.327 N 
HETATM   13  C8  UNL     1       6.103  19.611 -18.380  1.00  0.00     0.114 A 
HETATM   14  C9  UNL     1       5.011  20.460 -18.304  1.00  0.00     0.106 A 
HETATM   15  N2  UNL     1       4.177  20.111 -19.290  1.00  0.00    -0.360 N 
HETATM   16  C10 UNL     1       4.725  19.104 -19.925  1.00  0.00     0.187 A 
ATOM     17  H2  UNL     1       3.281  20.547 -19.507  1.00  0.00     0.166 HD
ENDBRANCH  11  12
ENDBRANCH   9  10
ENDBRANCH   5   9
BRANCH   6  18
HETATM   18  C11 UNL     1       6.220  13.406 -22.095  1.00  0.00     0.349 C 
HETATM   19  F1  UNL     1       5.860  12.216 -21.676  1.00  0.00    -0.161 F 
HETATM   20  F2  UNL     1       5.336  14.365 -22.280  1.00  0.00    -0.161 F 
ENDBRANCH   6  18
TORSDOF 4
ENDMDL
MODEL 4
REMARK VINA RESULT: -4.882936010      2.139      2.903
REMARK  4 active torsions:
REMARK  status: ('A' for Active; 'I' for Inactive)
REMARK    1  A    between atoms: C4_5  and  C5_6 
REMARK    2  A    between atoms: C5_6  and  C6_7 
REMARK    3  A    between atoms: C7_8  and  N1_9 
REMARK    4  A    between atoms: S1_15  and  C11_17 
ROOT
HETATM    1  C1  UNL     1       2.492  23.410 -17.520  1.00  0.00     0.080 C 
HETATM    2  C2  UNL     1       3.351  22.718 -18.491  1.00  0.00     0.174 C 
HETATM    3  C3  UNL     1       2.724  22.771 -19.871  1.00  0.00     0.080 C 
HETATM    4  O1  UNL     1       3.542  21.339 -18.221  1.00  0.00    -0.324 OA
HETATM    5  C4  UNL     1       4.780  20.905 -18.539  1.00  0.00     0.313 C 
HETATM    6  S1  UNL     1       5.584  22.336 -17.764  1.00  0.00     0.185 S 
HETATM    7  O2  UNL     1       5.439  22.376 -16.322  1.00  0.00    -0.230 OA
HETATM    8  O3  UNL     1       4.567  23.398 -18.560  1.00  0.00    -0.258 OA
ENDROOT
BRANCH   5   9
HETATM    9  C5  UNL     1       5.422  19.967 -19.103  1.00  0.00    -0.108 C 
BRANCH   9  10
HETATM   10  C6  UNL     1       6.101  18.975 -19.700  1.00  0.00     0.072 C 
HETATM   11  C7  UNL     1       5.627  17.848 -20.268  1.00  0.00     0.105 C 
BRANCH  11  12
HETATM   12  N1  UNL     1       6.500  16.892 -20.852  1.00  0.00    -0.327 N 
HETATM   13  C8  UNL     1       6.134  15.967 -21.754  1.00  0.00     0.114 A 
HETATM   14  C9  UNL     1       7.243  15.208 -22.087  1.00  0.00     0.106 A 
HETATM   15  N2  UNL     1       8.273  15.694 -21.385  1.00  0.00    -0.360 N 
HETATM   16  C10 UNL     1       7.817  16.687 -20.662  1.00  0.00     0.187 A 
ATOM     17  H2  UNL     1       9.235  15.355 -21.408  1.00  0.00     0.166 HD
ENDBRANCH  11  12
ENDBRANCH   9  10
ENDBRANCH   5   9
BRANCH   6  18
HETATM   18  C11 UNL     1       7.084  22.454 -18.021  1.00  0.00     0.349 C 
HETATM   19  F1  UNL     1       7.543  23.676 -18.162  1.00  0.00    -0.161 F 
HETATM   20  F2  UNL     1       7.890  21.413 -18.047  1.00  0.00    -0.161 F 
ENDBRANCH   6  18
TORSDOF 4
ENDMDL
MODEL 5
REMARK VINA RESULT: -4.882022955      2.032      2.643
REMARK  4 active torsions:
REMARK  status: ('A' for Active; 'I' for Inactive)
REMARK    1  A    between atoms: C4_5  and  C5_6 
REMARK    2  A    between atoms: C5_6  and  C6_7 
REMARK    3  A    between atoms: C7_8  and  N1_9 
REMARK    4  A    between atoms: S1_15  and  C11_17 
ROOT
HETATM    1  C1  UNL     1       2.965  24.326 -17.649  1.00  0.00     0.080 C 
HETATM    2  C2  UNL     1       3.615  23.431 -18.616  1.00  0.00     0.174 C 
HETATM    3  C3  UNL     1       3.157  23.764 -20.023  1.00  0.00     0.080 C 
HETATM    4  O1  UNL     1       3.309  22.059 -18.439  1.00  0.00    -0.324 OA
HETATM    5  C4  UNL     1       4.349  21.244 -18.714  1.00  0.00     0.313 C 
HETATM    6  S1  UNL     1       5.523  22.275 -17.789  1.00  0.00     0.185 S 
HETATM    7  O2  UNL     1       5.285  22.290 -16.360  1.00  0.00    -0.230 OA
HETATM    8  O3  UNL     1       4.991  23.657 -18.563  1.00  0.00    -0.258 OA
ENDROOT
BRANCH   5   9
HETATM    9  C5  UNL     1       4.680  20.172 -19.307  1.00  0.00    -0.108 C 
BRANCH   9  10
HETATM   10  C6  UNL     1       5.031  19.039 -19.935  1.00  0.00     0.072 C 
HETATM   11  C7  UNL     1       6.210  18.387 -19.907  1.00  0.00     0.105 C 
BRANCH  11  12
HETATM   12  N1  UNL     1       6.411  17.192 -20.648  1.00  0.00    -0.327 N 
HETATM   13  C8  UNL     1       7.608  16.707 -21.014  1.00  0.00     0.114 A 
HETATM   14  C9  UNL     1       7.414  15.536 -21.728  1.00  0.00     0.106 A 
HETATM   15  N2  UNL     1       6.094  15.323 -21.775  1.00  0.00    -0.360 N 
HETATM   16  C10 UNL     1       5.517  16.309 -21.133  1.00  0.00     0.187 A 
ATOM     17  H2  UNL     1       5.624  14.539 -22.227  1.00  0.00     0.166 HD
ENDBRANCH  11  12
ENDBRANCH   9  10
ENDBRANCH   5   9
BRANCH   6  18
HETATM   18  C11 UNL     1       6.991  21.886 -17.949  1.00  0.00     0.349 C 
HETATM   19  F1  UNL     1       7.266  20.616 -17.769  1.00  0.00    -0.161 F 
HETATM   20  F2  UNL     1       7.925  22.747 -18.298  1.00  0.00    -0.161 F 
ENDBRANCH   6  18
TORSDOF 4
ENDMDL
