MODEL 1
REMARK VINA RESULT: -6.744871086      0.000      0.000
REMARK  4 active torsions:
REMARK  status: ('A' for Active; 'I' for Inactive)
REMARK    1  A    between atoms: O1_2  and  C2_3 
REMARK    2  A    between atoms: C7_8  and  N1_9 
REMARK       I    between atoms: N1_9  and  C9_11 
REMARK    3  A    between atoms: C9_11  and  O3_13 
REMARK    4  A    between atoms: O3_13  and  C10_14 
ROOT
HETATM    1  C2  UNL     1       5.300  22.080 -17.918  1.00  0.00     0.098 A 
HETATM    2  C3  UNL     1       5.817  20.795 -18.037  1.00  0.00     0.078 A 
HETATM    3  C4  UNL     1       5.179  19.857 -18.824  1.00  0.00     0.107 A 
HETATM    4  C5  UNL     1       4.021  20.178 -19.502  1.00  0.00     0.107 A 
HETATM    5  C6  UNL     1       3.537  21.456 -19.363  1.00  0.00     0.072 A 
HETATM    6  C7  UNL     1       4.158  22.419 -18.581  1.00  0.00     0.075 A 
HETATM    7  O4  UNL     1       3.586  19.048 -20.220  1.00  0.00    -0.323 OA
HETATM    8  C14 UNL     1       4.690  18.132 -20.245  1.00  0.00     0.352 C 
HETATM    9  O5  UNL     1       5.458  18.527 -19.124  1.00  0.00    -0.323 OA
ENDROOT
BRANCH   6  10
HETATM   10  N1  UNL     1       3.579  23.741 -18.497  1.00  0.00    -0.295 N 
HETATM   11  C8  UNL     1       3.180  24.298 -17.215  1.00  0.00     0.162 C 
HETATM   12  C9  UNL     1       3.425  24.458 -19.703  1.00  0.00     0.367 C 
HETATM   13  O2  UNL     1       3.767  23.887 -20.783  1.00  0.00    -0.238 OA
BRANCH  12  14
HETATM   14  O3  UNL     1       2.934  25.741 -19.812  1.00  0.00    -0.294 OA
BRANCH  14  15
HETATM   15  C10 UNL     1       3.725  26.877 -20.090  1.00  0.00     0.061 C 
HETATM   16  C11 UNL     1       2.728  28.025 -20.308  1.00  0.00     0.046 C 
HETATM   17  C12 UNL     1       4.602  27.266 -18.940  1.00  0.00     0.046 C 
HETATM   18  C13 UNL     1       4.450  26.728 -21.398  1.00  0.00     0.046 C 
ENDBRANCH  14  15
ENDBRANCH  12  14
ENDBRANCH   6  10
BRANCH   1  19
HETATM   19  O1  UNL     1       5.951  23.009 -17.124  1.00  0.00    -0.354 OA
HETATM   20  C1  UNL     1       6.904  23.914 -17.711  1.00  0.00     0.210 C 
ENDBRANCH   1  19
TORSDOF 4
ENDMDL
MODEL 2
REMARK VINA RESULT: -6.401238287      0.735      1.233
REMARK  4 active torsions:
REMARK  status: ('A' for Active; 'I' for Inactive)
REMARK    1  A    between atoms: O1_2  and  C2_3 
REMARK    2  A    between atoms: C7_8  and  N1_9 
REMARK       I    between atoms: N1_9  and  C9_11 
REMARK    3  A    between atoms: C9_11  and  O3_13 
REMARK    4  A    between atoms: O3_13  and  C10_14 
ROOT
HETATM    1  C2  UNL     1       5.372  21.851 -17.874  1.00  0.00     0.098 A 
HETATM    2  C3  UNL     1       6.167  20.711 -17.917  1.00  0.00     0.078 A 
HETATM    3  C4  UNL     1       5.785  19.624 -18.677  1.00  0.00     0.107 A 
HETATM    4  C5  UNL     1       4.614  19.650 -19.404  1.00  0.00     0.107 A 
HETATM    5  C6  UNL     1       3.852  20.791 -19.340  1.00  0.00     0.072 A 
HETATM    6  C7  UNL     1       4.210  21.898 -18.586  1.00  0.00     0.075 A 
HETATM    7  O4  UNL     1       4.470  18.423 -20.081  1.00  0.00    -0.323 OA
HETATM    8  C14 UNL     1       5.751  17.779 -20.029  1.00  0.00     0.352 C 
HETATM    9  O5  UNL     1       6.367  18.380 -18.905  1.00  0.00    -0.323 OA
ENDROOT
BRANCH   6  10
HETATM   10  N1  UNL     1       3.347  23.059 -18.583  1.00  0.00    -0.295 N 
HETATM   11  C8  UNL     1       2.389  23.270 -17.511  1.00  0.00     0.162 C 
HETATM   12  C9  UNL     1       3.481  23.969 -19.653  1.00  0.00     0.367 C 
HETATM   13  O2  UNL     1       4.318  23.694 -20.567  1.00  0.00    -0.238 OA
BRANCH  12  14
HETATM   14  O3  UNL     1       2.777  25.145 -19.795  1.00  0.00    -0.294 OA
BRANCH  14  15
HETATM   15  C10 UNL     1       3.371  26.421 -19.904  1.00  0.00     0.061 C 
HETATM   16  C11 UNL     1       4.375  26.504 -18.745  1.00  0.00     0.046 C 
HETATM   17  C12 UNL     1       4.147  26.592 -21.174  1.00  0.00     0.046 C 
HETATM   18  C13 UNL     1       2.370  27.511 -19.640  1.00  0.00     0.046 C 
ENDBRANCH  14  15
ENDBRANCH  12  14
ENDBRANCH   6  10
BRANCH   1  19
HETATM   19  O1  UNL     1       5.766  22.934 -17.107  1.00  0.00    -0.354 OA
HETATM   20  C1  UNL     1       6.708  23.885 -17.635  1.00  0.00     0.210 C 
ENDBRANCH   1  19
TORSDOF 4
ENDMDL
MODEL 3
REMARK VINA RESULT: -6.182487137      1.034      1.346
REMARK  4 active torsions:
REMARK  status: ('A' for Active; 'I' for Inactive)
REMARK    1  A    between atoms: O1_2  and  C2_3 
REMARK    2  A    between atoms: C7_8  and  N1_9 
REMARK       I    between atoms: N1_9  and  C9_11 
REMARK    3  A    between atoms: C9_11  and  O3_13 
REMARK    4  A    between atoms: O3_13  and  C10_14 
ROOT
HETATM    1  C2  UNL     1       5.305  21.492 -17.675  1.00  0.00     0.098 A 
HETATM    2  C3  UNL     1       6.144  20.385 -17.727  1.00  0.00     0.078 A 
HETATM    3  C4  UNL     1       5.888  19.358 -18.613  1.00  0.00     0.107 A 
HETATM    4  C5  UNL     1       4.799  19.412 -19.458  1.00  0.00     0.107 A 
HETATM    5  C6  UNL     1       3.990  20.519 -19.381  1.00  0.00     0.072 A 
HETATM    6  C7  UNL     1       4.223  21.567 -18.503  1.00  0.00     0.075 A 
HETATM    7  O4  UNL     1       4.776  18.245 -20.246  1.00  0.00    -0.323 OA
HETATM    8  C14 UNL     1       6.069  17.637 -20.110  1.00  0.00     0.352 C 
HETATM    9  O5  UNL     1       6.538  18.156 -18.880  1.00  0.00    -0.323 OA
ENDROOT
BRANCH   6  10
HETATM   10  N1  UNL     1       3.320  22.696 -18.496  1.00  0.00    -0.295 N 
HETATM   11  C8  UNL     1       2.235  22.774 -17.532  1.00  0.00     0.162 C 
HETATM   12  C9  UNL     1       3.542  23.709 -19.453  1.00  0.00     0.367 C 
HETATM   13  O2  UNL     1       4.491  23.548 -20.281  1.00  0.00    -0.238 OA
BRANCH  12  14
HETATM   14  O3  UNL     1       2.813  24.872 -19.569  1.00  0.00    -0.294 OA
BRANCH  14  15
HETATM   15  C10 UNL     1       3.375  26.168 -19.574  1.00  0.00     0.061 C 
HETATM   16  C11 UNL     1       3.890  26.384 -21.005  1.00  0.00     0.046 C 
HETATM   17  C12 UNL     1       2.362  27.237 -19.303  1.00  0.00     0.046 C 
HETATM   18  C13 UNL     1       4.595  26.235 -18.700  1.00  0.00     0.046 C 
ENDBRANCH  14  15
ENDBRANCH  12  14
ENDBRANCH   6  10
BRANCH   1  19
HETATM   19  O1  UNL     1       5.574  22.515 -16.781  1.00  0.00    -0.354 OA
HETATM   20  C1  UNL     1       6.493  23.561 -17.141  1.00  0.00     0.210 C 
ENDBRANCH   1  19
TORSDOF 4
ENDMDL
MODEL 4
REMARK VINA RESULT: -5.704601143      1.487      6.011
REMARK  4 active torsions:
REMARK  status: ('A' for Active; 'I' for Inactive)
REMARK    1  A    between atoms: O1_2  and  C2_3 
REMARK    2  A    between atoms: C7_8  and  N1_9 
REMARK       I    between atoms: N1_9  and  C9_11 
REMARK    3  A    between atoms: C9_11  and  O3_13 
REMARK    4  A    between atoms: O3_13  and  C10_14 
ROOT
HETATM    1  C2  UNL     1       4.792  24.516 -17.726  1.00  0.00     0.098 A 
HETATM    2  C3  UNL     1       4.817  25.859 -18.081  1.00  0.00     0.078 A 
HETATM    3  C4  UNL     1       4.254  26.276 -19.271  1.00  0.00     0.107 A 
HETATM    4  C5  UNL     1       3.660  25.369 -20.123  1.00  0.00     0.107 A 
HETATM    5  C6  UNL     1       3.653  24.050 -19.743  1.00  0.00     0.072 A 
HETATM    6  C7  UNL     1       4.210  23.602 -18.554  1.00  0.00     0.075 A 
HETATM    7  O4  UNL     1       3.173  26.057 -21.252  1.00  0.00    -0.323 OA
HETATM    8  C14 UNL     1       3.172  27.450 -20.909  1.00  0.00     0.352 C 
HETATM    9  O5  UNL     1       4.133  27.525 -19.872  1.00  0.00    -0.323 OA
ENDROOT
BRANCH   6  10
HETATM   10  N1  UNL     1       4.151  22.193 -18.232  1.00  0.00    -0.295 N 
HETATM   11  C8  UNL     1       2.996  21.635 -17.549  1.00  0.00     0.162 C 
HETATM   12  C9  UNL     1       5.252  21.396 -18.612  1.00  0.00     0.367 C 
HETATM   13  O2  UNL     1       6.236  21.968 -19.174  1.00  0.00    -0.238 OA
BRANCH  12  14
HETATM   14  O3  UNL     1       5.353  20.035 -18.426  1.00  0.00    -0.294 OA
BRANCH  14  15
HETATM   15  C10 UNL     1       5.167  19.075 -19.445  1.00  0.00     0.061 C 
HETATM   16  C11 UNL     1       4.971  17.738 -18.716  1.00  0.00     0.046 C 
HETATM   17  C12 UNL     1       3.930  19.323 -20.254  1.00  0.00     0.046 C 
HETATM   18  C13 UNL     1       6.416  18.901 -20.264  1.00  0.00     0.046 C 
ENDBRANCH  14  15
ENDBRANCH  12  14
ENDBRANCH   6  10
BRANCH   1  19
HETATM   19  O1  UNL     1       5.361  24.113 -16.529  1.00  0.00    -0.354 OA
HETATM   20  C1  UNL     1       6.678  23.533 -16.518  1.00  0.00     0.210 C 
ENDBRANCH   1  19
TORSDOF 4
ENDMDL
MODEL 5
REMARK VINA RESULT: -5.422000447      1.542      6.122
REMARK  4 active torsions:
REMARK  status: ('A' for Active; 'I' for Inactive)
REMARK    1  A    between atoms: O1_2  and  C2_3 
REMARK    2  A    between atoms: C7_8  and  N1_9 
REMARK       I    between atoms: N1_9  and  C9_11 
REMARK    3  A    between atoms: C9_11  and  O3_13 
REMARK    4  A    between atoms: O3_13  and  C10_14 
ROOT
HETATM    1  C2  UNL     1       4.650  24.540 -17.792  1.00  0.00     0.098 A 
HETATM    2  C3  UNL     1       4.888  25.896 -17.988  1.00  0.00     0.078 A 
HETATM    3  C4  UNL     1       4.390  26.536 -19.105  1.00  0.00     0.107 A 
HETATM    4  C5  UNL     1       3.651  25.844 -20.042  1.00  0.00     0.107 A 
HETATM    5  C6  UNL     1       3.434  24.507 -19.818  1.00  0.00     0.072 A 
HETATM    6  C7  UNL     1       3.920  23.838 -18.705  1.00  0.00     0.075 A 
HETATM    7  O4  UNL     1       3.272  26.731 -21.068  1.00  0.00    -0.323 OA
HETATM    8  C14 UNL     1       3.499  28.055 -20.565  1.00  0.00     0.352 C 
HETATM    9  O5  UNL     1       4.468  27.852 -19.553  1.00  0.00    -0.323 OA
ENDROOT
BRANCH   6  10
HETATM   10  N1  UNL     1       3.637  22.428 -18.549  1.00  0.00    -0.295 N 
HETATM   11  C8  UNL     1       2.409  21.983 -17.913  1.00  0.00     0.162 C 
HETATM   12  C9  UNL     1       4.596  21.517 -19.042  1.00  0.00     0.367 C 
HETATM   13  O2  UNL     1       5.658  21.987 -19.554  1.00  0.00    -0.238 OA
BRANCH  12  14
HETATM   14  O3  UNL     1       4.478  20.144 -19.019  1.00  0.00    -0.294 OA
BRANCH  14  15
HETATM   15  C10 UNL     1       5.552  19.256 -18.791  1.00  0.00     0.061 C 
HETATM   16  C11 UNL     1       4.953  17.848 -18.928  1.00  0.00     0.046 C 
HETATM   17  C12 UNL     1       6.632  19.378 -19.820  1.00  0.00     0.046 C 
HETATM   18  C13 UNL     1       6.037  19.343 -17.371  1.00  0.00     0.046 C 
ENDBRANCH  14  15
ENDBRANCH  12  14
ENDBRANCH   6  10
BRANCH   1  19
HETATM   19  O1  UNL     1       5.156  23.911 -16.667  1.00  0.00    -0.354 OA
HETATM   20  C1  UNL     1       6.483  23.354 -16.690  1.00  0.00     0.210 C 
ENDBRANCH   1  19
TORSDOF 4
ENDMDL
