MODEL 1
REMARK VINA RESULT: -6.339005282      0.000      0.000
REMARK  2 active torsions:
REMARK  status: ('A' for Active; 'I' for Inactive)
REMARK    1  A    between atoms: S1_2  and  N1_4 
REMARK    2  A    between atoms: S1_2  and  N2_11 
ROOT
HETATM    1  O1  UNL     1       2.124  22.171 -19.735  1.00  0.00    -0.181 OA
HETATM    2  S1  UNL     1       3.373  22.260 -18.803  1.00  0.00     0.334 S 
HETATM    3  O2  UNL     1       2.803  22.153 -17.419  1.00  0.00    -0.181 OA
ENDROOT
BRANCH   2   4
HETATM    4  N1  UNL     1       4.073  23.701 -19.090  1.00  0.00    -0.240 N 
HETATM    5  C1  UNL     1       5.144  24.305 -18.479  1.00  0.00     0.081 C 
HETATM    6  C2  UNL     1       4.638  25.391 -17.543  1.00  0.00     0.046 C 
HETATM    7  C3  UNL     1       4.137  26.507 -18.390  1.00  0.00     0.010 C 
HETATM    8  C4  UNL     1       3.657  26.042 -19.707  1.00  0.00     0.060 C 
HETATM    9  C5  UNL     1       3.253  24.638 -19.866  1.00  0.00     0.287 C 
HETATM   10  F1  UNL     1       3.395  24.270 -21.183  1.00  0.00    -0.226 F 
ENDBRANCH   2   4
BRANCH   2  11
HETATM   11  N2  UNL     1       4.291  20.787 -19.117  1.00  0.00    -0.217 N 
HETATM   12  C6  UNL     1       3.769  19.841 -19.908  1.00  0.00     0.119 A 
HETATM   13  C7  UNL     1       4.466  18.676 -20.066  1.00  0.00     0.071 A 
HETATM   14  S2  UNL     1       5.832  18.932 -19.107  1.00  0.00    -0.070 SA
HETATM   15  C8  UNL     1       5.458  20.506 -18.552  1.00  0.00     0.159 A 
HETATM   16  S3  UNL     1       6.433  21.444 -17.588  1.00  0.00    -0.051 SA
ENDBRANCH   2  11
TORSDOF 2
ENDMDL
MODEL 2
REMARK VINA RESULT: -6.315638239      2.263      5.107
REMARK  2 active torsions:
REMARK  status: ('A' for Active; 'I' for Inactive)
REMARK    1  A    between atoms: S1_2  and  N1_4 
REMARK    2  A    between atoms: S1_2  and  N2_11 
ROOT
HETATM    1  O1  UNL     1       2.552  22.503 -17.493  1.00  0.00    -0.181 OA
HETATM    2  S1  UNL     1       3.440  22.470 -18.776  1.00  0.00     0.334 S 
HETATM    3  O2  UNL     1       2.572  21.806 -19.805  1.00  0.00    -0.181 OA
ENDROOT
BRANCH   2   4
HETATM    4  N1  UNL     1       4.765  21.598 -18.409  1.00  0.00    -0.240 N 
HETATM    5  C1  UNL     1       5.783  21.148 -19.214  1.00  0.00     0.081 C 
HETATM    6  C2  UNL     1       5.590  19.663 -19.479  1.00  0.00     0.046 C 
HETATM    7  C3  UNL     1       5.899  18.944 -18.213  1.00  0.00     0.010 C 
HETATM    8  C4  UNL     1       5.637  19.771 -17.018  1.00  0.00     0.060 C 
HETATM    9  C5  UNL     1       4.702  20.899 -17.120  1.00  0.00     0.287 C 
HETATM   10  F1  UNL     1       5.014  21.836 -16.163  1.00  0.00    -0.226 F 
ENDBRANCH   2   4
BRANCH   2  11
HETATM   11  N2  UNL     1       3.634  24.157 -19.250  1.00  0.00    -0.217 N 
HETATM   12  C6  UNL     1       3.139  24.572 -20.423  1.00  0.00     0.119 A 
HETATM   13  C7  UNL     1       3.376  25.864 -20.802  1.00  0.00     0.071 A 
HETATM   14  S2  UNL     1       4.283  26.465 -19.510  1.00  0.00    -0.070 SA
HETATM   15  C8  UNL     1       4.317  25.052 -18.548  1.00  0.00     0.159 A 
HETATM   16  S3  UNL     1       5.002  24.930 -17.039  1.00  0.00    -0.051 SA
ENDBRANCH   2  11
TORSDOF 2
ENDMDL
MODEL 3
REMARK VINA RESULT: -6.219892086      1.749      2.100
REMARK  2 active torsions:
REMARK  status: ('A' for Active; 'I' for Inactive)
REMARK    1  A    between atoms: S1_2  and  N1_4 
REMARK    2  A    between atoms: S1_2  and  N2_11 
ROOT
HETATM    1  O1  UNL     1       2.711  24.125 -17.549  1.00  0.00    -0.181 OA
HETATM    2  S1  UNL     1       4.199  24.209 -18.012  1.00  0.00     0.334 S 
HETATM    3  O2  UNL     1       4.947  24.599 -16.771  1.00  0.00    -0.181 OA
ENDROOT
BRANCH   2   4
HETATM    4  N1  UNL     1       4.267  25.345 -19.175  1.00  0.00    -0.240 N 
HETATM    5  C1  UNL     1       4.868  26.580 -19.176  1.00  0.00     0.081 C 
HETATM    6  C2  UNL     1       3.804  27.653 -19.001  1.00  0.00     0.046 C 
HETATM    7  C3  UNL     1       3.031  27.720 -20.270  1.00  0.00     0.010 C 
HETATM    8  C4  UNL     1       3.017  26.430 -20.990  1.00  0.00     0.060 C 
HETATM    9  C5  UNL     1       3.271  25.191 -20.243  1.00  0.00     0.287 C 
HETATM   10  F1  UNL     1       3.772  24.239 -21.098  1.00  0.00    -0.226 F 
ENDBRANCH   2   4
BRANCH   2  11
HETATM   11  N2  UNL     1       4.654  22.551 -18.410  1.00  0.00    -0.217 N 
HETATM   12  C6  UNL     1       3.719  21.699 -18.850  1.00  0.00     0.119 A 
HETATM   13  C7  UNL     1       4.083  20.400 -19.071  1.00  0.00     0.071 A 
HETATM   14  S2  UNL     1       5.722  20.404 -18.659  1.00  0.00    -0.070 SA
HETATM   15  C8  UNL     1       5.870  22.052 -18.228  1.00  0.00     0.159 A 
HETATM   16  S3  UNL     1       7.278  22.807 -17.774  1.00  0.00    -0.051 SA
ENDBRANCH   2  11
TORSDOF 2
ENDMDL
MODEL 4
REMARK VINA RESULT: -5.744495490      2.409      3.045
REMARK  2 active torsions:
REMARK  status: ('A' for Active; 'I' for Inactive)
REMARK    1  A    between atoms: S1_2  and  N1_4 
REMARK    2  A    between atoms: S1_2  and  N2_11 
ROOT
HETATM    1  O1  UNL     1       3.470  24.871 -16.942  1.00  0.00    -0.181 OA
HETATM    2  S1  UNL     1       4.362  24.774 -18.218  1.00  0.00     0.334 S 
HETATM    3  O2  UNL     1       5.713  25.237 -17.756  1.00  0.00    -0.181 OA
ENDROOT
BRANCH   2   4
HETATM    4  N1  UNL     1       3.702  25.762 -19.330  1.00  0.00    -0.240 N 
HETATM    5  C1  UNL     1       3.045  25.468 -20.500  1.00  0.00     0.081 C 
HETATM    6  C2  UNL     1       3.978  25.725 -21.674  1.00  0.00     0.046 C 
HETATM    7  C3  UNL     1       4.131  27.199 -21.805  1.00  0.00     0.010 C 
HETATM    8  C4  UNL     1       3.959  27.899 -20.515  1.00  0.00     0.060 C 
HETATM    9  C5  UNL     1       4.162  27.155 -19.265  1.00  0.00     0.287 C 
HETATM   10  F1  UNL     1       3.437  27.749 -18.259  1.00  0.00    -0.226 F 
ENDBRANCH   2   4
BRANCH   2  11
HETATM   11  N2  UNL     1       4.481  23.050 -18.571  1.00  0.00    -0.217 N 
HETATM   12  C6  UNL     1       3.427  22.411 -19.094  1.00  0.00     0.119 A 
HETATM   13  C7  UNL     1       3.519  21.060 -19.279  1.00  0.00     0.071 A 
HETATM   14  S2  UNL     1       5.076  20.718 -18.719  1.00  0.00    -0.070 SA
HETATM   15  C8  UNL     1       5.539  22.304 -18.279  1.00  0.00     0.159 A 
HETATM   16  S3  UNL     1       7.031  22.746 -17.699  1.00  0.00    -0.051 SA
ENDBRANCH   2  11
TORSDOF 2
ENDMDL
MODEL 5
REMARK VINA RESULT: -5.712834010      2.154      2.658
REMARK  2 active torsions:
REMARK  status: ('A' for Active; 'I' for Inactive)
REMARK    1  A    between atoms: S1_2  and  N1_4 
REMARK    2  A    between atoms: S1_2  and  N2_11 
ROOT
HETATM    1  O1  UNL     1       5.594  21.461 -16.552  1.00  0.00    -0.181 OA
HETATM    2  S1  UNL     1       5.511  21.915 -18.042  1.00  0.00     0.334 S 
HETATM    3  O2  UNL     1       6.925  22.274 -18.394  1.00  0.00    -0.181 OA
ENDROOT
BRANCH   2   4
HETATM    4  N1  UNL     1       4.504  23.193 -18.090  1.00  0.00    -0.240 N 
HETATM    5  C1  UNL     1       3.256  23.319 -18.650  1.00  0.00     0.081 C 
HETATM    6  C2  UNL     1       3.370  24.098 -19.951  1.00  0.00     0.046 C 
HETATM    7  C3  UNL     1       3.659  25.514 -19.596  1.00  0.00     0.010 C 
HETATM    8  C4  UNL     1       4.378  25.636 -18.310  1.00  0.00     0.060 C 
HETATM    9  C5  UNL     1       5.138  24.485 -17.804  1.00  0.00     0.287 C 
HETATM   10  F1  UNL     1       5.232  24.569 -16.435  1.00  0.00    -0.226 F 
ENDBRANCH   2   4
BRANCH   2  11
HETATM   11  N2  UNL     1       5.089  20.461 -18.947  1.00  0.00    -0.217 N 
HETATM   12  C6  UNL     1       3.935  20.419 -19.624  1.00  0.00     0.119 A 
HETATM   13  C7  UNL     1       3.595  19.251 -20.248  1.00  0.00     0.071 A 
HETATM   14  S2  UNL     1       4.897  18.242 -19.872  1.00  0.00    -0.070 SA
HETATM   15  C8  UNL     1       5.813  19.349 -18.944  1.00  0.00     0.159 A 
HETATM   16  S3  UNL     1       7.310  19.050 -18.289  1.00  0.00    -0.051 SA
ENDBRANCH   2  11
TORSDOF 2
ENDMDL
