MODEL 1
REMARK VINA RESULT: -6.496129571      0.000      0.000
REMARK  7 active torsions:
REMARK  status: ('A' for Active; 'I' for Inactive)
REMARK    1  A    between atoms: C2_2  and  O1_3 
REMARK    2  A    between atoms: C2_2  and  C3_5 
REMARK    3  A    between atoms: C3_5  and  O2_6 
REMARK    4  A    between atoms: O2_6  and  C4_7 
REMARK    5  A    between atoms: N1_10  and  O3_11 
REMARK    6  A    between atoms: C7_15  and  O4_16 
REMARK    7  A    between atoms: C7_15  and  C8_18 
ROOT
HETATM    1  C4  UNL     1      25.528   5.061  10.229  1.00  0.00     0.228 C 
HETATM    2  C5  UNL     1      26.548   5.035   9.135  1.00  0.00     0.137 C 
HETATM    3 CL1  UNL     1      26.387   3.984   7.713  1.00  0.00    -0.064 Cl
HETATM    4  N1  UNL     1      27.520   5.842   9.347  1.00  0.00    -0.233 N 
HETATM    5  C6  UNL     1      27.316   6.530  10.580  1.00  0.00     0.229 C 
HETATM    6 BR1  UNL     1      28.933   6.845  11.567  1.00  0.00    -0.062 Br
HETATM    7  C7  UNL     1      26.372   5.637  11.341  1.00  0.00     0.181 C 
ENDROOT
BRANCH   1   8
HETATM    8  O2  UNL     1      25.189   3.747  10.485  1.00  0.00    -0.373 OA
BRANCH   8   9
HETATM    9  C3  UNL     1      23.823   3.530  10.422  1.00  0.00     0.200 C 
BRANCH   9  10
HETATM   10  C2  UNL     1      23.606   2.308   9.531  1.00  0.00     0.138 C 
HETATM   11  C1  UNL     1      24.821   1.422   9.654  1.00  0.00     0.041 C 
BRANCH  10  12
HETATM   12  O1  UNL     1      22.526   1.589  10.076  1.00  0.00    -0.394 OA
ATOM     13  H1  UNL     1      21.839   1.592   9.420  1.00  0.00     0.210 HD
ENDBRANCH  10  12
ENDBRANCH   9  10
ENDBRANCH   8   9
ENDBRANCH   1   8
BRANCH   7  14
HETATM   14  O4  UNL     1      27.079   4.604  11.947  1.00  0.00    -0.379 OA
ATOM     15  H4  UNL     1      27.659   4.974  12.603  1.00  0.00     0.211 HD
ENDBRANCH   7  14
BRANCH   7  16
HETATM   16  C8  UNL     1      25.576   6.413  12.345  1.00  0.00     0.393 C 
HETATM   17  F1  UNL     1      24.935   7.493  11.826  1.00  0.00    -0.211 F 
HETATM   18  F2  UNL     1      24.629   5.577  12.901  1.00  0.00    -0.211 F 
ENDBRANCH   7  16
BRANCH   4  19
HETATM   19  O3  UNL     1      28.587   5.980   8.453  1.00  0.00    -0.285 OA
ATOM     20  H3  UNL     1      29.440   6.296   8.726  1.00  0.00     0.245 HD
ENDBRANCH   4  19
TORSDOF 7
ENDMDL
MODEL 2
REMARK VINA RESULT: -6.356028672      3.181      3.877
REMARK  7 active torsions:
REMARK  status: ('A' for Active; 'I' for Inactive)
REMARK    1  A    between atoms: C2_2  and  O1_3 
REMARK    2  A    between atoms: C2_2  and  C3_5 
REMARK    3  A    between atoms: C3_5  and  O2_6 
REMARK    4  A    between atoms: O2_6  and  C4_7 
REMARK    5  A    between atoms: N1_10  and  O3_11 
REMARK    6  A    between atoms: C7_15  and  O4_16 
REMARK    7  A    between atoms: C7_15  and  C8_18 
ROOT
HETATM    1  C4  UNL     1      25.452   4.949  12.415  1.00  0.00     0.228 C 
HETATM    2  C5  UNL     1      24.901   5.325  13.754  1.00  0.00     0.137 C 
HETATM    3 CL1  UNL     1      23.653   4.361  14.571  1.00  0.00    -0.064 Cl
HETATM    4  N1  UNL     1      25.427   6.395  14.222  1.00  0.00    -0.233 N 
HETATM    5  C6  UNL     1      26.398   6.896  13.304  1.00  0.00     0.229 C 
HETATM    6 BR1  UNL     1      26.452   8.814  13.207  1.00  0.00    -0.062 Br
HETATM    7  C7  UNL     1      25.996   6.291  11.985  1.00  0.00     0.181 C 
ENDROOT
BRANCH   1   8
HETATM    8  O2  UNL     1      24.376   4.570  11.636  1.00  0.00    -0.373 OA
BRANCH   8   9
HETATM    9  C3  UNL     1      24.711   3.603  10.704  1.00  0.00     0.200 C 
BRANCH   9  10
HETATM   10  C2  UNL     1      23.798   3.812   9.497  1.00  0.00     0.138 C 
HETATM   11  C1  UNL     1      23.891   2.584   8.627  1.00  0.00     0.041 C 
BRANCH  10  12
HETATM   12  O1  UNL     1      22.478   3.863   9.984  1.00  0.00    -0.394 OA
ATOM     13  H1  UNL     1      22.302   3.019  10.382  1.00  0.00     0.210 HD
ENDBRANCH  10  12
ENDBRANCH   9  10
ENDBRANCH   8   9
ENDBRANCH   1   8
BRANCH   7  14
HETATM   14  O4  UNL     1      24.964   7.030  11.417  1.00  0.00    -0.379 OA
ATOM     15  H4  UNL     1      24.535   7.531  12.100  1.00  0.00     0.211 HD
ENDBRANCH   7  14
BRANCH   7  16
HETATM   16  C8  UNL     1      27.164   6.183  11.055  1.00  0.00     0.393 C 
HETATM   17  F1  UNL     1      27.882   5.038  11.200  1.00  0.00    -0.211 F 
HETATM   18  F2  UNL     1      26.704   6.240   9.755  1.00  0.00    -0.211 F 
ENDBRANCH   7  16
BRANCH   4  19
HETATM   19  O3  UNL     1      25.060   6.931  15.460  1.00  0.00    -0.285 OA
ATOM     20  H3  UNL     1      25.684   7.363  16.032  1.00  0.00     0.245 HD
ENDBRANCH   4  19
TORSDOF 7
ENDMDL
MODEL 3
REMARK VINA RESULT: -6.007992189      3.162      4.482
REMARK  7 active torsions:
REMARK  status: ('A' for Active; 'I' for Inactive)
REMARK    1  A    between atoms: C2_2  and  O1_3 
REMARK    2  A    between atoms: C2_2  and  C3_5 
REMARK    3  A    between atoms: C3_5  and  O2_6 
REMARK    4  A    between atoms: O2_6  and  C4_7 
REMARK    5  A    between atoms: N1_10  and  O3_11 
REMARK    6  A    between atoms: C7_15  and  O4_16 
REMARK    7  A    between atoms: C7_15  and  C8_18 
ROOT
HETATM    1  C4  UNL     1      25.283   4.199  11.321  1.00  0.00     0.228 C 
HETATM    2  C5  UNL     1      26.276   5.148  10.727  1.00  0.00     0.137 C 
HETATM    3 CL1  UNL     1      26.904   6.547  11.622  1.00  0.00    -0.064 Cl
HETATM    4  N1  UNL     1      26.603   4.833   9.529  1.00  0.00    -0.233 N 
HETATM    5  C6  UNL     1      25.912   3.648   9.136  1.00  0.00     0.229 C 
HETATM    6 BR1  UNL     1      25.378   3.643   7.290  1.00  0.00    -0.062 Br
HETATM    7  C7  UNL     1      24.719   3.603  10.053  1.00  0.00     0.181 C 
ENDROOT
BRANCH   1   8
HETATM    8  O2  UNL     1      24.342   4.970  11.976  1.00  0.00    -0.373 OA
BRANCH   8   9
HETATM    9  C3  UNL     1      24.067   4.502  13.250  1.00  0.00     0.200 C 
BRANCH   9  10
HETATM   10  C2  UNL     1      24.869   5.364  14.224  1.00  0.00     0.138 C 
HETATM   11  C1  UNL     1      23.927   5.850  15.298  1.00  0.00     0.041 C 
BRANCH  10  12
HETATM   12  O1  UNL     1      25.798   4.516  14.855  1.00  0.00    -0.394 OA
ATOM     13  H1  UNL     1      25.295   3.895  15.368  1.00  0.00     0.210 HD
ENDBRANCH  10  12
ENDBRANCH   9  10
ENDBRANCH   8   9
ENDBRANCH   1   8
BRANCH   7  14
HETATM   14  O4  UNL     1      23.717   4.440   9.573  1.00  0.00    -0.379 OA
ATOM     15  H4  UNL     1      22.896   3.962   9.569  1.00  0.00     0.211 HD
ENDBRANCH   7  14
BRANCH   7  16
HETATM   16  C8  UNL     1      24.219   2.203  10.231  1.00  0.00     0.393 C 
HETATM   17  F1  UNL     1      23.053   1.946   9.582  1.00  0.00    -0.211 F 
HETATM   18  F2  UNL     1      25.175   1.327   9.759  1.00  0.00    -0.211 F 
ENDBRANCH   7  16
BRANCH   4  19
HETATM   19  O3  UNL     1      27.517   5.582   8.782  1.00  0.00    -0.285 OA
ATOM     20  H3  UNL     1      28.167   6.144   9.188  1.00  0.00     0.245 HD
ENDBRANCH   4  19
TORSDOF 7
ENDMDL
MODEL 4
REMARK VINA RESULT: -5.631274024      3.310      4.126
REMARK  7 active torsions:
REMARK  status: ('A' for Active; 'I' for Inactive)
REMARK    1  A    between atoms: C2_2  and  O1_3 
REMARK    2  A    between atoms: C2_2  and  C3_5 
REMARK    3  A    between atoms: C3_5  and  O2_6 
REMARK    4  A    between atoms: O2_6  and  C4_7 
REMARK    5  A    between atoms: N1_10  and  O3_11 
REMARK    6  A    between atoms: C7_15  and  O4_16 
REMARK    7  A    between atoms: C7_15  and  C8_18 
ROOT
HETATM    1  C4  UNL     1      25.568   6.110  12.122  1.00  0.00     0.228 C 
HETATM    2  C5  UNL     1      24.897   5.994  13.454  1.00  0.00     0.137 C 
HETATM    3 CL1  UNL     1      24.087   4.504  13.982  1.00  0.00    -0.064 Cl
HETATM    4  N1  UNL     1      24.978   7.071  14.143  1.00  0.00    -0.233 N 
HETATM    5  C6  UNL     1      25.705   8.057  13.412  1.00  0.00     0.229 C 
HETATM    6 BR1  UNL     1      25.041   9.844  13.655  1.00  0.00    -0.062 Br
HETATM    7  C7  UNL     1      25.578   7.614  11.979  1.00  0.00     0.181 C 
ENDROOT
BRANCH   1   8
HETATM    8  O2  UNL     1      24.723   5.523  11.200  1.00  0.00    -0.373 OA
BRANCH   8   9
HETATM    9  C3  UNL     1      25.300   4.435  10.569  1.00  0.00     0.200 C 
BRANCH   9  10
HETATM   10  C2  UNL     1      24.315   3.965   9.500  1.00  0.00     0.138 C 
HETATM   11  C1  UNL     1      24.524   2.485   9.295  1.00  0.00     0.041 C 
BRANCH  10  12
HETATM   12  O1  UNL     1      23.023   4.120  10.036  1.00  0.00    -0.394 OA
ATOM     13  H1  UNL     1      22.442   4.285   9.303  1.00  0.00     0.210 HD
ENDBRANCH  10  12
ENDBRANCH   9  10
ENDBRANCH   8   9
ENDBRANCH   1   8
BRANCH   7  14
HETATM   14  O4  UNL     1      24.353   8.021  11.461  1.00  0.00    -0.379 OA
ATOM     15  H4  UNL     1      23.849   8.429  12.155  1.00  0.00     0.211 HD
ENDBRANCH   7  14
BRANCH   7  16
HETATM   16  C8  UNL     1      26.716   8.120  11.148  1.00  0.00     0.393 C 
HETATM   17  F1  UNL     1      27.310   7.165  10.385  1.00  0.00    -0.211 F 
HETATM   18  F2  UNL     1      26.246   9.109  10.308  1.00  0.00    -0.211 F 
ENDBRANCH   7  16
BRANCH   4  19
HETATM   19  O3  UNL     1      24.420   7.186  15.420  1.00  0.00    -0.285 OA
ATOM     20  H3  UNL     1      23.677   7.751  15.600  1.00  0.00     0.245 HD
ENDBRANCH   4  19
TORSDOF 7
ENDMDL
MODEL 5
REMARK VINA RESULT: -5.565650981      2.424      3.481
REMARK  7 active torsions:
REMARK  status: ('A' for Active; 'I' for Inactive)
REMARK    1  A    between atoms: C2_2  and  O1_3 
REMARK    2  A    between atoms: C2_2  and  C3_5 
REMARK    3  A    between atoms: C3_5  and  O2_6 
REMARK    4  A    between atoms: O2_6  and  C4_7 
REMARK    5  A    between atoms: N1_10  and  O3_11 
REMARK    6  A    between atoms: C7_15  and  O4_16 
REMARK    7  A    between atoms: C7_15  and  C8_18 
ROOT
HETATM    1  C4  UNL     1      25.859   5.585  11.253  1.00  0.00     0.228 C 
HETATM    2  C5  UNL     1      25.879   4.631  10.100  1.00  0.00     0.137 C 
HETATM    3 CL1  UNL     1      24.935   3.127  10.097  1.00  0.00    -0.064 Cl
HETATM    4  N1  UNL     1      26.639   5.025   9.147  1.00  0.00    -0.233 N 
HETATM    5  C6  UNL     1      27.231   6.278   9.488  1.00  0.00     0.229 C 
HETATM    6 BR1  UNL     1      29.041   6.470   8.874  1.00  0.00    -0.062 Br
HETATM    7  C7  UNL     1      27.153   6.318  10.991  1.00  0.00     0.181 C 
ENDROOT
BRANCH   1   8
HETATM    8  O2  UNL     1      25.937   4.821  12.401  1.00  0.00    -0.373 OA
BRANCH   8   9
HETATM    9  C3  UNL     1      24.831   4.979  13.219  1.00  0.00     0.200 C 
BRANCH   9  10
HETATM   10  C2  UNL     1      25.342   5.489  14.565  1.00  0.00     0.138 C 
HETATM   11  C1  UNL     1      24.145   5.810  15.424  1.00  0.00     0.041 C 
BRANCH  10  12
HETATM   12  O1  UNL     1      26.008   4.415  15.186  1.00  0.00    -0.394 OA
ATOM     13  H1  UNL     1      26.810   4.274  14.698  1.00  0.00     0.210 HD
ENDBRANCH  10  12
ENDBRANCH   9  10
ENDBRANCH   8   9
ENDBRANCH   1   8
BRANCH   7  14
HETATM   14  O4  UNL     1      28.200   5.586  11.542  1.00  0.00    -0.379 OA
ATOM     15  H4  UNL     1      28.786   6.183  11.993  1.00  0.00     0.211 HD
ENDBRANCH   7  14
BRANCH   7  16
HETATM   16  C8  UNL     1      27.147   7.726  11.500  1.00  0.00     0.393 C 
HETATM   17  F1  UNL     1      27.108   8.668  10.521  1.00  0.00    -0.211 F 
HETATM   18  F2  UNL     1      26.042   7.901  12.309  1.00  0.00    -0.211 F 
ENDBRANCH   7  16
BRANCH   4  19
HETATM   19  O3  UNL     1      26.809   4.287   7.972  1.00  0.00    -0.285 OA
ATOM     20  H3  UNL     1      26.095   4.125   7.366  1.00  0.00     0.245 HD
ENDBRANCH   4  19
TORSDOF 7
ENDMDL
