MODEL 1
REMARK VINA RESULT: -8.491078626      0.000      0.000
REMARK  5 active torsions:
REMARK  status: ('A' for Active; 'I' for Inactive)
REMARK    1  A    between atoms: C2_3  and  C3_4 
REMARK    2  A    between atoms: C3_4  and  C4_5 
REMARK    3  A    between atoms: C3_4  and  N3_13 
REMARK    4  A    between atoms: C4_5  and  N2_6 
REMARK       I    between atoms: N2_6  and  C5_7 
REMARK    5  A    between atoms: C5_7  and  C6_9 
ROOT
HETATM    1  N1  UNL     1      26.228   4.662  15.986  1.00  0.00    -0.194 NA
HETATM    2  C1  UNL     1      25.441   5.001  15.155  1.00  0.00     0.105 C 
HETATM    3  C2  UNL     1      24.477   5.317  14.120  1.00  0.00     0.259 C 
HETATM    4  C11 UNL     1      23.472   6.183  14.844  1.00  0.00     0.100 C 
HETATM    5  C12 UNL     1      22.857   5.106  15.835  1.00  0.00     0.199 C 
HETATM    6  F4  UNL     1      21.556   5.506  16.185  1.00  0.00    -0.248 F 
HETATM    7  C13 UNL     1      22.912   3.888  14.985  1.00  0.00     0.272 C 
HETATM    8  N4  UNL     1      23.712   4.080  13.826  1.00  0.00    -0.045 N 
ATOM      9  H41 UNL     1      24.291   3.277  13.578  1.00  0.00     0.279 HD
ATOM     10  H42 UNL     1      23.185   4.108  12.953  1.00  0.00     0.279 HD
ENDROOT
BRANCH   3  11
HETATM   11  C3  UNL     1      25.039   5.882  12.908  1.00  0.00     0.087 C 
BRANCH  11  12
HETATM   12  C4  UNL     1      25.591   4.946  11.831  1.00  0.00     0.215 C 
BRANCH  12  13
HETATM   13  N2  UNL     1      24.693   4.327  11.061  1.00  0.00    -0.374 NA
HETATM   14  C5  UNL     1      23.749   3.688  10.262  1.00  0.00     0.399 C 
HETATM   15  O1  UNL     1      22.577   3.876  10.215  1.00  0.00    -0.247 OA
BRANCH  14  16
HETATM   16  C6  UNL     1      24.434   2.642   9.367  1.00  0.00     0.486 C 
HETATM   17  F1  UNL     1      24.401   1.467   9.962  1.00  0.00    -0.161 F 
HETATM   18  F2  UNL     1      25.711   3.078   9.137  1.00  0.00    -0.161 F 
HETATM   19  F3  UNL     1      23.643   2.584   8.213  1.00  0.00    -0.161 F 
ENDBRANCH  14  16
ENDBRANCH  12  13
ENDBRANCH  11  12
BRANCH  11  20
HETATM   20  N3  UNL     1      25.443   7.214  12.899  1.00  0.00    -0.375 N 
HETATM   21  C7  UNL     1      26.639   7.673  13.478  1.00  0.00     0.149 C 
HETATM   22  C8  UNL     1      26.344   9.136  13.908  1.00  0.00     0.187 C 
HETATM   23  O2  UNL     1      25.863   9.857  12.883  1.00  0.00    -0.388 OA
HETATM   24  C9  UNL     1      25.935   9.227  11.676  1.00  0.00     0.187 C 
HETATM   25  C10 UNL     1      25.068   7.949  11.709  1.00  0.00     0.149 C 
ENDBRANCH  11  20
ENDBRANCH   3  11
TORSDOF 5
ENDMDL
MODEL 2
REMARK VINA RESULT: -8.079595804      1.953      2.521
REMARK  5 active torsions:
REMARK  status: ('A' for Active; 'I' for Inactive)
REMARK    1  A    between atoms: C2_3  and  C3_4 
REMARK    2  A    between atoms: C3_4  and  C4_5 
REMARK    3  A    between atoms: C3_4  and  N3_13 
REMARK    4  A    between atoms: C4_5  and  N2_6 
REMARK       I    between atoms: N2_6  and  C5_7 
REMARK    5  A    between atoms: C5_7  and  C6_9 
ROOT
HETATM    1  N1  UNL     1      26.292   4.762  16.181  1.00  0.00    -0.194 NA
HETATM    2  C1  UNL     1      25.480   5.310  15.500  1.00  0.00     0.105 C 
HETATM    3  C2  UNL     1      24.505   5.903  14.605  1.00  0.00     0.259 C 
HETATM    4  C11 UNL     1      23.324   6.160  15.513  1.00  0.00     0.100 C 
HETATM    5  C12 UNL     1      22.908   4.663  15.839  1.00  0.00     0.199 C 
HETATM    6  F4  UNL     1      21.542   4.637  16.171  1.00  0.00    -0.248 F 
HETATM    7  C13 UNL     1      23.234   4.000  14.550  1.00  0.00     0.272 C 
HETATM    8  N4  UNL     1      24.015   4.831  13.703  1.00  0.00    -0.045 N 
ATOM      9  H41 UNL     1      24.751   4.341  13.195  1.00  0.00     0.279 HD
ATOM     10  H42 UNL     1      23.521   5.171  12.877  1.00  0.00     0.279 HD
ENDROOT
BRANCH   3  11
HETATM   11  C3  UNL     1      24.980   7.046  13.848  1.00  0.00     0.087 C 
BRANCH  11  12
HETATM   12  C4  UNL     1      26.130   6.861  12.857  1.00  0.00     0.215 C 
BRANCH  12  13
HETATM   13  N2  UNL     1      25.872   6.125  11.773  1.00  0.00    -0.374 NA
HETATM   14  C5  UNL     1      25.592   5.357  10.646  1.00  0.00     0.399 C 
HETATM   15  O1  UNL     1      24.556   4.874  10.324  1.00  0.00    -0.247 OA
BRANCH  14  16
HETATM   16  C6  UNL     1      26.857   5.195   9.788  1.00  0.00     0.486 C 
HETATM   17  F1  UNL     1      27.117   6.331   9.173  1.00  0.00    -0.161 F 
HETATM   18  F2  UNL     1      26.625   4.166   8.914  1.00  0.00    -0.161 F 
HETATM   19  F3  UNL     1      27.882   4.935  10.705  1.00  0.00    -0.161 F 
ENDBRANCH  14  16
ENDBRANCH  12  13
ENDBRANCH  11  12
BRANCH  11  20
HETATM   20  N3  UNL     1      24.693   8.331  14.300  1.00  0.00    -0.375 N 
HETATM   21  C7  UNL     1      25.595   9.122  15.032  1.00  0.00     0.149 C 
HETATM   22  C8  UNL     1      24.704  10.031  15.922  1.00  0.00     0.187 C 
HETATM   23  O2  UNL     1      23.793  10.690  15.187  1.00  0.00    -0.388 OA
HETATM   24  C9  UNL     1      23.980  10.583  13.841  1.00  0.00     0.187 C 
HETATM   25  C10 UNL     1      23.844   9.102  13.418  1.00  0.00     0.149 C 
ENDBRANCH  11  20
ENDBRANCH   3  11
TORSDOF 5
ENDMDL
MODEL 3
REMARK VINA RESULT: -7.814500234      2.956      3.771
REMARK  5 active torsions:
REMARK  status: ('A' for Active; 'I' for Inactive)
REMARK    1  A    between atoms: C2_3  and  C3_4 
REMARK    2  A    between atoms: C3_4  and  C4_5 
REMARK    3  A    between atoms: C3_4  and  N3_13 
REMARK    4  A    between atoms: C4_5  and  N2_6 
REMARK       I    between atoms: N2_6  and  C5_7 
REMARK    5  A    between atoms: C5_7  and  C6_9 
ROOT
HETATM    1  N1  UNL     1      25.921   5.910  14.618  1.00  0.00    -0.194 NA
HETATM    2  C1  UNL     1      26.080   6.394  13.538  1.00  0.00     0.105 C 
HETATM    3  C2  UNL     1      26.176   6.966  12.209  1.00  0.00     0.259 C 
HETATM    4  C11 UNL     1      26.867   8.287  12.457  1.00  0.00     0.100 C 
HETATM    5  C12 UNL     1      25.729   9.032  13.276  1.00  0.00     0.199 C 
HETATM    6  F4  UNL     1      25.894  10.419  13.117  1.00  0.00    -0.248 F 
HETATM    7  C13 UNL     1      24.514   8.484  12.620  1.00  0.00     0.272 C 
HETATM    8  N4  UNL     1      24.809   7.367  11.793  1.00  0.00    -0.045 N 
ATOM      9  H41 UNL     1      24.120   6.617  11.838  1.00  0.00     0.279 HD
ATOM     10  H42 UNL     1      24.710   7.546  10.794  1.00  0.00     0.279 HD
ENDROOT
BRANCH   3  11
HETATM   11  C3  UNL     1      26.793   6.108  11.214  1.00  0.00     0.087 C 
BRANCH  11  12
HETATM   12  C4  UNL     1      26.450   4.617  11.195  1.00  0.00     0.215 C 
BRANCH  12  13
HETATM   13  N2  UNL     1      25.407   4.254  10.443  1.00  0.00    -0.374 NA
HETATM   14  C5  UNL     1      24.314   3.883   9.666  1.00  0.00     0.399 C 
HETATM   15  O1  UNL     1      23.190   4.256   9.752  1.00  0.00    -0.247 OA
BRANCH  14  16
HETATM   16  C6  UNL     1      24.747   2.872   8.592  1.00  0.00     0.486 C 
HETATM   17  F1  UNL     1      23.779   2.728   7.710  1.00  0.00    -0.161 F 
HETATM   18  F2  UNL     1      25.049   1.701   9.236  1.00  0.00    -0.161 F 
HETATM   19  F3  UNL     1      25.846   3.466   7.961  1.00  0.00    -0.161 F 
ENDBRANCH  14  16
ENDBRANCH  12  13
ENDBRANCH  11  12
BRANCH  11  20
HETATM   20  N3  UNL     1      27.956   6.529  10.576  1.00  0.00    -0.375 N 
HETATM   21  C7  UNL     1      29.242   6.068  10.909  1.00  0.00     0.149 C 
HETATM   22  C8  UNL     1      30.195   7.244  10.562  1.00  0.00     0.187 C 
HETATM   23  O2  UNL     1      30.018   7.656   9.296  1.00  0.00    -0.388 OA
HETATM   24  C9  UNL     1      29.218   6.842   8.552  1.00  0.00     0.187 C 
HETATM   25  C10 UNL     1      27.800   6.812   9.166  1.00  0.00     0.149 C 
ENDBRANCH  11  20
ENDBRANCH   3  11
TORSDOF 5
ENDMDL
MODEL 4
REMARK VINA RESULT: -7.775240830      2.629      3.239
REMARK  5 active torsions:
REMARK  status: ('A' for Active; 'I' for Inactive)
REMARK    1  A    between atoms: C2_3  and  C3_4 
REMARK    2  A    between atoms: C3_4  and  C4_5 
REMARK    3  A    between atoms: C3_4  and  N3_13 
REMARK    4  A    between atoms: C4_5  and  N2_6 
REMARK       I    between atoms: N2_6  and  C5_7 
REMARK    5  A    between atoms: C5_7  and  C6_9 
ROOT
HETATM    1  N1  UNL     1      27.723   7.493  14.268  1.00  0.00    -0.194 NA
HETATM    2  C1  UNL     1      26.964   7.129  13.423  1.00  0.00     0.105 C 
HETATM    3  C2  UNL     1      26.014   6.612  12.456  1.00  0.00     0.259 C 
HETATM    4  C11 UNL     1      25.205   7.834  12.087  1.00  0.00     0.100 C 
HETATM    5  C12 UNL     1      24.470   8.094  13.470  1.00  0.00     0.199 C 
HETATM    6  F4  UNL     1      23.272   8.786  13.221  1.00  0.00    -0.248 F 
HETATM    7  C13 UNL     1      24.280   6.699  13.947  1.00  0.00     0.272 C 
HETATM    8  N4  UNL     1      25.041   5.767  13.191  1.00  0.00    -0.045 N 
ATOM      9  H41 UNL     1      25.465   5.024  13.746  1.00  0.00     0.279 HD
ATOM     10  H42 UNL     1      24.484   5.154  12.597  1.00  0.00     0.279 HD
ENDROOT
BRANCH   3  11
HETATM   11  C3  UNL     1      26.602   5.886  11.346  1.00  0.00     0.087 C 
BRANCH  11  12
HETATM   12  C4  UNL     1      26.271   4.403  11.163  1.00  0.00     0.215 C 
BRANCH  12  13
HETATM   13  N2  UNL     1      25.196   4.118  10.424  1.00  0.00    -0.374 NA
HETATM   14  C5  UNL     1      24.069   3.827   9.661  1.00  0.00     0.399 C 
HETATM   15  O1  UNL     1      22.959   4.223   9.808  1.00  0.00    -0.247 OA
BRANCH  14  16
HETATM   16  C6  UNL     1      24.439   2.878   8.510  1.00  0.00     0.486 C 
HETATM   17  F1  UNL     1      23.381   2.676   7.751  1.00  0.00    -0.161 F 
HETATM   18  F2  UNL     1      24.909   1.722   9.073  1.00  0.00    -0.161 F 
HETATM   19  F3  UNL     1      25.400   3.573   7.766  1.00  0.00    -0.161 F 
ENDBRANCH  14  16
ENDBRANCH  12  13
ENDBRANCH  11  12
BRANCH  11  20
HETATM   20  N3  UNL     1      27.737   6.394  10.721  1.00  0.00    -0.375 N 
HETATM   21  C7  UNL     1      29.038   5.917  10.954  1.00  0.00     0.149 C 
HETATM   22  C8  UNL     1      29.966   7.139  10.712  1.00  0.00     0.187 C 
HETATM   23  O2  UNL     1      29.739   7.691   9.510  1.00  0.00    -0.388 OA
HETATM   24  C9  UNL     1      28.921   6.957   8.704  1.00  0.00     0.187 C 
HETATM   25  C10 UNL     1      27.527   6.835   9.359  1.00  0.00     0.149 C 
ENDBRANCH  11  20
ENDBRANCH   3  11
TORSDOF 5
ENDMDL
MODEL 5
REMARK VINA RESULT: -7.625412345      2.310      2.885
REMARK  5 active torsions:
REMARK  status: ('A' for Active; 'I' for Inactive)
REMARK    1  A    between atoms: C2_3  and  C3_4 
REMARK    2  A    between atoms: C3_4  and  C4_5 
REMARK    3  A    between atoms: C3_4  and  N3_13 
REMARK    4  A    between atoms: C4_5  and  N2_6 
REMARK       I    between atoms: N2_6  and  C5_7 
REMARK    5  A    between atoms: C5_7  and  C6_9 
ROOT
HETATM    1  N1  UNL     1      25.273   4.510  14.812  1.00  0.00    -0.194 NA
HETATM    2  C1  UNL     1      25.542   5.367  14.027  1.00  0.00     0.105 C 
HETATM    3  C2  UNL     1      25.773   6.407  13.043  1.00  0.00     0.259 C 
HETATM    4  C11 UNL     1      26.481   7.477  13.841  1.00  0.00     0.100 C 
HETATM    5  C12 UNL     1      25.301   7.913  14.809  1.00  0.00     0.199 C 
HETATM    6  F4  UNL     1      25.523   9.237  15.225  1.00  0.00    -0.248 F 
HETATM    7  C13 UNL     1      24.131   7.746  13.908  1.00  0.00     0.272 C 
HETATM    8  N4  UNL     1      24.462   7.026  12.728  1.00  0.00    -0.045 N 
ATOM      9  H41 UNL     1      23.747   6.365  12.425  1.00  0.00     0.279 HD
ATOM     10  H42 UNL     1      24.457   7.589  11.878  1.00  0.00     0.279 HD
ENDROOT
BRANCH   3  11
HETATM   11  C3  UNL     1      26.448   5.970  11.835  1.00  0.00     0.087 C 
BRANCH  11  12
HETATM   12  C4  UNL     1      26.338   4.507  11.403  1.00  0.00     0.215 C 
BRANCH  12  13
HETATM   13  N2  UNL     1      25.341   4.204  10.568  1.00  0.00    -0.374 NA
HETATM   14  C5  UNL     1      24.295   3.894   9.704  1.00  0.00     0.399 C 
HETATM   15  O1  UNL     1      23.160   4.240   9.769  1.00  0.00    -0.247 OA
BRANCH  14  16
HETATM   16  C6  UNL     1      24.800   3.000   8.559  1.00  0.00     0.486 C 
HETATM   17  F1  UNL     1      23.803   2.732   7.741  1.00  0.00    -0.161 F 
HETATM   18  F2  UNL     1      25.329   1.873   9.129  1.00  0.00    -0.161 F 
HETATM   19  F3  UNL     1      25.741   3.783   7.881  1.00  0.00    -0.161 F 
ENDBRANCH  14  16
ENDBRANCH  12  13
ENDBRANCH  11  12
BRANCH  11  20
HETATM   20  N3  UNL     1      27.487   6.738  11.317  1.00  0.00    -0.375 N 
HETATM   21  C7  UNL     1      28.796   6.260  11.131  1.00  0.00     0.149 C 
HETATM   22  C8  UNL     1      29.708   7.507  11.286  1.00  0.00     0.187 C 
HETATM   23  O2  UNL     1      29.315   8.501  10.473  1.00  0.00    -0.388 OA
HETATM   24  C9  UNL     1      28.364   8.137   9.567  1.00  0.00     0.187 C 
HETATM   25  C10 UNL     1      27.083   7.698  10.312  1.00  0.00     0.149 C 
ENDBRANCH  11  20
ENDBRANCH   3  11
TORSDOF 5
ENDMDL
