MODEL 1
REMARK VINA RESULT: -7.849646695      0.000      0.000
REMARK  5 active torsions:
REMARK  status: ('A' for Active; 'I' for Inactive)
REMARK    1  A    between atoms: C1_2  and  C2_4 
REMARK    2  A    between atoms: C2_4  and  N2_5 
REMARK       I    between atoms: N2_5  and  C3_7 
REMARK    3  A    between atoms: C3_7  and  C4_9 
REMARK    4  A    between atoms: C4_9  and  N3_11 
REMARK    5  A    between atoms: C4_9  and  C9_17 
ROOT
HETATM    1  N2  UNL     1      24.799   6.023  12.910  1.00  0.00    -0.317 N 
ATOM      2  H2  UNL     1      24.148   6.662  12.453  1.00  0.00     0.166 HD
HETATM    3  C3  UNL     1      25.556   5.174  12.106  1.00  0.00     0.291 C 
HETATM    4  O2  UNL     1      26.356   4.377  12.728  1.00  0.00    -0.267 OA
ENDROOT
BRANCH   3   5
HETATM    5  C4  UNL     1      25.528   5.099  10.611  1.00  0.00     0.356 C 
HETATM    6  F1  UNL     1      24.566   6.082  10.273  1.00  0.00    -0.198 F 
BRANCH   5   7
HETATM    7  N3  UNL     1      25.006   3.890  10.137  1.00  0.00    -0.339 N 
HETATM    8  C5  UNL     1      23.874   3.358  10.810  1.00  0.00     0.152 C 
HETATM    9  C6  UNL     1      23.127   2.436   9.871  1.00  0.00     0.188 C 
HETATM   10  O3  UNL     1      23.243   2.781   8.550  1.00  0.00    -0.385 OA
HETATM   11  C7  UNL     1      24.540   2.687   8.062  1.00  0.00     0.212 C 
HETATM   12  C8  UNL     1      25.555   3.144   9.109  1.00  0.00     0.088 C 
ENDBRANCH   5   7
BRANCH   5  13
HETATM   13  C9  UNL     1      26.787   5.580   9.991  1.00  0.00     0.453 C 
HETATM   14  F2  UNL     1      26.980   6.918  10.269  1.00  0.00    -0.165 F 
HETATM   15  F3  UNL     1      26.742   5.492   8.618  1.00  0.00    -0.165 F 
HETATM   16  F4  UNL     1      27.929   4.958  10.448  1.00  0.00    -0.165 F 
ENDBRANCH   5  13
ENDBRANCH   3   5
BRANCH   1  17
HETATM   17  C2  UNL     1      24.881   6.052  14.345  1.00  0.00     0.216 C 
HETATM   18  C10 UNL     1      23.681   6.693  14.987  1.00  0.00     0.073 C 
HETATM   19  C11 UNL     1      22.852   5.509  15.411  1.00  0.00     0.032 C 
HETATM   20  C12 UNL     1      23.788   4.355  15.315  1.00  0.00     0.171 C 
HETATM   21  O4  UNL     1      25.015   4.790  14.904  1.00  0.00    -0.353 OA
BRANCH  17  22
HETATM   22  C1  UNL     1      26.075   6.822  14.750  1.00  0.00     0.287 C 
HETATM   23  N1  UNL     1      26.201   8.152  14.234  1.00  0.00    -0.058 NA
HETATM   24  O1  UNL     1      26.978   6.425  15.494  1.00  0.00    -0.271 OA
ENDBRANCH  17  22
ENDBRANCH   1  17
TORSDOF 5
ENDMDL
MODEL 2
REMARK VINA RESULT: -7.502238285      1.175      1.929
REMARK  5 active torsions:
REMARK  status: ('A' for Active; 'I' for Inactive)
REMARK    1  A    between atoms: C1_2  and  C2_4 
REMARK    2  A    between atoms: C2_4  and  N2_5 
REMARK       I    between atoms: N2_5  and  C3_7 
REMARK    3  A    between atoms: C3_7  and  C4_9 
REMARK    4  A    between atoms: C4_9  and  N3_11 
REMARK    5  A    between atoms: C4_9  and  C9_17 
ROOT
HETATM    1  N2  UNL     1      24.570   5.974  12.681  1.00  0.00    -0.317 N 
ATOM      2  H2  UNL     1      23.816   6.441  12.177  1.00  0.00     0.166 HD
HETATM    3  C3  UNL     1      25.521   5.278  11.939  1.00  0.00     0.291 C 
HETATM    4  O2  UNL     1      26.448   4.695  12.620  1.00  0.00    -0.267 OA
ENDROOT
BRANCH   3   5
HETATM    5  C4  UNL     1      25.569   5.144  10.449  1.00  0.00     0.356 C 
HETATM    6  F1  UNL     1      24.626   6.112  10.025  1.00  0.00    -0.198 F 
BRANCH   5   7
HETATM    7  N3  UNL     1      25.071   3.917   9.997  1.00  0.00    -0.339 N 
HETATM    8  C5  UNL     1      24.002   3.336  10.729  1.00  0.00     0.152 C 
HETATM    9  C6  UNL     1      23.241   2.387   9.827  1.00  0.00     0.188 C 
HETATM   10  O3  UNL     1      23.268   2.742   8.504  1.00  0.00    -0.385 OA
HETATM   11  C7  UNL     1      24.538   2.705   7.944  1.00  0.00     0.212 C 
HETATM   12  C8  UNL     1      25.591   3.198   8.935  1.00  0.00     0.088 C 
ENDBRANCH   5   7
BRANCH   5  13
HETATM   13  C9  UNL     1      26.858   5.602   9.875  1.00  0.00     0.453 C 
HETATM   14  F2  UNL     1      27.083   6.926  10.193  1.00  0.00    -0.165 F 
HETATM   15  F3  UNL     1      26.848   5.551   8.499  1.00  0.00    -0.165 F 
HETATM   16  F4  UNL     1      27.969   4.934  10.345  1.00  0.00    -0.165 F 
ENDBRANCH   5  13
ENDBRANCH   3   5
BRANCH   1  17
HETATM   17  C2  UNL     1      24.587   6.072  14.116  1.00  0.00     0.216 C 
HETATM   18  C10 UNL     1      25.886   6.608  14.651  1.00  0.00     0.073 C 
HETATM   19  C11 UNL     1      25.573   8.059  14.908  1.00  0.00     0.032 C 
HETATM   20  C12 UNL     1      24.087   8.127  14.855  1.00  0.00     0.171 C 
HETATM   21  O4  UNL     1      23.578   6.883  14.613  1.00  0.00    -0.353 OA
BRANCH  17  22
HETATM   22  C1  UNL     1      24.377   4.732  14.699  1.00  0.00     0.287 C 
HETATM   23  N1  UNL     1      25.283   4.317  15.728  1.00  0.00    -0.058 NA
HETATM   24  O1  UNL     1      23.490   3.931  14.382  1.00  0.00    -0.271 OA
ENDBRANCH  17  22
ENDBRANCH   1  17
TORSDOF 5
ENDMDL
MODEL 3
REMARK VINA RESULT: -7.359059508      2.258      3.837
REMARK  5 active torsions:
REMARK  status: ('A' for Active; 'I' for Inactive)
REMARK    1  A    between atoms: C1_2  and  C2_4 
REMARK    2  A    between atoms: C2_4  and  N2_5 
REMARK       I    between atoms: N2_5  and  C3_7 
REMARK    3  A    between atoms: C3_7  and  C4_9 
REMARK    4  A    between atoms: C4_9  and  N3_11 
REMARK    5  A    between atoms: C4_9  and  C9_17 
ROOT
HETATM    1  N2  UNL     1      25.974   6.113  13.103  1.00  0.00    -0.317 N 
ATOM      2  H2  UNL     1      26.902   6.538  13.120  1.00  0.00     0.166 HD
HETATM    3  C3  UNL     1      25.657   5.276  12.037  1.00  0.00     0.291 C 
HETATM    4  O2  UNL     1      24.470   4.772  12.054  1.00  0.00    -0.267 OA
ENDROOT
BRANCH   3   5
HETATM    5  C4  UNL     1      26.547   4.911  10.891  1.00  0.00     0.356 C 
HETATM    6  F1  UNL     1      27.308   3.841  11.424  1.00  0.00    -0.198 F 
BRANCH   5   7
HETATM    7  N3  UNL     1      27.477   5.911  10.585  1.00  0.00    -0.339 N 
HETATM    8  C5  UNL     1      28.828   5.683  10.957  1.00  0.00     0.152 C 
HETATM    9  C6  UNL     1      29.732   6.526  10.082  1.00  0.00     0.188 C 
HETATM   10  O3  UNL     1      29.226   6.762   8.832  1.00  0.00    -0.385 OA
HETATM   11  C7  UNL     1      28.059   7.515   8.837  1.00  0.00     0.212 C 
HETATM   12  C8  UNL     1      27.163   7.131  10.013  1.00  0.00     0.088 C 
ENDBRANCH   5   7
BRANCH   5  13
HETATM   13  C9  UNL     1      25.803   4.311   9.757  1.00  0.00     0.453 C 
HETATM   14  F2  UNL     1      25.577   2.969   9.986  1.00  0.00    -0.165 F 
HETATM   15  F3  UNL     1      26.528   4.367   8.588  1.00  0.00    -0.165 F 
HETATM   16  F4  UNL     1      24.552   4.847   9.540  1.00  0.00    -0.165 F 
ENDBRANCH   5  13
ENDBRANCH   3   5
BRANCH   1  17
HETATM   17  C2  UNL     1      25.073   6.417  14.182  1.00  0.00     0.216 C 
HETATM   18  C10 UNL     1      25.596   7.487  15.100  1.00  0.00     0.073 C 
HETATM   19  C11 UNL     1      24.880   8.722  14.623  1.00  0.00     0.032 C 
HETATM   20  C12 UNL     1      23.782   8.199  13.764  1.00  0.00     0.171 C 
HETATM   21  O4  UNL     1      23.826   6.835  13.741  1.00  0.00    -0.353 OA
BRANCH  17  22
HETATM   22  C1  UNL     1      24.849   5.200  14.987  1.00  0.00     0.287 C 
HETATM   23  N1  UNL     1      26.007   4.548  15.523  1.00  0.00    -0.058 NA
HETATM   24  O1  UNL     1      23.753   4.687  15.243  1.00  0.00    -0.271 OA
ENDBRANCH  17  22
ENDBRANCH   1  17
TORSDOF 5
ENDMDL
MODEL 4
REMARK VINA RESULT: -7.306372418      3.217      5.081
REMARK  5 active torsions:
REMARK  status: ('A' for Active; 'I' for Inactive)
REMARK    1  A    between atoms: C1_2  and  C2_4 
REMARK    2  A    between atoms: C2_4  and  N2_5 
REMARK       I    between atoms: N2_5  and  C3_7 
REMARK    3  A    between atoms: C3_7  and  C4_9 
REMARK    4  A    between atoms: C4_9  and  N3_11 
REMARK    5  A    between atoms: C4_9  and  C9_17 
ROOT
HETATM    1  N2  UNL     1      26.768   6.726  12.702  1.00  0.00    -0.317 N 
ATOM      2  H2  UNL     1      27.590   6.857  13.293  1.00  0.00     0.166 HD
HETATM    3  C3  UNL     1      26.966   6.564  11.333  1.00  0.00     0.291 C 
HETATM    4  O2  UNL     1      25.898   6.414  10.626  1.00  0.00    -0.267 OA
ENDROOT
BRANCH   3   5
HETATM    5  C4  UNL     1      28.278   6.549  10.615  1.00  0.00     0.356 C 
HETATM    6  F1  UNL     1      28.851   5.328  11.050  1.00  0.00    -0.198 F 
BRANCH   5   7
HETATM    7  N3  UNL     1      29.153   7.547  11.060  1.00  0.00    -0.339 N 
HETATM    8  C5  UNL     1      30.390   7.131  11.618  1.00  0.00     0.152 C 
HETATM    9  C6  UNL     1      31.392   8.260  11.501  1.00  0.00     0.188 C 
HETATM   10  O3  UNL     1      31.182   9.075  10.420  1.00  0.00    -0.385 OA
HETATM   11  C7  UNL     1      29.981   9.770  10.472  1.00  0.00     0.212 C 
HETATM   12  C8  UNL     1      28.869   8.902  11.059  1.00  0.00     0.088 C 
ENDBRANCH   5   7
BRANCH   5  13
HETATM   13  C9  UNL     1      28.126   6.389   9.148  1.00  0.00     0.453 C 
HETATM   14  F2  UNL     1      29.362   6.244   8.550  1.00  0.00    -0.165 F 
HETATM   15  F3  UNL     1      27.567   7.507   8.571  1.00  0.00    -0.165 F 
HETATM   16  F4  UNL     1      27.414   5.275   8.760  1.00  0.00    -0.165 F 
ENDBRANCH   5  13
ENDBRANCH   3   5
BRANCH   1  17
HETATM   17  C2  UNL     1      25.475   6.722  13.332  1.00  0.00     0.216 C 
HETATM   18  C10 UNL     1      25.478   7.390  14.680  1.00  0.00     0.073 C 
HETATM   19  C11 UNL     1      24.935   8.761  14.379  1.00  0.00     0.032 C 
HETATM   20  C12 UNL     1      24.345   8.630  13.018  1.00  0.00     0.171 C 
HETATM   21  O4  UNL     1      24.502   7.349  12.570  1.00  0.00    -0.353 OA
BRANCH  17  22
HETATM   22  C1  UNL     1      25.030   5.327  13.520  1.00  0.00     0.287 C 
HETATM   23  N1  UNL     1      25.642   4.582  14.579  1.00  0.00    -0.058 NA
HETATM   24  O1  UNL     1      24.176   4.738  12.847  1.00  0.00    -0.271 OA
ENDBRANCH  17  22
ENDBRANCH   1  17
TORSDOF 5
ENDMDL
MODEL 5
REMARK VINA RESULT: -7.243882334      2.367      3.689
REMARK  5 active torsions:
REMARK  status: ('A' for Active; 'I' for Inactive)
REMARK    1  A    between atoms: C1_2  and  C2_4 
REMARK    2  A    between atoms: C2_4  and  N2_5 
REMARK       I    between atoms: N2_5  and  C3_7 
REMARK    3  A    between atoms: C3_7  and  C4_9 
REMARK    4  A    between atoms: C4_9  and  N3_11 
REMARK    5  A    between atoms: C4_9  and  C9_17 
ROOT
HETATM    1  N2  UNL     1      24.981   5.546  12.994  1.00  0.00    -0.317 N 
ATOM      2  H2  UNL     1      24.352   5.023  12.384  1.00  0.00     0.166 HD
HETATM    3  C3  UNL     1      26.265   5.822  12.529  1.00  0.00     0.291 C 
HETATM    4  O2  UNL     1      27.026   6.475  13.339  1.00  0.00    -0.267 OA
ENDROOT
BRANCH   3   5
HETATM    5  C4  UNL     1      26.836   5.437  11.201  1.00  0.00     0.356 C 
HETATM    6  F1  UNL     1      27.642   4.319  11.527  1.00  0.00    -0.198 F 
BRANCH   5   7
HETATM    7  N3  UNL     1      27.719   6.395  10.691  1.00  0.00    -0.339 N 
HETATM    8  C5  UNL     1      29.102   6.073  10.686  1.00  0.00     0.152 C 
HETATM    9  C6  UNL     1      29.801   6.901   9.630  1.00  0.00     0.188 C 
HETATM   10  O3  UNL     1      29.003   7.225   8.565  1.00  0.00    -0.385 OA
HETATM   11  C7  UNL     1      27.933   8.043   8.899  1.00  0.00     0.212 C 
HETATM   12  C8  UNL     1      27.350   7.657  10.258  1.00  0.00     0.088 C 
ENDBRANCH   5   7
BRANCH   5  13
HETATM   13  C9  UNL     1      25.811   4.901  10.272  1.00  0.00     0.453 C 
HETATM   14  F2  UNL     1      26.318   4.822   8.990  1.00  0.00    -0.165 F 
HETATM   15  F3  UNL     1      24.719   5.735  10.185  1.00  0.00    -0.165 F 
HETATM   16  F4  UNL     1      25.383   3.623  10.560  1.00  0.00    -0.165 F 
ENDBRANCH   5  13
ENDBRANCH   3   5
BRANCH   1  17
HETATM   17  C2  UNL     1      24.489   5.955  14.282  1.00  0.00     0.216 C 
HETATM   18  C10 UNL     1      23.232   5.234  14.685  1.00  0.00     0.073 C 
HETATM   19  C11 UNL     1      23.739   4.161  15.612  1.00  0.00     0.032 C 
HETATM   20  C12 UNL     1      25.130   4.585  15.935  1.00  0.00     0.171 C 
HETATM   21  O4  UNL     1      25.412   5.760  15.299  1.00  0.00    -0.353 OA
BRANCH  17  22
HETATM   22  C1  UNL     1      24.192   7.401  14.255  1.00  0.00     0.287 C 
HETATM   23  N1  UNL     1      24.456   8.146  15.449  1.00  0.00    -0.058 NA
HETATM   24  O1  UNL     1      23.733   8.031  13.296  1.00  0.00    -0.271 OA
ENDBRANCH  17  22
ENDBRANCH   1  17
TORSDOF 5
ENDMDL
