MODEL 1
REMARK VINA RESULT: -7.693037717      0.000      0.000
REMARK  4 active torsions:
REMARK  status: ('A' for Active; 'I' for Inactive)
REMARK    1  A    between atoms: N2_4  and  C3_5 
REMARK    2  A    between atoms: C3_5  and  C4_6 
REMARK       I    between atoms: N5_19  and  C11_20 
REMARK    3  A    between atoms: C11_20  and  C12_22 
REMARK    4  A    between atoms: C12_22  and  C13_25 
ROOT
HETATM    1  N1  UNL     1      25.492   4.660  14.278  1.00  0.00    -0.193 NA
HETATM    2  C1  UNL     1      25.561   5.280  13.294  1.00  0.00     0.117 C 
HETATM    3  C2  UNL     1      25.633   6.047  12.028  1.00  0.00     0.434 C 
HETATM    4  N2  UNL     1      26.966   6.662  12.035  1.00  0.00     0.129 N 
HETATM    5  C9  UNL     1      27.509   6.414  10.726  1.00  0.00     0.296 C 
HETATM    6  C10 UNL     1      26.667   5.375  10.047  1.00  0.00     0.159 C 
HETATM    7  N5  UNL     1      25.596   5.100  10.963  1.00  0.00    -0.303 N 
HETATM    8  C11 UNL     1      24.655   4.049  10.808  1.00  0.00     0.300 C 
HETATM    9  O1  UNL     1      23.760   3.889  11.680  1.00  0.00    -0.266 OA
ENDROOT
BRANCH   4  10
HETATM   10  C3  UNL     1      26.839   8.050  12.371  1.00  0.00     0.309 C 
BRANCH  10  11
HETATM   11  C4  UNL     1      27.214   8.973  11.276  1.00  0.00     0.215 C 
HETATM   12  C5  UNL     1      26.189   9.808  10.616  1.00  0.00     0.062 C 
HETATM   13  C6  UNL     1      26.758  10.179   9.211  1.00  0.00     0.234 C 
HETATM   14  N3  UNL     1      27.826  11.089   9.428  1.00  0.00    -0.073 N 
HETATM   15  C7  UNL     1      29.121  10.449   9.518  1.00  0.00     0.259 C 
ATOM     16  H32 UNL     1      27.831  11.816   8.712  1.00  0.00     0.277 HD
ATOM     17  H31 UNL     1      27.649  11.664  10.252  1.00  0.00     0.277 HD
HETATM   18  C8  UNL     1      29.371   9.867  10.886  1.00  0.00     0.260 C 
HETATM   19  N4  UNL     1      28.251   9.913  11.752  1.00  0.00    -0.068 N 
ATOM     20  H42 UNL     1      27.889  10.861  11.863  1.00  0.00     0.277 HD
ATOM     21  H41 UNL     1      28.510   9.740  12.724  1.00  0.00     0.277 HD
ENDBRANCH  10  11
ENDBRANCH   4  10
BRANCH   8  22
HETATM   22  C12 UNL     1      24.704   3.150   9.655  1.00  0.00     0.379 C 
HETATM   23  F1  UNL     1      24.221   3.833   8.537  1.00  0.00    -0.189 F 
HETATM   24  F2  UNL     1      26.011   2.758   9.446  1.00  0.00    -0.189 F 
BRANCH  22  25
HETATM   25  C13 UNL     1      23.837   1.915   9.857  1.00  0.00     0.434 C 
HETATM   26  F3  UNL     1      22.734   1.976   9.020  1.00  0.00    -0.207 F 
HETATM   27  F4  UNL     1      24.570   0.800   9.496  1.00  0.00    -0.207 F 
ENDBRANCH  22  25
ENDBRANCH   8  22
TORSDOF 4
ENDMDL
MODEL 2
REMARK VINA RESULT: -7.546137985      3.636      4.724
REMARK  4 active torsions:
REMARK  status: ('A' for Active; 'I' for Inactive)
REMARK    1  A    between atoms: N2_4  and  C3_5 
REMARK    2  A    between atoms: C3_5  and  C4_6 
REMARK       I    between atoms: N5_19  and  C11_20 
REMARK    3  A    between atoms: C11_20  and  C12_22 
REMARK    4  A    between atoms: C12_22  and  C13_25 
ROOT
HETATM    1  N1  UNL     1      24.066   4.250  10.057  1.00  0.00    -0.193 NA
HETATM    2  C1  UNL     1      24.944   4.771  10.616  1.00  0.00     0.117 C 
HETATM    3  C2  UNL     1      26.047   5.430  11.354  1.00  0.00     0.434 C 
HETATM    4  N2  UNL     1      26.497   6.514  10.473  1.00  0.00     0.129 N 
HETATM    5  C9  UNL     1      26.603   7.675  11.317  1.00  0.00     0.296 C 
HETATM    6  C10 UNL     1      25.907   7.389  12.614  1.00  0.00     0.159 C 
HETATM    7  N5  UNL     1      25.475   6.023  12.519  1.00  0.00    -0.303 N 
HETATM    8  C11 UNL     1      24.620   5.382  13.452  1.00  0.00     0.300 C 
HETATM    9  O1  UNL     1      24.292   4.181  13.264  1.00  0.00    -0.266 OA
ENDROOT
BRANCH   4  10
HETATM   10  C3  UNL     1      27.723   6.126   9.841  1.00  0.00     0.309 C 
BRANCH  10  11
HETATM   11  C4  UNL     1      28.924   6.794  10.392  1.00  0.00     0.215 C 
HETATM   12  C5  UNL     1      29.923   6.023  11.161  1.00  0.00     0.062 C 
HETATM   13  C6  UNL     1      30.686   7.052  12.052  1.00  0.00     0.234 C 
HETATM   14  N3  UNL     1      31.485   7.838  11.180  1.00  0.00    -0.073 N 
HETATM   15  C7  UNL     1      30.837   9.057  10.746  1.00  0.00     0.259 C 
ATOM     16  H32 UNL     1      32.390   8.041  11.604  1.00  0.00     0.277 HD
ATOM     17  H31 UNL     1      31.793   7.288  10.379  1.00  0.00     0.277 HD
HETATM   18  C8  UNL     1      29.877   8.814   9.608  1.00  0.00     0.260 C 
HETATM   19  N4  UNL     1      29.676   7.447   9.299  1.00  0.00    -0.068 N 
ATOM     20  H42 UNL     1      30.551   6.966   9.094  1.00  0.00     0.277 HD
ATOM     21  H41 UNL     1      29.223   7.321   8.393  1.00  0.00     0.277 HD
ENDBRANCH  10  11
ENDBRANCH   4  10
BRANCH   8  22
HETATM   22  C12 UNL     1      24.111   6.091  14.626  1.00  0.00     0.379 C 
HETATM   23  F1  UNL     1      25.192   6.645  15.314  1.00  0.00    -0.189 F 
HETATM   24  F2  UNL     1      23.248   7.086  14.212  1.00  0.00    -0.189 F 
BRANCH  22  25
HETATM   25  C13 UNL     1      23.379   5.160  15.582  1.00  0.00     0.434 C 
HETATM   26  F3  UNL     1      23.878   5.319  16.865  1.00  0.00    -0.207 F 
HETATM   27  F4  UNL     1      22.044   5.517  15.608  1.00  0.00    -0.207 F 
ENDBRANCH  22  25
ENDBRANCH   8  22
TORSDOF 4
ENDMDL
MODEL 3
REMARK VINA RESULT: -7.370190476      0.970      1.533
REMARK  4 active torsions:
REMARK  status: ('A' for Active; 'I' for Inactive)
REMARK    1  A    between atoms: N2_4  and  C3_5 
REMARK    2  A    between atoms: C3_5  and  C4_6 
REMARK       I    between atoms: N5_19  and  C11_20 
REMARK    3  A    between atoms: C11_20  and  C12_22 
REMARK    4  A    between atoms: C12_22  and  C13_25 
ROOT
HETATM    1  N1  UNL     1      24.412   4.476  13.982  1.00  0.00    -0.193 NA
HETATM    2  C1  UNL     1      24.800   5.017  13.026  1.00  0.00     0.117 C 
HETATM    3  C2  UNL     1      25.282   5.683  11.793  1.00  0.00     0.434 C 
HETATM    4  N2  UNL     1      26.624   6.174  12.128  1.00  0.00     0.129 N 
HETATM    5  C9  UNL     1      27.461   5.785  11.024  1.00  0.00     0.296 C 
HETATM    6  C10 UNL     1      26.720   4.782  10.192  1.00  0.00     0.159 C 
HETATM    7  N5  UNL     1      25.424   4.671  10.799  1.00  0.00    -0.303 N 
HETATM    8  C11 UNL     1      24.449   3.702  10.444  1.00  0.00     0.300 C 
HETATM    9  O1  UNL     1      23.346   3.685  11.052  1.00  0.00    -0.266 OA
ENDROOT
BRANCH   4  10
HETATM   10  C3  UNL     1      26.562   7.587  12.357  1.00  0.00     0.309 C 
BRANCH  10  11
HETATM   11  C4  UNL     1      27.182   8.400  11.286  1.00  0.00     0.215 C 
HETATM   12  C5  UNL     1      26.380   9.393  10.541  1.00  0.00     0.062 C 
HETATM   13  C6  UNL     1      27.110   9.621   9.181  1.00  0.00     0.234 C 
HETATM   14  N3  UNL     1      28.309  10.324   9.471  1.00  0.00    -0.073 N 
HETATM   15  C7  UNL     1      29.453   9.459   9.666  1.00  0.00     0.259 C 
ATOM     16  H32 UNL     1      28.502  11.021   8.751  1.00  0.00     0.277 HD
ATOM     17  H31 UNL     1      28.181  10.940  10.273  1.00  0.00     0.277 HD
HETATM   18  C8  UNL     1      29.489   8.873  11.055  1.00  0.00     0.260 C 
HETATM   19  N4  UNL     1      28.337   9.145  11.832  1.00  0.00    -0.068 N 
ATOM     20  H42 UNL     1      28.149  10.145  11.905  1.00  0.00     0.277 HD
ATOM     21  H41 UNL     1      28.486   8.950  12.822  1.00  0.00     0.277 HD
ENDBRANCH  10  11
ENDBRANCH   4  10
BRANCH   8  22
HETATM   22  C12 UNL     1      24.703   2.722   9.387  1.00  0.00     0.379 C 
HETATM   23  F1  UNL     1      25.935   2.113   9.631  1.00  0.00    -0.189 F 
HETATM   24  F2  UNL     1      23.694   1.779   9.396  1.00  0.00    -0.189 F 
BRANCH  22  25
HETATM   25  C13 UNL     1      24.768   3.372   8.012  1.00  0.00     0.434 C 
HETATM   26  F3  UNL     1      26.086   3.440   7.589  1.00  0.00    -0.207 F 
HETATM   27  F4  UNL     1      24.086   2.572   7.115  1.00  0.00    -0.207 F 
ENDBRANCH  22  25
ENDBRANCH   8  22
TORSDOF 4
ENDMDL
MODEL 4
REMARK VINA RESULT: -7.179627256      1.787      2.937
REMARK  4 active torsions:
REMARK  status: ('A' for Active; 'I' for Inactive)
REMARK    1  A    between atoms: N2_4  and  C3_5 
REMARK    2  A    between atoms: C3_5  and  C4_6 
REMARK       I    between atoms: N5_19  and  C11_20 
REMARK    3  A    between atoms: C11_20  and  C12_22 
REMARK    4  A    between atoms: C12_22  and  C13_25 
ROOT
HETATM    1  N1  UNL     1      25.594   5.214  13.892  1.00  0.00    -0.193 NA
HETATM    2  C1  UNL     1      25.665   5.714  12.843  1.00  0.00     0.117 C 
HETATM    3  C2  UNL     1      25.741   6.325  11.495  1.00  0.00     0.434 C 
HETATM    4  N2  UNL     1      27.068   6.950  11.438  1.00  0.00     0.129 N 
HETATM    5  C9  UNL     1      27.624   6.552  10.171  1.00  0.00     0.296 C 
HETATM    6  C10 UNL     1      26.796   5.432   9.616  1.00  0.00     0.159 C 
HETATM    7  N5  UNL     1      25.720   5.257  10.550  1.00  0.00    -0.303 N 
HETATM    8  C11 UNL     1      24.789   4.187  10.514  1.00  0.00     0.300 C 
HETATM    9  O1  UNL     1      23.889   4.123  11.393  1.00  0.00    -0.266 OA
ENDROOT
BRANCH   4  10
HETATM   10  C3  UNL     1      26.926   8.366  11.605  1.00  0.00     0.309 C 
BRANCH  10  11
HETATM   11  C4  UNL     1      26.497   8.774  12.962  1.00  0.00     0.215 C 
HETATM   12  C5  UNL     1      27.424   9.501  13.853  1.00  0.00     0.062 C 
HETATM   13  C6  UNL     1      26.919   9.260  15.310  1.00  0.00     0.234 C 
HETATM   14  N3  UNL     1      25.704   9.981  15.449  1.00  0.00    -0.073 N 
HETATM   15  C7  UNL     1      24.526   9.189  15.164  1.00  0.00     0.259 C 
ATOM     16  H32 UNL     1      25.640  10.405  16.374  1.00  0.00     0.277 HD
ATOM     17  H31 UNL     1      25.718  10.825  14.876  1.00  0.00     0.277 HD
HETATM   18  C8  UNL     1      24.263   9.078  13.684  1.00  0.00     0.260 C 
HETATM   19  N4  UNL     1      25.286   9.618  12.868  1.00  0.00    -0.068 N 
ATOM     20  H42 UNL     1      25.480  10.595  13.091  1.00  0.00     0.277 HD
ATOM     21  H41 UNL     1      24.981   9.746  11.903  1.00  0.00     0.277 HD
ENDBRANCH  10  11
ENDBRANCH   4  10
BRANCH   8  22
HETATM   22  C12 UNL     1      24.856   3.157   9.477  1.00  0.00     0.379 C 
HETATM   23  F1  UNL     1      24.417   3.710   8.272  1.00  0.00    -0.189 F 
HETATM   24  F2  UNL     1      26.162   2.726   9.355  1.00  0.00    -0.189 F 
BRANCH  22  25
HETATM   25  C13 UNL     1      23.963   1.967   9.796  1.00  0.00     0.434 C 
HETATM   26  F3  UNL     1      22.814   2.023   9.023  1.00  0.00    -0.207 F 
HETATM   27  F4  UNL     1      24.635   0.809   9.456  1.00  0.00    -0.207 F 
ENDBRANCH  22  25
ENDBRANCH   8  22
TORSDOF 4
ENDMDL
MODEL 5
REMARK VINA RESULT: -7.173815429      1.191      1.460
REMARK  4 active torsions:
REMARK  status: ('A' for Active; 'I' for Inactive)
REMARK    1  A    between atoms: N2_4  and  C3_5 
REMARK    2  A    between atoms: C3_5  and  C4_6 
REMARK       I    between atoms: N5_19  and  C11_20 
REMARK    3  A    between atoms: C11_20  and  C12_22 
REMARK    4  A    between atoms: C12_22  and  C13_25 
ROOT
HETATM    1  N1  UNL     1      25.563   4.728  14.157  1.00  0.00    -0.193 NA
HETATM    2  C1  UNL     1      25.679   5.312  13.157  1.00  0.00     0.117 C 
HETATM    3  C2  UNL     1      25.809   6.035  11.869  1.00  0.00     0.434 C 
HETATM    4  N2  UNL     1      27.179   6.564  11.871  1.00  0.00     0.129 N 
HETATM    5  C9  UNL     1      27.715   6.242  10.574  1.00  0.00     0.296 C 
HETATM    6  C10 UNL     1      26.812   5.239   9.919  1.00  0.00     0.159 C 
HETATM    7  N5  UNL     1      25.719   5.061  10.832  1.00  0.00    -0.303 N 
HETATM    8  C11 UNL     1      24.713   4.068  10.699  1.00  0.00     0.300 C 
HETATM    9  O1  UNL     1      23.804   3.992  11.567  1.00  0.00    -0.266 OA
ENDROOT
BRANCH   4  10
HETATM   10  C3  UNL     1      27.139   7.966  12.164  1.00  0.00     0.309 C 
BRANCH  10  11
HETATM   11  C4  UNL     1      28.352   8.705  11.747  1.00  0.00     0.215 C 
HETATM   12  C5  UNL     1      28.280  10.149  11.440  1.00  0.00     0.062 C 
HETATM   13  C6  UNL     1      29.495  10.465  10.513  1.00  0.00     0.234 C 
HETATM   14  N3  UNL     1      30.661  10.363  11.316  1.00  0.00    -0.073 N 
HETATM   15  C7  UNL     1      31.277   9.053  11.274  1.00  0.00     0.259 C 
ATOM     16  H32 UNL     1      31.335  11.087  11.067  1.00  0.00     0.277 HD
ATOM     17  H31 UNL     1      30.463  10.638  12.277  1.00  0.00     0.277 HD
HETATM   18  C8  UNL     1      30.589   8.075  12.192  1.00  0.00     0.260 C 
HETATM   19  N4  UNL     1      29.399   8.567  12.781  1.00  0.00    -0.068 N 
ATOM     20  H42 UNL     1      29.553   9.437  13.291  1.00  0.00     0.277 HD
ATOM     21  H41 UNL     1      29.091   7.990  13.565  1.00  0.00     0.277 HD
ENDBRANCH  10  11
ENDBRANCH   4  10
BRANCH   8  22
HETATM   22  C12 UNL     1      24.713   3.134   9.573  1.00  0.00     0.379 C 
HETATM   23  F1  UNL     1      24.218   3.794   8.447  1.00  0.00    -0.189 F 
HETATM   24  F2  UNL     1      26.006   2.705   9.345  1.00  0.00    -0.189 F 
BRANCH  22  25
HETATM   25  C13 UNL     1      23.824   1.927   9.834  1.00  0.00     0.434 C 
HETATM   26  F3  UNL     1      22.708   1.981   9.014  1.00  0.00    -0.207 F 
HETATM   27  F4  UNL     1      24.526   0.783   9.504  1.00  0.00    -0.207 F 
ENDBRANCH  22  25
ENDBRANCH   8  22
TORSDOF 4
ENDMDL
