MODEL 1
REMARK VINA RESULT: -7.578303049      0.000      0.000
REMARK  5 active torsions:
REMARK  status: ('A' for Active; 'I' for Inactive)
REMARK    1  A    between atoms: C1_2  and  N1_3 
REMARK    2  A    between atoms: C2_5  and  C3_6 
REMARK    3  A    between atoms: C3_6  and  C4_9 
REMARK    4  A    between atoms: C4_9  and  C5_12 
REMARK    5  A    between atoms: C12_20  and  C13_21 
ROOT
HETATM    1  C3  UNL     1      27.485   6.129   9.854  1.00  0.00     0.329 C 
HETATM    2  F1  UNL     1      27.392   5.975   8.494  1.00  0.00    -0.198 F 
HETATM    3  F2  UNL     1      26.689   7.253  10.204  1.00  0.00    -0.198 F 
ENDROOT
BRANCH   1   4
HETATM    4  C2  UNL     1      26.770   4.971  10.510  1.00  0.00     0.213 C 
HETATM    5  N2  UNL     1      25.988   4.117   9.647  1.00  0.00    -0.122 NA
HETATM    6  N1  UNL     1      24.804   4.230  10.421  1.00  0.00    -0.254 N 
HETATM    7  C12 UNL     1      25.391   5.419  10.988  1.00  0.00     0.234 C 
BRANCH   6   8
HETATM    8  C1  UNL     1      23.638   3.460  10.510  1.00  0.00     0.368 C 
HETATM    9  O1  UNL     1      22.528   3.853  10.037  1.00  0.00    -0.282 OA
ENDBRANCH   6   8
BRANCH   7  10
HETATM   10  C13 UNL     1      25.316   5.523  12.469  1.00  0.00     0.200 C 
HETATM   11  O2  UNL     1      24.648   6.451  12.958  1.00  0.00    -0.646 OA
HETATM   12  O3  UNL     1      25.974   4.611  13.250  1.00  0.00    -0.646 OA
ENDBRANCH   7  10
ENDBRANCH   1   4
BRANCH   1  13
HETATM   13  C4  UNL     1      28.868   6.364  10.332  1.00  0.00     0.315 C 
HETATM   14  F3  UNL     1      29.251   5.316  11.150  1.00  0.00    -0.199 F 
HETATM   15  F4  UNL     1      29.739   6.252   9.223  1.00  0.00    -0.199 F 
BRANCH  13  16
HETATM   16  C5  UNL     1      29.096   7.717  10.884  1.00  0.00     0.097 C 
HETATM   17  C6  UNL     1      30.100   8.521  10.083  1.00  0.00     0.283 C 
HETATM   18  N3  UNL     1      31.156   9.028  10.903  1.00  0.00     0.089 N 
HETATM   19  C7  UNL     1      30.659   9.932  11.947  1.00  0.00     0.272 C 
HETATM   20  C11 UNL     1      31.875   7.980  11.603  1.00  0.00     0.272 C 
HETATM   21  C8  UNL     1      29.443   9.347  12.628  1.00  0.00     0.035 C 
HETATM   22  C9  UNL     1      29.480   7.831  12.315  1.00  0.00     0.001 C 
HETATM   23  C10 UNL     1      30.895   7.424  12.625  1.00  0.00     0.035 C 
ENDBRANCH  13  16
ENDBRANCH   1  13
TORSDOF 5
ENDMDL
MODEL 2
REMARK VINA RESULT: -7.574178694      1.654      3.064
REMARK  5 active torsions:
REMARK  status: ('A' for Active; 'I' for Inactive)
REMARK    1  A    between atoms: C1_2  and  N1_3 
REMARK    2  A    between atoms: C2_5  and  C3_6 
REMARK    3  A    between atoms: C3_6  and  C4_9 
REMARK    4  A    between atoms: C4_9  and  C5_12 
REMARK    5  A    between atoms: C12_20  and  C13_21 
ROOT
HETATM    1  C3  UNL     1      26.541   5.115  10.034  1.00  0.00     0.329 C 
HETATM    2  F1  UNL     1      27.244   4.156  10.716  1.00  0.00    -0.198 F 
HETATM    3  F2  UNL     1      26.211   4.568   8.763  1.00  0.00    -0.198 F 
ENDROOT
BRANCH   1   4
HETATM    4  C2  UNL     1      25.198   5.284  10.705  1.00  0.00     0.213 C 
HETATM    5  N2  UNL     1      25.211   5.711  12.085  1.00  0.00    -0.122 NA
HETATM    6  N1  UNL     1      24.393   4.644  12.540  1.00  0.00    -0.254 N 
HETATM    7  C12 UNL     1      24.760   3.959  11.325  1.00  0.00     0.234 C 
BRANCH   6   8
HETATM    8  C1  UNL     1      23.615   4.452  13.688  1.00  0.00     0.368 C 
HETATM    9  O1  UNL     1      24.116   4.078  14.792  1.00  0.00    -0.282 OA
ENDBRANCH   6   8
BRANCH   7  10
HETATM   10  C13 UNL     1      23.634   3.336  10.579  1.00  0.00     0.200 C 
HETATM   11  O2  UNL     1      23.529   2.097  10.606  1.00  0.00    -0.646 OA
HETATM   12  O3  UNL     1      22.753   4.126   9.892  1.00  0.00    -0.646 OA
ENDBRANCH   7  10
ENDBRANCH   1   4
BRANCH   1  13
HETATM   13  C4  UNL     1      27.298   6.371   9.823  1.00  0.00     0.315 C 
HETATM   14  F3  UNL     1      27.533   6.540   8.470  1.00  0.00    -0.199 F 
HETATM   15  F4  UNL     1      26.447   7.454  10.148  1.00  0.00    -0.199 F 
BRANCH  13  16
HETATM   16  C5  UNL     1      28.482   6.517  10.697  1.00  0.00     0.097 C 
HETATM   17  C6  UNL     1      28.287   7.549  11.790  1.00  0.00     0.283 C 
HETATM   18  N3  UNL     1      29.327   8.529  11.794  1.00  0.00     0.089 N 
HETATM   19  C7  UNL     1      30.646   7.933  12.035  1.00  0.00     0.272 C 
HETATM   20  C11 UNL     1      29.441   9.232  10.529  1.00  0.00     0.272 C 
HETATM   21  C8  UNL     1      30.837   6.693  11.192  1.00  0.00     0.035 C 
HETATM   22  C9  UNL     1      29.792   6.800  10.054  1.00  0.00     0.001 C 
HETATM   23  C10 UNL     1      29.954   8.202   9.534  1.00  0.00     0.035 C 
ENDBRANCH  13  16
ENDBRANCH   1  13
TORSDOF 5
ENDMDL
MODEL 3
REMARK VINA RESULT: -7.556628905      4.072      6.287
REMARK  5 active torsions:
REMARK  status: ('A' for Active; 'I' for Inactive)
REMARK    1  A    between atoms: C1_2  and  N1_3 
REMARK    2  A    between atoms: C2_5  and  C3_6 
REMARK    3  A    between atoms: C3_6  and  C4_9 
REMARK    4  A    between atoms: C4_9  and  C5_12 
REMARK    5  A    between atoms: C12_20  and  C13_21 
ROOT
HETATM    1  C3  UNL     1      25.557   6.096  11.717  1.00  0.00     0.329 C 
HETATM    2  F1  UNL     1      25.299   6.944  10.670  1.00  0.00    -0.198 F 
HETATM    3  F2  UNL     1      26.863   6.403  12.191  1.00  0.00    -0.198 F 
ENDROOT
BRANCH   1   4
HETATM    4  C2  UNL     1      24.662   6.483  12.870  1.00  0.00     0.213 C 
HETATM    5  N2  UNL     1      24.409   7.894  13.050  1.00  0.00    -0.122 NA
HETATM    6  N1  UNL     1      24.803   7.905  14.414  1.00  0.00    -0.254 N 
HETATM    7  C12 UNL     1      25.499   6.674  14.133  1.00  0.00     0.234 C 
BRANCH   6   8
HETATM    8  C1  UNL     1      24.560   8.784  15.476  1.00  0.00     0.368 C 
HETATM    9  O1  UNL     1      25.499   9.335  16.129  1.00  0.00    -0.282 OA
ENDBRANCH   6   8
BRANCH   7  10
HETATM   10  C13 UNL     1      25.284   5.581  15.119  1.00  0.00     0.200 C 
HETATM   11  O2  UNL     1      25.969   4.548  15.006  1.00  0.00    -0.646 OA
HETATM   12  O3  UNL     1      24.353   5.732  16.110  1.00  0.00    -0.646 OA
ENDBRANCH   7  10
ENDBRANCH   1   4
BRANCH   1  13
HETATM   13  C4  UNL     1      25.516   4.663  11.346  1.00  0.00     0.315 C 
HETATM   14  F3  UNL     1      26.666   4.042  11.799  1.00  0.00    -0.199 F 
HETATM   15  F4  UNL     1      24.489   4.045  12.099  1.00  0.00    -0.199 F 
BRANCH  13  16
HETATM   16  C5  UNL     1      25.176   4.414   9.928  1.00  0.00     0.097 C 
HETATM   17  C6  UNL     1      23.710   4.090   9.720  1.00  0.00     0.283 C 
HETATM   18  N3  UNL     1      23.529   2.865   9.006  1.00  0.00     0.089 N 
HETATM   19  C7  UNL     1      24.124   2.913   7.665  1.00  0.00     0.272 C 
HETATM   20  C11 UNL     1      24.149   1.732   9.668  1.00  0.00     0.272 C 
HETATM   21  C8  UNL     1      25.511   3.512   7.715  1.00  0.00     0.035 C 
HETATM   22  C9  UNL     1      25.963   3.390   9.192  1.00  0.00     0.001 C 
HETATM   23  C10 UNL     1      25.649   1.965   9.558  1.00  0.00     0.035 C 
ENDBRANCH  13  16
ENDBRANCH   1  13
TORSDOF 5
ENDMDL
MODEL 4
REMARK VINA RESULT: -7.550571983      2.558      3.208
REMARK  5 active torsions:
REMARK  status: ('A' for Active; 'I' for Inactive)
REMARK    1  A    between atoms: C1_2  and  N1_3 
REMARK    2  A    between atoms: C2_5  and  C3_6 
REMARK    3  A    between atoms: C3_6  and  C4_9 
REMARK    4  A    between atoms: C4_9  and  C5_12 
REMARK    5  A    between atoms: C12_20  and  C13_21 
ROOT
HETATM    1  C3  UNL     1      25.665   5.746  11.176  1.00  0.00     0.329 C 
HETATM    2  F1  UNL     1      24.742   4.983  10.509  1.00  0.00    -0.198 F 
HETATM    3  F2  UNL     1      25.229   7.097  11.093  1.00  0.00    -0.198 F 
ENDROOT
BRANCH   1   4
HETATM    4  C2  UNL     1      25.560   5.432  12.650  1.00  0.00     0.213 C 
HETATM    5  N2  UNL     1      24.260   5.038  13.140  1.00  0.00    -0.122 NA
HETATM    6  N1  UNL     1      24.232   6.009  14.176  1.00  0.00    -0.254 N 
HETATM    7  C12 UNL     1      25.251   6.707  13.430  1.00  0.00     0.234 C 
BRANCH   6   8
HETATM    8  C1  UNL     1      23.494   6.130  15.359  1.00  0.00     0.368 C 
HETATM    9  O1  UNL     1      23.921   5.695  16.472  1.00  0.00    -0.282 OA
ENDBRANCH   6   8
BRANCH   7  10
HETATM   10  C13 UNL     1      26.416   7.175  14.227  1.00  0.00     0.200 C 
HETATM   11  O2  UNL     1      26.947   8.254  13.909  1.00  0.00    -0.646 OA
HETATM   12  O3  UNL     1      26.872   6.421  15.274  1.00  0.00    -0.646 OA
ENDBRANCH   7  10
ENDBRANCH   1   4
BRANCH   1  13
HETATM   13  C4  UNL     1      27.031   5.656  10.611  1.00  0.00     0.315 C 
HETATM   14  F3  UNL     1      27.729   4.656  11.264  1.00  0.00    -0.199 F 
HETATM   15  F4  UNL     1      26.925   5.172   9.285  1.00  0.00    -0.199 F 
BRANCH  13  16
HETATM   16  C5  UNL     1      27.730   6.955  10.507  1.00  0.00     0.097 C 
HETATM   17  C6  UNL     1      27.871   7.439   9.078  1.00  0.00     0.283 C 
HETATM   18  N3  UNL     1      29.227   7.743   8.746  1.00  0.00     0.089 N 
HETATM   19  C7  UNL     1      29.774   8.814   9.588  1.00  0.00     0.272 C 
HETATM   20  C11 UNL     1      30.117   6.612   8.928  1.00  0.00     0.272 C 
HETATM   21  C8  UNL     1      29.428   8.584  11.041  1.00  0.00     0.035 C 
HETATM   22  C9  UNL     1      29.064   7.083  11.149  1.00  0.00     0.001 C 
HETATM   23  C10 UNL     1      30.183   6.379  10.430  1.00  0.00     0.035 C 
ENDBRANCH  13  16
ENDBRANCH   1  13
TORSDOF 5
ENDMDL
MODEL 5
REMARK VINA RESULT: -7.251135660      2.470      3.265
REMARK  5 active torsions:
REMARK  status: ('A' for Active; 'I' for Inactive)
REMARK    1  A    between atoms: C1_2  and  N1_3 
REMARK    2  A    between atoms: C2_5  and  C3_6 
REMARK    3  A    between atoms: C3_6  and  C4_9 
REMARK    4  A    between atoms: C4_9  and  C5_12 
REMARK    5  A    between atoms: C12_20  and  C13_21 
ROOT
HETATM    1  C3  UNL     1      25.807   5.757  11.395  1.00  0.00     0.329 C 
HETATM    2  F1  UNL     1      24.945   4.736  11.087  1.00  0.00    -0.198 F 
HETATM    3  F2  UNL     1      25.156   6.973  11.051  1.00  0.00    -0.198 F 
ENDROOT
BRANCH   1   4
HETATM    4  C2  UNL     1      25.930   5.834  12.898  1.00  0.00     0.213 C 
HETATM    5  N2  UNL     1      25.880   4.583  13.620  1.00  0.00    -0.122 NA
HETATM    6  N1  UNL     1      24.845   5.001  14.496  1.00  0.00    -0.254 N 
HETATM    7  C12 UNL     1      24.549   6.021  13.521  1.00  0.00     0.234 C 
BRANCH   6   8
HETATM    8  C1  UNL     1      24.399   4.544  15.742  1.00  0.00     0.368 C 
HETATM    9  O1  UNL     1      24.775   5.072  16.833  1.00  0.00    -0.282 OA
ENDBRANCH   6   8
BRANCH   7  10
HETATM   10  C13 UNL     1      24.360   7.391  14.068  1.00  0.00     0.200 C 
HETATM   11  O2  UNL     1      23.499   8.118  13.542  1.00  0.00    -0.646 OA
HETATM   12  O3  UNL     1      25.126   7.815  15.120  1.00  0.00    -0.646 OA
ENDBRANCH   7  10
ENDBRANCH   1   4
BRANCH   1  13
HETATM   13  C4  UNL     1      27.094   5.689  10.664  1.00  0.00     0.315 C 
HETATM   14  F3  UNL     1      27.842   4.634  11.155  1.00  0.00    -0.199 F 
HETATM   15  F4  UNL     1      26.818   5.304   9.330  1.00  0.00    -0.199 F 
BRANCH  13  16
HETATM   16  C5  UNL     1      27.805   6.982  10.567  1.00  0.00     0.097 C 
HETATM   17  C6  UNL     1      27.863   7.521   9.152  1.00  0.00     0.283 C 
HETATM   18  N3  UNL     1      29.201   7.821   8.748  1.00  0.00     0.089 N 
HETATM   19  C7  UNL     1      29.816   8.850   9.595  1.00  0.00     0.272 C 
HETATM   20  C11 UNL     1      30.083   6.672   8.827  1.00  0.00     0.272 C 
HETATM   21  C8  UNL     1      29.558   8.565  11.057  1.00  0.00     0.035 C 
HETATM   22  C9  UNL     1      29.179   7.065  11.127  1.00  0.00     0.001 C 
HETATM   23  C10 UNL     1      30.239   6.377  10.311  1.00  0.00     0.035 C 
ENDBRANCH  13  16
ENDBRANCH   1  13
TORSDOF 5
ENDMDL
