MODEL 1
REMARK VINA RESULT: -6.229144973      0.000      0.000
REMARK  2 active torsions:
REMARK  status: ('A' for Active; 'I' for Inactive)
REMARK    1  A    between atoms: N1_2  and  N2_3 
REMARK       I    between atoms: N2_3  and  C2_5 
REMARK       I    between atoms: C2_5  and  N3_7 
REMARK    2  A    between atoms: N3_7  and  C3_9 
ROOT
HETATM    1  N2  UNL     1      -5.145 -44.223  13.884  1.00  0.00    -0.256 N 
ATOM      2  H2  UNL     1      -5.736 -44.807  14.474  1.00  0.00     0.187 HD
HETATM    3  C2  UNL     1      -5.653 -43.787  12.621  1.00  0.00     0.332 C 
HETATM    4  O1  UNL     1      -4.873 -43.079  11.948  1.00  0.00    -0.246 OA
HETATM    5  N3  UNL     1      -6.958 -44.150  12.192  1.00  0.00    -0.337 N 
ATOM      6  H3  UNL     1      -7.509 -44.730  12.824  1.00  0.00     0.164 HD
ENDROOT
BRANCH   5   7
HETATM    7  C3  UNL     1      -7.566 -43.777  10.959  1.00  0.00     0.086 C 
HETATM    8  C4  UNL     1      -7.979 -44.956  10.109  1.00  0.00     0.025 C 
HETATM    9  C5  UNL     1      -8.995 -44.446   9.115  1.00  0.00     0.002 C 
HETATM   10  C6  UNL     1     -10.279 -44.219   9.894  1.00  0.00     0.000 C 
HETATM   11  C7  UNL     1     -10.035 -43.317  11.078  1.00  0.00     0.002 C 
HETATM   12  C8  UNL     1      -8.649 -42.737  11.094  1.00  0.00     0.025 C 
ENDBRANCH   5   7
BRANCH   1  13
HETATM   13  N1  UNL     1      -3.871 -43.881  14.342  1.00  0.00    -0.142 NA
HETATM   14  C1  UNL     1      -3.284 -45.060  14.935  1.00  0.00     0.159 C 
ENDBRANCH   1  13
TORSDOF 2
ENDMDL
MODEL 2
REMARK VINA RESULT: -6.005189597      2.467      5.348
REMARK  2 active torsions:
REMARK  status: ('A' for Active; 'I' for Inactive)
REMARK    1  A    between atoms: N1_2  and  N2_3 
REMARK       I    between atoms: N2_3  and  C2_5 
REMARK       I    between atoms: C2_5  and  N3_7 
REMARK    2  A    between atoms: N3_7  and  C3_9 
ROOT
HETATM    1  N2  UNL     1      -8.091 -45.012   9.856  1.00  0.00    -0.256 N 
ATOM      2  H2  UNL     1      -8.737 -45.649  10.322  1.00  0.00     0.187 HD
HETATM    3  C2  UNL     1      -7.279 -44.151  10.659  1.00  0.00     0.332 C 
HETATM    4  O1  UNL     1      -6.516 -43.393  10.022  1.00  0.00    -0.246 OA
HETATM    5  N3  UNL     1      -7.359 -44.181  12.077  1.00  0.00    -0.337 N 
ATOM      6  H3  UNL     1      -8.017 -44.842  12.490  1.00  0.00     0.164 HD
ENDROOT
BRANCH   5   7
HETATM    7  C3  UNL     1      -6.603 -43.372  12.974  1.00  0.00     0.086 C 
HETATM    8  C4  UNL     1      -7.364 -42.175  13.491  1.00  0.00     0.025 C 
HETATM    9  C5  UNL     1      -6.652 -41.708  14.739  1.00  0.00     0.002 C 
HETATM   10  C6  UNL     1      -6.981 -42.719  15.823  1.00  0.00     0.000 C 
HETATM   11  C7  UNL     1      -6.636 -44.117  15.375  1.00  0.00     0.002 C 
HETATM   12  C8  UNL     1      -5.904 -44.145  14.063  1.00  0.00     0.025 C 
ENDBRANCH   5   7
BRANCH   1  13
HETATM   13  N1  UNL     1      -8.036 -45.015   8.461  1.00  0.00    -0.142 NA
HETATM   14  C1  UNL     1      -9.251 -44.409   7.970  1.00  0.00     0.159 C 
ENDBRANCH   1  13
TORSDOF 2
ENDMDL
MODEL 3
REMARK VINA RESULT: -5.950682571      1.626      2.186
REMARK  2 active torsions:
REMARK  status: ('A' for Active; 'I' for Inactive)
REMARK    1  A    between atoms: N1_2  and  N2_3 
REMARK       I    between atoms: N2_3  and  C2_5 
REMARK       I    between atoms: C2_5  and  N3_7 
REMARK    2  A    between atoms: N3_7  and  C3_9 
ROOT
HETATM    1  N2  UNL     1      -5.116 -42.906  13.220  1.00  0.00    -0.256 N 
ATOM      2  H2  UNL     1      -4.596 -42.441  12.477  1.00  0.00     0.187 HD
HETATM    3  C2  UNL     1      -6.334 -43.578  12.888  1.00  0.00     0.332 C 
HETATM    4  O1  UNL     1      -6.921 -44.122  13.848  1.00  0.00    -0.246 OA
HETATM    5  N3  UNL     1      -6.813 -43.607  11.551  1.00  0.00    -0.337 N 
ATOM      6  H3  UNL     1      -6.249 -43.131  10.846  1.00  0.00     0.164 HD
ENDROOT
BRANCH   5   7
HETATM    7  C3  UNL     1      -8.007 -44.242  11.105  1.00  0.00     0.086 C 
HETATM    8  C4  UNL     1      -9.181 -43.299  10.984  1.00  0.00     0.025 C 
HETATM    9  C5  UNL     1     -10.192 -43.969  10.083  1.00  0.00     0.002 C 
HETATM   10  C6  UNL     1      -9.634 -43.879   8.674  1.00  0.00     0.000 C 
HETATM   11  C7  UNL     1      -8.241 -44.455   8.611  1.00  0.00     0.002 C 
HETATM   12  C8  UNL     1      -7.826 -45.119   9.893  1.00  0.00     0.025 C 
ENDBRANCH   5   7
BRANCH   1  13
HETATM   13  N1  UNL     1      -4.611 -42.862  14.522  1.00  0.00    -0.142 NA
HETATM   14  C1  UNL     1      -4.936 -41.570  15.077  1.00  0.00     0.159 C 
ENDBRANCH   1  13
TORSDOF 2
ENDMDL
MODEL 4
REMARK VINA RESULT: -5.921236619      2.923      6.015
REMARK  2 active torsions:
REMARK  status: ('A' for Active; 'I' for Inactive)
REMARK    1  A    between atoms: N1_2  and  N2_3 
REMARK       I    between atoms: N2_3  and  C2_5 
REMARK       I    between atoms: C2_5  and  N3_7 
REMARK    2  A    between atoms: N3_7  and  C3_9 
ROOT
HETATM    1  N2  UNL     1      -9.469 -42.613  10.899  1.00  0.00    -0.256 N 
ATOM      2  H2  UNL     1      -9.514 -43.628  10.811  1.00  0.00     0.187 HD
HETATM    3  C2  UNL     1      -8.712 -42.050  11.973  1.00  0.00     0.332 C 
HETATM    4  O1  UNL     1      -8.704 -40.802  12.023  1.00  0.00    -0.246 OA
HETATM    5  N3  UNL     1      -8.028 -42.881  12.901  1.00  0.00    -0.337 N 
ATOM      6  H3  UNL     1      -8.103 -43.889  12.763  1.00  0.00     0.164 HD
ENDROOT
BRANCH   5   7
HETATM    7  C3  UNL     1      -7.249 -42.434  14.007  1.00  0.00     0.086 C 
HETATM    8  C4  UNL     1      -7.539 -43.179  15.288  1.00  0.00     0.025 C 
HETATM    9  C5  UNL     1      -6.361 -42.950  16.206  1.00  0.00     0.002 C 
HETATM   10  C6  UNL     1      -5.223 -43.795  15.660  1.00  0.00     0.000 C 
HETATM   11  C7  UNL     1      -4.972 -43.482  14.206  1.00  0.00     0.002 C 
HETATM   12  C8  UNL     1      -5.775 -42.311  13.714  1.00  0.00     0.025 C 
ENDBRANCH   5   7
BRANCH   1  13
HETATM   13  N1  UNL     1     -10.148 -41.829   9.964  1.00  0.00    -0.142 NA
HETATM   14  C1  UNL     1     -10.481 -42.671   8.840  1.00  0.00     0.159 C 
ENDBRANCH   1  13
TORSDOF 2
ENDMDL
MODEL 5
REMARK VINA RESULT: -5.906105828      1.381      1.751
REMARK  2 active torsions:
REMARK  status: ('A' for Active; 'I' for Inactive)
REMARK    1  A    between atoms: N1_2  and  N2_3 
REMARK       I    between atoms: N2_3  and  C2_5 
REMARK       I    between atoms: C2_5  and  N3_7 
REMARK    2  A    between atoms: N3_7  and  C3_9 
ROOT
HETATM    1  N2  UNL     1      -6.099 -44.080  12.610  1.00  0.00    -0.256 N 
ATOM      2  H2  UNL     1      -6.648 -44.807  13.067  1.00  0.00     0.187 HD
HETATM    3  C2  UNL     1      -6.610 -43.483  11.415  1.00  0.00     0.332 C 
HETATM    4  O1  UNL     1      -5.883 -42.603  10.906  1.00  0.00    -0.246 OA
HETATM    5  N3  UNL     1      -7.860 -43.885  10.873  1.00  0.00    -0.337 N 
ATOM      6  H3  UNL     1      -8.370 -44.612  11.374  1.00  0.00     0.164 HD
ENDROOT
BRANCH   5   7
HETATM    7  C3  UNL     1      -8.465 -43.365   9.693  1.00  0.00     0.086 C 
HETATM    8  C4  UNL     1      -8.127 -44.147   8.446  1.00  0.00     0.025 C 
HETATM    9  C5  UNL     1      -9.170 -43.798   7.411  1.00  0.00     0.002 C 
HETATM   10  C6  UNL     1     -10.444 -44.508   7.832  1.00  0.00     0.000 C 
HETATM   11  C7  UNL     1     -10.810 -44.157   9.253  1.00  0.00     0.002 C 
HETATM   12  C8  UNL     1      -9.939 -43.077   9.829  1.00  0.00     0.025 C 
ENDBRANCH   5   7
BRANCH   1  13
HETATM   13  N1  UNL     1      -4.878 -43.706  13.176  1.00  0.00    -0.142 NA
HETATM   14  C1  UNL     1      -4.700 -44.472  14.386  1.00  0.00     0.159 C 
ENDBRANCH   1  13
TORSDOF 2
ENDMDL
