MODEL 1
REMARK VINA RESULT: -6.120974660      0.000      0.000
REMARK  2 active torsions:
REMARK  status: ('A' for Active; 'I' for Inactive)
REMARK    1  A    between atoms: C2_2  and  N1_3 
REMARK       I    between atoms: N1_3  and  C3_5 
REMARK       I    between atoms: C3_5  and  N2_7 
REMARK    2  A    between atoms: N2_7  and  C4_9 
ROOT
HETATM    1  N1  UNL     1      -5.685 -44.449  14.002  1.00  0.00    -0.343 N 
ATOM      2  H1  UNL     1      -6.325 -45.025  14.549  1.00  0.00     0.164 HD
HETATM    3  C3  UNL     1      -6.063 -43.968  12.727  1.00  0.00     0.316 C 
HETATM    4  O1  UNL     1      -5.287 -43.255  12.037  1.00  0.00    -0.247 OA
HETATM    5  N2  UNL     1      -7.335 -44.268  12.166  1.00  0.00    -0.339 N 
ATOM      6  H2  UNL     1      -7.985 -44.844  12.702  1.00  0.00     0.164 HD
ENDROOT
BRANCH   5   7
HETATM    7  C4  UNL     1      -7.740 -43.786  10.863  1.00  0.00     0.086 C 
HETATM    8  C5  UNL     1      -8.912 -42.887  10.938  1.00  0.00     0.025 C 
HETATM    9  C6  UNL     1     -10.021 -43.153   9.989  1.00  0.00     0.002 C 
HETATM   10  C7  UNL     1      -9.690 -43.831   8.728  1.00  0.00     0.000 C 
HETATM   11  C8  UNL     1      -8.293 -44.338   8.597  1.00  0.00     0.002 C 
HETATM   12  C9  UNL     1      -7.957 -44.986   9.947  1.00  0.00     0.025 C 
ENDBRANCH   5   7
BRANCH   1  13
HETATM   13  C2  UNL     1      -4.375 -44.109  14.522  1.00  0.00     0.120 C 
HETATM   14  C1  UNL     1      -4.563 -42.954  15.487  1.00  0.00     0.026 C 
ENDBRANCH   1  13
TORSDOF 2
ENDMDL
MODEL 2
REMARK VINA RESULT: -6.062335899      1.380      1.463
REMARK  2 active torsions:
REMARK  status: ('A' for Active; 'I' for Inactive)
REMARK    1  A    between atoms: C2_2  and  N1_3 
REMARK       I    between atoms: N1_3  and  C3_5 
REMARK       I    between atoms: C3_5  and  N2_7 
REMARK    2  A    between atoms: N2_7  and  C4_9 
ROOT
HETATM    1  N1  UNL     1      -6.763 -44.302  13.882  1.00  0.00    -0.343 N 
ATOM      2  H1  UNL     1      -6.791 -45.312  14.026  1.00  0.00     0.164 HD
HETATM    3  C3  UNL     1      -7.205 -43.738  12.663  1.00  0.00     0.316 C 
HETATM    4  O1  UNL     1      -7.178 -42.494  12.467  1.00  0.00    -0.247 OA
HETATM    5  N2  UNL     1      -7.701 -44.549  11.606  1.00  0.00    -0.339 N 
ATOM      6  H2  UNL     1      -7.736 -45.560  11.736  1.00  0.00     0.164 HD
ENDROOT
BRANCH   5   7
HETATM    7  C4  UNL     1      -8.160 -43.990  10.351  1.00  0.00     0.086 C 
HETATM    8  C5  UNL     1      -9.617 -43.738  10.350  1.00  0.00     0.025 C 
HETATM    9  C6  UNL     1     -10.378 -44.220   9.171  1.00  0.00     0.002 C 
HETATM   10  C7  UNL     1      -9.651 -44.359   7.901  1.00  0.00     0.000 C 
HETATM   11  C8  UNL     1      -8.174 -44.160   7.960  1.00  0.00     0.002 C 
HETATM   12  C9  UNL     1      -7.704 -44.904   9.218  1.00  0.00     0.025 C 
ENDBRANCH   5   7
BRANCH   1  13
HETATM   13  C2  UNL     1      -6.267 -43.424  14.924  1.00  0.00     0.120 C 
HETATM   14  C1  UNL     1      -7.305 -43.416  16.032  1.00  0.00     0.026 C 
ENDBRANCH   1  13
TORSDOF 2
ENDMDL
MODEL 3
REMARK VINA RESULT: -6.014648733      2.008      5.600
REMARK  2 active torsions:
REMARK  status: ('A' for Active; 'I' for Inactive)
REMARK    1  A    between atoms: C2_2  and  N1_3 
REMARK       I    between atoms: N1_3  and  C3_5 
REMARK       I    between atoms: C3_5  and  N2_7 
REMARK    2  A    between atoms: N2_7  and  C4_9 
ROOT
HETATM    1  N1  UNL     1      -7.552 -44.637   9.949  1.00  0.00    -0.343 N 
ATOM      2  H1  UNL     1      -6.642 -45.073   9.796  1.00  0.00     0.164 HD
HETATM    3  C3  UNL     1      -7.868 -44.058  11.200  1.00  0.00     0.316 C 
HETATM    4  O1  UNL     1      -8.986 -43.516  11.408  1.00  0.00    -0.247 OA
HETATM    5  N2  UNL     1      -6.941 -44.062  12.277  1.00  0.00    -0.339 N 
ATOM      6  H2  UNL     1      -6.027 -44.494  12.138  1.00  0.00     0.164 HD
ENDROOT
BRANCH   5   7
HETATM    7  C4  UNL     1      -7.246 -43.473  13.564  1.00  0.00     0.086 C 
HETATM    8  C5  UNL     1      -6.831 -42.056  13.645  1.00  0.00     0.025 C 
HETATM    9  C6  UNL     1      -6.068 -41.650  14.851  1.00  0.00     0.002 C 
HETATM   10  C7  UNL     1      -6.269 -42.432  16.079  1.00  0.00     0.000 C 
HETATM   11  C8  UNL     1      -7.098 -43.665  15.949  1.00  0.00     0.002 C 
HETATM   12  C9  UNL     1      -6.631 -44.345  14.654  1.00  0.00     0.025 C 
ENDBRANCH   5   7
BRANCH   1  13
HETATM   13  C2  UNL     1      -8.539 -44.603   8.888  1.00  0.00     0.120 C 
HETATM   14  C1  UNL     1      -7.910 -45.258   7.672  1.00  0.00     0.026 C 
ENDBRANCH   1  13
TORSDOF 2
ENDMDL
MODEL 4
REMARK VINA RESULT: -6.004342818      1.496      5.619
REMARK  2 active torsions:
REMARK  status: ('A' for Active; 'I' for Inactive)
REMARK    1  A    between atoms: C2_2  and  N1_3 
REMARK       I    between atoms: N1_3  and  C3_5 
REMARK       I    between atoms: C3_5  and  N2_7 
REMARK    2  A    between atoms: N2_7  and  C4_9 
ROOT
HETATM    1  N1  UNL     1      -8.319 -44.878  10.234  1.00  0.00    -0.343 N 
ATOM      2  H1  UNL     1      -8.782 -45.673  10.676  1.00  0.00     0.164 HD
HETATM    3  C3  UNL     1      -7.473 -44.031  10.987  1.00  0.00     0.316 C 
HETATM    4  O1  UNL     1      -6.893 -43.044  10.460  1.00  0.00    -0.247 OA
HETATM    5  N2  UNL     1      -7.240 -44.253  12.372  1.00  0.00    -0.339 N 
ATOM      6  H2  UNL     1      -7.696 -45.044  12.827  1.00  0.00     0.164 HD
ENDROOT
BRANCH   5   7
HETATM    7  C4  UNL     1      -6.377 -43.398  13.160  1.00  0.00     0.086 C 
HETATM    8  C5  UNL     1      -5.290 -44.152  13.818  1.00  0.00     0.025 C 
HETATM    9  C6  UNL     1      -5.066 -43.883  15.260  1.00  0.00     0.002 C 
HETATM   10  C7  UNL     1      -5.472 -42.569  15.778  1.00  0.00     0.000 C 
HETATM   11  C8  UNL     1      -6.225 -41.691  14.837  1.00  0.00     0.002 C 
HETATM   12  C9  UNL     1      -7.240 -42.606  14.137  1.00  0.00     0.025 C 
ENDBRANCH   5   7
BRANCH   1  13
HETATM   13  C2  UNL     1      -8.518 -44.600   8.826  1.00  0.00     0.120 C 
HETATM   14  C1  UNL     1      -7.615 -45.543   8.053  1.00  0.00     0.026 C 
ENDBRANCH   1  13
TORSDOF 2
ENDMDL
MODEL 5
REMARK VINA RESULT: -5.912392703      1.618      5.671
REMARK  2 active torsions:
REMARK  status: ('A' for Active; 'I' for Inactive)
REMARK    1  A    between atoms: C2_2  and  N1_3 
REMARK       I    between atoms: N1_3  and  C3_5 
REMARK       I    between atoms: C3_5  and  N2_7 
REMARK    2  A    between atoms: N2_7  and  C4_9 
ROOT
HETATM    1  N1  UNL     1      -8.523 -44.770  10.160  1.00  0.00    -0.343 N 
ATOM      2  H1  UNL     1      -8.618 -45.749  10.431  1.00  0.00     0.164 HD
HETATM    3  C3  UNL     1      -7.820 -43.862  10.985  1.00  0.00     0.316 C 
HETATM    4  O1  UNL     1      -7.692 -42.649  10.667  1.00  0.00    -0.247 OA
HETATM    5  N2  UNL     1      -7.226 -44.275  12.209  1.00  0.00    -0.339 N 
ATOM      6  H2  UNL     1      -7.314 -45.251  12.493  1.00  0.00     0.164 HD
ENDROOT
BRANCH   5   7
HETATM    7  C4  UNL     1      -6.503 -43.360  13.067  1.00  0.00     0.086 C 
HETATM    8  C5  UNL     1      -5.311 -43.988  13.676  1.00  0.00     0.025 C 
HETATM    9  C6  UNL     1      -5.127 -43.799  15.136  1.00  0.00     0.002 C 
HETATM   10  C7  UNL     1      -5.728 -42.606  15.749  1.00  0.00     0.000 C 
HETATM   11  C8  UNL     1      -6.609 -41.784  14.870  1.00  0.00     0.002 C 
HETATM   12  C9  UNL     1      -7.474 -42.787  14.094  1.00  0.00     0.025 C 
ENDBRANCH   5   7
BRANCH   1  13
HETATM   13  C2  UNL     1      -9.106 -44.290   8.923  1.00  0.00     0.120 C 
HETATM   14  C1  UNL     1     -10.607 -44.221   9.135  1.00  0.00     0.026 C 
ENDBRANCH   1  13
TORSDOF 2
ENDMDL
