MODEL 1
REMARK VINA RESULT: -6.101231565      0.000      0.000
REMARK  2 active torsions:
REMARK  status: ('A' for Active; 'I' for Inactive)
REMARK       I    between atoms: C1_2  and  N1_3 
REMARK       I    between atoms: C1_2  and  N2_10 
REMARK    1  A    between atoms: N1_3  and  C2_5 
REMARK    2  A    between atoms: N2_10  and  C7_12 
ROOT
HETATM    1  O1  UNL     1      -7.448 -41.998  13.461  1.00  0.00    -0.247 OA
HETATM    2  C1  UNL     1      -7.159 -43.222  13.338  1.00  0.00     0.316 C 
HETATM    3  N1  UNL     1      -7.274 -43.902  12.104  1.00  0.00    -0.339 N 
ATOM      4  H1  UNL     1      -7.031 -44.891  12.048  1.00  0.00     0.164 HD
HETATM    5  N2  UNL     1      -6.708 -43.916  14.490  1.00  0.00    -0.339 N 
ATOM      6  H2  UNL     1      -6.469 -44.904  14.416  1.00  0.00     0.164 HD
ENDROOT
BRANCH   3   7
HETATM    7  C2  UNL     1      -7.727 -43.219  10.930  1.00  0.00     0.086 C 
HETATM    8  C3  UNL     1      -9.239 -43.472  10.831  1.00  0.00     0.025 C 
HETATM    9  C4  UNL     1      -9.281 -44.921  10.452  1.00  0.00     0.002 C 
HETATM   10  C5  UNL     1      -7.976 -45.266   9.809  1.00  0.00     0.002 C 
HETATM   11  C6  UNL     1      -7.281 -43.936   9.649  1.00  0.00     0.025 C 
ENDBRANCH   3   7
BRANCH   5  12
HETATM   12  C7  UNL     1      -6.580 -43.254  15.758  1.00  0.00     0.086 A 
HETATM   13  C8  UNL     1      -7.717 -43.366  16.724  1.00  0.00     0.027 A 
HETATM   14  C9  UNL     1      -6.440 -44.094  17.012  1.00  0.00     0.027 A 
ENDBRANCH   5  12
TORSDOF 2
ENDMDL
MODEL 2
REMARK VINA RESULT: -6.072798672      0.889      5.500
REMARK  2 active torsions:
REMARK  status: ('A' for Active; 'I' for Inactive)
REMARK       I    between atoms: C1_2  and  N1_3 
REMARK       I    between atoms: C1_2  and  N2_10 
REMARK    1  A    between atoms: N1_3  and  C2_5 
REMARK    2  A    between atoms: N2_10  and  C7_12 
ROOT
HETATM    1  O1  UNL     1      -7.609 -42.114  12.395  1.00  0.00    -0.247 OA
HETATM    2  C1  UNL     1      -7.393 -43.292  12.799  1.00  0.00     0.316 C 
HETATM    3  N1  UNL     1      -7.109 -43.584  14.153  1.00  0.00    -0.339 N 
ATOM      4  H1  UNL     1      -6.940 -44.549  14.436  1.00  0.00     0.164 HD
HETATM    5  N2  UNL     1      -7.441 -44.339  11.843  1.00  0.00    -0.339 N 
ATOM      6  H2  UNL     1      -7.270 -45.298  12.144  1.00  0.00     0.164 HD
ENDROOT
BRANCH   3   7
HETATM    7  C2  UNL     1      -7.057 -42.540  15.132  1.00  0.00     0.086 C 
HETATM    8  C3  UNL     1      -5.570 -42.262  15.398  1.00  0.00     0.025 C 
HETATM    9  C4  UNL     1      -5.158 -43.492  16.148  1.00  0.00     0.002 C 
HETATM   10  C5  UNL     1      -6.384 -44.082  16.769  1.00  0.00     0.002 C 
HETATM   11  C6  UNL     1      -7.456 -43.049  16.523  1.00  0.00     0.025 C 
ENDBRANCH   3   7
BRANCH   5  12
HETATM   12  C7  UNL     1      -7.726 -44.076  10.460  1.00  0.00     0.086 A 
HETATM   13  C8  UNL     1      -7.797 -45.241   9.525  1.00  0.00     0.027 A 
HETATM   14  C9  UNL     1      -9.058 -44.519   9.890  1.00  0.00     0.027 A 
ENDBRANCH   5  12
TORSDOF 2
ENDMDL
MODEL 3
REMARK VINA RESULT: -6.062954701      2.175      5.533
REMARK  2 active torsions:
REMARK  status: ('A' for Active; 'I' for Inactive)
REMARK       I    between atoms: C1_2  and  N1_3 
REMARK       I    between atoms: C1_2  and  N2_10 
REMARK    1  A    between atoms: N1_3  and  C2_5 
REMARK    2  A    between atoms: N2_10  and  C7_12 
ROOT
HETATM    1  O1  UNL     1      -9.218 -41.343  11.499  1.00  0.00    -0.247 OA
HETATM    2  C1  UNL     1      -8.937 -42.574  11.528  1.00  0.00     0.316 C 
HETATM    3  N1  UNL     1      -8.021 -43.116  12.458  1.00  0.00    -0.339 N 
ATOM      4  H1  UNL     1      -7.822 -44.116  12.446  1.00  0.00     0.164 HD
HETATM    5  N2  UNL     1      -9.574 -43.422  10.585  1.00  0.00    -0.339 N 
ATOM      6  H2  UNL     1      -9.363 -44.419  10.588  1.00  0.00     0.164 HD
ENDROOT
BRANCH   3   7
HETATM    7  C2  UNL     1      -7.368 -42.276  13.418  1.00  0.00     0.086 C 
HETATM    8  C3  UNL     1      -5.861 -42.385  13.142  1.00  0.00     0.025 C 
HETATM    9  C4  UNL     1      -5.564 -43.777  13.609  1.00  0.00     0.002 C 
HETATM   10  C5  UNL     1      -6.621 -44.165  14.593  1.00  0.00     0.002 C 
HETATM   11  C6  UNL     1      -7.398 -42.893  14.822  1.00  0.00     0.025 C 
ENDBRANCH   3   7
BRANCH   5  12
HETATM   12  C7  UNL     1     -10.510 -42.903   9.627  1.00  0.00     0.086 A 
HETATM   13  C8  UNL     1     -10.159 -43.008   8.177  1.00  0.00     0.027 A 
HETATM   14  C9  UNL     1     -11.251 -43.872   8.729  1.00  0.00     0.027 A 
ENDBRANCH   5  12
TORSDOF 2
ENDMDL
MODEL 4
REMARK VINA RESULT: -5.963900413      2.601      3.765
REMARK  2 active torsions:
REMARK  status: ('A' for Active; 'I' for Inactive)
REMARK       I    between atoms: C1_2  and  N1_3 
REMARK       I    between atoms: C1_2  and  N2_10 
REMARK    1  A    between atoms: N1_3  and  C2_5 
REMARK    2  A    between atoms: N2_10  and  C7_12 
ROOT
HETATM    1  O1  UNL     1      -8.349 -44.981  10.915  1.00  0.00    -0.247 OA
HETATM    2  C1  UNL     1      -8.290 -43.806  10.455  1.00  0.00     0.316 C 
HETATM    3  N1  UNL     1      -8.690 -43.493   9.135  1.00  0.00    -0.339 N 
ATOM      4  H1  UNL     1      -8.625 -42.531   8.803  1.00  0.00     0.164 HD
HETATM    5  N2  UNL     1      -7.803 -42.783  11.309  1.00  0.00    -0.339 N 
ATOM      6  H2  UNL     1      -7.745 -41.827  10.961  1.00  0.00     0.164 HD
ENDROOT
BRANCH   3   7
HETATM    7  C2  UNL     1      -9.185 -44.512   8.259  1.00  0.00     0.086 C 
HETATM    8  C3  UNL     1      -7.986 -44.997   7.429  1.00  0.00     0.025 C 
HETATM    9  C4  UNL     1      -7.743 -43.824   6.529  1.00  0.00     0.002 C 
HETATM   10  C5  UNL     1      -9.018 -43.049   6.431  1.00  0.00     0.002 C 
HETATM   11  C6  UNL     1     -10.034 -43.921   7.127  1.00  0.00     0.025 C 
ENDBRANCH   3   7
BRANCH   5  12
HETATM   12  C7  UNL     1      -7.389 -43.068  12.654  1.00  0.00     0.086 A 
HETATM   13  C8  UNL     1      -6.042 -42.586  13.090  1.00  0.00     0.027 A 
HETATM   14  C9  UNL     1      -7.267 -41.924  13.641  1.00  0.00     0.027 A 
ENDBRANCH   5  12
TORSDOF 2
ENDMDL
MODEL 5
REMARK VINA RESULT: -5.954528822      1.882      2.060
REMARK  2 active torsions:
REMARK  status: ('A' for Active; 'I' for Inactive)
REMARK       I    between atoms: C1_2  and  N1_3 
REMARK       I    between atoms: C1_2  and  N2_10 
REMARK    1  A    between atoms: N1_3  and  C2_5 
REMARK    2  A    between atoms: N2_10  and  C7_12 
ROOT
HETATM    1  O1  UNL     1      -5.258 -42.611  12.532  1.00  0.00    -0.247 OA
HETATM    2  C1  UNL     1      -5.864 -43.679  12.829  1.00  0.00     0.316 C 
HETATM    3  N1  UNL     1      -7.051 -44.079  12.173  1.00  0.00    -0.339 N 
ATOM      4  H1  UNL     1      -7.509 -44.948  12.444  1.00  0.00     0.164 HD
HETATM    5  N2  UNL     1      -5.317 -44.487  13.859  1.00  0.00    -0.339 N 
ATOM      6  H2  UNL     1      -5.789 -45.354  14.117  1.00  0.00     0.164 HD
ENDROOT
BRANCH   3   7
HETATM    7  C2  UNL     1      -7.617 -43.276  11.130  1.00  0.00     0.086 C 
HETATM    8  C3  UNL     1      -9.121 -43.589  11.104  1.00  0.00     0.025 C 
HETATM    9  C4  UNL     1      -9.134 -44.980  10.546  1.00  0.00     0.002 C 
HETATM   10  C5  UNL     1      -7.867 -45.176   9.776  1.00  0.00     0.002 C 
HETATM   11  C6  UNL     1      -7.240 -43.805   9.741  1.00  0.00     0.025 C 
ENDBRANCH   3   7
BRANCH   5  12
HETATM   12  C7  UNL     1      -4.114 -44.110  14.545  1.00  0.00     0.086 A 
HETATM   13  C8  UNL     1      -4.001 -44.446  15.998  1.00  0.00     0.027 A 
HETATM   14  C9  UNL     1      -3.163 -45.195  15.009  1.00  0.00     0.027 A 
ENDBRANCH   5  12
TORSDOF 2
ENDMDL
