MODEL 1
REMARK VINA RESULT: -5.126247154      0.000      0.000
REMARK  5 active torsions:
REMARK  status: ('A' for Active; 'I' for Inactive)
REMARK    1  A    between atoms: N1_2  and  C2_4 
REMARK    2  A    between atoms: C2_4  and  N2_6 
REMARK    3  A    between atoms: N2_6  and  C3_8 
REMARK    4  A    between atoms: C3_8  and  C4_12 
REMARK    5  A    between atoms: C4_12  and  C5_13 
ROOT
HETATM    1  C3  UNL     1      -7.188 -43.506  12.723  1.00  0.00     0.077 C 
HETATM    2  N3  UNL     1      -6.195 -44.271  12.979  1.00  0.00    -0.389 N 
ATOM      3  H31 UNL     1      -5.746 -44.774  12.215  1.00  0.00     0.157 HD
ATOM      4  H32 UNL     1      -5.869 -44.366  13.941  1.00  0.00     0.157 HD
ENDROOT
BRANCH   1   5
HETATM    5  N2  UNL     1      -7.814 -42.805  13.788  1.00  0.00    -0.323 N 
ATOM      6  H2  UNL     1      -8.789 -42.525  13.678  1.00  0.00     0.169 HD
BRANCH   5   7
HETATM    7  C2  UNL     1      -7.151 -42.477  14.992  1.00  0.00     0.172 C 
HETATM    8  S1  UNL     1      -7.386 -43.409  16.303  1.00  0.00    -0.041 SA
BRANCH   7   9
HETATM    9  N1  UNL     1      -6.286 -41.367  15.100  1.00  0.00    -0.371 N 
HETATM   10  C1  UNL     1      -4.843 -41.604  15.233  1.00  0.00     0.148 C 
ATOM     11  H1  UNL     1      -6.658 -40.417  15.085  1.00  0.00     0.161 HD
ENDBRANCH   7   9
ENDBRANCH   5   7
ENDBRANCH   1   5
BRANCH   1  12
HETATM   12  C4  UNL     1      -7.657 -43.369  11.341  1.00  0.00     0.079 C 
BRANCH  12  13
HETATM   13  C5  UNL     1      -8.340 -44.590  10.805  1.00  0.00    -0.016 C 
HETATM   14  C6  UNL     1      -7.695 -45.175   9.598  1.00  0.00     0.010 C 
HETATM   15  C7  UNL     1      -9.798 -44.374  10.519  1.00  0.00     0.010 C 
ENDBRANCH  12  13
ENDBRANCH   1  12
TORSDOF 5
ENDMDL
MODEL 2
REMARK VINA RESULT: -4.979851831      2.568      3.468
REMARK  5 active torsions:
REMARK  status: ('A' for Active; 'I' for Inactive)
REMARK    1  A    between atoms: N1_2  and  C2_4 
REMARK    2  A    between atoms: C2_4  and  N2_6 
REMARK    3  A    between atoms: N2_6  and  C3_8 
REMARK    4  A    between atoms: C3_8  and  C4_12 
REMARK    5  A    between atoms: C4_12  and  C5_13 
ROOT
HETATM    1  C3  UNL     1      -8.315 -44.780  10.585  1.00  0.00     0.077 C 
HETATM    2  N3  UNL     1      -7.682 -45.252   9.578  1.00  0.00    -0.389 N 
ATOM      3  H31 UNL     1      -8.203 -45.506   8.739  1.00  0.00     0.157 HD
ATOM      4  H32 UNL     1      -6.670 -45.370   9.631  1.00  0.00     0.157 HD
ENDROOT
BRANCH   1   5
HETATM    5  N2  UNL     1      -7.590 -44.426  11.754  1.00  0.00    -0.323 N 
ATOM      6  H2  UNL     1      -7.485 -45.125  12.490  1.00  0.00     0.169 HD
BRANCH   5   7
HETATM    7  C2  UNL     1      -7.007 -43.153  11.946  1.00  0.00     0.172 C 
HETATM    8  S1  UNL     1      -7.930 -41.938  12.505  1.00  0.00    -0.041 SA
BRANCH   7   9
HETATM    9  N1  UNL     1      -5.647 -42.896  11.671  1.00  0.00    -0.371 N 
HETATM   10  C1  UNL     1      -5.259 -42.526  10.304  1.00  0.00     0.148 C 
ATOM     11  H1  UNL     1      -4.946 -42.966  12.409  1.00  0.00     0.161 HD
ENDBRANCH   7   9
ENDBRANCH   5   7
ENDBRANCH   1   5
BRANCH   1  12
HETATM   12  C4  UNL     1      -9.768 -44.611  10.510  1.00  0.00     0.079 C 
BRANCH  12  13
HETATM   13  C5  UNL     1     -10.215 -43.626   9.473  1.00  0.00    -0.016 C 
HETATM   14  C6  UNL     1     -10.843 -42.395  10.024  1.00  0.00     0.010 C 
HETATM   15  C7  UNL     1     -11.137 -44.223   8.448  1.00  0.00     0.010 C 
ENDBRANCH  12  13
ENDBRANCH   1  12
TORSDOF 5
ENDMDL
MODEL 3
REMARK VINA RESULT: -4.949309966      2.393      4.936
REMARK  5 active torsions:
REMARK  status: ('A' for Active; 'I' for Inactive)
REMARK    1  A    between atoms: N1_2  and  C2_4 
REMARK    2  A    between atoms: C2_4  and  N2_6 
REMARK    3  A    between atoms: N2_6  and  C3_8 
REMARK    4  A    between atoms: C3_8  and  C4_12 
REMARK    5  A    between atoms: C4_12  and  C5_13 
ROOT
HETATM    1  C3  UNL     1      -6.491 -43.776  12.426  1.00  0.00     0.077 C 
HETATM    2  N3  UNL     1      -5.612 -43.131  11.758  1.00  0.00    -0.389 N 
ATOM      3  H31 UNL     1      -4.821 -42.714  12.249  1.00  0.00     0.157 HD
ATOM      4  H32 UNL     1      -5.714 -43.042  10.746  1.00  0.00     0.157 HD
ENDROOT
BRANCH   1   5
HETATM    5  N2  UNL     1      -7.591 -44.357  11.743  1.00  0.00    -0.323 N 
ATOM      6  H2  UNL     1      -7.826 -45.330  11.938  1.00  0.00     0.169 HD
BRANCH   5   7
HETATM    7  C2  UNL     1      -8.377 -43.651  10.804  1.00  0.00     0.172 C 
HETATM    8  S1  UNL     1      -9.387 -42.492  11.331  1.00  0.00    -0.041 SA
BRANCH   7   9
HETATM    9  N1  UNL     1      -8.317 -43.914   9.419  1.00  0.00    -0.371 N 
HETATM   10  C1  UNL     1      -7.635 -45.130   8.958  1.00  0.00     0.148 C 
ATOM     11  H1  UNL     1      -8.741 -43.270   8.749  1.00  0.00     0.161 HD
ENDBRANCH   7   9
ENDBRANCH   5   7
ENDBRANCH   1   5
BRANCH   1  12
HETATM   12  C4  UNL     1      -6.343 -43.904  13.879  1.00  0.00     0.079 C 
BRANCH  12  13
HETATM   13  C5  UNL     1      -7.164 -42.926  14.663  1.00  0.00    -0.016 C 
HETATM   14  C6  UNL     1      -6.558 -41.573  14.785  1.00  0.00     0.010 C 
HETATM   15  C7  UNL     1      -7.524 -43.421  16.034  1.00  0.00     0.010 C 
ENDBRANCH  12  13
ENDBRANCH   1  12
TORSDOF 5
ENDMDL
MODEL 4
REMARK VINA RESULT: -4.936759845      2.473      3.367
REMARK  5 active torsions:
REMARK  status: ('A' for Active; 'I' for Inactive)
REMARK    1  A    between atoms: N1_2  and  C2_4 
REMARK    2  A    between atoms: C2_4  and  N2_6 
REMARK    3  A    between atoms: N2_6  and  C3_8 
REMARK    4  A    between atoms: C3_8  and  C4_12 
REMARK    5  A    between atoms: C4_12  and  C5_13 
ROOT
HETATM    1  C3  UNL     1      -8.289 -44.760  10.522  1.00  0.00     0.077 C 
HETATM    2  N3  UNL     1      -7.643 -45.070   9.462  1.00  0.00    -0.389 N 
ATOM      3  H31 UNL     1      -8.154 -45.195   8.588  1.00  0.00     0.157 HD
ATOM      4  H32 UNL     1      -6.631 -45.189   9.506  1.00  0.00     0.157 HD
ENDROOT
BRANCH   1   5
HETATM    5  N2  UNL     1      -7.578 -44.586  11.738  1.00  0.00    -0.323 N 
ATOM      6  H2  UNL     1      -7.571 -45.353  12.410  1.00  0.00     0.169 HD
BRANCH   5   7
HETATM    7  C2  UNL     1      -6.881 -43.401  12.063  1.00  0.00     0.172 C 
HETATM    8  S1  UNL     1      -5.583 -43.489  13.038  1.00  0.00    -0.041 SA
BRANCH   7   9
HETATM    9  N1  UNL     1      -7.268 -42.137  11.569  1.00  0.00    -0.371 N 
HETATM   10  C1  UNL     1      -8.252 -41.352  12.324  1.00  0.00     0.148 C 
ATOM     11  H1  UNL     1      -6.870 -41.775  10.701  1.00  0.00     0.161 HD
ENDBRANCH   7   9
ENDBRANCH   5   7
ENDBRANCH   1   5
BRANCH   1  12
HETATM   12  C4  UNL     1      -9.743 -44.589  10.458  1.00  0.00     0.079 C 
BRANCH  12  13
HETATM   13  C5  UNL     1     -10.200 -43.654   9.379  1.00  0.00    -0.016 C 
HETATM   14  C6  UNL     1     -10.839 -42.406   9.878  1.00  0.00     0.010 C 
HETATM   15  C7  UNL     1     -11.116 -44.303   8.382  1.00  0.00     0.010 C 
ENDBRANCH  12  13
ENDBRANCH   1  12
TORSDOF 5
ENDMDL
MODEL 5
REMARK VINA RESULT: -4.928498969      2.207      4.946
REMARK  5 active torsions:
REMARK  status: ('A' for Active; 'I' for Inactive)
REMARK    1  A    between atoms: N1_2  and  C2_4 
REMARK    2  A    between atoms: C2_4  and  N2_6 
REMARK    3  A    between atoms: N2_6  and  C3_8 
REMARK    4  A    between atoms: C3_8  and  C4_12 
REMARK    5  A    between atoms: C4_12  and  C5_13 
ROOT
HETATM    1  C3  UNL     1      -4.842 -42.983  14.543  1.00  0.00     0.077 C 
HETATM    2  N3  UNL     1      -3.810 -43.738  14.577  1.00  0.00    -0.389 N 
ATOM      3  H31 UNL     1      -3.482 -44.090  15.476  1.00  0.00     0.157 HD
ATOM      4  H32 UNL     1      -3.331 -43.975  13.708  1.00  0.00     0.157 HD
ENDROOT
BRANCH   1   5
HETATM    5  N2  UNL     1      -5.300 -42.494  13.291  1.00  0.00    -0.323 N 
ATOM      6  H2  UNL     1      -4.700 -41.853  12.772  1.00  0.00     0.169 HD
BRANCH   5   7
HETATM    7  C2  UNL     1      -6.546 -42.852  12.730  1.00  0.00     0.172 C 
HETATM    8  S1  UNL     1      -7.768 -41.781  12.769  1.00  0.00    -0.041 SA
BRANCH   7   9
HETATM    9  N1  UNL     1      -6.771 -44.111  12.133  1.00  0.00    -0.371 N 
HETATM   10  C1  UNL     1      -7.547 -44.175  10.888  1.00  0.00     0.148 C 
ATOM     11  H1  UNL     1      -6.401 -44.961  12.559  1.00  0.00     0.161 HD
ENDBRANCH   7   9
ENDBRANCH   5   7
ENDBRANCH   1   5
BRANCH   1  12
HETATM   12  C4  UNL     1      -5.530 -42.643  15.791  1.00  0.00     0.079 C 
BRANCH  12  13
HETATM   13  C5  UNL     1      -6.417 -43.732  16.315  1.00  0.00    -0.016 C 
HETATM   14  C6  UNL     1      -7.857 -43.366  16.394  1.00  0.00     0.010 C 
HETATM   15  C7  UNL     1      -5.977 -44.262  17.649  1.00  0.00     0.010 C 
ENDBRANCH  12  13
ENDBRANCH   1  12
TORSDOF 5
ENDMDL
