MODEL 1
REMARK VINA RESULT: -9.242098512      0.000      0.000
REMARK  7 active torsions:
REMARK  status: ('A' for Active; 'I' for Inactive)
REMARK    1  A    between atoms: O1_2  and  C2_3 
REMARK    2  A    between atoms: C4_5  and  C5_6 
REMARK    3  A    between atoms: C5_6  and  C7_9 
REMARK    4  A    between atoms: C5_6  and  O2_16 
REMARK    5  A    between atoms: C7_9  and  N2_10 
REMARK    6  A    between atoms: O2_16  and  C13_17 
REMARK    7  A    between atoms: C20_25  and  N3_26 
ROOT
HETATM    1  C5  UNL     1     -19.243   5.062  -9.973  1.00  0.00     0.206 C 
HETATM    2  C6  UNL     1     -18.357   4.559 -11.079  1.00  0.00     0.105 C 
HETATM    3  N1  UNL     1     -17.637   4.158 -11.905  1.00  0.00    -0.194 NA
ENDROOT
BRANCH   1   4
HETATM    4  C4  UNL     1     -20.002   3.822  -9.461  1.00  0.00     0.034 A 
HETATM    5  C3  UNL     1     -19.861   2.633 -10.125  1.00  0.00     0.053 A 
HETATM    6  C2  UNL     1     -20.555   1.506  -9.697  1.00  0.00     0.095 A 
HETATM    7  C20 UNL     1     -21.371   1.642  -8.602  1.00  0.00     0.069 A 
HETATM    8  C19 UNL     1     -21.523   2.825  -7.924  1.00  0.00     0.075 A 
HETATM    9  C18 UNL     1     -20.811   3.959  -8.371  1.00  0.00     0.129 A 
HETATM   10  F1  UNL     1     -20.966   5.094  -7.666  1.00  0.00    -0.205 F 
BRANCH   6  11
HETATM   11  O1  UNL     1     -20.400   0.303 -10.385  1.00  0.00    -0.354 OA
HETATM   12  C1  UNL     1     -20.516   0.262 -11.784  1.00  0.00     0.210 C 
ENDBRANCH   6  11
BRANCH   7  13
HETATM   13  N3  UNL     1     -22.103   0.524  -8.130  1.00  0.00    -0.344 N 
HETATM   14  C21 UNL     1     -21.496  -0.370  -7.197  1.00  0.00     0.152 C 
HETATM   15  C22 UNL     1     -22.480  -1.381  -6.642  1.00  0.00     0.187 C 
HETATM   16  O3  UNL     1     -23.412  -1.761  -7.633  1.00  0.00    -0.385 OA
HETATM   17  C23 UNL     1     -24.224  -0.648  -7.842  1.00  0.00     0.226 C 
HETATM   18  C24 UNL     1     -23.455   0.375  -8.636  1.00  0.00     0.295 C 
HETATM   19  F2  UNL     1     -24.106   1.595  -8.542  1.00  0.00    -0.225 F 
ENDBRANCH   7  13
ENDBRANCH   1   4
BRANCH   1  20
HETATM   20  C7  UNL     1     -20.307   5.884 -10.627  1.00  0.00     0.331 C 
BRANCH  20  21
HETATM   21  N2  UNL     1     -19.886   6.717 -11.751  1.00  0.00     0.092 N 
HETATM   22  C8  UNL     1     -19.824   8.120 -11.274  1.00  0.00     0.272 C 
HETATM   23  C9  UNL     1     -21.154   8.640 -10.860  1.00  0.00     0.030 C 
HETATM   24  C10 UNL     1     -22.070   8.749 -12.071  1.00  0.00     0.003 C 
HETATM   25  C11 UNL     1     -21.374   8.059 -13.213  1.00  0.00     0.030 C 
HETATM   26  C12 UNL     1     -20.963   6.670 -12.746  1.00  0.00     0.272 C 
ENDBRANCH  20  21
ENDBRANCH   1  20
BRANCH   1  27
HETATM   27  O2  UNL     1     -18.620   5.685  -9.073  1.00  0.00    -0.354 OA
BRANCH  27  28
HETATM   28  C13 UNL     1     -18.024   6.287  -8.169  1.00  0.00     0.124 C 
HETATM   29  C14 UNL     1     -17.856   5.581  -6.809  1.00  0.00     0.032 C 
HETATM   30  C15 UNL     1     -18.087   6.611  -5.748  1.00  0.00     0.002 C 
HETATM   31  C16 UNL     1     -18.830   7.731  -6.399  1.00  0.00     0.002 C 
HETATM   32  C17 UNL     1     -18.373   7.729  -7.843  1.00  0.00     0.032 C 
ENDBRANCH  27  28
ENDBRANCH   1  27
TORSDOF 7
ENDMDL
MODEL 2
REMARK VINA RESULT: -9.160024940      1.384      1.918
REMARK  7 active torsions:
REMARK  status: ('A' for Active; 'I' for Inactive)
REMARK    1  A    between atoms: O1_2  and  C2_3 
REMARK    2  A    between atoms: C4_5  and  C5_6 
REMARK    3  A    between atoms: C5_6  and  C7_9 
REMARK    4  A    between atoms: C5_6  and  O2_16 
REMARK    5  A    between atoms: C7_9  and  N2_10 
REMARK    6  A    between atoms: O2_16  and  C13_17 
REMARK    7  A    between atoms: C20_25  and  N3_26 
ROOT
HETATM    1  C5  UNL     1     -19.420   5.104 -10.133  1.00  0.00     0.206 C 
HETATM    2  C6  UNL     1     -18.534   4.484 -11.178  1.00  0.00     0.105 C 
HETATM    3  N1  UNL     1     -17.816   3.991 -11.955  1.00  0.00    -0.194 NA
ENDROOT
BRANCH   1   4
HETATM    4  C4  UNL     1     -20.286   3.950  -9.594  1.00  0.00     0.034 A 
HETATM    5  C3  UNL     1     -20.284   3.684  -8.251  1.00  0.00     0.053 A 
HETATM    6  C2  UNL     1     -21.039   2.631  -7.745  1.00  0.00     0.095 A 
HETATM    7  C20 UNL     1     -21.769   1.888  -8.637  1.00  0.00     0.069 A 
HETATM    8  C19 UNL     1     -21.784   2.140  -9.986  1.00  0.00     0.075 A 
HETATM    9  C18 UNL     1     -21.013   3.212 -10.483  1.00  0.00     0.129 A 
HETATM   10  F1  UNL     1     -21.073   3.445 -11.806  1.00  0.00    -0.205 F 
BRANCH   6  11
HETATM   11  O1  UNL     1     -21.024   2.375  -6.374  1.00  0.00    -0.354 OA
HETATM   12  C1  UNL     1     -20.345   3.234  -5.495  1.00  0.00     0.210 C 
ENDBRANCH   6  11
BRANCH   7  13
HETATM   13  N3  UNL     1     -22.551   0.802  -8.171  1.00  0.00    -0.344 N 
HETATM   14  C21 UNL     1     -21.935  -0.468  -7.962  1.00  0.00     0.152 C 
HETATM   15  C22 UNL     1     -22.859  -1.451  -7.270  1.00  0.00     0.187 C 
HETATM   16  O3  UNL     1     -24.192  -1.263  -7.697  1.00  0.00    -0.385 OA
HETATM   17  C23 UNL     1     -24.600  -0.047  -7.152  1.00  0.00     0.226 C 
HETATM   18  C24 UNL     1     -23.956   1.074  -7.925  1.00  0.00     0.295 C 
HETATM   19  F2  UNL     1     -24.064   2.244  -7.188  1.00  0.00    -0.225 F 
ENDBRANCH   7  13
ENDBRANCH   1   4
BRANCH   1  20
HETATM   20  C7  UNL     1     -20.395   5.967 -10.867  1.00  0.00     0.331 C 
BRANCH  20  21
HETATM   21  N2  UNL     1     -19.852   6.794 -11.941  1.00  0.00     0.092 N 
HETATM   22  C8  UNL     1     -19.884   8.205 -11.486  1.00  0.00     0.272 C 
HETATM   23  C9  UNL     1     -21.268   8.698 -11.256  1.00  0.00     0.030 C 
HETATM   24  C10 UNL     1     -22.022   8.767 -12.577  1.00  0.00     0.003 C 
HETATM   25  C11 UNL     1     -21.168   8.077 -13.607  1.00  0.00     0.030 C 
HETATM   26  C12 UNL     1     -20.789   6.706 -13.066  1.00  0.00     0.272 C 
ENDBRANCH  20  21
ENDBRANCH   1  20
BRANCH   1  27
HETATM   27  O2  UNL     1     -18.785   5.725  -9.240  1.00  0.00    -0.354 OA
BRANCH  27  28
HETATM   28  C13 UNL     1     -18.167   6.358  -8.373  1.00  0.00     0.124 C 
HETATM   29  C14 UNL     1     -17.809   5.636  -7.059  1.00  0.00     0.032 C 
HETATM   30  C15 UNL     1     -18.035   6.612  -5.945  1.00  0.00     0.002 C 
HETATM   31  C16 UNL     1     -18.938   7.671  -6.489  1.00  0.00     0.002 C 
HETATM   32  C17 UNL     1     -18.618   7.751  -7.967  1.00  0.00     0.032 C 
ENDBRANCH  27  28
ENDBRANCH   1  27
TORSDOF 7
ENDMDL
MODEL 3
REMARK VINA RESULT: -9.108833648      0.819      1.177
REMARK  7 active torsions:
REMARK  status: ('A' for Active; 'I' for Inactive)
REMARK    1  A    between atoms: O1_2  and  C2_3 
REMARK    2  A    between atoms: C4_5  and  C5_6 
REMARK    3  A    between atoms: C5_6  and  C7_9 
REMARK    4  A    between atoms: C5_6  and  O2_16 
REMARK    5  A    between atoms: C7_9  and  N2_10 
REMARK    6  A    between atoms: O2_16  and  C13_17 
REMARK    7  A    between atoms: C20_25  and  N3_26 
ROOT
HETATM    1  C5  UNL     1     -19.224   5.084  -9.835  1.00  0.00     0.206 C 
HETATM    2  C6  UNL     1     -18.348   4.574 -10.946  1.00  0.00     0.105 C 
HETATM    3  N1  UNL     1     -17.638   4.165 -11.776  1.00  0.00    -0.194 NA
ENDROOT
BRANCH   1   4
HETATM    4  C4  UNL     1     -20.042   3.865  -9.366  1.00  0.00     0.034 A 
HETATM    5  C3  UNL     1     -19.932   2.685 -10.051  1.00  0.00     0.053 A 
HETATM    6  C2  UNL     1     -20.679   1.577  -9.661  1.00  0.00     0.095 A 
HETATM    7  C20 UNL     1     -21.513   1.723  -8.582  1.00  0.00     0.069 A 
HETATM    8  C19 UNL     1     -21.636   2.898  -7.884  1.00  0.00     0.075 A 
HETATM    9  C18 UNL     1     -20.871   4.012  -8.291  1.00  0.00     0.129 A 
HETATM   10  F1  UNL     1     -20.997   5.138  -7.567  1.00  0.00    -0.205 F 
BRANCH   6  11
HETATM   11  O1  UNL     1     -20.554   0.384 -10.371  1.00  0.00    -0.354 OA
HETATM   12  C1  UNL     1     -20.448   0.393 -11.771  1.00  0.00     0.210 C 
ENDBRANCH   6  11
BRANCH   7  13
HETATM   13  N3  UNL     1     -22.299   0.626  -8.149  1.00  0.00    -0.344 N 
HETATM   14  C21 UNL     1     -23.579   0.403  -8.739  1.00  0.00     0.152 C 
HETATM   15  C22 UNL     1     -24.188  -0.919  -8.314  1.00  0.00     0.187 C 
HETATM   16  O3  UNL     1     -23.858  -1.208  -6.972  1.00  0.00    -0.385 OA
HETATM   17  C23 UNL     1     -22.495  -1.500  -6.967  1.00  0.00     0.226 C 
HETATM   18  C24 UNL     1     -21.721  -0.217  -7.119  1.00  0.00     0.295 C 
HETATM   19  F2  UNL     1     -20.414  -0.522  -7.468  1.00  0.00    -0.225 F 
ENDBRANCH   7  13
ENDBRANCH   1   4
BRANCH   1  20
HETATM   20  C7  UNL     1     -20.244   5.969 -10.476  1.00  0.00     0.331 C 
BRANCH  20  21
HETATM   21  N2  UNL     1     -19.775   6.813 -11.573  1.00  0.00     0.092 N 
HETATM   22  C8  UNL     1     -19.756   8.215 -11.088  1.00  0.00     0.272 C 
HETATM   23  C9  UNL     1     -21.113   8.716 -10.741  1.00  0.00     0.030 C 
HETATM   24  C10 UNL     1     -21.965   8.820 -12.000  1.00  0.00     0.003 C 
HETATM   25  C11 UNL     1     -21.201   8.144 -13.105  1.00  0.00     0.030 C 
HETATM   26  C12 UNL     1     -20.797   6.758 -12.624  1.00  0.00     0.272 C 
ENDBRANCH  20  21
ENDBRANCH   1  20
BRANCH   1  27
HETATM   27  O2  UNL     1     -18.585   5.654  -8.912  1.00  0.00    -0.354 OA
BRANCH  27  28
HETATM   28  C13 UNL     1     -17.973   6.235  -8.005  1.00  0.00     0.124 C 
HETATM   29  C14 UNL     1     -17.865   5.537  -6.635  1.00  0.00     0.032 C 
HETATM   30  C15 UNL     1     -18.059   6.590  -5.588  1.00  0.00     0.002 C 
HETATM   31  C16 UNL     1     -18.733   7.739  -6.264  1.00  0.00     0.002 C 
HETATM   32  C17 UNL     1     -18.253   7.697  -7.700  1.00  0.00     0.032 C 
ENDBRANCH  27  28
ENDBRANCH   1  27
TORSDOF 7
ENDMDL
MODEL 4
REMARK VINA RESULT: -8.961534131      1.659      2.272
REMARK  7 active torsions:
REMARK  status: ('A' for Active; 'I' for Inactive)
REMARK    1  A    between atoms: O1_2  and  C2_3 
REMARK    2  A    between atoms: C4_5  and  C5_6 
REMARK    3  A    between atoms: C5_6  and  C7_9 
REMARK    4  A    between atoms: C5_6  and  O2_16 
REMARK    5  A    between atoms: C7_9  and  N2_10 
REMARK    6  A    between atoms: O2_16  and  C13_17 
REMARK    7  A    between atoms: C20_25  and  N3_26 
ROOT
HETATM    1  C5  UNL     1     -19.489   5.078 -10.349  1.00  0.00     0.206 C 
HETATM    2  C6  UNL     1     -18.571   4.309 -11.258  1.00  0.00     0.105 C 
HETATM    3  N1  UNL     1     -17.830   3.704 -11.926  1.00  0.00    -0.194 NA
ENDROOT
BRANCH   1   4
HETATM    4  C4  UNL     1     -20.438   4.026  -9.741  1.00  0.00     0.034 A 
HETATM    5  C3  UNL     1     -20.578   3.962  -8.382  1.00  0.00     0.053 A 
HETATM    6  C2  UNL     1     -21.410   3.004  -7.808  1.00  0.00     0.095 A 
HETATM    7  C20 UNL     1     -22.066   2.146  -8.655  1.00  0.00     0.069 A 
HETATM    8  C19 UNL     1     -21.937   2.197 -10.020  1.00  0.00     0.075 A 
HETATM    9  C18 UNL     1     -21.090   3.174 -10.585  1.00  0.00     0.129 A 
HETATM   10  F1  UNL     1     -21.009   3.210 -11.927  1.00  0.00    -0.205 F 
BRANCH   6  11
HETATM   11  O1  UNL     1     -21.541   2.953  -6.421  1.00  0.00    -0.354 OA
HETATM   12  C1  UNL     1     -20.446   3.239  -5.590  1.00  0.00     0.210 C 
ENDBRANCH   6  11
BRANCH   7  13
HETATM   13  N3  UNL     1     -22.920   1.151  -8.120  1.00  0.00    -0.344 N 
HETATM   14  C21 UNL     1     -24.315   1.420  -7.985  1.00  0.00     0.152 C 
HETATM   15  C22 UNL     1     -25.107   0.187  -7.596  1.00  0.00     0.187 C 
HETATM   16  O3  UNL     1     -24.356  -0.629  -6.722  1.00  0.00    -0.385 OA
HETATM   17  C23 UNL     1     -23.329  -1.172  -7.492  1.00  0.00     0.226 C 
HETATM   18  C24 UNL     1     -22.296  -0.107  -7.749  1.00  0.00     0.295 C 
HETATM   19  F2  UNL     1     -21.474  -0.523  -8.785  1.00  0.00    -0.225 F 
ENDBRANCH   7  13
ENDBRANCH   1   4
BRANCH   1  20
HETATM   20  C7  UNL     1     -20.380   5.887 -11.237  1.00  0.00     0.331 C 
BRANCH  20  21
HETATM   21  N2  UNL     1     -19.716   6.727 -12.231  1.00  0.00     0.092 N 
HETATM   22  C8  UNL     1     -19.887   8.140 -11.815  1.00  0.00     0.272 C 
HETATM   23  C9  UNL     1     -21.313   8.565 -11.811  1.00  0.00     0.030 C 
HETATM   24  C10 UNL     1     -21.854   8.579 -13.234  1.00  0.00     0.003 C 
HETATM   25  C11 UNL     1     -20.818   7.921 -14.105  1.00  0.00     0.030 C 
HETATM   26  C12 UNL     1     -20.462   6.577 -13.486  1.00  0.00     0.272 C 
ENDBRANCH  20  21
ENDBRANCH   1  20
BRANCH   1  27
HETATM   27  O2  UNL     1     -18.883   5.773  -9.492  1.00  0.00    -0.354 OA
BRANCH  27  28
HETATM   28  C13 UNL     1     -18.294   6.479  -8.661  1.00  0.00     0.124 C 
HETATM   29  C14 UNL     1     -17.750   5.804  -7.387  1.00  0.00     0.032 C 
HETATM   30  C15 UNL     1     -18.024   6.734  -6.246  1.00  0.00     0.002 C 
HETATM   31  C16 UNL     1     -19.096   7.666  -6.708  1.00  0.00     0.002 C 
HETATM   32  C17 UNL     1     -18.897   7.796  -8.203  1.00  0.00     0.032 C 
ENDBRANCH  27  28
ENDBRANCH   1  27
TORSDOF 7
ENDMDL
MODEL 5
REMARK VINA RESULT: -8.950657767      1.317      1.460
REMARK  7 active torsions:
REMARK  status: ('A' for Active; 'I' for Inactive)
REMARK    1  A    between atoms: O1_2  and  C2_3 
REMARK    2  A    between atoms: C4_5  and  C5_6 
REMARK    3  A    between atoms: C5_6  and  C7_9 
REMARK    4  A    between atoms: C5_6  and  O2_16 
REMARK    5  A    between atoms: C7_9  and  N2_10 
REMARK    6  A    between atoms: O2_16  and  C13_17 
REMARK    7  A    between atoms: C20_25  and  N3_26 
ROOT
HETATM    1  C5  UNL     1     -19.491   4.767 -10.592  1.00  0.00     0.206 C 
HETATM    2  C6  UNL     1     -18.419   4.098 -11.408  1.00  0.00     0.105 C 
HETATM    3  N1  UNL     1     -17.560   3.576 -12.001  1.00  0.00    -0.194 NA
ENDROOT
BRANCH   1   4
HETATM    4  C4  UNL     1     -20.323   3.617  -9.991  1.00  0.00     0.034 A 
HETATM    5  C3  UNL     1     -21.360   3.095 -10.715  1.00  0.00     0.053 A 
HETATM    6  C2  UNL     1     -22.141   2.074 -10.182  1.00  0.00     0.095 A 
HETATM    7  C20 UNL     1     -21.828   1.627  -8.923  1.00  0.00     0.069 A 
HETATM    8  C19 UNL     1     -20.792   2.139  -8.183  1.00  0.00     0.075 A 
HETATM    9  C18 UNL     1     -20.010   3.174  -8.738  1.00  0.00     0.129 A 
HETATM   10  F1  UNL     1     -18.987   3.633  -7.995  1.00  0.00    -0.205 F 
BRANCH   6  11
HETATM   11  O1  UNL     1     -23.193   1.553 -10.935  1.00  0.00    -0.354 OA
HETATM   12  C1  UNL     1     -24.424   2.226 -11.001  1.00  0.00     0.210 C 
ENDBRANCH   6  11
BRANCH   7  13
HETATM   13  N3  UNL     1     -22.597   0.592  -8.335  1.00  0.00    -0.344 N 
HETATM   14  C21 UNL     1     -22.064  -0.730  -8.273  1.00  0.00     0.152 C 
HETATM   15  C22 UNL     1     -22.919  -1.659  -7.434  1.00  0.00     0.187 C 
HETATM   16  O3  UNL     1     -24.287  -1.349  -7.591  1.00  0.00    -0.385 OA
HETATM   17  C23 UNL     1     -24.478  -0.124  -6.955  1.00  0.00     0.226 C 
HETATM   18  C24 UNL     1     -23.899   0.968  -7.817  1.00  0.00     0.295 C 
HETATM   19  F2  UNL     1     -23.764   2.116  -7.051  1.00  0.00    -0.225 F 
ENDBRANCH   7  13
ENDBRANCH   1   4
BRANCH   1  20
HETATM   20  C7  UNL     1     -20.425   5.406 -11.570  1.00  0.00     0.331 C 
BRANCH  20  21
HETATM   21  N2  UNL     1     -19.834   6.362 -12.504  1.00  0.00     0.092 N 
HETATM   22  C8  UNL     1     -19.934   7.710 -11.894  1.00  0.00     0.272 C 
HETATM   23  C9  UNL     1     -21.343   8.147 -11.704  1.00  0.00     0.030 C 
HETATM   24  C10 UNL     1     -22.010   8.353 -13.058  1.00  0.00     0.003 C 
HETATM   25  C11 UNL     1     -21.072   7.803 -14.098  1.00  0.00     0.030 C 
HETATM   26  C12 UNL     1     -20.693   6.386 -13.693  1.00  0.00     0.272 C 
ENDBRANCH  20  21
ENDBRANCH   1  20
BRANCH   1  27
HETATM   27  O2  UNL     1     -19.043   5.573  -9.736  1.00  0.00    -0.354 OA
BRANCH  27  28
HETATM   28  C13 UNL     1     -18.592   6.383  -8.914  1.00  0.00     0.124 C 
HETATM   29  C14 UNL     1     -17.406   5.943  -8.033  1.00  0.00     0.032 C 
HETATM   30  C15 UNL     1     -17.664   6.468  -6.655  1.00  0.00     0.002 C 
HETATM   31  C16 UNL     1     -19.125   6.768  -6.582  1.00  0.00     0.002 C 
HETATM   32  C17 UNL     1     -19.527   7.147  -7.992  1.00  0.00     0.032 C 
ENDBRANCH  27  28
ENDBRANCH   1  27
TORSDOF 7
ENDMDL
