MODEL 1
REMARK VINA RESULT: -9.330056063      0.000      0.000
REMARK  7 active torsions:
REMARK  status: ('A' for Active; 'I' for Inactive)
REMARK    1  A    between atoms: O1_2  and  C2_3 
REMARK    2  A    between atoms: C4_5  and  C5_6 
REMARK    3  A    between atoms: C5_6  and  N1_7 
REMARK    4  A    between atoms: N1_7  and  C7_9 
REMARK    5  A    between atoms: C7_9  and  C8_10 
REMARK    6  A    between atoms: C8_10  and  C9_11 
REMARK    7  A    between atoms: N2_17  and  C14_18 
ROOT
HETATM    1  C9  UNL     1     -19.922   4.002 -11.025  1.00  0.00     0.265 C 
HETATM    2  O2  UNL     1     -19.154   3.180 -10.222  1.00  0.00    -0.358 OA
HETATM    3  C10 UNL     1     -19.549   3.537  -8.936  1.00  0.00     0.211 C 
HETATM    4  C11 UNL     1     -19.576   5.045  -9.066  1.00  0.00     0.110 C 
HETATM    5  C12 UNL     1     -20.448   5.704  -8.054  1.00  0.00     0.064 C 
HETATM    6  C13 UNL     1     -19.685   6.945  -7.555  1.00  0.00     0.153 C 
HETATM    7  N2  UNL     1     -18.510   6.458  -6.941  1.00  0.00    -0.289 N 
HETATM    8  O3  UNL     1     -17.798   5.565  -7.608  1.00  0.00    -0.279 OA
HETATM    9  C19 UNL     1     -18.159   5.546  -8.930  1.00  0.00     0.241 C 
HETATM   10  O4  UNL     1     -20.029   5.217 -10.372  1.00  0.00    -0.345 OA
ENDROOT
BRANCH   1  11
HETATM   11  C8  UNL     1     -21.281   3.340 -11.202  1.00  0.00     0.105 C 
BRANCH  11  12
HETATM   12  C7  UNL     1     -21.130   1.848 -11.380  1.00  0.00     0.067 C 
BRANCH  12  13
HETATM   13  N1  UNL     1     -21.925   1.163 -10.440  1.00  0.00    -0.373 N 
HETATM   14  C6  UNL     1     -21.315   0.137  -9.680  1.00  0.00     0.154 C 
BRANCH  13  15
HETATM   15  C5  UNL     1     -22.948   1.924  -9.858  1.00  0.00     0.102 C 
BRANCH  15  16
HETATM   16  C4  UNL     1     -23.207   1.761  -8.421  1.00  0.00     0.004 A 
HETATM   17  C3  UNL     1     -22.349   2.252  -7.482  1.00  0.00     0.053 A 
HETATM   18  C2  UNL     1     -22.676   2.072  -6.139  1.00  0.00     0.090 A 
HETATM   19  C22 UNL     1     -23.849   1.409  -5.777  1.00  0.00     0.069 A 
HETATM   20  C21 UNL     1     -24.690   0.927  -6.750  1.00  0.00     0.051 A 
HETATM   21 CL2  UNL     1     -24.219   1.206  -4.080  1.00  0.00    -0.081 Cl
HETATM   22  C20 UNL     1     -24.381   1.097  -8.070  1.00  0.00     0.047 A 
HETATM   23 CL1  UNL     1     -25.434   0.494  -9.355  1.00  0.00    -0.083 Cl
BRANCH  18  24
HETATM   24  O1  UNL     1     -21.820   2.560  -5.180  1.00  0.00    -0.354 OA
HETATM   25  C1  UNL     1     -20.583   3.118  -5.540  1.00  0.00     0.210 C 
ENDBRANCH  18  24
ENDBRANCH  15  16
ENDBRANCH  13  15
ENDBRANCH  12  13
ENDBRANCH  11  12
ENDBRANCH   1  11
BRANCH   7  26
HETATM   26  C14 UNL     1     -17.877   7.229  -5.954  1.00  0.00     0.108 C 
HETATM   27  C15 UNL     1     -18.538   8.531  -5.587  1.00  0.00     0.027 C 
HETATM   28  C16 UNL     1     -18.050   8.699  -4.141  1.00  0.00     0.002 C 
HETATM   29  C17 UNL     1     -18.296   7.285  -3.619  1.00  0.00     0.002 C 
HETATM   30  C18 UNL     1     -17.661   6.450  -4.683  1.00  0.00     0.027 C 
ENDBRANCH   7  26
TORSDOF 7
ENDMDL
MODEL 2
REMARK VINA RESULT: -9.130042817      6.526      9.147
REMARK  7 active torsions:
REMARK  status: ('A' for Active; 'I' for Inactive)
REMARK    1  A    between atoms: O1_2  and  C2_3 
REMARK    2  A    between atoms: C4_5  and  C5_6 
REMARK    3  A    between atoms: C5_6  and  N1_7 
REMARK    4  A    between atoms: N1_7  and  C7_9 
REMARK    5  A    between atoms: C7_9  and  C8_10 
REMARK    6  A    between atoms: C8_10  and  C9_11 
REMARK    7  A    between atoms: N2_17  and  C14_18 
ROOT
HETATM    1  C9  UNL     1     -20.908   7.646 -12.746  1.00  0.00     0.265 C 
HETATM    2  O2  UNL     1     -19.978   7.003 -13.541  1.00  0.00    -0.358 OA
HETATM    3  C10 UNL     1     -19.251   8.055 -14.091  1.00  0.00     0.211 C 
HETATM    4  C11 UNL     1     -20.374   9.003 -14.454  1.00  0.00     0.110 C 
HETATM    5  C12 UNL     1     -19.928  10.419 -14.575  1.00  0.00     0.064 C 
HETATM    6  C13 UNL     1     -20.628  10.997 -15.819  1.00  0.00     0.153 C 
HETATM    7  N2  UNL     1     -20.157  10.243 -16.916  1.00  0.00    -0.289 N 
HETATM    8  O3  UNL     1     -20.167   8.925 -16.801  1.00  0.00    -0.279 OA
HETATM    9  C19 UNL     1     -20.969   8.536 -15.759  1.00  0.00     0.241 C 
HETATM   10  O4  UNL     1     -21.275   8.803 -13.410  1.00  0.00    -0.345 OA
ENDROOT
BRANCH   1  11
HETATM   11  C8  UNL     1     -20.244   7.954 -11.411  1.00  0.00     0.105 C 
BRANCH  11  12
HETATM   12  C7  UNL     1     -21.224   8.605 -10.463  1.00  0.00     0.067 C 
BRANCH  12  13
HETATM   13  N1  UNL     1     -20.722   8.573  -9.148  1.00  0.00    -0.373 N 
HETATM   14  C6  UNL     1     -21.602   8.176  -8.114  1.00  0.00     0.154 C 
BRANCH  13  15
HETATM   15  C5  UNL     1     -19.359   8.265  -9.037  1.00  0.00     0.102 C 
BRANCH  15  16
HETATM   16  C4  UNL     1     -18.883   7.654  -7.789  1.00  0.00     0.004 A 
HETATM   17  C3  UNL     1     -18.722   8.389  -6.652  1.00  0.00     0.053 A 
HETATM   18  C2  UNL     1     -18.284   7.731  -5.504  1.00  0.00     0.090 A 
HETATM   19  C22 UNL     1     -18.022   6.361  -5.527  1.00  0.00     0.069 A 
HETATM   20  C21 UNL     1     -18.195   5.652  -6.691  1.00  0.00     0.051 A 
HETATM   21 CL2  UNL     1     -17.475   5.577  -4.063  1.00  0.00    -0.081 Cl
HETATM   22  C20 UNL     1     -18.624   6.285  -7.823  1.00  0.00     0.047 A 
HETATM   23 CL1  UNL     1     -18.860   5.413  -9.341  1.00  0.00    -0.083 Cl
BRANCH  18  24
HETATM   24  O1  UNL     1     -18.115   8.459  -4.349  1.00  0.00    -0.354 OA
HETATM   25  C1  UNL     1     -18.013   9.859  -4.393  1.00  0.00     0.210 C 
ENDBRANCH  18  24
ENDBRANCH  15  16
ENDBRANCH  13  15
ENDBRANCH  12  13
ENDBRANCH  11  12
ENDBRANCH   1  11
BRANCH   7  26
HETATM   26  C14 UNL     1     -20.168  10.811 -18.199  1.00  0.00     0.108 C 
HETATM   27  C15 UNL     1     -20.288  12.309 -18.274  1.00  0.00     0.027 C 
HETATM   28  C16 UNL     1     -19.588  12.585 -19.613  1.00  0.00     0.002 C 
HETATM   29  C17 UNL     1     -18.355  11.700 -19.445  1.00  0.00     0.002 C 
HETATM   30  C18 UNL     1     -18.960  10.408 -19.005  1.00  0.00     0.027 C 
ENDBRANCH   7  26
TORSDOF 7
ENDMDL
MODEL 3
REMARK VINA RESULT: -9.088727963      2.064      2.910
REMARK  7 active torsions:
REMARK  status: ('A' for Active; 'I' for Inactive)
REMARK    1  A    between atoms: O1_2  and  C2_3 
REMARK    2  A    between atoms: C4_5  and  C5_6 
REMARK    3  A    between atoms: C5_6  and  N1_7 
REMARK    4  A    between atoms: N1_7  and  C7_9 
REMARK    5  A    between atoms: C7_9  and  C8_10 
REMARK    6  A    between atoms: C8_10  and  C9_11 
REMARK    7  A    between atoms: N2_17  and  C14_18 
ROOT
HETATM    1  C9  UNL     1     -20.133   3.319 -11.991  1.00  0.00     0.265 C 
HETATM    2  O2  UNL     1     -19.004   4.096 -12.173  1.00  0.00    -0.358 OA
HETATM    3  C10 UNL     1     -18.468   4.178 -10.891  1.00  0.00     0.211 C 
HETATM    4  C11 UNL     1     -19.724   4.433 -10.085  1.00  0.00     0.110 C 
HETATM    5  C12 UNL     1     -19.586   4.054  -8.651  1.00  0.00     0.064 C 
HETATM    6  C13 UNL     1     -20.254   5.173  -7.832  1.00  0.00     0.153 C 
HETATM    7  N2  UNL     1     -19.513   6.345  -8.098  1.00  0.00    -0.289 N 
HETATM    8  O3  UNL     1     -19.249   6.627  -9.363  1.00  0.00    -0.279 OA
HETATM    9  C19 UNL     1     -20.056   5.900 -10.200  1.00  0.00     0.241 C 
HETATM   10  O4  UNL     1     -20.668   3.666 -10.764  1.00  0.00    -0.345 OA
ENDROOT
BRANCH   1  11
HETATM   11  C8  UNL     1     -19.702   1.860 -12.022  1.00  0.00     0.105 C 
BRANCH  11  12
HETATM   12  C7  UNL     1     -20.902   0.945 -11.947  1.00  0.00     0.067 C 
BRANCH  12  13
HETATM   13  N1  UNL     1     -20.738   0.011 -10.906  1.00  0.00    -0.373 N 
HETATM   14  C6  UNL     1     -19.937  -1.127 -11.158  1.00  0.00     0.154 C 
BRANCH  13  15
HETATM   15  C5  UNL     1     -20.765   0.551  -9.612  1.00  0.00     0.102 C 
BRANCH  15  16
HETATM   16  C4  UNL     1     -22.002   0.423  -8.830  1.00  0.00     0.004 A 
HETATM   17  C3  UNL     1     -23.131   1.110  -9.165  1.00  0.00     0.053 A 
HETATM   18  C2  UNL     1     -24.270   0.920  -8.384  1.00  0.00     0.090 A 
HETATM   19  C22 UNL     1     -24.245   0.048  -7.295  1.00  0.00     0.069 A 
HETATM   20  C21 UNL     1     -23.090  -0.628  -6.987  1.00  0.00     0.051 A 
HETATM   21 CL2  UNL     1     -25.697  -0.161  -6.343  1.00  0.00    -0.081 Cl
HETATM   22  C20 UNL     1     -21.967  -0.450  -7.744  1.00  0.00     0.047 A 
HETATM   23 CL1  UNL     1     -20.460  -1.299  -7.385  1.00  0.00    -0.083 Cl
BRANCH  18  24
HETATM   24  O1  UNL     1     -25.416   1.607  -8.708  1.00  0.00    -0.354 OA
HETATM   25  C1  UNL     1     -25.829   1.722 -10.045  1.00  0.00     0.210 C 
ENDBRANCH  18  24
ENDBRANCH  15  16
ENDBRANCH  13  15
ENDBRANCH  12  13
ENDBRANCH  11  12
ENDBRANCH   1  11
BRANCH   7  26
HETATM   26  C14 UNL     1     -19.507   7.386  -7.157  1.00  0.00     0.108 C 
HETATM   27  C15 UNL     1     -18.478   7.300  -6.062  1.00  0.00     0.027 C 
HETATM   28  C16 UNL     1     -18.297   8.787  -5.724  1.00  0.00     0.002 C 
HETATM   29  C17 UNL     1     -18.190   9.360  -7.135  1.00  0.00     0.002 C 
HETATM   30  C18 UNL     1     -19.368   8.736  -7.811  1.00  0.00     0.027 C 
ENDBRANCH   7  26
TORSDOF 7
ENDMDL
MODEL 4
REMARK VINA RESULT: -9.036438661      2.389      3.696
REMARK  7 active torsions:
REMARK  status: ('A' for Active; 'I' for Inactive)
REMARK    1  A    between atoms: O1_2  and  C2_3 
REMARK    2  A    between atoms: C4_5  and  C5_6 
REMARK    3  A    between atoms: C5_6  and  N1_7 
REMARK    4  A    between atoms: N1_7  and  C7_9 
REMARK    5  A    between atoms: C7_9  and  C8_10 
REMARK    6  A    between atoms: C8_10  and  C9_11 
REMARK    7  A    between atoms: N2_17  and  C14_18 
ROOT
HETATM    1  C9  UNL     1     -20.486   6.696 -10.326  1.00  0.00     0.265 C 
HETATM    2  O2  UNL     1     -20.316   8.068 -10.305  1.00  0.00    -0.358 OA
HETATM    3  C10 UNL     1     -19.161   8.230  -9.545  1.00  0.00     0.211 C 
HETATM    4  C11 UNL     1     -19.430   7.250  -8.423  1.00  0.00     0.110 C 
HETATM    5  C12 UNL     1     -18.191   6.794  -7.734  1.00  0.00     0.064 C 
HETATM    6  C13 UNL     1     -18.502   6.784  -6.227  1.00  0.00     0.153 C 
HETATM    7  N2  UNL     1     -18.787   8.123  -5.879  1.00  0.00    -0.289 N 
HETATM    8  O3  UNL     1     -19.637   8.785  -6.646  1.00  0.00    -0.279 OA
HETATM    9  C19 UNL     1     -20.352   7.921  -7.435  1.00  0.00     0.241 C 
HETATM   10  O4  UNL     1     -20.095   6.221  -9.087  1.00  0.00    -0.345 OA
ENDROOT
BRANCH   1  11
HETATM   11  C8  UNL     1     -19.613   6.138 -11.441  1.00  0.00     0.105 C 
BRANCH  11  12
HETATM   12  C7  UNL     1     -18.987   4.827 -11.025  1.00  0.00     0.067 C 
BRANCH  12  13
HETATM   13  N1  UNL     1     -19.774   3.749 -11.470  1.00  0.00    -0.373 N 
HETATM   14  C6  UNL     1     -19.917   3.565 -12.866  1.00  0.00     0.154 C 
BRANCH  13  15
HETATM   15  C5  UNL     1     -19.773   2.624 -10.633  1.00  0.00     0.102 C 
BRANCH  15  16
HETATM   16  C4  UNL     1     -20.982   2.338  -9.849  1.00  0.00     0.004 A 
HETATM   17  C3  UNL     1     -22.091   1.790 -10.423  1.00  0.00     0.053 A 
HETATM   18  C2  UNL     1     -23.191   1.532  -9.607  1.00  0.00     0.090 A 
HETATM   19  C22 UNL     1     -23.148   1.827  -8.244  1.00  0.00     0.069 A 
HETATM   20  C21 UNL     1     -22.013   2.379  -7.700  1.00  0.00     0.051 A 
HETATM   21 CL2  UNL     1     -24.551   1.486  -7.258  1.00  0.00    -0.081 Cl
HETATM   22  C20 UNL     1     -20.929   2.638  -8.489  1.00  0.00     0.047 A 
HETATM   23 CL1  UNL     1     -19.450   3.346  -7.832  1.00  0.00    -0.083 Cl
BRANCH  18  24
HETATM   24  O1  UNL     1     -24.317   0.980 -10.171  1.00  0.00    -0.354 OA
HETATM   25  C1  UNL     1     -25.382   1.796 -10.588  1.00  0.00     0.210 C 
ENDBRANCH  18  24
ENDBRANCH  15  16
ENDBRANCH  13  15
ENDBRANCH  12  13
ENDBRANCH  11  12
ENDBRANCH   1  11
BRANCH   7  26
HETATM   26  C14 UNL     1     -18.595   8.548  -4.556  1.00  0.00     0.108 C 
HETATM   27  C15 UNL     1     -17.777   7.648  -3.669  1.00  0.00     0.027 C 
HETATM   28  C16 UNL     1     -17.217   8.668  -2.668  1.00  0.00     0.002 C 
HETATM   29  C17 UNL     1     -16.778   9.765  -3.635  1.00  0.00     0.002 C 
HETATM   30  C18 UNL     1     -17.994   9.927  -4.488  1.00  0.00     0.027 C 
ENDBRANCH   7  26
TORSDOF 7
ENDMDL
MODEL 5
REMARK VINA RESULT: -9.033430581      3.462      6.760
REMARK  7 active torsions:
REMARK  status: ('A' for Active; 'I' for Inactive)
REMARK    1  A    between atoms: O1_2  and  C2_3 
REMARK    2  A    between atoms: C4_5  and  C5_6 
REMARK    3  A    between atoms: C5_6  and  N1_7 
REMARK    4  A    between atoms: N1_7  and  C7_9 
REMARK    5  A    between atoms: C7_9  and  C8_10 
REMARK    6  A    between atoms: C8_10  and  C9_11 
REMARK    7  A    between atoms: N2_17  and  C14_18 
ROOT
HETATM    1  C9  UNL     1     -19.339   1.812 -12.305  1.00  0.00     0.265 C 
HETATM    2  O2  UNL     1     -20.304   0.867 -12.599  1.00  0.00    -0.358 OA
HETATM    3  C10 UNL     1     -21.431   1.352 -11.941  1.00  0.00     0.211 C 
HETATM    4  C11 UNL     1     -20.821   1.764 -10.618  1.00  0.00     0.110 C 
HETATM    5  C12 UNL     1     -21.627   2.785  -9.894  1.00  0.00     0.064 C 
HETATM    6  C13 UNL     1     -21.637   2.371  -8.412  1.00  0.00     0.153 C 
HETATM    7  N2  UNL     1     -22.284   1.116  -8.363  1.00  0.00    -0.289 N 
HETATM    8  O3  UNL     1     -21.891   0.193  -9.224  1.00  0.00    -0.279 OA
HETATM    9  C19 UNL     1     -20.678   0.524  -9.770  1.00  0.00     0.241 C 
HETATM   10  O4  UNL     1     -19.568   2.234 -11.008  1.00  0.00    -0.345 OA
ENDROOT
BRANCH   1  11
HETATM   11  C8  UNL     1     -19.491   2.954 -13.300  1.00  0.00     0.105 C 
BRANCH  11  12
HETATM   12  C7  UNL     1     -18.724   4.172 -12.838  1.00  0.00     0.067 C 
BRANCH  12  13
HETATM   13  N1  UNL     1     -19.524   5.325 -12.957  1.00  0.00    -0.373 N 
HETATM   14  C6  UNL     1     -19.883   5.748 -14.259  1.00  0.00     0.154 C 
BRANCH  13  15
HETATM   15  C5  UNL     1     -20.419   5.541 -11.900  1.00  0.00     0.102 C 
BRANCH  15  16
HETATM   16  C4  UNL     1     -19.945   6.292 -10.730  1.00  0.00     0.004 A 
HETATM   17  C3  UNL     1     -19.197   5.698  -9.757  1.00  0.00     0.053 A 
HETATM   18  C2  UNL     1     -18.770   6.484  -8.688  1.00  0.00     0.090 A 
HETATM   19  C22 UNL     1     -19.102   7.838  -8.625  1.00  0.00     0.069 A 
HETATM   20  C21 UNL     1     -19.857   8.403  -9.624  1.00  0.00     0.051 A 
HETATM   21 CL2  UNL     1     -18.545   8.786  -7.266  1.00  0.00    -0.081 Cl
HETATM   22  C20 UNL     1     -20.283   7.643 -10.677  1.00  0.00     0.047 A 
HETATM   23 CL1  UNL     1     -21.255   8.328 -11.983  1.00  0.00    -0.083 Cl
BRANCH  18  24
HETATM   24  O1  UNL     1     -18.016   5.900  -7.698  1.00  0.00    -0.354 OA
HETATM   25  C1  UNL     1     -18.629   5.166  -6.669  1.00  0.00     0.210 C 
ENDBRANCH  18  24
ENDBRANCH  15  16
ENDBRANCH  13  15
ENDBRANCH  12  13
ENDBRANCH  11  12
ENDBRANCH   1  11
BRANCH   7  26
HETATM   26  C14 UNL     1     -22.916   0.712  -7.177  1.00  0.00     0.108 C 
HETATM   27  C15 UNL     1     -23.797   1.727  -6.501  1.00  0.00     0.027 C 
HETATM   28  C16 UNL     1     -24.781   0.806  -5.766  1.00  0.00     0.002 C 
HETATM   29  C17 UNL     1     -25.095  -0.183  -6.887  1.00  0.00     0.002 C 
HETATM   30  C18 UNL     1     -23.728  -0.543  -7.370  1.00  0.00     0.027 C 
ENDBRANCH   7  26
TORSDOF 7
ENDMDL
