MODEL 1
REMARK VINA RESULT: -7.789714501      0.000      0.000
REMARK  13 active torsions:
REMARK  status: ('A' for Active; 'I' for Inactive)
REMARK    1  A    between atoms: C3_3  and  C5_5 
REMARK    2  A    between atoms: C5_5  and  O2_7 
REMARK    3  A    between atoms: O2_7  and  C6_8 
REMARK    4  A    between atoms: C7_9  and  O3_10 
REMARK    5  A    between atoms: N1_21  and  O5_23 
REMARK    6  A    between atoms: C20_29  and  C21_30 
REMARK    7  A    between atoms: C21_30  and  C23_32 
REMARK    8  A    between atoms: C23_32  and  C24_33 
REMARK    9  A    between atoms: C24_33  and  C25_34 
REMARK   10  A    between atoms: C25_34  and  C26_35 
REMARK   11  A    between atoms: C26_35  and  C27_36 
REMARK   12  A    between atoms: C32_44  and  C34_46 
REMARK   13  A    between atoms: C34_46  and  O9_48 
ROOT
HETATM    1  C6  UNL     1      28.883 -12.678  14.832  1.00  0.00     0.179 C 
HETATM    2  C7  UNL     1      29.082 -11.176  14.624  1.00  0.00     0.149 C 
HETATM    3  C8  UNL     1      29.260 -10.753  13.234  1.00  0.00     0.044 C 
HETATM    4  C9  UNL     1      29.678 -11.741  12.190  1.00  0.00    -0.032 C 
HETATM    5  C10 UNL     1      29.016 -11.198  10.890  1.00  0.00     0.016 C 
HETATM    6  C11 UNL     1      31.144 -11.712  11.831  1.00  0.00     0.009 C 
HETATM    7  C12 UNL     1      31.524 -10.273  11.734  1.00  0.00     0.084 C 
HETATM    8  C13 UNL     1      32.651 -10.126  10.749  1.00  0.00     0.137 C 
HETATM    9  O4  UNL     1      32.369  -9.841   9.619  1.00  0.00    -0.297 OA
HETATM   10  C14 UNL     1      34.122 -10.316  11.095  1.00  0.00     0.108 C 
HETATM   11  C15 UNL     1      34.071 -11.211  12.296  1.00  0.00     0.030 C 
HETATM   12  N1  UNL     1      34.521 -10.727  13.398  1.00  0.00    -0.276 N 
ATOM     13  H1  UNL     1      34.869  -9.771  13.332  1.00  0.00     0.193 HD
HETATM   14  C16 UNL     1      33.486 -12.582  12.183  1.00  0.00     0.004 C 
HETATM   15  C17 UNL     1      34.301 -13.456  13.116  1.00  0.00     0.022 C 
HETATM   16  C18 UNL     1      33.720 -13.096  10.808  1.00  0.00     0.016 C 
HETATM   17  C19 UNL     1      34.949 -12.458  10.135  1.00  0.00     0.007 C 
HETATM   18  C20 UNL     1      34.803 -10.996   9.986  1.00  0.00     0.006 C 
HETATM   19  C28 UNL     1      32.042 -12.592  12.623  1.00  0.00     0.038 C 
HETATM   20  C29 UNL     1      31.471 -13.941  12.793  1.00  0.00     0.176 C 
HETATM   21  F1  UNL     1      32.214 -14.985  12.223  1.00  0.00    -0.249 F 
HETATM   22  C30 UNL     1      30.125 -14.171  12.152  1.00  0.00     0.044 C 
HETATM   23  C31 UNL     1      29.106 -13.111  12.371  1.00  0.00     0.017 C 
HETATM   24  C32 UNL     1      28.295 -13.297  13.647  1.00  0.00     0.078 C 
HETATM   25  C33 UNL     1      26.908 -12.659  13.423  1.00  0.00     0.029 C 
ENDROOT
BRANCH  18  26
HETATM   26  C21 UNL     1      36.175 -10.408   9.599  1.00  0.00    -0.013 C 
HETATM   27  C22 UNL     1      37.037 -10.227  10.810  1.00  0.00     0.010 C 
BRANCH  26  28
HETATM   28  C23 UNL     1      35.984  -9.135   8.874  1.00  0.00     0.005 C 
BRANCH  28  29
HETATM   29  C24 UNL     1      36.420  -7.874   9.444  1.00  0.00     0.001 C 
BRANCH  29  30
HETATM   30  C25 UNL     1      35.543  -6.758   9.789  1.00  0.00     0.010 C 
BRANCH  30  31
HETATM   31  C26 UNL     1      34.087  -6.837   9.491  1.00  0.00     0.113 C 
BRANCH  31  32
HETATM   32  C27 UNL     1      33.757  -6.007   8.270  1.00  0.00     0.172 C 
HETATM   33  O6  UNL     1      34.360  -4.926   8.122  1.00  0.00    -0.648 OA
HETATM   34  O7  UNL     1      32.821  -6.405   7.328  1.00  0.00    -0.648 OA
ENDBRANCH  31  32
ENDBRANCH  30  31
ENDBRANCH  29  30
ENDBRANCH  28  29
ENDBRANCH  26  28
ENDBRANCH  18  26
BRANCH  12  35
HETATM   35  O5  UNL     1      34.607 -11.269  14.614  1.00  0.00    -0.290 OA
ATOM     36  H5  UNL     1      35.345 -11.662  15.065  1.00  0.00     0.244 HD
ENDBRANCH  12  35
BRANCH   2  37
HETATM   37  O3  UNL     1      30.125 -10.741  15.482  1.00  0.00    -0.393 OA
ATOM     38  H3  UNL     1      30.718 -10.197  14.978  1.00  0.00     0.210 HD
ENDBRANCH   2  37
BRANCH  24  39
HETATM   39  C34 UNL     1      28.057 -14.737  13.831  1.00  0.00     0.270 C 
HETATM   40  O8  UNL     1      28.776 -15.513  14.487  1.00  0.00    -0.264 OA
BRANCH  39  41
HETATM   41  O9  UNL     1      26.932 -15.371  13.246  1.00  0.00    -0.326 OA
HETATM   42  C35 UNL     1      27.038 -16.626  12.604  1.00  0.00     0.213 C 
ENDBRANCH  39  41
ENDBRANCH  24  39
BRANCH   1  43
HETATM   43  O2  UNL     1      28.024 -12.897  15.942  1.00  0.00    -0.308 OA
BRANCH  43  44
HETATM   44  C5  UNL     1      28.506 -13.033  17.232  1.00  0.00     0.289 C 
HETATM   45  O1  UNL     1      29.186 -14.079  17.467  1.00  0.00    -0.260 OA
BRANCH  44  46
HETATM   46  C3  UNL     1      28.237 -12.039  18.228  1.00  0.00     0.009 C 
HETATM   47  C2  UNL     1      27.109 -11.872  18.872  1.00  0.00    -0.018 C 
HETATM   48  C1  UNL     1      25.952 -12.749  18.610  1.00  0.00     0.036 C 
HETATM   49  C4  UNL     1      29.345 -11.091  18.573  1.00  0.00     0.054 C 
ENDBRANCH  44  46
ENDBRANCH  43  44
ENDBRANCH   1  43
TORSDOF 13
ENDMDL
MODEL 2
REMARK VINA RESULT: -7.696365249      7.606     11.270
REMARK  13 active torsions:
REMARK  status: ('A' for Active; 'I' for Inactive)
REMARK    1  A    between atoms: C3_3  and  C5_5 
REMARK    2  A    between atoms: C5_5  and  O2_7 
REMARK    3  A    between atoms: O2_7  and  C6_8 
REMARK    4  A    between atoms: C7_9  and  O3_10 
REMARK    5  A    between atoms: N1_21  and  O5_23 
REMARK    6  A    between atoms: C20_29  and  C21_30 
REMARK    7  A    between atoms: C21_30  and  C23_32 
REMARK    8  A    between atoms: C23_32  and  C24_33 
REMARK    9  A    between atoms: C24_33  and  C25_34 
REMARK   10  A    between atoms: C25_34  and  C26_35 
REMARK   11  A    between atoms: C26_35  and  C27_36 
REMARK   12  A    between atoms: C32_44  and  C34_46 
REMARK   13  A    between atoms: C34_46  and  O9_48 
ROOT
HETATM    1  C6  UNL     1      37.249  -7.685  13.725  1.00  0.00     0.179 C 
HETATM    2  C7  UNL     1      38.133  -6.469  14.004  1.00  0.00     0.149 C 
HETATM    3  C8  UNL     1      38.631  -6.354  15.376  1.00  0.00     0.044 C 
HETATM    4  C9  UNL     1      37.952  -7.088  16.490  1.00  0.00    -0.032 C 
HETATM    5  C10 UNL     1      39.108  -7.373  17.493  1.00  0.00     0.016 C 
HETATM    6  C11 UNL     1      37.009  -6.256  17.325  1.00  0.00     0.009 C 
HETATM    7  C12 UNL     1      37.694  -4.952  17.559  1.00  0.00     0.084 C 
HETATM    8  C13 UNL     1      37.228  -4.379  18.868  1.00  0.00     0.137 C 
HETATM    9  O4  UNL     1      37.901  -4.590  19.839  1.00  0.00    -0.297 OA
HETATM   10  C14 UNL     1      35.962  -3.550  19.039  1.00  0.00     0.108 C 
HETATM   11  C15 UNL     1      35.115  -3.990  17.884  1.00  0.00     0.030 C 
HETATM   12  N1  UNL     1      34.829  -3.099  17.004  1.00  0.00    -0.276 N 
ATOM     13  H1  UNL     1      35.216  -2.174  17.194  1.00  0.00     0.193 HD
HETATM   14  C16 UNL     1      34.674  -5.414  17.779  1.00  0.00     0.004 C 
HETATM   15  C17 UNL     1      33.286  -5.372  17.169  1.00  0.00     0.022 C 
HETATM   16  C18 UNL     1      34.519  -5.975  19.147  1.00  0.00     0.016 C 
HETATM   17  C19 UNL     1      34.221  -4.895  20.202  1.00  0.00     0.007 C 
HETATM   18  C20 UNL     1      35.311  -3.906  20.307  1.00  0.00     0.006 C 
HETATM   19  C28 UNL     1      35.594  -6.200  16.875  1.00  0.00     0.038 C 
HETATM   20  C29 UNL     1      35.086  -7.535  16.508  1.00  0.00     0.176 C 
HETATM   21  F1  UNL     1      34.018  -8.007  17.286  1.00  0.00    -0.249 F 
HETATM   22  C30 UNL     1      36.064  -8.674  16.654  1.00  0.00     0.044 C 
HETATM   23  C31 UNL     1      37.428  -8.437  16.112  1.00  0.00     0.017 C 
HETATM   24  C32 UNL     1      37.569  -8.782  14.635  1.00  0.00     0.078 C 
HETATM   25  C33 UNL     1      39.034  -9.191  14.382  1.00  0.00     0.029 C 
ENDROOT
BRANCH  18  26
HETATM   26  C21 UNL     1      34.805  -2.712  21.142  1.00  0.00    -0.013 C 
HETATM   27  C22 UNL     1      34.917  -3.003  22.608  1.00  0.00     0.010 C 
BRANCH  26  28
HETATM   28  C23 UNL     1      33.415  -2.390  20.758  1.00  0.00     0.005 C 
BRANCH  28  29
HETATM   29  C24 UNL     1      33.120  -1.288  19.861  1.00  0.00     0.001 C 
BRANCH  29  30
HETATM   30  C25 UNL     1      33.890  -0.051  19.765  1.00  0.00     0.010 C 
BRANCH  30  31
HETATM   31  C26 UNL     1      34.941   0.091  18.722  1.00  0.00     0.113 C 
BRANCH  31  32
HETATM   32  C27 UNL     1      35.564   1.469  18.791  1.00  0.00     0.172 C 
HETATM   33  O6  UNL     1      34.844   2.413  19.173  1.00  0.00    -0.648 OA
HETATM   34  O7  UNL     1      36.886   1.709  18.451  1.00  0.00    -0.648 OA
ENDBRANCH  31  32
ENDBRANCH  30  31
ENDBRANCH  29  30
ENDBRANCH  28  29
ENDBRANCH  26  28
ENDBRANCH  18  26
BRANCH  12  35
HETATM   35  O5  UNL     1      34.109  -3.183  15.884  1.00  0.00    -0.290 OA
ATOM     36  H5  UNL     1      34.004  -2.567  15.168  1.00  0.00     0.244 HD
ENDBRANCH  12  35
BRANCH   2  37
HETATM   37  O3  UNL     1      37.451  -5.309  13.554  1.00  0.00    -0.393 OA
ATOM     38  H3  UNL     1      36.561  -5.339  13.884  1.00  0.00     0.210 HD
ENDBRANCH   2  37
BRANCH  24  39
HETATM   39  C34 UNL     1      36.759  -9.981  14.367  1.00  0.00     0.270 C 
HETATM   40  O8  UNL     1      35.564  -9.986  14.018  1.00  0.00    -0.264 OA
BRANCH  39  41
HETATM   41  O9  UNL     1      37.314 -11.279  14.493  1.00  0.00    -0.326 OA
HETATM   42  C35 UNL     1      36.789 -12.226  15.403  1.00  0.00     0.213 C 
ENDBRANCH  39  41
ENDBRANCH  24  39
BRANCH   1  43
HETATM   43  O2  UNL     1      37.444  -8.122  12.388  1.00  0.00    -0.308 OA
BRANCH  43  44
HETATM   44  C5  UNL     1      36.519  -7.876  11.389  1.00  0.00     0.289 C 
HETATM   45  O1  UNL     1      35.760  -6.873  11.566  1.00  0.00    -0.260 OA
BRANCH  44  46
HETATM   46  C3  UNL     1      36.440  -8.717  10.233  1.00  0.00     0.009 C 
HETATM   47  C2  UNL     1      36.436  -8.320   8.984  1.00  0.00    -0.018 C 
HETATM   48  C1  UNL     1      36.518  -6.887   8.646  1.00  0.00     0.036 C 
HETATM   49  C4  UNL     1      36.352 -10.196  10.459  1.00  0.00     0.054 C 
ENDBRANCH  44  46
ENDBRANCH  43  44
ENDBRANCH   1  43
TORSDOF 13
ENDMDL
MODEL 3
REMARK VINA RESULT: -7.670518689      8.506     11.810
REMARK  13 active torsions:
REMARK  status: ('A' for Active; 'I' for Inactive)
REMARK    1  A    between atoms: C3_3  and  C5_5 
REMARK    2  A    between atoms: C5_5  and  O2_7 
REMARK    3  A    between atoms: O2_7  and  C6_8 
REMARK    4  A    between atoms: C7_9  and  O3_10 
REMARK    5  A    between atoms: N1_21  and  O5_23 
REMARK    6  A    between atoms: C20_29  and  C21_30 
REMARK    7  A    between atoms: C21_30  and  C23_32 
REMARK    8  A    between atoms: C23_32  and  C24_33 
REMARK    9  A    between atoms: C24_33  and  C25_34 
REMARK   10  A    between atoms: C25_34  and  C26_35 
REMARK   11  A    between atoms: C26_35  and  C27_36 
REMARK   12  A    between atoms: C32_44  and  C34_46 
REMARK   13  A    between atoms: C34_46  and  O9_48 
ROOT
HETATM    1  C6  UNL     1      37.365  -7.510  15.954  1.00  0.00     0.179 C 
HETATM    2  C7  UNL     1      38.299  -6.427  16.495  1.00  0.00     0.149 C 
HETATM    3  C8  UNL     1      38.225  -6.197  17.939  1.00  0.00     0.044 C 
HETATM    4  C9  UNL     1      37.024  -6.641  18.715  1.00  0.00    -0.032 C 
HETATM    5  C10 UNL     1      37.601  -6.963  20.124  1.00  0.00     0.016 C 
HETATM    6  C11 UNL     1      36.024  -5.554  19.025  1.00  0.00     0.009 C 
HETATM    7  C12 UNL     1      36.816  -4.360  19.438  1.00  0.00     0.084 C 
HETATM    8  C13 UNL     1      36.001  -3.534  20.394  1.00  0.00     0.137 C 
HETATM    9  O4  UNL     1      36.174  -3.710  21.568  1.00  0.00    -0.297 OA
HETATM   10  C14 UNL     1      34.975  -2.494  19.968  1.00  0.00     0.108 C 
HETATM   11  C15 UNL     1      34.582  -2.951  18.596  1.00  0.00     0.030 C 
HETATM   12  N1  UNL     1      34.861  -2.162  17.621  1.00  0.00    -0.276 N 
ATOM     13  H1  UNL     1      35.325  -1.296  17.894  1.00  0.00     0.193 HD
HETATM   14  C16 UNL     1      33.931  -4.284  18.410  1.00  0.00     0.004 C 
HETATM   15  C17 UNL     1      32.941  -4.104  17.276  1.00  0.00     0.022 C 
HETATM   16  C18 UNL     1      33.135  -4.608  19.622  1.00  0.00     0.016 C 
HETATM   17  C19 UNL     1      32.676  -3.352  20.385  1.00  0.00     0.007 C 
HETATM   18  C20 UNL     1      33.817  -2.549  20.870  1.00  0.00     0.006 C 
HETATM   19  C28 UNL     1      34.948  -5.332  18.024  1.00  0.00     0.038 C 
HETATM   20  C29 UNL     1      34.360  -6.605  17.567  1.00  0.00     0.176 C 
HETATM   21  F1  UNL     1      32.999  -6.778  17.858  1.00  0.00    -0.249 F 
HETATM   22  C30 UNL     1      34.939  -7.856  18.180  1.00  0.00     0.044 C 
HETATM   23  C31 UNL     1      36.423  -7.927  18.241  1.00  0.00     0.017 C 
HETATM   24  C32 UNL     1      37.061  -8.501  16.983  1.00  0.00     0.078 C 
HETATM   25  C33 UNL     1      38.386  -9.176  17.391  1.00  0.00     0.029 C 
ENDROOT
BRANCH  18  26
HETATM   26  C21 UNL     1      33.283  -1.181  21.339  1.00  0.00    -0.013 C 
HETATM   27  C22 UNL     1      32.773  -1.262  22.746  1.00  0.00     0.010 C 
BRANCH  26  28
HETATM   28  C23 UNL     1      32.235  -0.710  20.410  1.00  0.00     0.005 C 
BRANCH  28  29
HETATM   29  C24 UNL     1      32.266   0.632  19.860  1.00  0.00     0.001 C 
BRANCH  29  30
HETATM   30  C25 UNL     1      33.272   1.139  18.932  1.00  0.00     0.010 C 
BRANCH  30  31
HETATM   31  C26 UNL     1      34.379   1.999  19.432  1.00  0.00     0.113 C 
BRANCH  31  32
HETATM   32  C27 UNL     1      35.688   1.594  18.789  1.00  0.00     0.172 C 
HETATM   33  O6  UNL     1      35.971   0.380  18.764  1.00  0.00    -0.648 OA
HETATM   34  O7  UNL     1      36.565   2.514  18.237  1.00  0.00    -0.648 OA
ENDBRANCH  31  32
ENDBRANCH  30  31
ENDBRANCH  29  30
ENDBRANCH  28  29
ENDBRANCH  26  28
ENDBRANCH  18  26
BRANCH  12  35
HETATM   35  O5  UNL     1      34.642  -2.289  16.311  1.00  0.00    -0.290 OA
ATOM     36  H5  UNL     1      33.890  -2.047  15.783  1.00  0.00     0.244 HD
ENDBRANCH  12  35
BRANCH   2  37
HETATM   37  O3  UNL     1      38.109  -5.249  15.728  1.00  0.00    -0.393 OA
ATOM     38  H3  UNL     1      37.630  -5.479  14.941  1.00  0.00     0.210 HD
ENDBRANCH   2  37
BRANCH  24  39
HETATM   39  C34 UNL     1      36.192  -9.576  16.480  1.00  0.00     0.270 C 
HETATM   40  O8  UNL     1      35.362  -9.468  15.560  1.00  0.00    -0.264 OA
BRANCH  39  41
HETATM   41  O9  UNL     1      36.246 -10.878  17.039  1.00  0.00    -0.326 OA
HETATM   42  C35 UNL     1      35.073 -11.598  17.361  1.00  0.00     0.213 C 
ENDBRANCH  39  41
ENDBRANCH  24  39
BRANCH   1  43
HETATM   43  O2  UNL     1      37.976  -8.162  14.851  1.00  0.00    -0.308 OA
BRANCH  43  44
HETATM   44  C5  UNL     1      38.318  -7.488  13.691  1.00  0.00     0.289 C 
HETATM   45  O1  UNL     1      39.537  -7.151  13.581  1.00  0.00    -0.260 OA
BRANCH  44  46
HETATM   46  C3  UNL     1      37.336  -7.199  12.690  1.00  0.00     0.009 C 
HETATM   47  C2  UNL     1      36.654  -8.077  11.997  1.00  0.00    -0.018 C 
HETATM   48  C1  UNL     1      36.851  -9.523  12.205  1.00  0.00     0.036 C 
HETATM   49  C4  UNL     1      37.053  -5.757  12.396  1.00  0.00     0.054 C 
ENDBRANCH  44  46
ENDBRANCH  43  44
ENDBRANCH   1  43
TORSDOF 13
ENDMDL
MODEL 4
REMARK VINA RESULT: -7.531172272     10.368     13.254
REMARK  13 active torsions:
REMARK  status: ('A' for Active; 'I' for Inactive)
REMARK    1  A    between atoms: C3_3  and  C5_5 
REMARK    2  A    between atoms: C5_5  and  O2_7 
REMARK    3  A    between atoms: O2_7  and  C6_8 
REMARK    4  A    between atoms: C7_9  and  O3_10 
REMARK    5  A    between atoms: N1_21  and  O5_23 
REMARK    6  A    between atoms: C20_29  and  C21_30 
REMARK    7  A    between atoms: C21_30  and  C23_32 
REMARK    8  A    between atoms: C23_32  and  C24_33 
REMARK    9  A    between atoms: C24_33  and  C25_34 
REMARK   10  A    between atoms: C25_34  and  C26_35 
REMARK   11  A    between atoms: C26_35  and  C27_36 
REMARK   12  A    between atoms: C32_44  and  C34_46 
REMARK   13  A    between atoms: C34_46  and  O9_48 
ROOT
HETATM    1  C6  UNL     1      34.435  -0.204  20.645  1.00  0.00     0.179 C 
HETATM    2  C7  UNL     1      33.573  -0.767  19.514  1.00  0.00     0.149 C 
HETATM    3  C8  UNL     1      32.932  -2.053  19.793  1.00  0.00     0.044 C 
HETATM    4  C9  UNL     1      33.455  -2.938  20.881  1.00  0.00    -0.032 C 
HETATM    5  C10 UNL     1      32.186  -3.690  21.378  1.00  0.00     0.016 C 
HETATM    6  C11 UNL     1      34.331  -4.077  20.415  1.00  0.00     0.009 C 
HETATM    7  C12 UNL     1      33.675  -4.643  19.202  1.00  0.00     0.084 C 
HETATM    8  C13 UNL     1      34.015  -6.103  19.094  1.00  0.00     0.137 C 
HETATM    9  O4  UNL     1      33.232  -6.892  19.546  1.00  0.00    -0.297 OA
HETATM   10  C14 UNL     1      35.285  -6.642  18.450  1.00  0.00     0.108 C 
HETATM   11  C15 UNL     1      36.237  -5.491  18.571  1.00  0.00     0.030 C 
HETATM   12  N1  UNL     1      36.652  -4.966  17.474  1.00  0.00    -0.276 N 
ATOM     13  H1  UNL     1      36.282  -5.399  16.628  1.00  0.00     0.193 HD
HETATM   14  C16 UNL     1      36.633  -4.986  19.921  1.00  0.00     0.004 C 
HETATM   15  C17 UNL     1      38.080  -4.552  19.791  1.00  0.00     0.022 C 
HETATM   16  C18 UNL     1      36.614  -6.117  20.885  1.00  0.00     0.016 C 
HETATM   17  C19 UNL     1      36.835  -7.481  20.207  1.00  0.00     0.007 C 
HETATM   18  C20 UNL     1      35.778  -7.789  19.223  1.00  0.00     0.006 C 
HETATM   19  C28 UNL     1      35.789  -3.800  20.323  1.00  0.00     0.038 C 
HETATM   20  C29 UNL     1      36.283  -3.082  21.513  1.00  0.00     0.176 C 
HETATM   21  F1  UNL     1      37.239  -3.768  22.275  1.00  0.00    -0.249 F 
HETATM   22  C30 UNL     1      35.252  -2.771  22.569  1.00  0.00     0.044 C 
HETATM   23  C31 UNL     1      33.966  -2.207  22.081  1.00  0.00     0.017 C 
HETATM   24  C32 UNL     1      33.976  -0.690  21.944  1.00  0.00     0.078 C 
HETATM   25  C33 UNL     1      32.533  -0.187  22.150  1.00  0.00     0.029 C 
ENDROOT
BRANCH  18  26
HETATM   26  C21 UNL     1      36.234  -9.000  18.384  1.00  0.00    -0.013 C 
HETATM   27  C22 UNL     1      37.707  -9.228  18.535  1.00  0.00     0.010 C 
BRANCH  26  28
HETATM   28  C23 UNL     1      35.860  -8.794  16.969  1.00  0.00     0.005 C 
BRANCH  28  29
HETATM   29  C24 UNL     1      36.680  -9.316  15.892  1.00  0.00     0.001 C 
BRANCH  29  30
HETATM   30  C25 UNL     1      37.151  -8.547  14.744  1.00  0.00     0.010 C 
BRANCH  30  31
HETATM   31  C26 UNL     1      38.553  -8.048  14.708  1.00  0.00     0.113 C 
BRANCH  31  32
HETATM   32  C27 UNL     1      38.650  -6.709  15.407  1.00  0.00     0.172 C 
HETATM   33  O6  UNL     1      39.051  -6.697  16.588  1.00  0.00    -0.648 OA
HETATM   34  O7  UNL     1      38.312  -5.517  14.786  1.00  0.00    -0.648 OA
ENDBRANCH  31  32
ENDBRANCH  30  31
ENDBRANCH  29  30
ENDBRANCH  28  29
ENDBRANCH  26  28
ENDBRANCH  18  26
BRANCH  12  35
HETATM   35  O5  UNL     1      37.488  -3.948  17.260  1.00  0.00    -0.290 OA
ATOM     36  H5  UNL     1      38.431  -3.936  17.143  1.00  0.00     0.244 HD
ENDBRANCH  12  35
BRANCH   2  37
HETATM   37  O3  UNL     1      34.344  -0.769  18.323  1.00  0.00    -0.393 OA
ATOM     38  H3  UNL     1      34.135   0.015  17.830  1.00  0.00     0.210 HD
ENDBRANCH   2  37
BRANCH  24  39
HETATM   39  C34 UNL     1      34.764  -0.136  23.055  1.00  0.00     0.270 C 
HETATM   40  O8  UNL     1      35.912   0.337  22.965  1.00  0.00    -0.264 OA
BRANCH  39  41
HETATM   41  O9  UNL     1      34.242  -0.099  24.373  1.00  0.00    -0.326 OA
HETATM   42  C35 UNL     1      35.051  -0.368  25.500  1.00  0.00     0.213 C 
ENDBRANCH  39  41
ENDBRANCH  24  39
BRANCH   1  43
HETATM   43  O2  UNL     1      34.373   1.215  20.634  1.00  0.00    -0.308 OA
BRANCH  43  44
HETATM   44  C5  UNL     1      34.827   1.965  19.563  1.00  0.00     0.289 C 
HETATM   45  O1  UNL     1      35.784   1.464  18.897  1.00  0.00    -0.260 OA
BRANCH  44  46
HETATM   46  C3  UNL     1      34.236   3.231  19.248  1.00  0.00     0.009 C 
HETATM   47  C2  UNL     1      32.961   3.527  19.305  1.00  0.00    -0.018 C 
HETATM   48  C1  UNL     1      31.969   2.521  19.729  1.00  0.00     0.036 C 
HETATM   49  C4  UNL     1      35.153   4.330  18.805  1.00  0.00     0.054 C 
ENDBRANCH  44  46
ENDBRANCH  43  44
ENDBRANCH   1  43
TORSDOF 13
ENDMDL
MODEL 5
REMARK VINA RESULT: -7.518700376      8.098     11.530
REMARK  13 active torsions:
REMARK  status: ('A' for Active; 'I' for Inactive)
REMARK    1  A    between atoms: C3_3  and  C5_5 
REMARK    2  A    between atoms: C5_5  and  O2_7 
REMARK    3  A    between atoms: O2_7  and  C6_8 
REMARK    4  A    between atoms: C7_9  and  O3_10 
REMARK    5  A    between atoms: N1_21  and  O5_23 
REMARK    6  A    between atoms: C20_29  and  C21_30 
REMARK    7  A    between atoms: C21_30  and  C23_32 
REMARK    8  A    between atoms: C23_32  and  C24_33 
REMARK    9  A    between atoms: C24_33  and  C25_34 
REMARK   10  A    between atoms: C25_34  and  C26_35 
REMARK   11  A    between atoms: C26_35  and  C27_36 
REMARK   12  A    between atoms: C32_44  and  C34_46 
REMARK   13  A    between atoms: C34_46  and  O9_48 
ROOT
HETATM    1  C6  UNL     1      37.276  -7.548  14.007  1.00  0.00     0.179 C 
HETATM    2  C7  UNL     1      38.195  -6.361  14.299  1.00  0.00     0.149 C 
HETATM    3  C8  UNL     1      38.605  -6.212  15.697  1.00  0.00     0.044 C 
HETATM    4  C9  UNL     1      37.821  -6.871  16.789  1.00  0.00    -0.032 C 
HETATM    5  C10 UNL     1      38.892  -7.165  17.879  1.00  0.00     0.016 C 
HETATM    6  C11 UNL     1      36.863  -5.965  17.526  1.00  0.00     0.009 C 
HETATM    7  C12 UNL     1      37.590  -4.684  17.757  1.00  0.00     0.084 C 
HETATM    8  C13 UNL     1      37.065  -4.039  19.009  1.00  0.00     0.137 C 
HETATM    9  O4  UNL     1      37.661  -4.240  20.031  1.00  0.00    -0.297 OA
HETATM   10  C14 UNL     1      35.830  -3.150  19.062  1.00  0.00     0.108 C 
HETATM   11  C15 UNL     1      35.042  -3.599  17.869  1.00  0.00     0.030 C 
HETATM   12  N1  UNL     1      34.857  -2.732  16.939  1.00  0.00    -0.276 N 
ATOM     13  H1  UNL     1      35.273  -1.819  17.120  1.00  0.00     0.193 HD
HETATM   14  C16 UNL     1      34.544  -5.006  17.787  1.00  0.00     0.004 C 
HETATM   15  C17 UNL     1      33.204  -4.928  17.083  1.00  0.00     0.022 C 
HETATM   16  C18 UNL     1      34.273  -5.503  19.161  1.00  0.00     0.016 C 
HETATM   17  C19 UNL     1      33.955  -4.370  20.153  1.00  0.00     0.007 C 
HETATM   18  C20 UNL     1      35.081  -3.425  20.295  1.00  0.00     0.006 C 
HETATM   19  C28 UNL     1      35.485  -5.866  16.978  1.00  0.00     0.038 C 
HETATM   20  C29 UNL     1      34.942  -7.192  16.628  1.00  0.00     0.176 C 
HETATM   21  F1  UNL     1      33.804  -7.585  17.349  1.00  0.00    -0.249 F 
HETATM   22  C30 UNL     1      35.854  -8.365  16.883  1.00  0.00     0.044 C 
HETATM   23  C31 UNL     1      37.262  -8.210  16.427  1.00  0.00     0.017 C 
HETATM   24  C32 UNL     1      37.484  -8.621  14.977  1.00  0.00     0.078 C 
HETATM   25  C33 UNL     1      38.942  -9.102  14.840  1.00  0.00     0.029 C 
ENDROOT
BRANCH  18  26
HETATM   26  C21 UNL     1      34.576  -2.178  21.048  1.00  0.00    -0.013 C 
HETATM   27  C22 UNL     1      33.078  -2.144  21.077  1.00  0.00     0.010 C 
BRANCH  26  28
HETATM   28  C23 UNL     1      35.133  -0.960  20.425  1.00  0.00     0.005 C 
BRANCH  28  29
HETATM   29  C24 UNL     1      34.343   0.251  20.304  1.00  0.00     0.001 C 
BRANCH  29  30
HETATM   30  C25 UNL     1      33.787   0.773  19.059  1.00  0.00     0.010 C 
BRANCH  30  31
HETATM   31  C26 UNL     1      32.615   1.689  19.095  1.00  0.00     0.113 C 
BRANCH  31  32
HETATM   32  C27 UNL     1      33.043   3.069  19.545  1.00  0.00     0.172 C 
HETATM   33  O6  UNL     1      32.305   3.673  20.348  1.00  0.00    -0.648 OA
HETATM   34  O7  UNL     1      34.209   3.671  19.100  1.00  0.00    -0.648 OA
ENDBRANCH  31  32
ENDBRANCH  30  31
ENDBRANCH  29  30
ENDBRANCH  28  29
ENDBRANCH  26  28
ENDBRANCH  18  26
BRANCH  12  35
HETATM   35  O5  UNL     1      34.210  -2.830  15.776  1.00  0.00    -0.290 OA
ATOM     36  H5  UNL     1      34.488  -2.615  14.893  1.00  0.00     0.244 HD
ENDBRANCH  12  35
BRANCH   2  37
HETATM   37  O3  UNL     1      37.598  -5.192  13.761  1.00  0.00    -0.393 OA
ATOM     38  H3  UNL     1      37.991  -4.436  14.181  1.00  0.00     0.210 HD
ENDBRANCH   2  37
BRANCH  24  39
HETATM   39  C34 UNL     1      36.639  -9.793  14.699  1.00  0.00     0.270 C 
HETATM   40  O8  UNL     1      35.497  -9.763  14.205  1.00  0.00    -0.264 OA
BRANCH  39  41
HETATM   41  O9  UNL     1      37.093 -11.104  14.989  1.00  0.00    -0.326 OA
HETATM   42  C35 UNL     1      36.192 -12.169  15.217  1.00  0.00     0.213 C 
ENDBRANCH  39  41
ENDBRANCH  24  39
BRANCH   1  43
HETATM   43  O2  UNL     1      37.539  -8.047  12.703  1.00  0.00    -0.308 OA
BRANCH  43  44
HETATM   44  C5  UNL     1      36.711  -7.776  11.628  1.00  0.00     0.289 C 
HETATM   45  O1  UNL     1      36.111  -6.657  11.655  1.00  0.00    -0.260 OA
BRANCH  44  46
HETATM   46  C3  UNL     1      36.555  -8.719  10.562  1.00  0.00     0.009 C 
HETATM   47  C2  UNL     1      36.440  -8.436   9.288  1.00  0.00    -0.018 C 
HETATM   48  C1  UNL     1      36.466  -7.038   8.818  1.00  0.00     0.036 C 
HETATM   49  C4  UNL     1      36.515 -10.172  10.925  1.00  0.00     0.054 C 
ENDBRANCH  44  46
ENDBRANCH  43  44
ENDBRANCH   1  43
TORSDOF 13
ENDMDL
