MODEL 1
REMARK VINA RESULT: -7.902849755      0.000      0.000
REMARK  14 active torsions:
REMARK  status: ('A' for Active; 'I' for Inactive)
REMARK    1  A    between atoms: C2_2  and  O2_4 
REMARK    2  A    between atoms: O2_4  and  C3_5 
REMARK    3  A    between atoms: C18_20  and  O3_21 
REMARK    4  A    between atoms: O3_21  and  C19_22 
REMARK    5  A    between atoms: C20_24  and  C21_25 
REMARK    6  A    between atoms: C21_25  and  O5_26 
REMARK    7  A    between atoms: O5_26  and  C22_27 
REMARK    8  A    between atoms: C22_27  and  C23_29 
REMARK    9  A    between atoms: C23_29  and  C24_30 
REMARK   10  A    between atoms: C24_30  and  C25_31 
REMARK   11  A    between atoms: C25_31  and  N1_32 
REMARK   12  A    between atoms: C25_31  and  C26_36 
REMARK   13  A    between atoms: C28_40  and  O9_41 
REMARK   14  A    between atoms: C29_43  and  C30_44 
ROOT
HETATM    1  C3  UNL     1      30.283 -14.071  13.970  1.00  0.00     0.160 C 
HETATM    2  C4  UNL     1      30.694 -15.431  14.577  1.00  0.00     0.040 C 
HETATM    3  C5  UNL     1      31.581 -15.542  15.694  1.00  0.00    -0.003 C 
HETATM    4  C6  UNL     1      31.704 -17.048  16.005  1.00  0.00    -0.002 A 
HETATM    5  C7  UNL     1      32.706 -17.842  15.304  1.00  0.00     0.006 A 
HETATM    6  C8  UNL     1      33.549 -17.922  16.545  1.00  0.00     0.010 A 
HETATM    7  C9  UNL     1      32.459 -17.193  17.279  1.00  0.00    -0.040 A 
HETATM    8  C10 UNL     1      31.656 -18.081  18.240  1.00  0.00     0.015 C 
HETATM    9  C11 UNL     1      32.834 -15.942  17.975  1.00  0.00     0.010 C 
HETATM   10  C12 UNL     1      33.474 -14.889  17.096  1.00  0.00     0.006 C 
HETATM   11  C13 UNL     1      32.981 -14.996  15.709  1.00  0.00    -0.002 C 
HETATM   12  C14 UNL     1      32.905 -13.729  14.907  1.00  0.00    -0.038 C 
HETATM   13  C15 UNL     1      32.156 -12.826  15.768  1.00  0.00     0.015 C 
HETATM   14  C16 UNL     1      34.200 -12.970  14.673  1.00  0.00     0.012 C 
HETATM   15  C17 UNL     1      33.601 -11.683  14.052  1.00  0.00     0.037 C 
HETATM   16  C18 UNL     1      32.960 -11.803  12.764  1.00  0.00     0.156 C 
HETATM   17  C29 UNL     1      31.600 -12.332  12.467  1.00  0.00    -0.024 C 
HETATM   18  C33 UNL     1      31.242 -13.661  12.987  1.00  0.00     0.090 C 
HETATM   19 CL1  UNL     1      31.002 -14.877  11.623  1.00  0.00    -0.111 Cl
HETATM   20  C34 UNL     1      32.578 -14.182  13.568  1.00  0.00     0.042 C 
ENDROOT
BRANCH  16  21
HETATM   21  O3  UNL     1      32.959 -10.459  12.273  1.00  0.00    -0.349 OA
BRANCH  21  22
HETATM   22  C19 UNL     1      33.380 -10.354  10.971  1.00  0.00     0.289 C 
HETATM   23  O4  UNL     1      32.976  -9.196  10.367  1.00  0.00    -0.351 OA
HETATM   24  C20 UNL     1      33.711  -9.188   9.137  1.00  0.00     0.151 C 
HETATM   25  C27 UNL     1      35.106  -9.449   9.622  1.00  0.00     0.071 C 
HETATM   26  C28 UNL     1      34.879 -10.328  10.834  1.00  0.00     0.175 C 
BRANCH  24  27
HETATM   27  C21 UNL     1      33.563  -7.783   8.631  1.00  0.00     0.210 C 
BRANCH  27  28
HETATM   28  O5  UNL     1      34.151  -6.794   9.316  1.00  0.00    -0.319 OA
BRANCH  28  29
HETATM   29  C22 UNL     1      34.970  -5.761   9.082  1.00  0.00     0.258 C 
HETATM   30  O6  UNL     1      34.616  -4.881   8.269  1.00  0.00    -0.265 OA
BRANCH  29  31
HETATM   31  C23 UNL     1      36.311  -5.633   9.778  1.00  0.00     0.113 C 
BRANCH  31  32
HETATM   32  C24 UNL     1      36.243  -6.273  11.110  1.00  0.00     0.054 C 
BRANCH  32  33
HETATM   33  C25 UNL     1      37.310  -5.838  12.048  1.00  0.00     0.283 C 
BRANCH  33  34
HETATM   34  N1  UNL     1      36.908  -4.585  12.721  1.00  0.00    -0.065 N 
ATOM     35  H13 UNL     1      36.708  -3.840  12.054  1.00  0.00     0.275 HD
ATOM     36  H12 UNL     1      35.982  -4.658  13.143  1.00  0.00     0.275 HD
ATOM     37  H11 UNL     1      37.618  -4.313  13.400  1.00  0.00     0.275 HD
ENDBRANCH  33  34
BRANCH  33  38
HETATM   38  C26 UNL     1      37.483  -6.874  13.116  1.00  0.00     0.204 C 
HETATM   39  O7  UNL     1      36.540  -7.522  13.629  1.00  0.00    -0.646 OA
HETATM   40  O8  UNL     1      38.769  -7.137  13.569  1.00  0.00    -0.646 OA
ENDBRANCH  33  38
ENDBRANCH  32  33
ENDBRANCH  31  32
ENDBRANCH  29  31
ENDBRANCH  28  29
ENDBRANCH  27  28
ENDBRANCH  24  27
BRANCH  26  41
HETATM   41  O9  UNL     1      35.482  -9.685  11.927  1.00  0.00    -0.391 OA
ATOM     42  H9  UNL     1      36.415  -9.576  11.792  1.00  0.00     0.210 HD
ENDBRANCH  26  41
ENDBRANCH  21  22
ENDBRANCH  16  21
BRANCH  17  43
HETATM   43  C30 UNL     1      30.550 -11.311  12.193  1.00  0.00    -0.081 C 
HETATM   44  C31 UNL     1      29.891 -10.588  13.297  1.00  0.00     0.043 C 
HETATM   45  C32 UNL     1      29.567 -11.601  11.106  1.00  0.00     0.043 C 
ENDBRANCH  17  43
BRANCH   1  46
HETATM   46  O2  UNL     1      29.079 -14.497  13.264  1.00  0.00    -0.314 OA
BRANCH  46  47
HETATM   47  C2  UNL     1      27.812 -14.286  13.786  1.00  0.00     0.255 C 
HETATM   48  C1  UNL     1      27.570 -13.064  14.634  1.00  0.00     0.126 C 
HETATM   49  O1  UNL     1      26.905 -15.109  13.543  1.00  0.00    -0.266 OA
ENDBRANCH  46  47
ENDBRANCH   1  46
TORSDOF 14
ENDMDL
MODEL 2
REMARK VINA RESULT: -7.677955917      8.730     11.926
REMARK  14 active torsions:
REMARK  status: ('A' for Active; 'I' for Inactive)
REMARK    1  A    between atoms: C2_2  and  O2_4 
REMARK    2  A    between atoms: O2_4  and  C3_5 
REMARK    3  A    between atoms: C18_20  and  O3_21 
REMARK    4  A    between atoms: O3_21  and  C19_22 
REMARK    5  A    between atoms: C20_24  and  C21_25 
REMARK    6  A    between atoms: C21_25  and  O5_26 
REMARK    7  A    between atoms: O5_26  and  C22_27 
REMARK    8  A    between atoms: C22_27  and  C23_29 
REMARK    9  A    between atoms: C23_29  and  C24_30 
REMARK   10  A    between atoms: C24_30  and  C25_31 
REMARK   11  A    between atoms: C25_31  and  N1_32 
REMARK   12  A    between atoms: C25_31  and  C26_36 
REMARK   13  A    between atoms: C28_40  and  O9_41 
REMARK   14  A    between atoms: C29_43  and  C30_44 
ROOT
HETATM    1  C3  UNL     1      34.444  -5.879  17.325  1.00  0.00     0.160 C 
HETATM    2  C4  UNL     1      35.435  -6.193  16.182  1.00  0.00     0.040 C 
HETATM    3  C5  UNL     1      36.724  -6.770  16.415  1.00  0.00    -0.003 C 
HETATM    4  C6  UNL     1      37.376  -6.952  15.028  1.00  0.00    -0.002 A 
HETATM    5  C7  UNL     1      38.125  -5.848  14.441  1.00  0.00     0.006 A 
HETATM    6  C8  UNL     1      39.424  -6.556  14.704  1.00  0.00     0.010 A 
HETATM    7  C9  UNL     1      38.632  -7.728  15.211  1.00  0.00    -0.040 A 
HETATM    8  C10 UNL     1      38.623  -8.931  14.256  1.00  0.00     0.015 C 
HETATM    9  C11 UNL     1      38.927  -8.201  16.582  1.00  0.00     0.010 C 
HETATM   10  C12 UNL     1      38.790  -7.150  17.663  1.00  0.00     0.006 C 
HETATM   11  C13 UNL     1      37.773  -6.147  17.292  1.00  0.00    -0.002 C 
HETATM   12  C14 UNL     1      37.004  -5.502  18.408  1.00  0.00    -0.038 C 
HETATM   13  C15 UNL     1      36.513  -6.634  19.180  1.00  0.00     0.015 C 
HETATM   14  C16 UNL     1      37.795  -4.713  19.438  1.00  0.00     0.012 C 
HETATM   15  C17 UNL     1      36.658  -4.471  20.462  1.00  0.00     0.037 C 
HETATM   16  C18 UNL     1      35.563  -3.624  20.050  1.00  0.00     0.156 C 
HETATM   17  C29 UNL     1      34.416  -3.978  19.171  1.00  0.00    -0.024 C 
HETATM   18  C33 UNL     1      34.704  -4.573  17.856  1.00  0.00     0.090 C 
HETATM   19 CL1  UNL     1      34.213  -3.446  16.483  1.00  0.00    -0.111 Cl
HETATM   20  C34 UNL     1      36.244  -4.457  17.750  1.00  0.00     0.042 C 
ENDROOT
BRANCH  16  21
HETATM   21  O3  UNL     1      34.978  -3.222  21.293  1.00  0.00    -0.349 OA
BRANCH  21  22
HETATM   22  C19 UNL     1      35.333  -1.952  21.676  1.00  0.00     0.289 C 
HETATM   23  O4  UNL     1      35.515  -1.102  20.620  1.00  0.00    -0.351 OA
HETATM   24  C20 UNL     1      35.634   0.182  21.244  1.00  0.00     0.151 C 
HETATM   25  C27 UNL     1      34.432   0.191  22.141  1.00  0.00     0.071 C 
HETATM   26  C28 UNL     1      34.282  -1.270  22.510  1.00  0.00     0.175 C 
BRANCH  24  27
HETATM   27  C21 UNL     1      35.477   1.154  20.112  1.00  0.00     0.210 C 
BRANCH  27  28
HETATM   28  O5  UNL     1      34.249   1.608  19.827  1.00  0.00    -0.319 OA
BRANCH  28  29
HETATM   29  C22 UNL     1      33.662   2.757  19.472  1.00  0.00     0.258 C 
HETATM   30  O6  UNL     1      34.376   3.712  19.101  1.00  0.00    -0.265 OA
BRANCH  29  31
HETATM   31  C23 UNL     1      32.156   2.928  19.510  1.00  0.00     0.113 C 
BRANCH  31  32
HETATM   32  C24 UNL     1      31.589   2.105  20.601  1.00  0.00     0.054 C 
BRANCH  32  33
HETATM   33  C25 UNL     1      30.906   0.870  20.139  1.00  0.00     0.283 C 
BRANCH  33  34
HETATM   34  N1  UNL     1      31.907  -0.179  19.850  1.00  0.00    -0.065 N 
ATOM     35  H13 UNL     1      31.721  -0.653  18.966  1.00  0.00     0.275 HD
ATOM     36  H12 UNL     1      32.819   0.216  19.616  1.00  0.00     0.275 HD
ATOM     37  H11 UNL     1      31.961  -0.831  20.632  1.00  0.00     0.275 HD
ENDBRANCH  33  34
BRANCH  33  38
HETATM   38  C26 UNL     1      30.029   0.349  21.236  1.00  0.00     0.204 C 
HETATM   39  O7  UNL     1      30.439   0.035  22.378  1.00  0.00    -0.646 OA
HETATM   40  O8  UNL     1      28.673   0.204  20.974  1.00  0.00    -0.646 OA
ENDBRANCH  33  38
ENDBRANCH  32  33
ENDBRANCH  31  32
ENDBRANCH  29  31
ENDBRANCH  28  29
ENDBRANCH  27  28
ENDBRANCH  24  27
BRANCH  26  41
HETATM   41  O9  UNL     1      32.989  -1.661  22.124  1.00  0.00    -0.391 OA
ATOM     42  H9  UNL     1      32.525  -2.078  22.840  1.00  0.00     0.210 HD
ENDBRANCH  26  41
ENDBRANCH  21  22
ENDBRANCH  16  21
BRANCH  17  43
HETATM   43  C30 UNL     1      33.123  -4.246  19.862  1.00  0.00    -0.081 C 
HETATM   44  C31 UNL     1      32.848  -5.561  20.471  1.00  0.00     0.043 C 
HETATM   45  C32 UNL     1      31.879  -3.692  19.247  1.00  0.00     0.043 C 
ENDBRANCH  17  43
BRANCH   1  46
HETATM   46  O2  UNL     1      33.216  -5.800  16.540  1.00  0.00    -0.314 OA
BRANCH  46  47
HETATM   47  C2  UNL     1      32.101  -6.563  16.850  1.00  0.00     0.255 C 
HETATM   48  C1  UNL     1      32.287  -7.836  17.634  1.00  0.00     0.126 C 
HETATM   49  O1  UNL     1      30.973  -6.181  16.473  1.00  0.00    -0.266 OA
ENDBRANCH  46  47
ENDBRANCH   1  46
TORSDOF 14
ENDMDL
MODEL 3
REMARK VINA RESULT: -7.640350751      2.658      4.538
REMARK  14 active torsions:
REMARK  status: ('A' for Active; 'I' for Inactive)
REMARK    1  A    between atoms: C2_2  and  O2_4 
REMARK    2  A    between atoms: O2_4  and  C3_5 
REMARK    3  A    between atoms: C18_20  and  O3_21 
REMARK    4  A    between atoms: O3_21  and  C19_22 
REMARK    5  A    between atoms: C20_24  and  C21_25 
REMARK    6  A    between atoms: C21_25  and  O5_26 
REMARK    7  A    between atoms: O5_26  and  C22_27 
REMARK    8  A    between atoms: C22_27  and  C23_29 
REMARK    9  A    between atoms: C23_29  and  C24_30 
REMARK   10  A    between atoms: C24_30  and  C25_31 
REMARK   11  A    between atoms: C25_31  and  N1_32 
REMARK   12  A    between atoms: C25_31  and  C26_36 
REMARK   13  A    between atoms: C28_40  and  O9_41 
REMARK   14  A    between atoms: C29_43  and  C30_44 
ROOT
HETATM    1  C3  UNL     1      29.929 -12.542  15.010  1.00  0.00     0.160 C 
HETATM    2  C4  UNL     1      28.925 -13.251  14.074  1.00  0.00     0.040 C 
HETATM    3  C5  UNL     1      29.227 -14.480  13.405  1.00  0.00    -0.003 C 
HETATM    4  C6  UNL     1      27.964 -14.862  12.606  1.00  0.00    -0.002 A 
HETATM    5  C7  UNL     1      27.782 -14.332  11.260  1.00  0.00     0.006 A 
HETATM    6  C8  UNL     1      28.085 -15.677  10.662  1.00  0.00     0.010 A 
HETATM    7  C9  UNL     1      28.166 -16.231  12.056  1.00  0.00    -0.040 A 
HETATM    8  C10 UNL     1      26.969 -17.110  12.446  1.00  0.00     0.015 C 
HETATM    9  C11 UNL     1      29.418 -16.921  12.438  1.00  0.00     0.010 C 
HETATM   10  C12 UNL     1      30.677 -16.094  12.281  1.00  0.00     0.006 C 
HETATM   11  C13 UNL     1      30.386 -14.659  12.467  1.00  0.00    -0.002 C 
HETATM   12  C14 UNL     1      31.479 -13.806  13.042  1.00  0.00    -0.038 C 
HETATM   13  C15 UNL     1      31.873 -14.524  14.244  1.00  0.00     0.015 C 
HETATM   14  C16 UNL     1      32.781 -13.717  12.264  1.00  0.00     0.012 C 
HETATM   15  C17 UNL     1      33.630 -12.972  13.325  1.00  0.00     0.037 C 
HETATM   16  C18 UNL     1      33.252 -11.616  13.645  1.00  0.00     0.156 C 
HETATM   17  C29 UNL     1      32.136 -11.162  14.520  1.00  0.00    -0.024 C 
HETATM   18  C33 UNL     1      30.786 -11.681  14.251  1.00  0.00     0.090 C 
HETATM   19 CL1  UNL     1      29.652 -10.345  13.680  1.00  0.00    -0.111 Cl
HETATM   20  C34 UNL     1      30.966 -12.454  12.922  1.00  0.00     0.042 C 
ENDROOT
BRANCH  16  21
HETATM   21  O3  UNL     1      34.439 -11.078  14.235  1.00  0.00    -0.349 OA
BRANCH  21  22
HETATM   22  C19 UNL     1      35.463 -10.902  13.338  1.00  0.00     0.289 C 
HETATM   23  O4  UNL     1      35.104 -10.148  12.254  1.00  0.00    -0.351 OA
HETATM   24  C20 UNL     1      36.352  -9.897  11.596  1.00  0.00     0.151 C 
HETATM   25  C27 UNL     1      37.194  -9.400  12.733  1.00  0.00     0.071 C 
HETATM   26  C28 UNL     1      36.638 -10.163  13.917  1.00  0.00     0.175 C 
BRANCH  24  27
HETATM   27  C21 UNL     1      36.039  -8.795  10.626  1.00  0.00     0.210 C 
BRANCH  27  28
HETATM   28  O5  UNL     1      35.826  -7.564  11.108  1.00  0.00    -0.319 OA
BRANCH  28  29
HETATM   29  C22 UNL     1      36.387  -6.350  11.042  1.00  0.00     0.258 C 
HETATM   30  O6  UNL     1      37.195  -6.009  11.930  1.00  0.00    -0.265 OA
BRANCH  29  31
HETATM   31  C23 UNL     1      36.067  -5.384   9.919  1.00  0.00     0.113 C 
BRANCH  31  32
HETATM   32  C24 UNL     1      35.488  -6.123   8.776  1.00  0.00     0.054 C 
BRANCH  32  33
HETATM   33  C25 UNL     1      34.137  -5.656   8.370  1.00  0.00     0.283 C 
BRANCH  33  34
HETATM   34  N1  UNL     1      34.114  -5.389   6.917  1.00  0.00    -0.065 N 
ATOM     35  H13 UNL     1      33.655  -4.504   6.697  1.00  0.00     0.275 HD
ATOM     36  H12 UNL     1      35.041  -5.169   6.553  1.00  0.00     0.275 HD
ATOM     37  H11 UNL     1      33.686  -6.175   6.427  1.00  0.00     0.275 HD
ENDBRANCH  33  34
BRANCH  33  38
HETATM   38  C26 UNL     1      33.138  -6.741   8.633  1.00  0.00     0.204 C 
HETATM   39  O7  UNL     1      32.858  -7.180   9.773  1.00  0.00    -0.646 OA
HETATM   40  O8  UNL     1      32.477  -7.297   7.545  1.00  0.00    -0.646 OA
ENDBRANCH  33  38
ENDBRANCH  32  33
ENDBRANCH  31  32
ENDBRANCH  29  31
ENDBRANCH  28  29
ENDBRANCH  27  28
ENDBRANCH  24  27
BRANCH  26  41
HETATM   41  O9  UNL     1      36.227  -9.209  14.864  1.00  0.00    -0.391 OA
ATOM     42  H9  UNL     1      35.960  -9.622  15.676  1.00  0.00     0.210 HD
ENDBRANCH  26  41
ENDBRANCH  21  22
ENDBRANCH  16  21
BRANCH  17  43
HETATM   43  C30 UNL     1      32.522 -10.711  15.886  1.00  0.00    -0.081 C 
HETATM   44  C31 UNL     1      32.637 -11.675  16.997  1.00  0.00     0.043 C 
HETATM   45  C32 UNL     1      31.951  -9.421  16.379  1.00  0.00     0.043 C 
ENDBRANCH  17  43
BRANCH   1  46
HETATM   46  O2  UNL     1      28.992 -11.700  15.746  1.00  0.00    -0.314 OA
BRANCH  46  47
HETATM   47  C2  UNL     1      28.766 -11.869  17.102  1.00  0.00     0.255 C 
HETATM   48  C1  UNL     1      29.019 -10.710  18.032  1.00  0.00     0.126 C 
HETATM   49  O1  UNL     1      28.360 -12.972  17.523  1.00  0.00    -0.266 OA
ENDBRANCH  46  47
ENDBRANCH   1  46
TORSDOF 14
ENDMDL
MODEL 4
REMARK VINA RESULT: -7.637473921      6.381      9.681
REMARK  14 active torsions:
REMARK  status: ('A' for Active; 'I' for Inactive)
REMARK    1  A    between atoms: C2_2  and  O2_4 
REMARK    2  A    between atoms: O2_4  and  C3_5 
REMARK    3  A    between atoms: C18_20  and  O3_21 
REMARK    4  A    between atoms: O3_21  and  C19_22 
REMARK    5  A    between atoms: C20_24  and  C21_25 
REMARK    6  A    between atoms: C21_25  and  O5_26 
REMARK    7  A    between atoms: O5_26  and  C22_27 
REMARK    8  A    between atoms: C22_27  and  C23_29 
REMARK    9  A    between atoms: C23_29  and  C24_30 
REMARK   10  A    between atoms: C24_30  and  C25_31 
REMARK   11  A    between atoms: C25_31  and  N1_32 
REMARK   12  A    between atoms: C25_31  and  C26_36 
REMARK   13  A    between atoms: C28_40  and  O9_41 
REMARK   14  A    between atoms: C29_43  and  C30_44 
ROOT
HETATM    1  C3  UNL     1      38.397  -6.978  20.358  1.00  0.00     0.160 C 
HETATM    2  C4  UNL     1      39.205  -7.801  21.386  1.00  0.00     0.040 C 
HETATM    3  C5  UNL     1      40.378  -8.541  21.033  1.00  0.00    -0.003 C 
HETATM    4  C6  UNL     1      40.895  -9.185  22.336  1.00  0.00    -0.002 A 
HETATM    5  C7  UNL     1      40.368 -10.480  22.750  1.00  0.00     0.006 A 
HETATM    6  C8  UNL     1      41.658 -11.154  22.374  1.00  0.00     0.010 A 
HETATM    7  C9  UNL     1      42.220  -9.799  22.050  1.00  0.00    -0.040 A 
HETATM    8  C10 UNL     1      43.242  -9.288  23.077  1.00  0.00     0.015 C 
HETATM    9  C11 UNL     1      42.763  -9.601  20.688  1.00  0.00     0.010 C 
HETATM   10  C12 UNL     1      41.790  -9.890  19.564  1.00  0.00     0.006 C 
HETATM   11  C13 UNL     1      40.403  -9.624  19.992  1.00  0.00    -0.002 C 
HETATM   12  C14 UNL     1      39.435  -9.165  18.940  1.00  0.00    -0.038 C 
HETATM   13  C15 UNL     1      40.121  -8.046  18.313  1.00  0.00     0.015 C 
HETATM   14  C16 UNL     1      39.180 -10.099  17.769  1.00  0.00     0.012 C 
HETATM   15  C17 UNL     1      38.357  -9.132  16.881  1.00  0.00     0.037 C 
HETATM   16  C18 UNL     1      37.061  -8.724  17.369  1.00  0.00     0.156 C 
HETATM   17  C29 UNL     1      36.756  -7.701  18.407  1.00  0.00    -0.024 C 
HETATM   18  C33 UNL     1      37.427  -7.813  19.712  1.00  0.00     0.090 C 
HETATM   19 CL1  UNL     1      36.227  -8.193  21.058  1.00  0.00    -0.111 Cl
HETATM   20  C34 UNL     1      38.153  -9.176  19.617  1.00  0.00     0.042 C 
ENDROOT
BRANCH  16  21
HETATM   21  O3  UNL     1      36.395  -8.272  16.186  1.00  0.00    -0.349 OA
BRANCH  21  22
HETATM   22  C19 UNL     1      37.060  -8.594  15.030  1.00  0.00     0.289 C 
HETATM   23  O4  UNL     1      36.325  -9.385  14.189  1.00  0.00    -0.351 OA
HETATM   24  C20 UNL     1      37.095  -9.392  12.981  1.00  0.00     0.151 C 
HETATM   25  C27 UNL     1      37.335  -7.926  12.772  1.00  0.00     0.071 C 
HETATM   26  C28 UNL     1      37.400  -7.394  14.188  1.00  0.00     0.175 C 
BRANCH  24  27
HETATM   27  C21 UNL     1      36.155  -9.944  11.951  1.00  0.00     0.210 C 
BRANCH  27  28
HETATM   28  O5  UNL     1      35.115  -9.192  11.570  1.00  0.00    -0.319 OA
BRANCH  28  29
HETATM   29  C22 UNL     1      34.433  -8.914  10.451  1.00  0.00     0.258 C 
HETATM   30  O6  UNL     1      33.185  -8.917  10.487  1.00  0.00    -0.265 OA
BRANCH  29  31
HETATM   31  C23 UNL     1      35.137  -8.599   9.146  1.00  0.00     0.113 C 
BRANCH  31  32
HETATM   32  C24 UNL     1      35.833  -7.298   9.257  1.00  0.00     0.054 C 
BRANCH  32  33
HETATM   33  C25 UNL     1      34.934  -6.148   9.529  1.00  0.00     0.283 C 
BRANCH  33  34
HETATM   34  N1  UNL     1      35.729  -4.910   9.666  1.00  0.00    -0.065 N 
ATOM     35  H13 UNL     1      35.565  -4.262   8.896  1.00  0.00     0.275 HD
ATOM     36  H12 UNL     1      35.393  -4.322  10.429  1.00  0.00     0.275 HD
ATOM     37  H11 UNL     1      36.717  -5.143   9.768  1.00  0.00     0.275 HD
ENDBRANCH  33  34
BRANCH  33  38
HETATM   38  C26 UNL     1      34.014  -5.952   8.363  1.00  0.00     0.204 C 
HETATM   39  O7  UNL     1      34.393  -5.632   7.212  1.00  0.00    -0.646 OA
HETATM   40  O8  UNL     1      32.653  -6.138   8.566  1.00  0.00    -0.646 OA
ENDBRANCH  33  38
ENDBRANCH  32  33
ENDBRANCH  31  32
ENDBRANCH  29  31
ENDBRANCH  28  29
ENDBRANCH  27  28
ENDBRANCH  24  27
BRANCH  26  41
HETATM   41  O9  UNL     1      36.417  -6.396  14.298  1.00  0.00    -0.391 OA
ATOM     42  H9  UNL     1      36.801  -5.528  14.278  1.00  0.00     0.210 HD
ENDBRANCH  26  41
ENDBRANCH  21  22
ENDBRANCH  16  21
BRANCH  17  43
HETATM   43  C30 UNL     1      36.285  -6.381  17.903  1.00  0.00    -0.081 C 
HETATM   44  C31 UNL     1      37.244  -5.367  17.424  1.00  0.00     0.043 C 
HETATM   45  C32 UNL     1      35.157  -5.722  18.629  1.00  0.00     0.043 C 
ENDBRANCH  17  43
BRANCH   1  46
HETATM   46  O2  UNL     1      37.684  -6.104  21.283  1.00  0.00    -0.314 OA
BRANCH  46  47
HETATM   47  C2  UNL     1      37.687  -4.726  21.136  1.00  0.00     0.255 C 
HETATM   48  C1  UNL     1      36.881  -3.890  22.097  1.00  0.00     0.126 C 
HETATM   49  O1  UNL     1      38.354  -4.209  20.216  1.00  0.00    -0.266 OA
ENDBRANCH  46  47
ENDBRANCH   1  46
TORSDOF 14
ENDMDL
MODEL 5
REMARK VINA RESULT: -7.580957491      6.814     11.837
REMARK  14 active torsions:
REMARK  status: ('A' for Active; 'I' for Inactive)
REMARK    1  A    between atoms: C2_2  and  O2_4 
REMARK    2  A    between atoms: O2_4  and  C3_5 
REMARK    3  A    between atoms: C18_20  and  O3_21 
REMARK    4  A    between atoms: O3_21  and  C19_22 
REMARK    5  A    between atoms: C20_24  and  C21_25 
REMARK    6  A    between atoms: C21_25  and  O5_26 
REMARK    7  A    between atoms: O5_26  and  C22_27 
REMARK    8  A    between atoms: C22_27  and  C23_29 
REMARK    9  A    between atoms: C23_29  and  C24_30 
REMARK   10  A    between atoms: C24_30  and  C25_31 
REMARK   11  A    between atoms: C25_31  and  N1_32 
REMARK   12  A    between atoms: C25_31  and  C26_36 
REMARK   13  A    between atoms: C28_40  and  O9_41 
REMARK   14  A    between atoms: C29_43  and  C30_44 
ROOT
HETATM    1  C3  UNL     1      36.200  -4.841  19.302  1.00  0.00     0.160 C 
HETATM    2  C4  UNL     1      36.067  -3.303  19.345  1.00  0.00     0.040 C 
HETATM    3  C5  UNL     1      34.853  -2.642  19.716  1.00  0.00    -0.003 C 
HETATM    4  C6  UNL     1      35.147  -1.129  19.664  1.00  0.00    -0.002 A 
HETATM    5  C7  UNL     1      34.991  -0.414  18.403  1.00  0.00     0.006 A 
HETATM    6  C8  UNL     1      33.740   0.250  18.904  1.00  0.00     0.010 A 
HETATM    7  C9  UNL     1      33.972  -0.413  20.232  1.00  0.00    -0.040 A 
HETATM    8  C10 UNL     1      34.451   0.546  21.330  1.00  0.00     0.015 C 
HETATM    9  C11 UNL     1      32.878  -1.254  20.767  1.00  0.00     0.010 C 
HETATM   10  C12 UNL     1      32.428  -2.375  19.854  1.00  0.00     0.006 C 
HETATM   11  C13 UNL     1      33.543  -2.839  19.006  1.00  0.00    -0.002 C 
HETATM   12  C14 UNL     1      33.542  -4.284  18.599  1.00  0.00    -0.038 C 
HETATM   13  C15 UNL     1      33.379  -4.991  19.861  1.00  0.00     0.015 C 
HETATM   14  C16 UNL     1      32.361  -4.780  17.783  1.00  0.00     0.012 C 
HETATM   15  C17 UNL     1      32.675  -6.297  17.826  1.00  0.00     0.037 C 
HETATM   16  C18 UNL     1      33.863  -6.747  17.141  1.00  0.00     0.156 C 
HETATM   17  C29 UNL     1      35.275  -6.652  17.603  1.00  0.00    -0.024 C 
HETATM   18  C33 UNL     1      35.782  -5.336  18.023  1.00  0.00     0.090 C 
HETATM   19 CL1  UNL     1      37.087  -4.719  16.878  1.00  0.00    -0.111 Cl
HETATM   20  C34 UNL     1      34.628  -4.378  17.642  1.00  0.00     0.042 C 
ENDROOT
BRANCH  16  21
HETATM   21  O3  UNL     1      33.621  -8.145  16.953  1.00  0.00    -0.349 OA
BRANCH  21  22
HETATM   22  C19 UNL     1      32.304  -8.497  17.117  1.00  0.00     0.289 C 
HETATM   23  O4  UNL     1      31.781  -9.145  16.032  1.00  0.00    -0.351 OA
HETATM   24  C20 UNL     1      30.515  -9.618  16.506  1.00  0.00     0.151 C 
HETATM   25  C27 UNL     1      30.907 -10.291  17.787  1.00  0.00     0.071 C 
HETATM   26  C28 UNL     1      32.085  -9.460  18.252  1.00  0.00     0.175 C 
BRANCH  24  27
HETATM   27  C21 UNL     1      30.088 -10.619  15.473  1.00  0.00     0.210 C 
BRANCH  27  28
HETATM   28  O5  UNL     1      30.183 -10.280  14.181  1.00  0.00    -0.319 OA
BRANCH  28  29
HETATM   29  C22 UNL     1      29.797 -10.753  12.988  1.00  0.00     0.258 C 
HETATM   30  O6  UNL     1      30.585 -10.672  12.023  1.00  0.00    -0.265 OA
BRANCH  29  31
HETATM   31  C23 UNL     1      28.433 -11.382  12.783  1.00  0.00     0.113 C 
BRANCH  31  32
HETATM   32  C24 UNL     1      28.361 -11.987  11.435  1.00  0.00     0.054 C 
BRANCH  32  33
HETATM   33  C25 UNL     1      27.195 -11.542  10.630  1.00  0.00     0.283 C 
BRANCH  33  34
HETATM   34  N1  UNL     1      27.651 -11.065   9.307  1.00  0.00    -0.065 N 
ATOM     35  H13 UNL     1      28.645 -11.239   9.159  1.00  0.00     0.275 HD
ATOM     36  H12 UNL     1      27.284 -11.637   8.546  1.00  0.00     0.275 HD
ATOM     37  H11 UNL     1      27.413 -10.079   9.194  1.00  0.00     0.275 HD
ENDBRANCH  33  34
BRANCH  33  38
HETATM   38  C26 UNL     1      26.287 -12.709  10.387  1.00  0.00     0.204 C 
HETATM   39  O7  UNL     1      25.531 -13.206  11.253  1.00  0.00    -0.646 OA
HETATM   40  O8  UNL     1      26.280 -13.277   9.120  1.00  0.00    -0.646 OA
ENDBRANCH  33  38
ENDBRANCH  32  33
ENDBRANCH  31  32
ENDBRANCH  29  31
ENDBRANCH  28  29
ENDBRANCH  27  28
ENDBRANCH  24  27
BRANCH  26  41
HETATM   41  O9  UNL     1      33.175 -10.335  18.397  1.00  0.00    -0.391 OA
ATOM     42  H9  UNL     1      33.584 -10.519  17.560  1.00  0.00     0.210 HD
ENDBRANCH  26  41
ENDBRANCH  21  22
ENDBRANCH  16  21
BRANCH  17  43
HETATM   43  C30 UNL     1      35.870  -7.906  18.143  1.00  0.00    -0.081 C 
HETATM   44  C31 UNL     1      35.671  -8.294  19.552  1.00  0.00     0.043 C 
HETATM   45  C32 UNL     1      37.251  -8.267  17.699  1.00  0.00     0.043 C 
ENDBRANCH  17  43
BRANCH   1  46
HETATM   46  O2  UNL     1      37.655  -4.941  19.362  1.00  0.00    -0.314 OA
BRANCH  46  47
HETATM   47  C2  UNL     1      38.295  -5.722  20.311  1.00  0.00     0.255 C 
HETATM   48  C1  UNL     1      37.656  -5.890  21.665  1.00  0.00     0.126 C 
HETATM   49  O1  UNL     1      39.382  -6.266  20.025  1.00  0.00    -0.266 OA
ENDBRANCH  46  47
ENDBRANCH   1  46
TORSDOF 14
ENDMDL
