MODEL 1
REMARK VINA RESULT: -9.135671131      0.000      0.000
REMARK  10 active torsions:
REMARK  status: ('A' for Active; 'I' for Inactive)
REMARK    1  A    between atoms: O1_2  and  C2_3 
REMARK    2  A    between atoms: C4_5  and  O2_6 
REMARK    3  A    between atoms: C7_9  and  C8_10 
REMARK    4  A    between atoms: C8_10  and  C9_11 
REMARK    5  A    between atoms: C8_10  and  C26_33 
REMARK    6  A    between atoms: N2_16  and  C12_17 
REMARK    7  A    between atoms: C12_17  and  C13_18 
REMARK    8  A    between atoms: C16_21  and  C17_22 
REMARK    9  A    between atoms: C27_34  and  O4_35 
REMARK   10  A    between atoms: N4_41  and  C29_42 
ROOT
HETATM    1  C8  UNL     1      36.608  -6.268  18.094  1.00  0.00     0.011 C 
ENDROOT
BRANCH   1   2
HETATM    2  C7  UNL     1      36.676  -6.810  19.486  1.00  0.00    -0.018 A 
HETATM    3  C6  UNL     1      37.935  -6.868  20.078  1.00  0.00     0.049 A 
HETATM    4  C4  UNL     1      38.155  -7.350  21.351  1.00  0.00     0.071 A 
HETATM    5  C3  UNL     1      37.037  -7.785  22.033  1.00  0.00     0.073 A 
HETATM    6  C2  UNL     1      35.780  -7.734  21.462  1.00  0.00     0.071 A 
HETATM    7  C36 UNL     1      35.586  -7.251  20.192  1.00  0.00     0.049 A 
BRANCH   4   8
HETATM    8  O2  UNL     1      39.417  -7.400  21.926  1.00  0.00    -0.356 OA
HETATM    9  C5  UNL     1      40.547  -7.265  21.084  1.00  0.00     0.210 C 
ENDBRANCH   4   8
BRANCH   6  10
HETATM   10  O1  UNL     1      34.634  -8.167  22.129  1.00  0.00    -0.356 OA
HETATM   11  C1  UNL     1      33.426  -8.161  21.393  1.00  0.00     0.210 C 
ENDBRANCH   6  10
ENDBRANCH   1   2
BRANCH   1  12
HETATM   12  C9  UNL     1      37.102  -7.164  17.058  1.00  0.00     0.069 A 
HETATM   13  C10 UNL     1      37.074  -8.523  16.950  1.00  0.00     0.039 A 
HETATM   14  C11 UNL     1      36.504  -9.575  17.852  1.00  0.00     0.071 C 
HETATM   15  N1  UNL     1      37.689  -8.816  15.764  1.00  0.00    -0.299 N 
HETATM   16  N2  UNL     1      38.076  -7.719  15.166  1.00  0.00    -0.252 N 
ATOM     17  H1  UNL     1      37.827  -9.757  15.398  1.00  0.00     0.187 HD
HETATM   18  C25 UNL     1      37.743  -6.673  15.913  1.00  0.00     0.275 A 
HETATM   19  O3  UNL     1      37.986  -5.471  15.597  1.00  0.00    -0.266 OA
BRANCH  16  20
HETATM   20  C12 UNL     1      38.774  -7.701  13.862  1.00  0.00     0.191 C 
BRANCH  20  21
HETATM   21  C13 UNL     1      37.798  -7.444  12.770  1.00  0.00    -0.038 A 
HETATM   22  C14 UNL     1      37.604  -6.160  12.334  1.00  0.00     0.010 A 
HETATM   23  C15 UNL     1      36.690  -5.922  11.315  1.00  0.00     0.013 A 
HETATM   24  C16 UNL     1      35.972  -6.934  10.728  1.00  0.00    -0.023 A 
HETATM   25  C23 UNL     1      36.174  -8.222  11.173  1.00  0.00     0.013 A 
HETATM   26  C24 UNL     1      37.087  -8.472  12.193  1.00  0.00     0.010 A 
BRANCH  24  27
HETATM   27  C17 UNL     1      35.005  -6.679   9.653  1.00  0.00     0.013 A 
HETATM   28  C18 UNL     1      33.705  -7.165   9.758  1.00  0.00     0.015 A 
HETATM   29  C19 UNL     1      32.834  -6.908   8.730  1.00  0.00     0.001 A 
HETATM   30  C20 UNL     1      33.220  -6.182   7.610  1.00  0.00     0.003 A 
HETATM   31  C21 UNL     1      34.504  -5.696   7.497  1.00  0.00     0.043 A 
HETATM   32  C22 UNL     1      35.380  -5.957   8.533  1.00  0.00     0.127 A 
HETATM   33  F1  UNL     1      36.667  -5.484   8.457  1.00  0.00    -0.205 F 
ENDBRANCH  24  27
ENDBRANCH  20  21
ENDBRANCH  16  20
ENDBRANCH   1  12
BRANCH   1  34
HETATM   34  C26 UNL     1      35.366  -5.572  17.927  1.00  0.00     0.085 A 
HETATM   35  C27 UNL     1      34.249  -6.160  17.405  1.00  0.00     0.152 A 
HETATM   36  C28 UNL     1      33.095  -5.414  17.290  1.00  0.00     0.294 A 
HETATM   37  O5  UNL     1      32.041  -5.944  16.805  1.00  0.00    -0.264 OA
HETATM   38  N3  UNL     1      33.051  -4.133  17.680  1.00  0.00    -0.254 N 
HETATM   39  N4  UNL     1      34.109  -3.557  18.181  1.00  0.00    -0.217 N 
ATOM     40  H3  UNL     1      32.185  -3.603  17.584  1.00  0.00     0.191 HD
HETATM   41  C35 UNL     1      35.252  -4.233  18.313  1.00  0.00     0.281 A 
HETATM   42  O6  UNL     1      36.296  -3.670  18.805  1.00  0.00    -0.265 OA
BRANCH  35  43
HETATM   43  O4  UNL     1      34.189  -7.463  16.980  1.00  0.00    -0.355 OA
ATOM     44  H4  UNL     1      33.441  -8.035  17.112  1.00  0.00     0.218 HD
ENDBRANCH  35  43
BRANCH  39  45
HETATM   45  C29 UNL     1      34.028  -2.195  18.584  1.00  0.00     0.060 A 
HETATM   46  C30 UNL     1      34.564  -1.152  17.882  1.00  0.00     0.031 A 
HETATM   47  C31 UNL     1      34.426   0.143  18.366  1.00  0.00     0.002 A 
HETATM   48  C32 UNL     1      33.755   0.400  19.549  1.00  0.00     0.000 A 
HETATM   49  C33 UNL     1      33.220  -0.656  20.244  1.00  0.00     0.002 A 
HETATM   50  C34 UNL     1      33.348  -1.948  19.777  1.00  0.00     0.031 A 
ENDBRANCH  39  45
ENDBRANCH   1  34
TORSDOF 10
ENDMDL
MODEL 2
REMARK VINA RESULT: -9.018336254      3.721      9.210
REMARK  10 active torsions:
REMARK  status: ('A' for Active; 'I' for Inactive)
REMARK    1  A    between atoms: O1_2  and  C2_3 
REMARK    2  A    between atoms: C4_5  and  O2_6 
REMARK    3  A    between atoms: C7_9  and  C8_10 
REMARK    4  A    between atoms: C8_10  and  C9_11 
REMARK    5  A    between atoms: C8_10  and  C26_33 
REMARK    6  A    between atoms: N2_16  and  C12_17 
REMARK    7  A    between atoms: C12_17  and  C13_18 
REMARK    8  A    between atoms: C16_21  and  C17_22 
REMARK    9  A    between atoms: C27_34  and  O4_35 
REMARK   10  A    between atoms: N4_41  and  C29_42 
ROOT
HETATM    1  C8  UNL     1      37.649  -6.735  18.672  1.00  0.00     0.011 C 
ENDROOT
BRANCH   1   2
HETATM    2  C7  UNL     1      38.058  -7.116  17.286  1.00  0.00    -0.018 A 
HETATM    3  C6  UNL     1      38.041  -6.110  16.324  1.00  0.00     0.049 A 
HETATM    4  C4  UNL     1      38.385  -6.313  15.004  1.00  0.00     0.071 A 
HETATM    5  C3  UNL     1      38.760  -7.599  14.670  1.00  0.00     0.073 A 
HETATM    6  C2  UNL     1      38.784  -8.610  15.610  1.00  0.00     0.071 A 
HETATM    7  C36 UNL     1      38.436  -8.383  16.919  1.00  0.00     0.049 A 
BRANCH   4   8
HETATM    8  O2  UNL     1      38.362  -5.298  14.059  1.00  0.00    -0.356 OA
HETATM    9  C5  UNL     1      37.421  -5.380  13.005  1.00  0.00     0.210 C 
ENDBRANCH   4   8
BRANCH   6  10
HETATM   10  O1  UNL     1      39.158  -9.917  15.298  1.00  0.00    -0.356 OA
HETATM   11  C1  UNL     1      39.278 -10.237  13.925  1.00  0.00     0.210 C 
ENDBRANCH   6  10
ENDBRANCH   1   2
BRANCH   1  12
HETATM   12  C9  UNL     1      36.347  -6.090  18.776  1.00  0.00     0.069 A 
HETATM   13  C10 UNL     1      35.240  -6.158  17.982  1.00  0.00     0.039 A 
HETATM   14  C11 UNL     1      34.966  -6.936  16.732  1.00  0.00     0.071 C 
HETATM   15  N1  UNL     1      34.313  -5.339  18.565  1.00  0.00    -0.299 N 
HETATM   16  N2  UNL     1      34.800  -4.796  19.651  1.00  0.00    -0.252 N 
ATOM     17  H1  UNL     1      33.374  -5.174  18.204  1.00  0.00     0.187 HD
HETATM   18  C25 UNL     1      36.045  -5.220  19.831  1.00  0.00     0.275 A 
HETATM   19  O3  UNL     1      36.779  -4.868  20.801  1.00  0.00    -0.266 OA
BRANCH  16  20
HETATM   20  C12 UNL     1      34.040  -3.860  20.508  1.00  0.00     0.191 C 
BRANCH  20  21
HETATM   21  C13 UNL     1      34.359  -2.457  20.133  1.00  0.00    -0.038 A 
HETATM   22  C14 UNL     1      34.196  -2.057  18.833  1.00  0.00     0.010 A 
HETATM   23  C15 UNL     1      34.497  -0.746  18.486  1.00  0.00     0.013 A 
HETATM   24  C16 UNL     1      34.955   0.165  19.404  1.00  0.00    -0.023 A 
HETATM   25  C23 UNL     1      35.115  -0.245  20.709  1.00  0.00     0.013 A 
HETATM   26  C24 UNL     1      34.816  -1.556  21.069  1.00  0.00     0.010 A 
BRANCH  24  27
HETATM   27  C17 UNL     1      35.275   1.550  19.033  1.00  0.00     0.013 A 
HETATM   28  C18 UNL     1      36.454   1.832  18.352  1.00  0.00     0.015 A 
HETATM   29  C19 UNL     1      36.717   3.138  18.026  1.00  0.00     0.001 A 
HETATM   30  C20 UNL     1      35.840   4.163  18.359  1.00  0.00     0.003 A 
HETATM   31  C21 UNL     1      34.670   3.895  19.032  1.00  0.00     0.043 A 
HETATM   32  C22 UNL     1      34.407   2.578  19.359  1.00  0.00     0.127 A 
HETATM   33  F1  UNL     1      33.247   2.272  20.028  1.00  0.00    -0.205 F 
ENDBRANCH  24  27
ENDBRANCH  20  21
ENDBRANCH  16  20
ENDBRANCH   1  12
BRANCH   1  34
HETATM   34  C26 UNL     1      38.016  -7.788  19.572  1.00  0.00     0.085 A 
HETATM   35  C27 UNL     1      37.198  -8.845  19.852  1.00  0.00     0.152 A 
HETATM   36  C28 UNL     1      37.640  -9.818  20.725  1.00  0.00     0.294 A 
HETATM   37  O5  UNL     1      36.891 -10.813  20.999  1.00  0.00    -0.264 OA
HETATM   38  N3  UNL     1      38.849  -9.744  21.297  1.00  0.00    -0.254 N 
HETATM   39  N4  UNL     1      39.643  -8.741  21.039  1.00  0.00    -0.217 N 
ATOM     40  H3  UNL     1      39.152 -10.476  21.938  1.00  0.00     0.191 HD
HETATM   41  C35 UNL     1      39.264  -7.773  20.203  1.00  0.00     0.281 A 
HETATM   42  O6  UNL     1      40.041  -6.783  19.947  1.00  0.00    -0.265 OA
BRANCH  35  43
HETATM   43  O4  UNL     1      35.946  -9.016  19.318  1.00  0.00    -0.355 OA
ATOM     44  H4  UNL     1      35.415  -9.796  19.437  1.00  0.00     0.218 HD
ENDBRANCH  35  43
BRANCH  39  45
HETATM   45  C29 UNL     1      40.920  -8.693  21.664  1.00  0.00     0.060 A 
HETATM   46  C30 UNL     1      41.266  -7.801  22.640  1.00  0.00     0.031 A 
HETATM   47  C31 UNL     1      42.543  -7.841  23.184  1.00  0.00     0.002 A 
HETATM   48  C32 UNL     1      43.476  -8.770  22.759  1.00  0.00     0.000 A 
HETATM   49  C33 UNL     1      43.116  -9.662  21.779  1.00  0.00     0.002 A 
HETATM   50  C34 UNL     1      41.852  -9.634  21.228  1.00  0.00     0.031 A 
ENDBRANCH  39  45
ENDBRANCH   1  34
TORSDOF 10
ENDMDL
MODEL 3
REMARK VINA RESULT: -9.006251382      0.693      1.202
REMARK  10 active torsions:
REMARK  status: ('A' for Active; 'I' for Inactive)
REMARK    1  A    between atoms: O1_2  and  C2_3 
REMARK    2  A    between atoms: C4_5  and  O2_6 
REMARK    3  A    between atoms: C7_9  and  C8_10 
REMARK    4  A    between atoms: C8_10  and  C9_11 
REMARK    5  A    between atoms: C8_10  and  C26_33 
REMARK    6  A    between atoms: N2_16  and  C12_17 
REMARK    7  A    between atoms: C12_17  and  C13_18 
REMARK    8  A    between atoms: C16_21  and  C17_22 
REMARK    9  A    between atoms: C27_34  and  O4_35 
REMARK   10  A    between atoms: N4_41  and  C29_42 
ROOT
HETATM    1  C8  UNL     1      36.576  -6.261  18.005  1.00  0.00     0.011 C 
ENDROOT
BRANCH   1   2
HETATM    2  C7  UNL     1      36.668  -6.804  19.395  1.00  0.00    -0.018 A 
HETATM    3  C6  UNL     1      37.926  -6.799  19.991  1.00  0.00     0.049 A 
HETATM    4  C4  UNL     1      38.166  -7.274  21.264  1.00  0.00     0.071 A 
HETATM    5  C3  UNL     1      37.070  -7.769  21.940  1.00  0.00     0.073 A 
HETATM    6  C2  UNL     1      35.814  -7.781  21.365  1.00  0.00     0.071 A 
HETATM    7  C36 UNL     1      35.600  -7.303  20.096  1.00  0.00     0.049 A 
BRANCH   4   8
HETATM    8  O2  UNL     1      39.427  -7.262  21.843  1.00  0.00    -0.356 OA
HETATM    9  C5  UNL     1      40.557  -7.400  21.001  1.00  0.00     0.210 C 
ENDBRANCH   4   8
BRANCH   6  10
HETATM   10  O1  UNL     1      34.689  -8.275  22.027  1.00  0.00    -0.356 OA
HETATM   11  C1  UNL     1      33.460  -8.215  21.329  1.00  0.00     0.210 C 
ENDBRANCH   6  10
ENDBRANCH   1   2
BRANCH   1  12
HETATM   12  C9  UNL     1      37.051  -7.157  16.960  1.00  0.00     0.069 A 
HETATM   13  C10 UNL     1      36.986  -8.513  16.835  1.00  0.00     0.039 A 
HETATM   14  C11 UNL     1      36.384  -9.560  17.721  1.00  0.00     0.071 C 
HETATM   15  N1  UNL     1      37.598  -8.808  15.648  1.00  0.00    -0.299 N 
HETATM   16  N2  UNL     1      38.018  -7.715  15.066  1.00  0.00    -0.252 N 
ATOM     17  H1  UNL     1      37.713  -9.749  15.271  1.00  0.00     0.187 HD
HETATM   18  C25 UNL     1      37.709  -6.670  15.824  1.00  0.00     0.275 A 
HETATM   19  O3  UNL     1      37.986  -5.471  15.523  1.00  0.00    -0.266 OA
BRANCH  16  20
HETATM   20  C12 UNL     1      38.721  -7.700  13.764  1.00  0.00     0.191 C 
BRANCH  20  21
HETATM   21  C13 UNL     1      37.753  -7.428  12.669  1.00  0.00    -0.038 A 
HETATM   22  C14 UNL     1      37.088  -8.474  12.087  1.00  0.00     0.010 A 
HETATM   23  C15 UNL     1      36.186  -8.216  11.062  1.00  0.00     0.013 A 
HETATM   24  C16 UNL     1      35.938  -6.943  10.612  1.00  0.00    -0.023 A 
HETATM   25  C23 UNL     1      36.610  -5.897  11.204  1.00  0.00     0.013 A 
HETATM   26  C24 UNL     1      37.516  -6.144  12.231  1.00  0.00     0.010 A 
BRANCH  24  27
HETATM   27  C17 UNL     1      34.985  -6.674   9.527  1.00  0.00     0.013 A 
HETATM   28  C18 UNL     1      35.338  -5.817   8.489  1.00  0.00     0.015 A 
HETATM   29  C19 UNL     1      34.418  -5.590   7.497  1.00  0.00     0.001 A 
HETATM   30  C20 UNL     1      33.166  -6.192   7.511  1.00  0.00     0.003 A 
HETATM   31  C21 UNL     1      32.808  -7.042   8.533  1.00  0.00     0.043 A 
HETATM   32  C22 UNL     1      33.735  -7.269   9.531  1.00  0.00     0.127 A 
HETATM   33  F1  UNL     1      33.414  -8.115  10.565  1.00  0.00    -0.205 F 
ENDBRANCH  24  27
ENDBRANCH  20  21
ENDBRANCH  16  20
ENDBRANCH   1  12
BRANCH   1  34
HETATM   34  C26 UNL     1      35.333  -5.563  17.860  1.00  0.00     0.085 A 
HETATM   35  C27 UNL     1      34.208  -6.145  17.350  1.00  0.00     0.152 A 
HETATM   36  C28 UNL     1      33.053  -5.398  17.256  1.00  0.00     0.294 A 
HETATM   37  O5  UNL     1      31.992  -5.924  16.782  1.00  0.00    -0.264 OA
HETATM   38  N3  UNL     1      33.016  -4.119  17.655  1.00  0.00    -0.254 N 
HETATM   39  N4  UNL     1      34.082  -3.548  18.146  1.00  0.00    -0.217 N 
ATOM     40  H3  UNL     1      32.149  -3.588  17.575  1.00  0.00     0.191 HD
HETATM   41  C35 UNL     1      35.225  -4.226  18.257  1.00  0.00     0.281 A 
HETATM   42  O6  UNL     1      36.277  -3.668  18.739  1.00  0.00    -0.265 OA
BRANCH  35  43
HETATM   43  O4  UNL     1      34.140  -7.446  16.916  1.00  0.00    -0.355 OA
ATOM     44  H4  UNL     1      33.332  -7.937  16.823  1.00  0.00     0.218 HD
ENDBRANCH  35  43
BRANCH  39  45
HETATM   45  C29 UNL     1      34.008  -2.189  18.560  1.00  0.00     0.060 A 
HETATM   46  C30 UNL     1      34.562  -1.145  17.873  1.00  0.00     0.031 A 
HETATM   47  C31 UNL     1      34.430   0.147  18.367  1.00  0.00     0.002 A 
HETATM   48  C32 UNL     1      33.746   0.400  19.543  1.00  0.00     0.000 A 
HETATM   49  C33 UNL     1      33.193  -0.657  20.222  1.00  0.00     0.002 A 
HETATM   50  C34 UNL     1      33.315  -1.946  19.745  1.00  0.00     0.031 A 
ENDBRANCH  39  45
ENDBRANCH   1  34
TORSDOF 10
ENDMDL
MODEL 4
REMARK VINA RESULT: -8.993423172      3.748      9.250
REMARK  10 active torsions:
REMARK  status: ('A' for Active; 'I' for Inactive)
REMARK    1  A    between atoms: O1_2  and  C2_3 
REMARK    2  A    between atoms: C4_5  and  O2_6 
REMARK    3  A    between atoms: C7_9  and  C8_10 
REMARK    4  A    between atoms: C8_10  and  C9_11 
REMARK    5  A    between atoms: C8_10  and  C26_33 
REMARK    6  A    between atoms: N2_16  and  C12_17 
REMARK    7  A    between atoms: C12_17  and  C13_18 
REMARK    8  A    between atoms: C16_21  and  C17_22 
REMARK    9  A    between atoms: C27_34  and  O4_35 
REMARK   10  A    between atoms: N4_41  and  C29_42 
ROOT
HETATM    1  C8  UNL     1      37.683  -6.623  18.596  1.00  0.00     0.011 C 
ENDROOT
BRANCH   1   2
HETATM    2  C7  UNL     1      38.048  -6.920  17.177  1.00  0.00    -0.018 A 
HETATM    3  C6  UNL     1      38.374  -8.239  16.873  1.00  0.00     0.049 A 
HETATM    4  C4  UNL     1      38.737  -8.661  15.611  1.00  0.00     0.071 A 
HETATM    5  C3  UNL     1      38.765  -7.687  14.634  1.00  0.00     0.073 A 
HETATM    6  C2  UNL     1      38.445  -6.373  14.917  1.00  0.00     0.071 A 
HETATM    7  C36 UNL     1      38.086  -5.977  16.181  1.00  0.00     0.049 A 
BRANCH   4   8
HETATM    8  O2  UNL     1      39.059  -9.980  15.326  1.00  0.00    -0.356 OA
HETATM    9  C5  UNL     1      39.420 -10.314  13.999  1.00  0.00     0.210 C 
ENDBRANCH   4   8
BRANCH   6  10
HETATM   10  O1  UNL     1      38.464  -5.370  13.948  1.00  0.00    -0.356 OA
HETATM   11  C1  UNL     1      37.346  -5.295  13.084  1.00  0.00     0.210 C 
ENDBRANCH   6  10
ENDBRANCH   1   2
BRANCH   1  12
HETATM   12  C9  UNL     1      36.393  -5.973  18.779  1.00  0.00     0.069 A 
HETATM   13  C10 UNL     1      35.253  -6.001  18.030  1.00  0.00     0.039 A 
HETATM   14  C11 UNL     1      34.920  -6.730  16.765  1.00  0.00     0.071 C 
HETATM   15  N1  UNL     1      34.359  -5.197  18.682  1.00  0.00    -0.299 N 
HETATM   16  N2  UNL     1      34.896  -4.700  19.766  1.00  0.00    -0.252 N 
ATOM     17  H1  UNL     1      33.407  -5.012  18.367  1.00  0.00     0.187 HD
HETATM   18  C25 UNL     1      36.144  -5.141  19.878  1.00  0.00     0.275 A 
HETATM   19  O3  UNL     1      36.921  -4.831  20.828  1.00  0.00    -0.266 OA
BRANCH  16  20
HETATM   20  C12 UNL     1      34.182  -3.791  20.689  1.00  0.00     0.191 C 
BRANCH  20  21
HETATM   21  C13 UNL     1      34.428  -2.378  20.299  1.00  0.00    -0.038 A 
HETATM   22  C14 UNL     1      34.136  -1.974  19.023  1.00  0.00     0.010 A 
HETATM   23  C15 UNL     1      34.369  -0.653  18.662  1.00  0.00     0.013 A 
HETATM   24  C16 UNL     1      34.884   0.265  19.543  1.00  0.00    -0.023 A 
HETATM   25  C23 UNL     1      35.174  -0.150  20.824  1.00  0.00     0.013 A 
HETATM   26  C24 UNL     1      34.945  -1.471  21.198  1.00  0.00     0.010 A 
BRANCH  24  27
HETATM   27  C17 UNL     1      35.132   1.660  19.157  1.00  0.00     0.013 A 
HETATM   28  C18 UNL     1      36.304   1.999  18.489  1.00  0.00     0.015 A 
HETATM   29  C19 UNL     1      36.498   3.313  18.149  1.00  0.00     0.001 A 
HETATM   30  C20 UNL     1      35.561   4.292  18.454  1.00  0.00     0.003 A 
HETATM   31  C21 UNL     1      34.397   3.967  19.115  1.00  0.00     0.043 A 
HETATM   32  C22 UNL     1      34.203   2.643  19.456  1.00  0.00     0.127 A 
HETATM   33  F1  UNL     1      33.052   2.281  20.112  1.00  0.00    -0.205 F 
ENDBRANCH  24  27
ENDBRANCH  20  21
ENDBRANCH  16  20
ENDBRANCH   1  12
BRANCH   1  34
HETATM   34  C26 UNL     1      38.063  -7.735  19.417  1.00  0.00     0.085 A 
HETATM   35  C27 UNL     1      37.271  -8.833  19.593  1.00  0.00     0.152 A 
HETATM   36  C28 UNL     1      37.723  -9.861  20.394  1.00  0.00     0.294 A 
HETATM   37  O5  UNL     1      36.998 -10.895  20.572  1.00  0.00    -0.264 OA
HETATM   38  N3  UNL     1      38.919  -9.800  20.996  1.00  0.00    -0.254 N 
HETATM   39  N4  UNL     1      39.688  -8.759  20.836  1.00  0.00    -0.217 N 
ATOM     40  H3  UNL     1      39.230 -10.574  21.583  1.00  0.00     0.191 HD
HETATM   41  C35 UNL     1      39.298  -7.737  20.073  1.00  0.00     0.281 A 
HETATM   42  O6  UNL     1      40.051  -6.709  19.914  1.00  0.00    -0.265 OA
BRANCH  35  43
HETATM   43  O4  UNL     1      36.034  -8.994  19.021  1.00  0.00    -0.355 OA
ATOM     44  H4  UNL     1      35.533  -9.801  19.047  1.00  0.00     0.218 HD
ENDBRANCH  35  43
BRANCH  39  45
HETATM   45  C29 UNL     1      40.951  -8.727  21.490  1.00  0.00     0.060 A 
HETATM   46  C30 UNL     1      41.291  -7.829  22.463  1.00  0.00     0.031 A 
HETATM   47  C31 UNL     1      42.554  -7.887  23.038  1.00  0.00     0.002 A 
HETATM   48  C32 UNL     1      43.479  -8.839  22.646  1.00  0.00     0.000 A 
HETATM   49  C33 UNL     1      43.125  -9.736  21.669  1.00  0.00     0.002 A 
HETATM   50  C34 UNL     1      41.875  -9.691  21.088  1.00  0.00     0.031 A 
ENDBRANCH  39  45
ENDBRANCH   1  34
TORSDOF 10
ENDMDL
MODEL 5
REMARK VINA RESULT: -8.967302228      5.408     10.214
REMARK  10 active torsions:
REMARK  status: ('A' for Active; 'I' for Inactive)
REMARK    1  A    between atoms: O1_2  and  C2_3 
REMARK    2  A    between atoms: C4_5  and  O2_6 
REMARK    3  A    between atoms: C7_9  and  C8_10 
REMARK    4  A    between atoms: C8_10  and  C9_11 
REMARK    5  A    between atoms: C8_10  and  C26_33 
REMARK    6  A    between atoms: N2_16  and  C12_17 
REMARK    7  A    between atoms: C12_17  and  C13_18 
REMARK    8  A    between atoms: C16_21  and  C17_22 
REMARK    9  A    between atoms: C27_34  and  O4_35 
REMARK   10  A    between atoms: N4_41  and  C29_42 
ROOT
HETATM    1  C8  UNL     1      32.066 -11.414  11.765  1.00  0.00     0.011 C 
ENDROOT
BRANCH   1   2
HETATM    2  C7  UNL     1      32.304 -12.871  11.530  1.00  0.00    -0.018 A 
HETATM    3  C6  UNL     1      31.927 -13.743  12.549  1.00  0.00     0.049 A 
HETATM    4  C4  UNL     1      32.092 -15.110  12.478  1.00  0.00     0.071 A 
HETATM    5  C3  UNL     1      32.665 -15.590  11.318  1.00  0.00     0.073 A 
HETATM    6  C2  UNL     1      33.044 -14.741  10.297  1.00  0.00     0.071 A 
HETATM    7  C36 UNL     1      32.870 -13.382  10.390  1.00  0.00     0.049 A 
BRANCH   4   8
HETATM    8  O2  UNL     1      31.711 -15.964  13.503  1.00  0.00    -0.356 OA
HETATM    9  C5  UNL     1      32.717 -16.688  14.187  1.00  0.00     0.210 C 
ENDBRANCH   4   8
BRANCH   6  10
HETATM   10  O1  UNL     1      33.625 -15.200   9.114  1.00  0.00    -0.356 OA
HETATM   11  C1  UNL     1      33.436 -16.566   8.799  1.00  0.00     0.210 C 
ENDBRANCH   6  10
ENDBRANCH   1   2
BRANCH   1  12
HETATM   12  C9  UNL     1      31.317 -11.097  12.972  1.00  0.00     0.069 A 
HETATM   13  C10 UNL     1      29.990 -10.854  13.175  1.00  0.00     0.039 A 
HETATM   14  C11 UNL     1      28.830 -10.848  12.227  1.00  0.00     0.071 C 
HETATM   15  N1  UNL     1      29.856 -10.610  14.514  1.00  0.00    -0.299 N 
HETATM   16  N2  UNL     1      31.015 -10.695  15.113  1.00  0.00    -0.252 N 
ATOM     17  H1  UNL     1      28.975 -10.392  14.979  1.00  0.00     0.187 HD
HETATM   18  C25 UNL     1      31.950 -10.992  14.218  1.00  0.00     0.275 A 
HETATM   19  O3  UNL     1      33.175 -11.141  14.497  1.00  0.00    -0.266 OA
BRANCH  16  20
HETATM   20  C12 UNL     1      31.202 -10.484  16.565  1.00  0.00     0.191 C 
BRANCH  20  21
HETATM   21  C13 UNL     1      31.756  -9.126  16.812  1.00  0.00    -0.038 A 
HETATM   22  C14 UNL     1      33.046  -8.998  17.254  1.00  0.00     0.010 A 
HETATM   23  C15 UNL     1      33.559  -7.728  17.486  1.00  0.00     0.013 A 
HETATM   24  C16 UNL     1      32.814  -6.592  17.286  1.00  0.00    -0.023 A 
HETATM   25  C23 UNL     1      31.518  -6.730  16.840  1.00  0.00     0.013 A 
HETATM   26  C24 UNL     1      30.993  -7.998  16.604  1.00  0.00     0.010 A 
BRANCH  24  27
HETATM   27  C17 UNL     1      33.359  -5.252  17.534  1.00  0.00     0.013 A 
HETATM   28  C18 UNL     1      32.828  -4.463  18.550  1.00  0.00     0.015 A 
HETATM   29  C19 UNL     1      33.364  -3.215  18.747  1.00  0.00     0.001 A 
HETATM   30  C20 UNL     1      34.407  -2.737  17.964  1.00  0.00     0.003 A 
HETATM   31  C21 UNL     1      34.940  -3.510  16.957  1.00  0.00     0.043 A 
HETATM   32  C22 UNL     1      34.400  -4.766  16.760  1.00  0.00     0.127 A 
HETATM   33  F1  UNL     1      34.908  -5.567  15.767  1.00  0.00    -0.205 F 
ENDBRANCH  24  27
ENDBRANCH  20  21
ENDBRANCH  16  20
ENDBRANCH   1  12
BRANCH   1  34
HETATM   34  C26 UNL     1      33.256 -10.688  11.432  1.00  0.00     0.085 A 
HETATM   35  C27 UNL     1      34.496 -11.049  11.878  1.00  0.00     0.152 A 
HETATM   36  C28 UNL     1      35.587 -10.296  11.499  1.00  0.00     0.294 A 
HETATM   37  O5  UNL     1      36.753 -10.617  11.905  1.00  0.00    -0.264 OA
HETATM   38  N3  UNL     1      35.453  -9.225  10.705  1.00  0.00    -0.254 N 
HETATM   39  N4  UNL     1      34.276  -8.868  10.270  1.00  0.00    -0.217 N 
ATOM     40  H3  UNL     1      36.276  -8.685  10.440  1.00  0.00     0.191 HD
HETATM   41  C35 UNL     1      33.188  -9.561  10.608  1.00  0.00     0.281 A 
HETATM   42  O6  UNL     1      32.027  -9.212  10.182  1.00  0.00    -0.265 OA
BRANCH  35  43
HETATM   43  O4  UNL     1      34.740 -12.128  12.690  1.00  0.00    -0.355 OA
ATOM     44  H4  UNL     1      35.126 -12.069  13.557  1.00  0.00     0.218 HD
ENDBRANCH  35  43
BRANCH  39  45
HETATM   45  C29 UNL     1      34.170  -7.725   9.429  1.00  0.00     0.060 A 
HETATM   46  C30 UNL     1      33.310  -7.627   8.371  1.00  0.00     0.031 A 
HETATM   47  C31 UNL     1      33.286  -6.462   7.613  1.00  0.00     0.002 A 
HETATM   48  C32 UNL     1      34.117  -5.396   7.909  1.00  0.00     0.000 A 
HETATM   49  C33 UNL     1      34.975  -5.507   8.975  1.00  0.00     0.002 A 
HETATM   50  C34 UNL     1      35.011  -6.656   9.736  1.00  0.00     0.031 A 
ENDBRANCH  39  45
ENDBRANCH   1  34
TORSDOF 10
ENDMDL
