MODEL 1
REMARK VINA RESULT: -8.000656873      0.000      0.000
REMARK  14 active torsions:
REMARK  status: ('A' for Active; 'I' for Inactive)
REMARK    1  A    between atoms: C2_2  and  O2_4 
REMARK    2  A    between atoms: O2_4  and  C3_5 
REMARK    3  A    between atoms: C3_5  and  C4_6 
REMARK    4  A    between atoms: C4_6  and  O3_7 
REMARK    5  A    between atoms: C4_6  and  O4_9 
REMARK    6  A    between atoms: C4_6  and  C7_13 
REMARK    7  A    between atoms: O4_9  and  C5_10 
REMARK    8  A    between atoms: C18_26  and  C19_27 
REMARK    9  A    between atoms: C19_27  and  C21_29 
REMARK   10  A    between atoms: C21_29  and  C22_30 
REMARK   11  A    between atoms: C22_30  and  C23_31 
REMARK   12  A    between atoms: C23_31  and  C24_33 
REMARK   13  A    between atoms: C30_39  and  O8_40 
REMARK   14  A    between atoms: C34_45  and  O9_46 
ROOT
HETATM    1  C7  UNL     1      37.191  -7.620  16.172  1.00  0.00     0.064 C 
HETATM    2  C8  UNL     1      36.771  -8.750  17.086  1.00  0.00     0.188 C 
HETATM    3  O6  UNL     1      36.870  -8.418  18.429  1.00  0.00    -0.356 OA
HETATM    4  C9  UNL     1      37.310  -7.172  18.710  1.00  0.00     0.290 C 
HETATM    5  O7  UNL     1      38.403  -6.705  18.044  1.00  0.00    -0.356 OA
HETATM    6  C10 UNL     1      38.448  -6.986  16.708  1.00  0.00     0.188 C 
HETATM    7  C11 UNL     1      36.162  -6.211  18.443  1.00  0.00    -0.022 C 
HETATM    8  C12 UNL     1      35.138  -6.802  19.045  1.00  0.00    -0.018 C 
HETATM    9  C13 UNL     1      33.845  -6.016  18.928  1.00  0.00     0.033 C 
HETATM   10  C14 UNL     1      34.306  -4.615  19.318  1.00  0.00     0.005 C 
HETATM   11  C15 UNL     1      33.335  -3.900  20.123  1.00  0.00    -0.001 C 
HETATM   12  C16 UNL     1      32.000  -3.559  19.600  1.00  0.00     0.006 C 
HETATM   13  C17 UNL     1      31.723  -2.150  20.082  1.00  0.00     0.006 C 
HETATM   14  C18 UNL     1      32.739  -1.918  21.211  1.00  0.00    -0.002 C 
HETATM   15  C27 UNL     1      33.957  -2.638  20.727  1.00  0.00    -0.034 C 
HETATM   16  C28 UNL     1      34.832  -3.102  21.878  1.00  0.00     0.016 C 
HETATM   17  C29 UNL     1      34.808  -1.920  19.743  1.00  0.00     0.042 C 
HETATM   18  C30 UNL     1      35.727  -2.748  18.922  1.00  0.00     0.128 C 
HETATM   19  C31 UNL     1      35.053  -3.947  18.208  1.00  0.00    -0.004 C 
HETATM   20  C32 UNL     1      34.210  -3.243  17.194  1.00  0.00     0.019 C 
HETATM   21  C33 UNL     1      36.054  -4.901  17.693  1.00  0.00     0.059 C 
HETATM   22  C34 UNL     1      36.167  -5.265  16.270  1.00  0.00     0.128 C 
HETATM   23  C35 UNL     1      36.073  -6.711  15.898  1.00  0.00     0.052 C 
ENDROOT
BRANCH   1  24
HETATM   24  C4  UNL     1      37.650  -8.308  14.891  1.00  0.00     0.204 C 
BRANCH  24  25
HETATM   25  C3  UNL     1      38.295  -7.432  13.891  1.00  0.00     0.248 C 
BRANCH  25  26
HETATM   26  O2  UNL     1      37.586  -7.244  12.688  1.00  0.00    -0.316 OA
BRANCH  26  27
HETATM   27  C2  UNL     1      37.107  -6.053  12.235  1.00  0.00     0.254 C 
HETATM   28  C1  UNL     1      36.517  -6.021  10.859  1.00  0.00     0.126 C 
HETATM   29  O1  UNL     1      37.176  -5.049  12.972  1.00  0.00    -0.266 OA
ENDBRANCH  26  27
ENDBRANCH  25  26
ENDBRANCH  24  25
BRANCH  24  30
HETATM   30  O3  UNL     1      36.486  -8.850  14.272  1.00  0.00    -0.362 OA
ATOM     31  H3  UNL     1      36.619  -9.790  14.216  1.00  0.00     0.213 HD
ENDBRANCH  24  30
BRANCH  24  32
HETATM   32  O4  UNL     1      38.440  -9.432  15.201  1.00  0.00    -0.280 OA
BRANCH  32  33
HETATM   33  C5  UNL     1      38.573 -10.530  14.397  1.00  0.00     0.257 C 
HETATM   34  C6  UNL     1      39.761 -10.730  13.504  1.00  0.00     0.126 C 
HETATM   35  O5  UNL     1      37.703 -11.435  14.361  1.00  0.00    -0.266 OA
ENDBRANCH  32  33
ENDBRANCH  24  32
ENDBRANCH   1  24
BRANCH  22  36
HETATM   36  O9  UNL     1      35.270  -4.650  15.384  1.00  0.00    -0.395 OA
ATOM     37  H9  UNL     1      35.232  -4.997  14.500  1.00  0.00     0.210 HD
ENDBRANCH  22  36
BRANCH  18  38
HETATM   38  O8  UNL     1      36.245  -1.968  17.900  1.00  0.00    -0.395 OA
ATOM     39  H8  UNL     1      35.588  -1.874  17.221  1.00  0.00     0.210 HD
ENDBRANCH  18  38
BRANCH  14  40
HETATM   40  C19 UNL     1      32.877  -0.476  21.518  1.00  0.00    -0.014 C 
HETATM   41  C20 UNL     1      32.914  -0.196  22.969  1.00  0.00     0.010 C 
BRANCH  40  42
HETATM   42  C21 UNL     1      31.898   0.394  20.760  1.00  0.00     0.006 C 
BRANCH  42  43
HETATM   43  C22 UNL     1      32.497   1.019  19.544  1.00  0.00     0.021 C 
BRANCH  43  44
HETATM   44  C23 UNL     1      33.513   2.092  19.876  1.00  0.00     0.085 C 
HETATM   45 CL1  UNL     1      35.153   1.586  19.454  1.00  0.00    -0.125 Cl
BRANCH  44  46
HETATM   46  C24 UNL     1      33.196   3.395  19.177  1.00  0.00    -0.004 C 
HETATM   47  C25 UNL     1      32.088   4.078  19.960  1.00  0.00     0.011 C 
HETATM   48  C26 UNL     1      34.405   4.287  19.046  1.00  0.00     0.011 C 
ENDBRANCH  44  46
ENDBRANCH  43  44
ENDBRANCH  42  43
ENDBRANCH  40  42
ENDBRANCH  14  40
TORSDOF 14
ENDMDL
MODEL 2
REMARK VINA RESULT: -7.773515251      1.100      2.338
REMARK  14 active torsions:
REMARK  status: ('A' for Active; 'I' for Inactive)
REMARK    1  A    between atoms: C2_2  and  O2_4 
REMARK    2  A    between atoms: O2_4  and  C3_5 
REMARK    3  A    between atoms: C3_5  and  C4_6 
REMARK    4  A    between atoms: C4_6  and  O3_7 
REMARK    5  A    between atoms: C4_6  and  O4_9 
REMARK    6  A    between atoms: C4_6  and  C7_13 
REMARK    7  A    between atoms: O4_9  and  C5_10 
REMARK    8  A    between atoms: C18_26  and  C19_27 
REMARK    9  A    between atoms: C19_27  and  C21_29 
REMARK   10  A    between atoms: C21_29  and  C22_30 
REMARK   11  A    between atoms: C22_30  and  C23_31 
REMARK   12  A    between atoms: C23_31  and  C24_33 
REMARK   13  A    between atoms: C30_39  and  O8_40 
REMARK   14  A    between atoms: C34_45  and  O9_46 
ROOT
HETATM    1  C7  UNL     1      37.552  -7.418  17.195  1.00  0.00     0.064 C 
HETATM    2  C8  UNL     1      37.107  -8.493  18.160  1.00  0.00     0.188 C 
HETATM    3  O6  UNL     1      37.033  -8.042  19.470  1.00  0.00    -0.356 OA
HETATM    4  C9  UNL     1      37.357  -6.747  19.679  1.00  0.00     0.290 C 
HETATM    5  O7  UNL     1      38.485  -6.258  19.092  1.00  0.00    -0.356 OA
HETATM    6  C10 UNL     1      38.697  -6.648  17.800  1.00  0.00     0.188 C 
HETATM    7  C11 UNL     1      36.186  -5.901  19.205  1.00  0.00    -0.022 C 
HETATM    8  C12 UNL     1      35.142  -6.513  19.748  1.00  0.00    -0.018 C 
HETATM    9  C13 UNL     1      33.822  -5.839  19.423  1.00  0.00     0.033 C 
HETATM   10  C14 UNL     1      34.144  -4.380  19.728  1.00  0.00     0.005 C 
HETATM   11  C15 UNL     1      33.045  -3.673  20.357  1.00  0.00    -0.001 C 
HETATM   12  C16 UNL     1      31.758  -3.478  19.667  1.00  0.00     0.006 C 
HETATM   13  C17 UNL     1      31.337  -2.058  19.984  1.00  0.00     0.006 C 
HETATM   14  C18 UNL     1      32.204  -1.656  21.188  1.00  0.00    -0.002 C 
HETATM   15  C27 UNL     1      33.513  -2.321  20.904  1.00  0.00    -0.034 C 
HETATM   16  C28 UNL     1      34.282  -2.619  22.178  1.00  0.00     0.016 C 
HETATM   17  C29 UNL     1      34.420  -1.628  19.952  1.00  0.00     0.042 C 
HETATM   18  C30 UNL     1      35.477  -2.453  19.312  1.00  0.00     0.128 C 
HETATM   19  C31 UNL     1      34.965  -3.755  18.646  1.00  0.00    -0.004 C 
HETATM   20  C32 UNL     1      34.197  -3.204  17.487  1.00  0.00     0.019 C 
HETATM   21  C33 UNL     1      36.078  -4.671  18.330  1.00  0.00     0.059 C 
HETATM   22  C34 UNL     1      36.372  -5.145  16.966  1.00  0.00     0.128 C 
HETATM   23  C35 UNL     1      36.415  -6.621  16.722  1.00  0.00     0.052 C 
ENDROOT
BRANCH   1  24
HETATM   24  C4  UNL     1      38.194  -8.176  16.039  1.00  0.00     0.204 C 
BRANCH  24  25
HETATM   25  C3  UNL     1      38.113  -9.649  16.119  1.00  0.00     0.248 C 
BRANCH  25  26
HETATM   26  O2  UNL     1      39.131 -10.359  15.451  1.00  0.00    -0.316 OA
BRANCH  26  27
HETATM   27  C2  UNL     1      39.036 -10.871  14.193  1.00  0.00     0.254 C 
HETATM   28  C1  UNL     1      40.268 -11.479  13.597  1.00  0.00     0.126 C 
HETATM   29  O1  UNL     1      37.944 -10.816  13.593  1.00  0.00    -0.266 OA
ENDBRANCH  26  27
ENDBRANCH  25  26
ENDBRANCH  24  25
BRANCH  24  30
HETATM   30  O3  UNL     1      39.579  -7.840  16.043  1.00  0.00    -0.362 OA
ATOM     31  H3  UNL     1      39.638  -6.917  15.823  1.00  0.00     0.213 HD
ENDBRANCH  24  30
BRANCH  24  32
HETATM   32  O4  UNL     1      37.716  -7.683  14.810  1.00  0.00    -0.280 OA
BRANCH  32  33
HETATM   33  C5  UNL     1      38.462  -6.959  13.923  1.00  0.00     0.257 C 
HETATM   34  C6  UNL     1      38.122  -5.545  13.557  1.00  0.00     0.126 C 
HETATM   35  O5  UNL     1      39.477  -7.440  13.362  1.00  0.00    -0.266 OA
ENDBRANCH  32  33
ENDBRANCH  24  32
ENDBRANCH   1  24
BRANCH  22  36
HETATM   36  O9  UNL     1      35.542  -4.677  15.937  1.00  0.00    -0.395 OA
ATOM     37  H9  UNL     1      35.799  -4.887  15.047  1.00  0.00     0.210 HD
ENDBRANCH  22  36
BRANCH  18  38
HETATM   38  O8  UNL     1      36.053  -1.725  18.283  1.00  0.00    -0.395 OA
ATOM     39  H8  UNL     1      36.360  -2.327  17.615  1.00  0.00     0.210 HD
ENDBRANCH  18  38
BRANCH  14  40
HETATM   40  C19 UNL     1      32.213  -0.187  21.373  1.00  0.00    -0.014 C 
HETATM   41  C20 UNL     1      31.994   0.219  22.777  1.00  0.00     0.010 C 
BRANCH  40  42
HETATM   42  C21 UNL     1      31.329   0.546  20.388  1.00  0.00     0.006 C 
BRANCH  42  43
HETATM   43  C22 UNL     1      32.104   1.291  19.352  1.00  0.00     0.021 C 
BRANCH  43  44
HETATM   44  C23 UNL     1      33.010   2.348  19.946  1.00  0.00     0.085 C 
HETATM   45 CL1  UNL     1      34.711   1.876  19.849  1.00  0.00    -0.125 Cl
BRANCH  44  46
HETATM   46  C24 UNL     1      32.824   3.687  19.269  1.00  0.00    -0.004 C 
HETATM   47  C25 UNL     1      31.902   4.519  20.143  1.00  0.00     0.011 C 
HETATM   48  C26 UNL     1      34.132   4.395  19.021  1.00  0.00     0.011 C 
ENDBRANCH  44  46
ENDBRANCH  43  44
ENDBRANCH  42  43
ENDBRANCH  40  42
ENDBRANCH  14  40
TORSDOF 14
ENDMDL
MODEL 3
REMARK VINA RESULT: -7.746328338      1.819      2.344
REMARK  14 active torsions:
REMARK  status: ('A' for Active; 'I' for Inactive)
REMARK    1  A    between atoms: C2_2  and  O2_4 
REMARK    2  A    between atoms: O2_4  and  C3_5 
REMARK    3  A    between atoms: C3_5  and  C4_6 
REMARK    4  A    between atoms: C4_6  and  O3_7 
REMARK    5  A    between atoms: C4_6  and  O4_9 
REMARK    6  A    between atoms: C4_6  and  C7_13 
REMARK    7  A    between atoms: O4_9  and  C5_10 
REMARK    8  A    between atoms: C18_26  and  C19_27 
REMARK    9  A    between atoms: C19_27  and  C21_29 
REMARK   10  A    between atoms: C21_29  and  C22_30 
REMARK   11  A    between atoms: C22_30  and  C23_31 
REMARK   12  A    between atoms: C23_31  and  C24_33 
REMARK   13  A    between atoms: C30_39  and  O8_40 
REMARK   14  A    between atoms: C34_45  and  O9_46 
ROOT
HETATM    1  C7  UNL     1      37.760  -9.417  15.472  1.00  0.00     0.064 C 
HETATM    2  C8  UNL     1      37.145 -10.492  16.340  1.00  0.00     0.188 C 
HETATM    3  O6  UNL     1      37.195 -10.185  17.691  1.00  0.00    -0.356 OA
HETATM    4  C9  UNL     1      37.765  -9.006  18.019  1.00  0.00     0.290 C 
HETATM    5  O7  UNL     1      38.949  -8.673  17.433  1.00  0.00    -0.356 OA
HETATM    6  C10 UNL     1      39.048  -8.948  16.099  1.00  0.00     0.188 C 
HETATM    7  C11 UNL     1      36.765  -7.907  17.694  1.00  0.00    -0.022 C 
HETATM    8  C12 UNL     1      35.639  -8.371  18.219  1.00  0.00    -0.018 C 
HETATM    9  C13 UNL     1      34.463  -7.430  18.031  1.00  0.00     0.033 C 
HETATM   10  C14 UNL     1      35.067  -6.100  18.472  1.00  0.00     0.005 C 
HETATM   11  C15 UNL     1      34.140  -5.276  19.224  1.00  0.00    -0.001 C 
HETATM   12  C16 UNL     1      32.895  -4.768  18.621  1.00  0.00     0.006 C 
HETATM   13  C17 UNL     1      32.763  -3.339  19.106  1.00  0.00     0.006 C 
HETATM   14  C18 UNL     1      33.723  -3.243  20.302  1.00  0.00    -0.002 C 
HETATM   15  C27 UNL     1      34.872  -4.106  19.887  1.00  0.00    -0.034 C 
HETATM   16  C28 UNL     1      35.605  -4.683  21.084  1.00  0.00     0.016 C 
HETATM   17  C29 UNL     1      35.868  -3.491  18.970  1.00  0.00     0.042 C 
HETATM   18  C30 UNL     1      36.730  -4.422  18.197  1.00  0.00     0.128 C 
HETATM   19  C31 UNL     1      35.962  -5.522  17.423  1.00  0.00    -0.004 C 
HETATM   20  C32 UNL     1      35.281  -4.711  16.367  1.00  0.00     0.019 C 
HETATM   21  C33 UNL     1      36.870  -6.589  16.959  1.00  0.00     0.059 C 
HETATM   22  C34 UNL     1      37.030  -6.953  15.541  1.00  0.00     0.128 C 
HETATM   23  C35 UNL     1      36.784  -8.374  15.141  1.00  0.00     0.052 C 
ENDROOT
BRANCH   1  24
HETATM   24  C4  UNL     1      38.214 -10.147  14.214  1.00  0.00     0.204 C 
BRANCH  24  25
HETATM   25  C3  UNL     1      37.869  -9.490  12.935  1.00  0.00     0.248 C 
BRANCH  25  26
HETATM   26  O2  UNL     1      37.238 -10.305  11.974  1.00  0.00    -0.316 OA
BRANCH  26  27
HETATM   27  C2  UNL     1      36.203  -9.923  11.178  1.00  0.00     0.254 C 
HETATM   28  C1  UNL     1      36.098 -10.556   9.824  1.00  0.00     0.126 C 
HETATM   29  O1  UNL     1      35.392  -9.072  11.597  1.00  0.00    -0.266 OA
ENDBRANCH  26  27
ENDBRANCH  25  26
ENDBRANCH  24  25
BRANCH  24  30
HETATM   30  O3  UNL     1      37.563 -11.415  14.212  1.00  0.00    -0.362 OA
ATOM     31  H3  UNL     1      37.605 -11.745  15.102  1.00  0.00     0.213 HD
ENDBRANCH  24  30
BRANCH  24  32
HETATM   32  O4  UNL     1      39.585 -10.456  14.299  1.00  0.00    -0.280 OA
BRANCH  32  33
HETATM   33  C5  UNL     1      40.214 -11.402  13.540  1.00  0.00     0.257 C 
HETATM   34  C6  UNL     1      40.964 -11.056  12.288  1.00  0.00     0.126 C 
HETATM   35  O5  UNL     1      40.200 -12.619  13.850  1.00  0.00    -0.266 OA
ENDBRANCH  32  33
ENDBRANCH  24  32
ENDBRANCH   1  24
BRANCH  22  36
HETATM   36  O9  UNL     1      36.277  -6.225  14.608  1.00  0.00    -0.395 OA
ATOM     37  H9  UNL     1      36.668  -6.086  13.754  1.00  0.00     0.210 HD
ENDBRANCH  22  36
BRANCH  18  38
HETATM   38  O8  UNL     1      37.407  -3.704  17.224  1.00  0.00    -0.395 OA
ATOM     39  H8  UNL     1      38.303  -3.570  17.507  1.00  0.00     0.210 HD
ENDBRANCH  18  38
BRANCH  14  40
HETATM   40  C19 UNL     1      34.018  -1.833  20.639  1.00  0.00    -0.014 C 
HETATM   41  C20 UNL     1      34.157  -1.604  22.093  1.00  0.00     0.010 C 
BRANCH  40  42
HETATM   42  C21 UNL     1      33.090  -0.848  19.961  1.00  0.00     0.006 C 
BRANCH  42  43
HETATM   43  C22 UNL     1      33.803   0.354  19.436  1.00  0.00     0.021 C 
BRANCH  43  44
HETATM   44  C23 UNL     1      32.863   1.492  19.099  1.00  0.00     0.085 C 
HETATM   45 CL1  UNL     1      31.214   1.155  19.640  1.00  0.00    -0.125 Cl
BRANCH  44  46
HETATM   46  C24 UNL     1      33.329   2.798  19.700  1.00  0.00    -0.004 C 
HETATM   47  C25 UNL     1      34.686   3.122  19.099  1.00  0.00     0.011 C 
HETATM   48  C26 UNL     1      32.347   3.920  19.474  1.00  0.00     0.011 C 
ENDBRANCH  44  46
ENDBRANCH  43  44
ENDBRANCH  42  43
ENDBRANCH  40  42
ENDBRANCH  14  40
TORSDOF 14
ENDMDL
MODEL 4
REMARK VINA RESULT: -7.690898369      1.995      2.855
REMARK  14 active torsions:
REMARK  status: ('A' for Active; 'I' for Inactive)
REMARK    1  A    between atoms: C2_2  and  O2_4 
REMARK    2  A    between atoms: O2_4  and  C3_5 
REMARK    3  A    between atoms: C3_5  and  C4_6 
REMARK    4  A    between atoms: C4_6  and  O3_7 
REMARK    5  A    between atoms: C4_6  and  O4_9 
REMARK    6  A    between atoms: C4_6  and  C7_13 
REMARK    7  A    between atoms: O4_9  and  C5_10 
REMARK    8  A    between atoms: C18_26  and  C19_27 
REMARK    9  A    between atoms: C19_27  and  C21_29 
REMARK   10  A    between atoms: C21_29  and  C22_30 
REMARK   11  A    between atoms: C22_30  and  C23_31 
REMARK   12  A    between atoms: C23_31  and  C24_33 
REMARK   13  A    between atoms: C30_39  and  O8_40 
REMARK   14  A    between atoms: C34_45  and  O9_46 
ROOT
HETATM    1  C7  UNL     1      37.811  -7.188  19.315  1.00  0.00     0.064 C 
HETATM    2  C8  UNL     1      37.321  -8.023  20.477  1.00  0.00     0.188 C 
HETATM    3  O6  UNL     1      37.106  -7.273  21.624  1.00  0.00    -0.356 OA
HETATM    4  C9  UNL     1      37.356  -5.949  21.532  1.00  0.00     0.290 C 
HETATM    5  O7  UNL     1      38.514  -5.547  20.936  1.00  0.00    -0.356 OA
HETATM    6  C10 UNL     1      38.863  -6.225  19.802  1.00  0.00     0.188 C 
HETATM    7  C11 UNL     1      36.203  -5.317  20.770  1.00  0.00    -0.022 C 
HETATM    8  C12 UNL     1      35.138  -5.843  21.360  1.00  0.00    -0.018 C 
HETATM    9  C13 UNL     1      33.827  -5.351  20.772  1.00  0.00     0.033 C 
HETATM   10  C14 UNL     1      34.061  -3.844  20.733  1.00  0.00     0.005 C 
HETATM   11  C15 UNL     1      32.880  -3.076  21.075  1.00  0.00    -0.001 C 
HETATM   12  C16 UNL     1      31.656  -3.135  20.257  1.00  0.00     0.006 C 
HETATM   13  C17 UNL     1      31.151  -1.710  20.177  1.00  0.00     0.006 C 
HETATM   14  C18 UNL     1      31.884  -0.974  21.311  1.00  0.00    -0.002 C 
HETATM   15  C27 UNL     1      33.239  -1.606  21.307  1.00  0.00    -0.034 C 
HETATM   16  C28 UNL     1      33.896  -1.537  22.674  1.00  0.00     0.016 C 
HETATM   17  C29 UNL     1      34.203  -1.109  20.291  1.00  0.00     0.042 C 
HETATM   18  C30 UNL     1      35.348  -1.997  19.963  1.00  0.00     0.128 C 
HETATM   19  C31 UNL     1      34.954  -3.451  19.600  1.00  0.00    -0.004 C 
HETATM   20  C32 UNL     1      34.277  -3.247  18.283  1.00  0.00     0.019 C 
HETATM   21  C33 UNL     1      36.127  -4.345  19.612  1.00  0.00     0.059 C 
HETATM   22  C34 UNL     1      36.567  -5.117  18.437  1.00  0.00     0.128 C 
HETATM   23  C35 UNL     1      36.693  -6.602  18.570  1.00  0.00     0.052 C 
ENDROOT
BRANCH   1  24
HETATM   24  C4  UNL     1      38.590  -8.163  18.439  1.00  0.00     0.204 C 
BRANCH  24  25
HETATM   25  C3  UNL     1      38.269  -8.121  16.997  1.00  0.00     0.248 C 
BRANCH  25  26
HETATM   26  O2  UNL     1      39.193  -7.438  16.180  1.00  0.00    -0.316 OA
BRANCH  26  27
HETATM   27  C2  UNL     1      38.874  -6.489  15.258  1.00  0.00     0.254 C 
HETATM   28  C1  UNL     1      39.167  -6.792  13.821  1.00  0.00     0.126 C 
HETATM   29  O1  UNL     1      38.356  -5.419  15.637  1.00  0.00    -0.266 OA
ENDBRANCH  26  27
ENDBRANCH  25  26
ENDBRANCH  24  25
BRANCH  24  30
HETATM   30  O3  UNL     1      38.269  -9.475  18.893  1.00  0.00    -0.362 OA
ATOM     31  H3  UNL     1      37.842  -9.918  18.168  1.00  0.00     0.213 HD
ENDBRANCH  24  30
BRANCH  24  32
HETATM   32  O4  UNL     1      39.971  -8.035  18.680  1.00  0.00    -0.280 OA
BRANCH  32  33
HETATM   33  C5  UNL     1      40.820  -9.084  18.896  1.00  0.00     0.257 C 
HETATM   34  C6  UNL     1      41.504  -9.303  20.213  1.00  0.00     0.126 C 
HETATM   35  O5  UNL     1      41.075  -9.926  18.001  1.00  0.00    -0.266 OA
ENDBRANCH  32  33
ENDBRANCH  24  32
ENDBRANCH   1  24
BRANCH  22  36
HETATM   36  O9  UNL     1      35.820  -4.965  17.260  1.00  0.00    -0.395 OA
ATOM     37  H9  UNL     1      35.639  -4.076  16.977  1.00  0.00     0.210 HD
ENDBRANCH  22  36
BRANCH  18  38
HETATM   38  O8  UNL     1      35.989  -1.506  18.837  1.00  0.00    -0.395 OA
ATOM     39  H8  UNL     1      36.669  -0.902  19.109  1.00  0.00     0.210 HD
ENDBRANCH  18  38
BRANCH  14  40
HETATM   40  C19 UNL     1      31.816   0.493  21.127  1.00  0.00    -0.014 C 
HETATM   41  C20 UNL     1      31.273   1.198  22.307  1.00  0.00     0.010 C 
BRANCH  40  42
HETATM   42  C21 UNL     1      31.163   0.905  19.825  1.00  0.00     0.006 C 
BRANCH  42  43
HETATM   43  C22 UNL     1      32.034   1.783  18.990  1.00  0.00     0.021 C 
BRANCH  43  44
HETATM   44  C23 UNL     1      33.230   2.316  19.750  1.00  0.00     0.085 C 
HETATM   45 CL1  UNL     1      34.750   1.744  19.053  1.00  0.00    -0.125 Cl
BRANCH  44  46
HETATM   46  C24 UNL     1      33.236   3.827  19.792  1.00  0.00    -0.004 C 
HETATM   47  C25 UNL     1      34.384   4.306  18.920  1.00  0.00     0.011 C 
HETATM   48  C26 UNL     1      31.924   4.422  19.347  1.00  0.00     0.011 C 
ENDBRANCH  44  46
ENDBRANCH  43  44
ENDBRANCH  42  43
ENDBRANCH  40  42
ENDBRANCH  14  40
TORSDOF 14
ENDMDL
MODEL 5
REMARK VINA RESULT: -7.465032743      1.060      2.414
REMARK  14 active torsions:
REMARK  status: ('A' for Active; 'I' for Inactive)
REMARK    1  A    between atoms: C2_2  and  O2_4 
REMARK    2  A    between atoms: O2_4  and  C3_5 
REMARK    3  A    between atoms: C3_5  and  C4_6 
REMARK    4  A    between atoms: C4_6  and  O3_7 
REMARK    5  A    between atoms: C4_6  and  O4_9 
REMARK    6  A    between atoms: C4_6  and  C7_13 
REMARK    7  A    between atoms: O4_9  and  C5_10 
REMARK    8  A    between atoms: C18_26  and  C19_27 
REMARK    9  A    between atoms: C19_27  and  C21_29 
REMARK   10  A    between atoms: C21_29  and  C22_30 
REMARK   11  A    between atoms: C22_30  and  C23_31 
REMARK   12  A    between atoms: C23_31  and  C24_33 
REMARK   13  A    between atoms: C30_39  and  O8_40 
REMARK   14  A    between atoms: C34_45  and  O9_46 
ROOT
HETATM    1  C7  UNL     1      37.131  -7.401  16.095  1.00  0.00     0.064 C 
HETATM    2  C8  UNL     1      36.716  -8.576  16.952  1.00  0.00     0.188 C 
HETATM    3  O6  UNL     1      36.783  -8.300  18.310  1.00  0.00    -0.356 OA
HETATM    4  C9  UNL     1      37.193  -7.060  18.652  1.00  0.00     0.290 C 
HETATM    5  O7  UNL     1      38.289  -6.544  18.029  1.00  0.00    -0.356 OA
HETATM    6  C10 UNL     1      38.365  -6.767  16.683  1.00  0.00     0.188 C 
HETATM    7  C11 UNL     1      36.032  -6.109  18.404  1.00  0.00    -0.022 C 
HETATM    8  C12 UNL     1      35.009  -6.745  18.960  1.00  0.00    -0.018 C 
HETATM    9  C13 UNL     1      33.703  -5.979  18.851  1.00  0.00     0.033 C 
HETATM   10  C14 UNL     1      34.129  -4.588  19.310  1.00  0.00     0.005 C 
HETATM   11  C15 UNL     1      33.129  -3.926  20.125  1.00  0.00    -0.001 C 
HETATM   12  C16 UNL     1      31.799  -3.588  19.591  1.00  0.00     0.006 C 
HETATM   13  C17 UNL     1      31.484  -2.206  20.127  1.00  0.00     0.006 C 
HETATM   14  C18 UNL     1      32.475  -2.004  21.285  1.00  0.00    -0.002 C 
HETATM   15  C27 UNL     1      33.715  -2.680  20.795  1.00  0.00    -0.034 C 
HETATM   16  C28 UNL     1      34.577  -3.176  21.942  1.00  0.00     0.016 C 
HETATM   17  C29 UNL     1      34.571  -1.904  19.858  1.00  0.00     0.042 C 
HETATM   18  C30 UNL     1      35.521  -2.680  19.021  1.00  0.00     0.128 C 
HETATM   19  C31 UNL     1      34.883  -3.859  18.244  1.00  0.00    -0.004 C 
HETATM   20  C32 UNL     1      34.047  -3.128  17.244  1.00  0.00     0.019 C 
HETATM   21  C33 UNL     1      35.913  -4.771  17.709  1.00  0.00     0.059 C 
HETATM   22  C34 UNL     1      36.059  -5.071  16.274  1.00  0.00     0.128 C 
HETATM   23  C35 UNL     1      36.001  -6.502  15.839  1.00  0.00     0.052 C 
ENDROOT
BRANCH   1  24
HETATM   24  C4  UNL     1      37.627  -8.025  14.796  1.00  0.00     0.204 C 
BRANCH  24  25
HETATM   25  C3  UNL     1      38.180  -9.390  14.914  1.00  0.00     0.248 C 
BRANCH  25  26
HETATM   26  O2  UNL     1      38.733  -9.935  13.738  1.00  0.00    -0.316 OA
BRANCH  26  27
HETATM   27  C2  UNL     1      39.829 -10.741  13.685  1.00  0.00     0.254 C 
HETATM   28  C1  UNL     1      40.571 -10.819  12.386  1.00  0.00     0.126 C 
HETATM   29  O1  UNL     1      40.169 -11.375  14.704  1.00  0.00    -0.266 OA
ENDBRANCH  26  27
ENDBRANCH  25  26
ENDBRANCH  24  25
BRANCH  24  30
HETATM   30  O3  UNL     1      38.681  -7.195  14.315  1.00  0.00    -0.362 OA
ATOM     31  H3  UNL     1      38.306  -6.335  14.167  1.00  0.00     0.213 HD
ENDBRANCH  24  30
BRANCH  24  32
HETATM   32  O4  UNL     1      36.630  -7.939  13.805  1.00  0.00    -0.280 OA
BRANCH  32  33
HETATM   33  C5  UNL     1      36.820  -7.405  12.561  1.00  0.00     0.257 C 
HETATM   34  C6  UNL     1      36.715  -8.229  11.312  1.00  0.00     0.126 C 
HETATM   35  O5  UNL     1      37.094  -6.192  12.394  1.00  0.00    -0.266 OA
ENDBRANCH  32  33
ENDBRANCH  24  32
ENDBRANCH   1  24
BRANCH  22  36
HETATM   36  O9  UNL     1      35.168  -4.436  15.397  1.00  0.00    -0.395 OA
ATOM     37  H9  UNL     1      34.460  -3.938  15.789  1.00  0.00     0.210 HD
ENDBRANCH  22  36
BRANCH  18  38
HETATM   38  O8  UNL     1      36.043  -1.846  18.044  1.00  0.00    -0.395 OA
ATOM     39  H8  UNL     1      35.988  -2.285  17.204  1.00  0.00     0.210 HD
ENDBRANCH  18  38
BRANCH  14  40
HETATM   40  C19 UNL     1      32.579  -0.575  21.655  1.00  0.00    -0.014 C 
HETATM   41  C20 UNL     1      32.303  -0.328  23.086  1.00  0.00     0.010 C 
BRANCH  40  42
HETATM   42  C21 UNL     1      31.814   0.343  20.727  1.00  0.00     0.006 C 
BRANCH  42  43
HETATM   43  C22 UNL     1      32.197   1.777  20.880  1.00  0.00     0.021 C 
BRANCH  43  44
HETATM   44  C23 UNL     1      32.689   2.394  19.588  1.00  0.00     0.085 C 
HETATM   45 CL1  UNL     1      31.958   3.978  19.305  1.00  0.00    -0.125 Cl
BRANCH  44  46
HETATM   46  C24 UNL     1      34.195   2.528  19.572  1.00  0.00    -0.004 C 
HETATM   47  C25 UNL     1      34.752   1.355  18.784  1.00  0.00     0.011 C 
HETATM   48  C26 UNL     1      34.651   3.844  18.994  1.00  0.00     0.011 C 
ENDBRANCH  44  46
ENDBRANCH  43  44
ENDBRANCH  42  43
ENDBRANCH  40  42
ENDBRANCH  14  40
TORSDOF 14
ENDMDL
