MODEL 1
REMARK VINA RESULT: -7.216755286      0.000      0.000
REMARK  8 active torsions:
REMARK  status: ('A' for Active; 'I' for Inactive)
REMARK    1  A    between atoms: C2_2  and  O1_3 
REMARK    2  A    between atoms: O1_3  and  C3_4 
REMARK    3  A    between atoms: C3_4  and  C4_6 
REMARK    4  A    between atoms: C4_6  and  N1_7 
REMARK       I    between atoms: N2_10  and  C7_11 
REMARK    5  A    between atoms: C7_11  and  C8_13 
REMARK    6  A    between atoms: C8_13  and  C9_14 
REMARK    7  A    between atoms: C20_26  and  C21_27 
REMARK    8  A    between atoms: C21_27  and  O6_29 
ROOT
HETATM    1  C9  UNL     1      23.360  -2.873  10.170  1.00  0.00     0.043 C 
HETATM    2  C10 UNL     1      24.894  -2.877   9.892  1.00  0.00     0.175 C 
HETATM    3  O4  UNL     1      25.204  -1.719  10.604  1.00  0.00    -0.383 OA
HETATM    4  C11 UNL     1      24.445  -0.729   9.921  1.00  0.00     0.144 C 
HETATM    5  C12 UNL     1      25.095  -0.574   8.592  1.00  0.00     0.034 C 
HETATM    6  C13 UNL     1      25.513   0.788   8.179  1.00  0.00     0.002 C 
HETATM    7  C14 UNL     1      24.508   1.810   7.889  1.00  0.00     0.000 C 
HETATM    8  C15 UNL     1      23.986   1.966   6.518  1.00  0.00     0.000 C 
HETATM    9  C16 UNL     1      23.565   0.773   5.749  1.00  0.00     0.000 C 
HETATM   10  C17 UNL     1      22.096   0.403   5.954  1.00  0.00     0.000 C 
HETATM   11  C18 UNL     1      21.852  -1.063   6.053  1.00  0.00     0.002 C 
HETATM   12  C19 UNL     1      20.766  -1.488   6.968  1.00  0.00     0.035 C 
HETATM   13  C20 UNL     1      21.119  -1.598   8.429  1.00  0.00     0.177 C 
HETATM   14  N3  UNL     1      22.391  -1.066   8.731  1.00  0.00    -0.402 N 
ATOM     15  H3  UNL     1      22.810  -0.385   8.099  1.00  0.00     0.154 HD
HETATM   16  C23 UNL     1      23.090  -1.456   9.883  1.00  0.00     0.113 C 
ENDROOT
BRANCH   1  17
HETATM   17  C8  UNL     1      23.343  -3.285  11.615  1.00  0.00     0.112 C 
BRANCH  17  18
HETATM   18  C7  UNL     1      22.283  -2.790  12.454  1.00  0.00     0.220 C 
HETATM   19  N2  UNL     1      22.588  -1.849  13.462  1.00  0.00    -0.349 N 
HETATM   20  C6  UNL     1      23.931  -1.367  13.684  1.00  0.00     0.145 C 
HETATM   21  C24 UNL     1      21.554  -1.323  14.327  1.00  0.00     0.145 C 
HETATM   22  C5  UNL     1      23.849   0.053  14.260  1.00  0.00     0.137 C 
HETATM   23  N1  UNL     1      23.238  -0.028  15.562  1.00  0.00    -0.400 N 
HETATM   24  C25 UNL     1      22.152  -0.952  15.662  1.00  0.00     0.137 C 
HETATM   25  O3  UNL     1      21.107  -3.172  12.313  1.00  0.00    -0.273 OA
BRANCH  23  26
HETATM   26  C4  UNL     1      23.046   1.215  16.229  1.00  0.00     0.228 C 
BRANCH  26  27
HETATM   27  C3  UNL     1      22.310   2.220  15.434  1.00  0.00     0.276 C 
HETATM   28  O2  UNL     1      21.059   2.221  15.466  1.00  0.00    -0.263 OA
BRANCH  27  29
HETATM   29  O1  UNL     1      22.940   3.170  14.650  1.00  0.00    -0.321 OA
BRANCH  29  30
HETATM   30  C2  UNL     1      22.285   4.287  14.102  1.00  0.00     0.174 C 
HETATM   31  C1  UNL     1      23.022   4.720  12.848  1.00  0.00     0.034 C 
ENDBRANCH  29  30
ENDBRANCH  27  29
ENDBRANCH  26  27
ENDBRANCH  23  26
ENDBRANCH  17  18
ENDBRANCH   1  17
BRANCH  13  32
HETATM   32  C21 UNL     1      20.055  -0.837   9.150  1.00  0.00     0.281 C 
HETATM   33  O5  UNL     1      19.617  -1.323  10.219  1.00  0.00    -0.263 OA
BRANCH  32  34
HETATM   34  O6  UNL     1      19.528   0.361   8.713  1.00  0.00    -0.325 OA
HETATM   35  C22 UNL     1      18.164   0.720   8.837  1.00  0.00     0.213 C 
ENDBRANCH  32  34
ENDBRANCH  13  32
TORSDOF 8
ENDMDL
MODEL 2
REMARK VINA RESULT: -6.767418007      1.222      1.895
REMARK  8 active torsions:
REMARK  status: ('A' for Active; 'I' for Inactive)
REMARK    1  A    between atoms: C2_2  and  O1_3 
REMARK    2  A    between atoms: O1_3  and  C3_4 
REMARK    3  A    between atoms: C3_4  and  C4_6 
REMARK    4  A    between atoms: C4_6  and  N1_7 
REMARK       I    between atoms: N2_10  and  C7_11 
REMARK    5  A    between atoms: C7_11  and  C8_13 
REMARK    6  A    between atoms: C8_13  and  C9_14 
REMARK    7  A    between atoms: C20_26  and  C21_27 
REMARK    8  A    between atoms: C21_27  and  O6_29 
ROOT
HETATM    1  C9  UNL     1      23.427  -2.880  10.080  1.00  0.00     0.043 C 
HETATM    2  C10 UNL     1      24.960  -2.857   9.799  1.00  0.00     0.175 C 
HETATM    3  O4  UNL     1      25.257  -1.714  10.539  1.00  0.00    -0.383 OA
HETATM    4  C11 UNL     1      24.484  -0.717   9.883  1.00  0.00     0.144 C 
HETATM    5  C12 UNL     1      25.129  -0.520   8.557  1.00  0.00     0.034 C 
HETATM    6  C13 UNL     1      25.528   0.857   8.177  1.00  0.00     0.002 C 
HETATM    7  C14 UNL     1      24.509   1.873   7.916  1.00  0.00     0.000 C 
HETATM    8  C15 UNL     1      23.982   2.057   6.550  1.00  0.00     0.000 C 
HETATM    9  C16 UNL     1      23.575   0.879   5.752  1.00  0.00     0.000 C 
HETATM   10  C17 UNL     1      22.112   0.485   5.951  1.00  0.00     0.000 C 
HETATM   11  C18 UNL     1      21.886  -0.987   6.013  1.00  0.00     0.002 C 
HETATM   12  C19 UNL     1      20.808  -1.448   6.919  1.00  0.00     0.035 C 
HETATM   13  C20 UNL     1      21.166  -1.590   8.376  1.00  0.00     0.177 C 
HETATM   14  N3  UNL     1      22.431  -1.050   8.689  1.00  0.00    -0.402 N 
ATOM     15  H3  UNL     1      22.840  -0.348   8.073  1.00  0.00     0.154 HD
HETATM   16  C23 UNL     1      23.138  -1.460   9.829  1.00  0.00     0.113 C 
ENDROOT
BRANCH   1  17
HETATM   17  C8  UNL     1      23.418  -3.328  11.514  1.00  0.00     0.112 C 
BRANCH  17  18
HETATM   18  C7  UNL     1      22.370  -2.847  12.374  1.00  0.00     0.220 C 
HETATM   19  N2  UNL     1      22.694  -1.956  13.420  1.00  0.00    -0.349 N 
HETATM   20  C6  UNL     1      24.046  -1.510  13.660  1.00  0.00     0.145 C 
HETATM   21  C24 UNL     1      21.671  -1.444  14.307  1.00  0.00     0.145 C 
HETATM   22  C5  UNL     1      23.994  -0.114  14.294  1.00  0.00     0.137 C 
HETATM   23  N1  UNL     1      23.382  -0.236  15.593  1.00  0.00    -0.400 N 
HETATM   24  C25 UNL     1      22.277  -1.142  15.656  1.00  0.00     0.137 C 
HETATM   25  O3  UNL     1      21.186  -3.199  12.219  1.00  0.00    -0.273 OA
BRANCH  23  26
HETATM   26  C4  UNL     1      23.216   0.982  16.311  1.00  0.00     0.228 C 
BRANCH  26  27
HETATM   27  C3  UNL     1      21.810   1.308  16.630  1.00  0.00     0.276 C 
HETATM   28  O2  UNL     1      21.140   1.977  15.811  1.00  0.00    -0.263 OA
BRANCH  27  29
HETATM   29  O1  UNL     1      21.190   0.905  17.800  1.00  0.00    -0.321 OA
BRANCH  29  30
HETATM   30  C2  UNL     1      19.796   0.778  17.940  1.00  0.00     0.174 C 
HETATM   31  C1  UNL     1      19.431  -0.694  17.879  1.00  0.00     0.034 C 
ENDBRANCH  29  30
ENDBRANCH  27  29
ENDBRANCH  26  27
ENDBRANCH  23  26
ENDBRANCH  17  18
ENDBRANCH   1  17
BRANCH  13  32
HETATM   32  C21 UNL     1      20.094  -0.861   9.118  1.00  0.00     0.281 C 
HETATM   33  O5  UNL     1      19.677  -1.371  10.185  1.00  0.00    -0.263 OA
BRANCH  32  34
HETATM   34  O6  UNL     1      19.537   0.331   8.703  1.00  0.00    -0.325 OA
HETATM   35  C22 UNL     1      18.170   0.665   8.857  1.00  0.00     0.213 C 
ENDBRANCH  32  34
ENDBRANCH  13  32
TORSDOF 8
ENDMDL
MODEL 3
REMARK VINA RESULT: -6.273674288      4.660      6.820
REMARK  8 active torsions:
REMARK  status: ('A' for Active; 'I' for Inactive)
REMARK    1  A    between atoms: C2_2  and  O1_3 
REMARK    2  A    between atoms: O1_3  and  C3_4 
REMARK    3  A    between atoms: C3_4  and  C4_6 
REMARK    4  A    between atoms: C4_6  and  N1_7 
REMARK       I    between atoms: N2_10  and  C7_11 
REMARK    5  A    between atoms: C7_11  and  C8_13 
REMARK    6  A    between atoms: C8_13  and  C9_14 
REMARK    7  A    between atoms: C20_26  and  C21_27 
REMARK    8  A    between atoms: C21_27  and  O6_29 
ROOT
HETATM    1  C9  UNL     1      23.789  -1.398   6.842  1.00  0.00     0.043 C 
HETATM    2  C10 UNL     1      25.115  -1.749   7.584  1.00  0.00     0.175 C 
HETATM    3  O4  UNL     1      25.703  -0.489   7.496  1.00  0.00    -0.383 OA
HETATM    4  C11 UNL     1      25.803  -0.297   6.090  1.00  0.00     0.144 C 
HETATM    5  C12 UNL     1      26.837  -1.261   5.628  1.00  0.00     0.034 C 
HETATM    6  C13 UNL     1      27.981  -0.730   4.847  1.00  0.00     0.002 C 
HETATM    7  C14 UNL     1      27.770  -0.197   3.501  1.00  0.00     0.000 C 
HETATM    8  C15 UNL     1      27.873  -1.087   2.329  1.00  0.00     0.000 C 
HETATM    9  C16 UNL     1      27.197  -2.403   2.341  1.00  0.00     0.000 C 
HETATM   10  C17 UNL     1      25.763  -2.356   1.813  1.00  0.00     0.000 C 
HETATM   11  C18 UNL     1      24.809  -3.207   2.578  1.00  0.00     0.002 C 
HETATM   12  C19 UNL     1      23.426  -2.693   2.707  1.00  0.00     0.035 C 
HETATM   13  C20 UNL     1      23.180  -1.689   3.805  1.00  0.00     0.177 C 
HETATM   14  N3  UNL     1      24.369  -1.231   4.410  1.00  0.00    -0.402 N 
ATOM     15  H3  UNL     1      25.249  -1.306   3.902  1.00  0.00     0.154 HD
HETATM   16  C23 UNL     1      24.364  -0.674   5.698  1.00  0.00     0.113 C 
ENDROOT
BRANCH   1  17
HETATM   17  C8  UNL     1      23.101  -0.570   7.889  1.00  0.00     0.112 C 
BRANCH  17  18
HETATM   18  C7  UNL     1      21.957   0.212   7.499  1.00  0.00     0.220 C 
HETATM   19  N2  UNL     1      20.705  -0.058   8.094  1.00  0.00    -0.349 N 
HETATM   20  C6  UNL     1      20.530  -1.097   9.081  1.00  0.00     0.145 C 
HETATM   21  C24 UNL     1      19.529   0.704   7.734  1.00  0.00     0.145 C 
HETATM   22  C5  UNL     1      19.374  -0.699  10.008  1.00  0.00     0.137 C 
HETATM   23  N1  UNL     1      18.162  -0.686   9.230  1.00  0.00    -0.400 N 
HETATM   24  C25 UNL     1      18.298  -0.150   7.911  1.00  0.00     0.137 C 
HETATM   25  O3  UNL     1      22.045   1.118   6.650  1.00  0.00    -0.273 OA
BRANCH  23  26
HETATM   26  C4  UNL     1      16.986  -0.294   9.930  1.00  0.00     0.228 C 
BRANCH  26  27
HETATM   27  C3  UNL     1      16.037  -1.399  10.182  1.00  0.00     0.276 C 
HETATM   28  O2  UNL     1      16.026  -1.946  11.308  1.00  0.00    -0.263 OA
BRANCH  27  29
HETATM   29  O1  UNL     1      15.151  -1.863   9.226  1.00  0.00    -0.321 OA
BRANCH  29  30
HETATM   30  C2  UNL     1      14.675  -1.079   8.159  1.00  0.00     0.174 C 
HETATM   31  C1  UNL     1      15.072  -1.738   6.852  1.00  0.00     0.034 C 
ENDBRANCH  29  30
ENDBRANCH  27  29
ENDBRANCH  26  27
ENDBRANCH  23  26
ENDBRANCH  17  18
ENDBRANCH   1  17
BRANCH  13  32
HETATM   32  C21 UNL     1      22.462  -0.555   3.148  1.00  0.00     0.281 C 
HETATM   33  O5  UNL     1      21.274  -0.745   2.797  1.00  0.00    -0.263 OA
BRANCH  32  34
HETATM   34  O6  UNL     1      23.025   0.681   2.907  1.00  0.00    -0.325 OA
HETATM   35  C22 UNL     1      23.907   0.955   1.834  1.00  0.00     0.213 C 
ENDBRANCH  32  34
ENDBRANCH  13  32
TORSDOF 8
ENDMDL
MODEL 4
REMARK VINA RESULT: -6.255795640      1.502      2.362
REMARK  8 active torsions:
REMARK  status: ('A' for Active; 'I' for Inactive)
REMARK    1  A    between atoms: C2_2  and  O1_3 
REMARK    2  A    between atoms: O1_3  and  C3_4 
REMARK    3  A    between atoms: C3_4  and  C4_6 
REMARK    4  A    between atoms: C4_6  and  N1_7 
REMARK       I    between atoms: N2_10  and  C7_11 
REMARK    5  A    between atoms: C7_11  and  C8_13 
REMARK    6  A    between atoms: C8_13  and  C9_14 
REMARK    7  A    between atoms: C20_26  and  C21_27 
REMARK    8  A    between atoms: C21_27  and  O6_29 
ROOT
HETATM    1  C9  UNL     1      23.362  -2.834  10.079  1.00  0.00     0.043 C 
HETATM    2  C10 UNL     1      24.903  -2.820   9.839  1.00  0.00     0.175 C 
HETATM    3  O4  UNL     1      25.183  -1.669  10.574  1.00  0.00    -0.383 OA
HETATM    4  C11 UNL     1      24.432  -0.678   9.885  1.00  0.00     0.144 C 
HETATM    5  C12 UNL     1      25.113  -0.499   8.574  1.00  0.00     0.034 C 
HETATM    6  C13 UNL     1      25.526   0.872   8.189  1.00  0.00     0.002 C 
HETATM    7  C14 UNL     1      24.519   1.888   7.888  1.00  0.00     0.000 C 
HETATM    8  C15 UNL     1      24.029   2.058   6.506  1.00  0.00     0.000 C 
HETATM    9  C16 UNL     1      23.640   0.871   5.712  1.00  0.00     0.000 C 
HETATM   10  C17 UNL     1      22.171   0.484   5.875  1.00  0.00     0.000 C 
HETATM   11  C18 UNL     1      21.938  -0.986   5.949  1.00  0.00     0.002 C 
HETATM   12  C19 UNL     1      20.835  -1.433   6.830  1.00  0.00     0.035 C 
HETATM   13  C20 UNL     1      21.152  -1.559   8.299  1.00  0.00     0.177 C 
HETATM   14  N3  UNL     1      22.411  -1.019   8.639  1.00  0.00    -0.402 N 
ATOM     15  H3  UNL     1      22.838  -0.325   8.026  1.00  0.00     0.154 HD
HETATM   16  C23 UNL     1      23.085  -1.417   9.803  1.00  0.00     0.113 C 
ENDROOT
BRANCH   1  17
HETATM   17  C8  UNL     1      23.313  -3.266  11.517  1.00  0.00     0.112 C 
BRANCH  17  18
HETATM   18  C7  UNL     1      22.194  -2.845  12.319  1.00  0.00     0.220 C 
HETATM   19  N2  UNL     1      22.411  -1.934  13.376  1.00  0.00    -0.349 N 
HETATM   20  C6  UNL     1      23.720  -1.411  13.685  1.00  0.00     0.145 C 
HETATM   21  C24 UNL     1      21.315  -1.482  14.206  1.00  0.00     0.145 C 
HETATM   22  C5  UNL     1      23.553  -0.018  14.309  1.00  0.00     0.137 C 
HETATM   23  N1  UNL     1      22.882  -0.174  15.574  1.00  0.00    -0.400 N 
HETATM   24  C25 UNL     1      21.829  -1.142  15.583  1.00  0.00     0.137 C 
HETATM   25  O3  UNL     1      21.042  -3.266  12.103  1.00  0.00    -0.273 OA
BRANCH  23  26
HETATM   26  C4  UNL     1      22.607   1.033  16.277  1.00  0.00     0.228 C 
BRANCH  26  27
HETATM   27  C3  UNL     1      22.264   0.838  17.701  1.00  0.00     0.276 C 
HETATM   28  O2  UNL     1      21.149   1.229  18.115  1.00  0.00    -0.263 OA
BRANCH  27  29
HETATM   29  O1  UNL     1      23.120   0.238  18.607  1.00  0.00    -0.321 OA
BRANCH  29  30
HETATM   30  C2  UNL     1      22.906  -1.042  19.151  1.00  0.00     0.174 C 
HETATM   31  C1  UNL     1      23.945  -1.993  18.585  1.00  0.00     0.034 C 
ENDBRANCH  29  30
ENDBRANCH  27  29
ENDBRANCH  26  27
ENDBRANCH  23  26
ENDBRANCH  17  18
ENDBRANCH   1  17
BRANCH  13  32
HETATM   32  C21 UNL     1      20.063  -0.817   9.003  1.00  0.00     0.281 C 
HETATM   33  O5  UNL     1      19.621   0.221   8.457  1.00  0.00    -0.263 OA
BRANCH  32  34
HETATM   34  O6  UNL     1      19.518  -1.203  10.210  1.00  0.00    -0.325 OA
HETATM   35  C22 UNL     1      18.161  -1.012  10.565  1.00  0.00     0.213 C 
ENDBRANCH  32  34
ENDBRANCH  13  32
TORSDOF 8
ENDMDL
MODEL 5
REMARK VINA RESULT: -5.997544001      2.724      8.183
REMARK  8 active torsions:
REMARK  status: ('A' for Active; 'I' for Inactive)
REMARK    1  A    between atoms: C2_2  and  O1_3 
REMARK    2  A    between atoms: O1_3  and  C3_4 
REMARK    3  A    between atoms: C3_4  and  C4_6 
REMARK    4  A    between atoms: C4_6  and  N1_7 
REMARK       I    between atoms: N2_10  and  C7_11 
REMARK    5  A    between atoms: C7_11  and  C8_13 
REMARK    6  A    between atoms: C8_13  and  C9_14 
REMARK    7  A    between atoms: C20_26  and  C21_27 
REMARK    8  A    between atoms: C21_27  and  O6_29 
ROOT
HETATM    1  C9  UNL     1      24.136  -1.328  11.130  1.00  0.00     0.043 C 
HETATM    2  C10 UNL     1      25.636  -1.385  11.555  1.00  0.00     0.175 C 
HETATM    3  O4  UNL     1      25.806  -2.761  11.411  1.00  0.00    -0.383 OA
HETATM    4  C11 UNL     1      24.870  -3.283  12.345  1.00  0.00     0.144 C 
HETATM    5  C12 UNL     1      25.415  -2.944  13.688  1.00  0.00     0.034 C 
HETATM    6  C13 UNL     1      25.598  -4.049  14.660  1.00  0.00     0.002 C 
HETATM    7  C14 UNL     1      24.435  -4.735  15.223  1.00  0.00     0.000 C 
HETATM    8  C15 UNL     1      23.820  -4.247  16.471  1.00  0.00     0.000 C 
HETATM    9  C16 UNL     1      23.543  -2.803  16.640  1.00  0.00     0.000 C 
HETATM   10  C17 UNL     1      22.161  -2.385  16.139  1.00  0.00     0.000 C 
HETATM   11  C18 UNL     1      22.146  -1.076  15.428  1.00  0.00     0.002 C 
HETATM   12  C19 UNL     1      21.189  -0.948  14.304  1.00  0.00     0.035 C 
HETATM   13  C20 UNL     1      21.635  -1.497  12.973  1.00  0.00     0.177 C 
HETATM   14  N3  UNL     1      22.827  -2.248  13.058  1.00  0.00    -0.402 N 
ATOM     15  H3  UNL     1      23.103  -2.648  13.954  1.00  0.00     0.154 HD
HETATM   16  C23 UNL     1      23.640  -2.456  11.933  1.00  0.00     0.113 C 
ENDROOT
BRANCH   1  17
HETATM   17  C8  UNL     1      24.262  -1.555   9.651  1.00  0.00     0.112 C 
BRANCH  17  18
HETATM   18  C7  UNL     1      23.063  -1.554   8.855  1.00  0.00     0.220 C 
HETATM   19  N2  UNL     1      23.086  -0.952   7.578  1.00  0.00    -0.349 N 
HETATM   20  C6  UNL     1      24.275  -0.333   7.041  1.00  0.00     0.145 C 
HETATM   21  C24 UNL     1      21.905  -0.931   6.743  1.00  0.00     0.145 C 
HETATM   22  C5  UNL     1      24.229  -0.437   5.510  1.00  0.00     0.137 C 
HETATM   23  N1  UNL     1      23.123   0.358   5.042  1.00  0.00    -0.400 N 
HETATM   24  C25 UNL     1      21.942   0.281   5.845  1.00  0.00     0.137 C 
HETATM   25  O3  UNL     1      22.007  -2.069   9.267  1.00  0.00    -0.273 OA
BRANCH  23  26
HETATM   26  C4  UNL     1      22.908   0.343   3.635  1.00  0.00     0.228 C 
BRANCH  26  27
HETATM   27  C3  UNL     1      21.983  -0.716   3.177  1.00  0.00     0.276 C 
HETATM   28  O2  UNL     1      20.914  -0.387   2.616  1.00  0.00    -0.263 OA
BRANCH  27  29
HETATM   29  O1  UNL     1      22.245  -2.065   3.338  1.00  0.00    -0.321 OA
BRANCH  29  30
HETATM   30  C2  UNL     1      23.336  -2.723   2.742  1.00  0.00     0.174 C 
HETATM   31  C1  UNL     1      23.925  -3.698   3.745  1.00  0.00     0.034 C 
ENDBRANCH  29  30
ENDBRANCH  27  29
ENDBRANCH  26  27
ENDBRANCH  23  26
ENDBRANCH  17  18
ENDBRANCH   1  17
BRANCH  13  32
HETATM   32  C21 UNL     1      20.510  -2.362  12.506  1.00  0.00     0.281 C 
HETATM   33  O5  UNL     1      20.713  -3.598  12.450  1.00  0.00    -0.263 OA
BRANCH  32  34
HETATM   34  O6  UNL     1      19.270  -1.886  12.135  1.00  0.00    -0.325 OA
HETATM   35  C22 UNL     1      18.989  -1.301  10.876  1.00  0.00     0.213 C 
ENDBRANCH  32  34
ENDBRANCH  13  32
TORSDOF 8
ENDMDL
