MODEL 1
REMARK VINA RESULT: -5.007917004      0.000      0.000
REMARK  9 active torsions:
REMARK  status: ('A' for Active; 'I' for Inactive)
REMARK    1  A    between atoms: O1_2  and  C2_3 
REMARK    2  A    between atoms: C2_3  and  O2_4 
REMARK    3  A    between atoms: O2_4  and  C3_5 
REMARK    4  A    between atoms: C3_5  and  C4_6 
REMARK    5  A    between atoms: C18_22  and  O5_23 
REMARK    6  A    between atoms: C19_25  and  O6_26 
REMARK    7  A    between atoms: O6_26  and  C20_27 
REMARK    8  A    between atoms: C24_32  and  O8_33 
REMARK    9  A    between atoms: O8_33  and  C25_34 
ROOT
HETATM    1  C4  UNL     1      24.729  -0.148   5.404  1.00  0.00     0.013 A 
HETATM    2  C5  UNL     1      23.935  -0.226   4.082  1.00  0.00     0.014 A 
HETATM    3  C6  UNL     1      22.711  -0.666   4.297  1.00  0.00    -0.006 C 
HETATM    4  C7  UNL     1      21.843  -0.823   3.103  1.00  0.00     0.011 C 
HETATM    5  C8  UNL     1      22.137  -0.732   5.633  1.00  0.00     0.022 C 
HETATM    6  C9  UNL     1      22.400   0.795   6.031  1.00  0.00     0.028 C 
HETATM    7  C10 UNL     1      23.770   0.291   6.341  1.00  0.00     0.059 C 
HETATM    8  C11 UNL     1      24.436   1.099   7.400  1.00  0.00     0.140 C 
HETATM    9  O3  UNL     1      24.578   0.582   8.488  1.00  0.00    -0.297 OA
HETATM   10  C12 UNL     1      24.937   2.462   7.253  1.00  0.00     0.091 C 
HETATM   11  C13 UNL     1      26.039   2.706   6.288  1.00  0.00     0.004 C 
HETATM   12  C14 UNL     1      27.215   1.844   6.597  1.00  0.00     0.019 C 
HETATM   13  C15 UNL     1      26.499   4.141   6.670  1.00  0.00     0.020 C 
HETATM   14  C16 UNL     1      26.890   4.834   5.416  1.00  0.00     0.083 C 
HETATM   15  C17 UNL     1      26.833   3.750   4.445  1.00  0.00     0.164 C 
HETATM   16  O4  UNL     1      27.536   3.585   3.493  1.00  0.00    -0.295 OA
HETATM   17  C18 UNL     1      25.707   2.844   4.857  1.00  0.00     0.152 C 
HETATM   18  C19 UNL     1      25.538   1.758   3.926  1.00  0.00     0.184 C 
HETATM   19  C22 UNL     1      25.385   0.321   4.286  1.00  0.00     0.002 A 
HETATM   20  C23 UNL     1      26.260  -0.596   3.450  1.00  0.00     0.019 C 
HETATM   21  C24 UNL     1      22.959  -0.920   6.851  1.00  0.00     0.153 C 
ENDROOT
BRANCH   1  22
HETATM   22  C3  UNL     1      25.272  -1.571   5.842  1.00  0.00     0.182 C 
BRANCH  22  23
HETATM   23  O2  UNL     1      26.478  -1.432   6.471  1.00  0.00    -0.366 OA
BRANCH  23  24
HETATM   24  C2  UNL     1      26.658  -2.518   7.312  1.00  0.00     0.337 C 
BRANCH  24  25
HETATM   25  O1  UNL     1      25.854  -2.478   8.433  1.00  0.00    -0.372 OA
HETATM   26  C1  UNL     1      26.658  -2.143   9.522  1.00  0.00     0.204 C 
ENDBRANCH  24  25
ENDBRANCH  23  24
ENDBRANCH  22  23
ENDBRANCH   1  22
BRANCH  21  27
HETATM   27  O8  UNL     1      22.259  -0.474   8.021  1.00  0.00    -0.315 OA
BRANCH  27  28
HETATM   28  C25 UNL     1      21.836  -1.393   9.000  1.00  0.00     0.255 C 
HETATM   29  C26 UNL     1      20.425  -1.393   9.438  1.00  0.00     0.126 C 
HETATM   30  O9  UNL     1      22.716  -2.164   9.439  1.00  0.00    -0.266 OA
ENDBRANCH  27  28
ENDBRANCH  21  27
BRANCH  18  31
HETATM   31  O6  UNL     1      24.384   2.066   3.111  1.00  0.00    -0.312 OA
BRANCH  31  32
HETATM   32  C20 UNL     1      24.408   2.490   1.820  1.00  0.00     0.255 C 
HETATM   33  C21 UNL     1      24.071   1.607   0.655  1.00  0.00     0.126 C 
HETATM   34  O7  UNL     1      24.730   3.684   1.586  1.00  0.00    -0.266 OA
ENDBRANCH  31  32
ENDBRANCH  18  31
BRANCH  17  35
HETATM   35  O5  UNL     1      24.611   3.757   4.797  1.00  0.00    -0.379 OA
ATOM     36  H5  UNL     1      24.351   3.790   3.884  1.00  0.00     0.211 HD
ENDBRANCH  17  35
TORSDOF 9
ENDMDL
MODEL 2
REMARK VINA RESULT: -4.994062049      1.768      2.212
REMARK  9 active torsions:
REMARK  status: ('A' for Active; 'I' for Inactive)
REMARK    1  A    between atoms: O1_2  and  C2_3 
REMARK    2  A    between atoms: C2_3  and  O2_4 
REMARK    3  A    between atoms: O2_4  and  C3_5 
REMARK    4  A    between atoms: C3_5  and  C4_6 
REMARK    5  A    between atoms: C18_22  and  O5_23 
REMARK    6  A    between atoms: C19_25  and  O6_26 
REMARK    7  A    between atoms: O6_26  and  C20_27 
REMARK    8  A    between atoms: C24_32  and  O8_33 
REMARK    9  A    between atoms: O8_33  and  C25_34 
ROOT
HETATM    1  C4  UNL     1      24.670  -0.627   5.398  1.00  0.00     0.013 A 
HETATM    2  C5  UNL     1      24.663  -1.629   4.223  1.00  0.00     0.014 A 
HETATM    3  C6  UNL     1      23.533  -2.308   4.195  1.00  0.00    -0.006 C 
HETATM    4  C7  UNL     1      23.402  -3.335   3.131  1.00  0.00     0.011 C 
HETATM    5  C8  UNL     1      22.368  -1.901   4.967  1.00  0.00     0.022 C 
HETATM    6  C9  UNL     1      22.285  -0.402   4.416  1.00  0.00     0.028 C 
HETATM    7  C10 UNL     1      23.341  -0.157   5.442  1.00  0.00     0.059 C 
HETATM    8  C11 UNL     1      23.321   1.246   5.940  1.00  0.00     0.140 C 
HETATM    9  O3  UNL     1      22.928   1.428   7.074  1.00  0.00    -0.297 OA
HETATM   10  C12 UNL     1      23.730   2.430   5.192  1.00  0.00     0.091 C 
HETATM   11  C13 UNL     1      25.148   2.538   4.765  1.00  0.00     0.004 C 
HETATM   12  C14 UNL     1      26.064   2.429   5.938  1.00  0.00     0.019 C 
HETATM   13  C15 UNL     1      25.249   4.026   4.331  1.00  0.00     0.020 C 
HETATM   14  C16 UNL     1      26.172   4.092   3.169  1.00  0.00     0.083 C 
HETATM   15  C17 UNL     1      26.690   2.732   3.122  1.00  0.00     0.164 C 
HETATM   16  O4  UNL     1      27.788   2.379   2.808  1.00  0.00    -0.295 OA
HETATM   17  C18 UNL     1      25.577   1.817   3.551  1.00  0.00     0.152 C 
HETATM   18  C19 UNL     1      25.980   0.436   3.494  1.00  0.00     0.184 C 
HETATM   19  C22 UNL     1      25.767  -0.577   4.565  1.00  0.00     0.002 A 
HETATM   20  C23 UNL     1      27.007  -1.405   4.852  1.00  0.00     0.019 C 
HETATM   21  C24 UNL     1      22.471  -1.152   6.240  1.00  0.00     0.153 C 
ENDROOT
BRANCH   1  22
HETATM   22  C3  UNL     1      25.016  -1.341   6.770  1.00  0.00     0.182 C 
BRANCH  22  23
HETATM   23  O2  UNL     1      25.604  -0.447   7.621  1.00  0.00    -0.366 OA
BRANCH  23  24
HETATM   24  C2  UNL     1      25.374  -0.868   8.921  1.00  0.00     0.337 C 
BRANCH  24  25
HETATM   25  O1  UNL     1      24.056  -0.739   9.310  1.00  0.00    -0.372 OA
HETATM   26  C1  UNL     1      23.861  -1.546  10.430  1.00  0.00     0.204 C 
ENDBRANCH  24  25
ENDBRANCH  23  24
ENDBRANCH  22  23
ENDBRANCH   1  22
BRANCH  21  27
HETATM   27  O8  UNL     1      21.245  -0.468   6.538  1.00  0.00    -0.315 OA
BRANCH  27  28
HETATM   28  C25 UNL     1      20.564  -0.706   7.747  1.00  0.00     0.255 C 
HETATM   29  C26 UNL     1      19.540   0.255   8.208  1.00  0.00     0.126 C 
HETATM   30  O9  UNL     1      20.887  -1.747   8.357  1.00  0.00    -0.266 OA
ENDBRANCH  27  28
ENDBRANCH  21  27
BRANCH  18  31
HETATM   31  O6  UNL     1      25.379  -0.138   2.310  1.00  0.00    -0.312 OA
BRANCH  31  32
HETATM   32  C20 UNL     1      26.023  -0.434   1.151  1.00  0.00     0.255 C 
HETATM   33  C21 UNL     1      26.676  -1.759   0.886  1.00  0.00     0.126 C 
HETATM   34  O7  UNL     1      26.078   0.445   0.251  1.00  0.00    -0.266 OA
ENDBRANCH  31  32
ENDBRANCH  18  31
BRANCH  17  35
HETATM   35  O5  UNL     1      24.602   2.118   2.554  1.00  0.00    -0.379 OA
ATOM     36  H5  UNL     1      24.689   3.049   2.379  1.00  0.00     0.211 HD
ENDBRANCH  17  35
TORSDOF 9
ENDMDL
MODEL 3
REMARK VINA RESULT: -4.857581290      2.284      3.117
REMARK  9 active torsions:
REMARK  status: ('A' for Active; 'I' for Inactive)
REMARK    1  A    between atoms: O1_2  and  C2_3 
REMARK    2  A    between atoms: C2_3  and  O2_4 
REMARK    3  A    between atoms: O2_4  and  C3_5 
REMARK    4  A    between atoms: C3_5  and  C4_6 
REMARK    5  A    between atoms: C18_22  and  O5_23 
REMARK    6  A    between atoms: C19_25  and  O6_26 
REMARK    7  A    between atoms: O6_26  and  C20_27 
REMARK    8  A    between atoms: C24_32  and  O8_33 
REMARK    9  A    between atoms: O8_33  and  C25_34 
ROOT
HETATM    1  C4  UNL     1      24.796  -0.992   4.447  1.00  0.00     0.013 A 
HETATM    2  C5  UNL     1      25.079  -2.085   3.394  1.00  0.00     0.014 A 
HETATM    3  C6  UNL     1      24.051  -2.904   3.282  1.00  0.00    -0.006 C 
HETATM    4  C7  UNL     1      24.199  -4.028   2.324  1.00  0.00     0.011 C 
HETATM    5  C8  UNL     1      22.745  -2.583   3.839  1.00  0.00     0.022 C 
HETATM    6  C9  UNL     1      22.575  -1.161   3.127  1.00  0.00     0.028 C 
HETATM    7  C10 UNL     1      23.430  -0.695   4.257  1.00  0.00     0.059 C 
HETATM    8  C11 UNL     1      23.176   0.733   4.597  1.00  0.00     0.140 C 
HETATM    9  O3  UNL     1      22.600   0.962   5.641  1.00  0.00    -0.297 OA
HETATM   10  C12 UNL     1      23.555   1.890   3.792  1.00  0.00     0.091 C 
HETATM   11  C13 UNL     1      24.999   2.140   3.556  1.00  0.00     0.004 C 
HETATM   12  C14 UNL     1      25.735   2.253   4.848  1.00  0.00     0.019 C 
HETATM   13  C15 UNL     1      24.993   3.586   2.986  1.00  0.00     0.020 C 
HETATM   14  C16 UNL     1      26.066   3.666   1.961  1.00  0.00     0.083 C 
HETATM   15  C17 UNL     1      26.737   2.386   2.130  1.00  0.00     0.164 C 
HETATM   16  O4  UNL     1      27.902   2.150   2.009  1.00  0.00    -0.295 OA
HETATM   17  C18 UNL     1      25.684   1.377   2.496  1.00  0.00     0.152 C 
HETATM   18  C19 UNL     1      26.246   0.059   2.640  1.00  0.00     0.184 C 
HETATM   19  C22 UNL     1      25.992  -0.875   3.772  1.00  0.00     0.002 A 
HETATM   20  C23 UNL     1      27.262  -1.509   4.314  1.00  0.00     0.019 C 
HETATM   21  C24 UNL     1      22.569  -1.718   5.028  1.00  0.00     0.153 C 
ENDROOT
BRANCH   1  22
HETATM   22  C3  UNL     1      25.011  -1.533   5.921  1.00  0.00     0.182 C 
BRANCH  22  23
HETATM   23  O2  UNL     1      25.478  -0.526   6.719  1.00  0.00    -0.366 OA
BRANCH  23  24
HETATM   24  C2  UNL     1      24.711  -0.493   7.872  1.00  0.00     0.337 C 
BRANCH  24  25
HETATM   25  O1  UNL     1      24.325  -1.745   8.305  1.00  0.00    -0.372 OA
HETATM   26  C1  UNL     1      23.950  -1.637   9.644  1.00  0.00     0.204 C 
ENDBRANCH  24  25
ENDBRANCH  23  24
ENDBRANCH  22  23
ENDBRANCH   1  22
BRANCH  21  27
HETATM   27  O8  UNL     1      21.243  -1.174   5.081  1.00  0.00    -0.315 OA
BRANCH  27  28
HETATM   28  C25 UNL     1      20.370  -1.507   6.134  1.00  0.00     0.255 C 
HETATM   29  C26 UNL     1      20.840  -1.404   7.531  1.00  0.00     0.126 C 
HETATM   30  O9  UNL     1      19.226  -1.876   5.795  1.00  0.00    -0.266 OA
ENDBRANCH  27  28
ENDBRANCH  21  27
BRANCH  18  31
HETATM   31  O6  UNL     1      25.898  -0.689   1.451  1.00  0.00    -0.312 OA
BRANCH  31  32
HETATM   32  C20 UNL     1      26.736  -0.992   0.426  1.00  0.00     0.255 C 
HETATM   33  C21 UNL     1      27.539  -2.258   0.364  1.00  0.00     0.126 C 
HETATM   34  O7  UNL     1      26.847  -0.172  -0.523  1.00  0.00    -0.266 OA
ENDBRANCH  31  32
ENDBRANCH  18  31
BRANCH  17  35
HETATM   35  O5  UNL     1      24.841   1.462   1.348  1.00  0.00    -0.379 OA
ATOM     36  H5  UNL     1      23.956   1.546   1.682  1.00  0.00     0.211 HD
ENDBRANCH  17  35
TORSDOF 9
ENDMDL
MODEL 4
REMARK VINA RESULT: -4.804917945      7.740     10.651
REMARK  9 active torsions:
REMARK  status: ('A' for Active; 'I' for Inactive)
REMARK    1  A    between atoms: O1_2  and  C2_3 
REMARK    2  A    between atoms: C2_3  and  O2_4 
REMARK    3  A    between atoms: O2_4  and  C3_5 
REMARK    4  A    between atoms: C3_5  and  C4_6 
REMARK    5  A    between atoms: C18_22  and  O5_23 
REMARK    6  A    between atoms: C19_25  and  O6_26 
REMARK    7  A    between atoms: O6_26  and  C20_27 
REMARK    8  A    between atoms: C24_32  and  O8_33 
REMARK    9  A    between atoms: O8_33  and  C25_34 
ROOT
HETATM    1  C4  UNL     1      23.214  -1.168  14.514  1.00  0.00     0.013 A 
HETATM    2  C5  UNL     1      23.884   0.154  14.083  1.00  0.00     0.014 A 
HETATM    3  C6  UNL     1      23.340   1.180  14.709  1.00  0.00    -0.006 C 
HETATM    4  C7  UNL     1      23.869   2.524  14.365  1.00  0.00     0.011 C 
HETATM    5  C8  UNL     1      22.476   1.007  15.868  1.00  0.00     0.022 C 
HETATM    6  C9  UNL     1      23.493   0.129  16.737  1.00  0.00     0.028 C 
HETATM    7  C10 UNL     1      22.972  -0.984  15.891  1.00  0.00     0.059 C 
HETATM    8  C11 UNL     1      23.040  -2.297  16.592  1.00  0.00     0.140 C 
HETATM    9  O3  UNL     1      21.992  -2.791  16.951  1.00  0.00    -0.297 OA
HETATM   10  C12 UNL     1      24.254  -3.050  16.891  1.00  0.00     0.091 C 
HETATM   11  C13 UNL     1      25.073  -3.544  15.755  1.00  0.00     0.004 C 
HETATM   12  C14 UNL     1      24.253  -4.391  14.841  1.00  0.00     0.019 C 
HETATM   13  C15 UNL     1      26.033  -4.547  16.454  1.00  0.00     0.020 C 
HETATM   14  C16 UNL     1      27.348  -4.458  15.768  1.00  0.00     0.083 C 
HETATM   15  C17 UNL     1      27.036  -3.601  14.634  1.00  0.00     0.164 C 
HETATM   16  O4  UNL     1      27.495  -3.652  13.532  1.00  0.00    -0.295 OA
HETATM   17  C18 UNL     1      26.005  -2.610  15.096  1.00  0.00     0.152 C 
HETATM   18  C19 UNL     1      25.662  -1.681  14.050  1.00  0.00     0.184 C 
HETATM   19  C22 UNL     1      24.280  -1.294  13.650  1.00  0.00     0.002 A 
HETATM   20  C23 UNL     1      24.072  -1.313  12.146  1.00  0.00     0.019 C 
HETATM   21  C24 UNL     1      21.653  -0.205  16.082  1.00  0.00     0.153 C 
ENDROOT
BRANCH   1  22
HETATM   22  C3  UNL     1      21.833  -1.391  13.768  1.00  0.00     0.182 C 
BRANCH  22  23
HETATM   23  O2  UNL     1      21.663  -2.720  13.497  1.00  0.00    -0.366 OA
BRANCH  23  24
HETATM   24  C2  UNL     1      20.754  -2.840  12.459  1.00  0.00     0.337 C 
BRANCH  24  25
HETATM   25  O1  UNL     1      19.944  -1.732  12.314  1.00  0.00    -0.372 OA
HETATM   26  C1  UNL     1      18.853  -2.101  11.528  1.00  0.00     0.204 C 
ENDBRANCH  24  25
ENDBRANCH  23  24
ENDBRANCH  22  23
ENDBRANCH   1  22
BRANCH  21  27
HETATM   27  O8  UNL     1      21.293  -0.349  17.463  1.00  0.00    -0.315 OA
BRANCH  27  28
HETATM   28  C25 UNL     1      19.958  -0.191  17.879  1.00  0.00     0.255 C 
HETATM   29  C26 UNL     1      19.180  -1.377  18.295  1.00  0.00     0.126 C 
HETATM   30  O9  UNL     1      19.518   0.978  17.865  1.00  0.00    -0.266 OA
ENDBRANCH  27  28
ENDBRANCH  21  27
BRANCH  18  31
HETATM   31  O6  UNL     1      26.330  -0.433  14.348  1.00  0.00    -0.312 OA
BRANCH  31  32
HETATM   32  C20 UNL     1      27.430   0.054  13.717  1.00  0.00     0.255 C 
HETATM   33  C21 UNL     1      27.362   1.003  12.556  1.00  0.00     0.126 C 
HETATM   34  O7  UNL     1      28.565  -0.306  14.122  1.00  0.00    -0.266 OA
ENDBRANCH  31  32
ENDBRANCH  18  31
BRANCH  17  35
HETATM   35  O5  UNL     1      26.723  -1.968  16.149  1.00  0.00    -0.379 OA
ATOM     36  H5  UNL     1      27.614  -1.870  15.833  1.00  0.00     0.211 HD
ENDBRANCH  17  35
TORSDOF 9
ENDMDL
MODEL 5
REMARK VINA RESULT: -4.783049733      5.086     10.075
REMARK  9 active torsions:
REMARK  status: ('A' for Active; 'I' for Inactive)
REMARK    1  A    between atoms: O1_2  and  C2_3 
REMARK    2  A    between atoms: C2_3  and  O2_4 
REMARK    3  A    between atoms: O2_4  and  C3_5 
REMARK    4  A    between atoms: C3_5  and  C4_6 
REMARK    5  A    between atoms: C18_22  and  O5_23 
REMARK    6  A    between atoms: C19_25  and  O6_26 
REMARK    7  A    between atoms: O6_26  and  C20_27 
REMARK    8  A    between atoms: C24_32  and  O8_33 
REMARK    9  A    between atoms: O8_33  and  C25_34 
ROOT
HETATM    1  C4  UNL     1      24.547  -1.512  13.037  1.00  0.00     0.013 A 
HETATM    2  C5  UNL     1      23.110  -1.940  13.406  1.00  0.00     0.014 A 
HETATM    3  C6  UNL     1      22.441  -2.309  12.331  1.00  0.00    -0.006 C 
HETATM    4  C7  UNL     1      21.029  -2.716  12.536  1.00  0.00     0.011 C 
HETATM    5  C8  UNL     1      23.105  -2.577  11.063  1.00  0.00     0.022 C 
HETATM    6  C9  UNL     1      24.159  -3.643  11.619  1.00  0.00     0.028 C 
HETATM    7  C10 UNL     1      24.913  -2.420  12.021  1.00  0.00     0.059 C 
HETATM    8  C11 UNL     1      26.382  -2.659  12.068  1.00  0.00     0.140 C 
HETATM    9  O3  UNL     1      27.057  -2.142  11.202  1.00  0.00    -0.297 OA
HETATM   10  C12 UNL     1      27.092  -3.461  13.060  1.00  0.00     0.091 C 
HETATM   11  C13 UNL     1      27.057  -3.018  14.476  1.00  0.00     0.004 C 
HETATM   12  C14 UNL     1      27.563  -1.621  14.607  1.00  0.00     0.019 C 
HETATM   13  C15 UNL     1      28.168  -3.893  15.121  1.00  0.00     0.020 C 
HETATM   14  C16 UNL     1      27.723  -4.237  16.496  1.00  0.00     0.083 C 
HETATM   15  C17 UNL     1      26.532  -3.414  16.640  1.00  0.00     0.164 C 
HETATM   16  O4  UNL     1      26.129  -2.878  17.629  1.00  0.00    -0.295 OA
HETATM   17  C18 UNL     1      25.872  -3.347  15.291  1.00  0.00     0.152 C 
HETATM   18  C19 UNL     1      24.650  -2.587  15.340  1.00  0.00     0.184 C 
HETATM   19  C22 UNL     1      24.254  -1.516  14.383  1.00  0.00     0.002 A 
HETATM   20  C23 UNL     1      23.724  -0.271  15.074  1.00  0.00     0.019 C 
HETATM   21  C24 UNL     1      24.371  -1.919  10.665  1.00  0.00     0.153 C 
ENDROOT
BRANCH   1  22
HETATM   22  C3  UNL     1      24.585  -0.038  12.456  1.00  0.00     0.182 C 
BRANCH  22  23
HETATM   23  O2  UNL     1      25.817   0.514  12.672  1.00  0.00    -0.366 OA
BRANCH  23  24
HETATM   24  C2  UNL     1      26.001   1.539  11.760  1.00  0.00     0.337 C 
BRANCH  24  25
HETATM   25  O1  UNL     1      25.758   1.159  10.456  1.00  0.00    -0.372 OA
HETATM   26  C1  UNL     1      26.983   1.102   9.792  1.00  0.00     0.204 C 
ENDBRANCH  24  25
ENDBRANCH  23  24
ENDBRANCH  22  23
ENDBRANCH   1  22
BRANCH  21  27
HETATM   27  O8  UNL     1      25.050  -2.676   9.653  1.00  0.00    -0.315 OA
BRANCH  27  28
HETATM   28  C25 UNL     1      25.389  -2.087   8.420  1.00  0.00     0.255 C 
HETATM   29  C26 UNL     1      24.509  -1.051   7.841  1.00  0.00     0.126 C 
HETATM   30  O9  UNL     1      26.444  -2.499   7.893  1.00  0.00    -0.266 OA
ENDBRANCH  27  28
ENDBRANCH  21  27
BRANCH  18  31
HETATM   31  O6  UNL     1      23.555  -3.532  15.320  1.00  0.00    -0.312 OA
BRANCH  31  32
HETATM   32  C20 UNL     1      22.900  -4.018  16.406  1.00  0.00     0.255 C 
HETATM   33  C21 UNL     1      22.164  -3.148  17.383  1.00  0.00     0.126 C 
HETATM   34  O7  UNL     1      22.908  -5.261  16.608  1.00  0.00    -0.266 OA
ENDBRANCH  31  32
ENDBRANCH  18  31
BRANCH  17  35
HETATM   35  O5  UNL     1      25.616  -4.733  15.064  1.00  0.00    -0.379 OA
ATOM     36  H5  UNL     1      25.396  -5.098  15.914  1.00  0.00     0.211 HD
ENDBRANCH  17  35
TORSDOF 9
ENDMDL
