MODEL 1
REMARK VINA RESULT: -6.761803555      0.000      0.000
REMARK  9 active torsions:
REMARK  status: ('A' for Active; 'I' for Inactive)
REMARK    1  A    between atoms: C2_2  and  O2_4 
REMARK    2  A    between atoms: O2_4  and  C3_5 
REMARK    3  A    between atoms: C3_5  and  C4_6 
REMARK    4  A    between atoms: C4_6  and  S1_7 
REMARK    5  A    between atoms: S1_7  and  C5_10 
REMARK    6  A    between atoms: C8_13  and  O5_14 
REMARK    7  A    between atoms: C10_17  and  C11_18 
REMARK    8  A    between atoms: C16_24  and  O7_25 
REMARK    9  A    between atoms: O7_25  and  C17_26 
ROOT
HETATM    1  C5  UNL     1      23.679  -1.990  11.966  1.00  0.00     0.072 C 
HETATM    2  C6  UNL     1      24.138  -0.563  12.114  1.00  0.00     0.029 C 
HETATM    3  C7  UNL     1      25.568  -0.293  11.892  1.00  0.00     0.039 C 
HETATM    4  C8  UNL     1      26.018  -0.525  10.467  1.00  0.00     0.059 C 
HETATM    5  C9  UNL     1      25.189   0.123   9.426  1.00  0.00     0.043 C 
HETATM    6  C10 UNL     1      24.353  -0.902   8.643  1.00  0.00     0.003 C 
HETATM    7  C19 UNL     1      23.314  -1.543   9.465  1.00  0.00     0.016 C 
HETATM    8  C20 UNL     1      23.691  -2.461  10.557  1.00  0.00    -0.018 C 
HETATM    9  C21 UNL     1      22.893  -3.773  10.416  1.00  0.00     0.017 C 
HETATM   10  C22 UNL     1      25.105  -2.862  10.694  1.00  0.00    -0.000 C 
HETATM   11  C23 UNL     1      26.203  -1.998  10.273  1.00  0.00     0.043 C 
HETATM   12  C24 UNL     1      24.863  -2.971  12.186  1.00  0.00     0.031 C 
ENDROOT
BRANCH   6  13
HETATM   13  C11 UNL     1      23.723  -0.102   7.528  1.00  0.00     0.089 C 
HETATM   14  C12 UNL     1      24.596  -0.074   6.317  1.00  0.00     0.134 C 
HETATM   15  O6  UNL     1      25.471  -0.860   6.099  1.00  0.00    -0.297 OA
HETATM   16  C13 UNL     1      24.323   1.015   5.345  1.00  0.00     0.079 C 
HETATM   17  C14 UNL     1      22.837   0.836   4.989  1.00  0.00     0.010 C 
HETATM   18  C15 UNL     1      22.346  -0.501   5.519  1.00  0.00     0.034 C 
HETATM   19  C16 UNL     1      22.368  -0.500   7.082  1.00  0.00     0.143 C 
BRANCH  19  20
HETATM   20  O7  UNL     1      21.353   0.467   7.389  1.00  0.00    -0.316 OA
BRANCH  20  21
HETATM   21  C17 UNL     1      20.195   0.026   7.986  1.00  0.00     0.255 C 
HETATM   22  C18 UNL     1      19.013   0.934   8.018  1.00  0.00     0.126 C 
HETATM   23  O8  UNL     1      20.080  -1.106   8.509  1.00  0.00    -0.266 OA
ENDBRANCH  20  21
ENDBRANCH  19  20
ENDBRANCH   6  13
BRANCH   4  24
HETATM   24  O5  UNL     1      27.317   0.041  10.391  1.00  0.00    -0.390 OA
ATOM     25  H5  UNL     1      27.376   0.411   9.518  1.00  0.00     0.210 HD
ENDBRANCH   4  24
BRANCH   1  26
HETATM   26  S1  UNL     1      22.336  -2.340  13.023  1.00  0.00     0.155 S 
HETATM   27  O3  UNL     1      22.125  -1.264  14.104  1.00  0.00    -0.227 OA
HETATM   28  O4  UNL     1      22.704  -3.544  13.938  1.00  0.00    -0.227 OA
BRANCH  26  29
HETATM   29  C4  UNL     1      20.818  -2.806  12.328  1.00  0.00     0.168 C 
BRANCH  29  30
HETATM   30  C3  UNL     1      19.789  -1.743  12.231  1.00  0.00     0.193 C 
BRANCH  30  31
HETATM   31  O2  UNL     1      18.679  -2.214  11.396  1.00  0.00    -0.321 OA
BRANCH  31  32
HETATM   32  C2  UNL     1      17.733  -1.300  10.997  1.00  0.00     0.254 C 
HETATM   33  C1  UNL     1      16.377  -1.813  10.626  1.00  0.00     0.126 C 
HETATM   34  O1  UNL     1      18.027  -0.088  10.958  1.00  0.00    -0.266 OA
ENDBRANCH  31  32
ENDBRANCH  30  31
ENDBRANCH  29  30
ENDBRANCH  26  29
ENDBRANCH   1  26
TORSDOF 9
ENDMDL
MODEL 2
REMARK VINA RESULT: -6.545620779      2.287      3.373
REMARK  9 active torsions:
REMARK  status: ('A' for Active; 'I' for Inactive)
REMARK    1  A    between atoms: C2_2  and  O2_4 
REMARK    2  A    between atoms: O2_4  and  C3_5 
REMARK    3  A    between atoms: C3_5  and  C4_6 
REMARK    4  A    between atoms: C4_6  and  S1_7 
REMARK    5  A    between atoms: S1_7  and  C5_10 
REMARK    6  A    between atoms: C8_13  and  O5_14 
REMARK    7  A    between atoms: C10_17  and  C11_18 
REMARK    8  A    between atoms: C16_24  and  O7_25 
REMARK    9  A    between atoms: O7_25  and  C17_26 
ROOT
HETATM    1  C5  UNL     1      23.476  -1.961  13.032  1.00  0.00     0.072 C 
HETATM    2  C6  UNL     1      24.575  -0.982  12.713  1.00  0.00     0.029 C 
HETATM    3  C7  UNL     1      25.805  -1.526  12.114  1.00  0.00     0.039 C 
HETATM    4  C8  UNL     1      25.607  -2.097  10.728  1.00  0.00     0.059 C 
HETATM    5  C9  UNL     1      24.898  -1.216   9.773  1.00  0.00     0.043 C 
HETATM    6  C10 UNL     1      23.476  -1.720   9.479  1.00  0.00     0.003 C 
HETATM    7  C19 UNL     1      22.585  -1.636  10.647  1.00  0.00     0.016 C 
HETATM    8  C20 UNL     1      22.811  -2.504  11.819  1.00  0.00    -0.018 C 
HETATM    9  C21 UNL     1      21.491  -3.207  12.194  1.00  0.00     0.017 C 
HETATM   10  C22 UNL     1      23.826  -3.571  11.729  1.00  0.00    -0.000 C 
HETATM   11  C23 UNL     1      25.001  -3.459  10.870  1.00  0.00     0.043 C 
HETATM   12  C24 UNL     1      24.056  -3.391  13.216  1.00  0.00     0.031 C 
ENDROOT
BRANCH   6  13
HETATM   13  C11 UNL     1      22.979  -0.822   8.372  1.00  0.00     0.089 C 
HETATM   14  C12 UNL     1      23.864  -0.894   7.173  1.00  0.00     0.134 C 
HETATM   15  O6  UNL     1      24.627  -1.789   6.950  1.00  0.00    -0.297 OA
HETATM   16  C13 UNL     1      23.758   0.239   6.218  1.00  0.00     0.079 C 
HETATM   17  C14 UNL     1      22.268   0.273   5.840  1.00  0.00     0.010 C 
HETATM   18  C15 UNL     1      21.589  -0.992   6.339  1.00  0.00     0.034 C 
HETATM   19  C16 UNL     1      21.589  -1.021   7.902  1.00  0.00     0.143 C 
BRANCH  19  20
HETATM   20  O7  UNL     1      20.712   0.071   8.215  1.00  0.00    -0.316 OA
BRANCH  20  21
HETATM   21  C17 UNL     1      19.541  -0.205   8.881  1.00  0.00     0.255 C 
HETATM   22  C18 UNL     1      18.346   0.645   8.615  1.00  0.00     0.126 C 
HETATM   23  O8  UNL     1      19.424  -1.141   9.705  1.00  0.00    -0.266 OA
ENDBRANCH  20  21
ENDBRANCH  19  20
ENDBRANCH   6  13
BRANCH   4  24
HETATM   24  O5  UNL     1      26.915  -2.308  10.223  1.00  0.00    -0.390 OA
ATOM     25  H5  UNL     1      27.351  -2.844  10.876  1.00  0.00     0.210 HD
ENDBRANCH   4  24
BRANCH   1  26
HETATM   26  S1  UNL     1      22.549  -1.449  14.417  1.00  0.00     0.155 S 
HETATM   27  O3  UNL     1      22.178  -2.611  15.357  1.00  0.00    -0.227 OA
HETATM   28  O4  UNL     1      21.119  -1.038  13.955  1.00  0.00    -0.227 OA
BRANCH  26  29
HETATM   29  C4  UNL     1      23.089  -0.079  15.332  1.00  0.00     0.168 C 
BRANCH  29  30
HETATM   30  C3  UNL     1      22.225   1.124  15.280  1.00  0.00     0.193 C 
BRANCH  30  31
HETATM   31  O2  UNL     1      22.958   2.222  14.640  1.00  0.00    -0.321 OA
BRANCH  31  32
HETATM   32  C2  UNL     1      22.670   3.509  15.030  1.00  0.00     0.254 C 
HETATM   33  C1  UNL     1      22.252   4.483  13.973  1.00  0.00     0.126 C 
HETATM   34  O1  UNL     1      22.763   3.822  16.233  1.00  0.00    -0.266 OA
ENDBRANCH  31  32
ENDBRANCH  30  31
ENDBRANCH  29  30
ENDBRANCH  26  29
ENDBRANCH   1  26
TORSDOF 9
ENDMDL
MODEL 3
REMARK VINA RESULT: -6.477037990      2.328      3.155
REMARK  9 active torsions:
REMARK  status: ('A' for Active; 'I' for Inactive)
REMARK    1  A    between atoms: C2_2  and  O2_4 
REMARK    2  A    between atoms: O2_4  and  C3_5 
REMARK    3  A    between atoms: C3_5  and  C4_6 
REMARK    4  A    between atoms: C4_6  and  S1_7 
REMARK    5  A    between atoms: S1_7  and  C5_10 
REMARK    6  A    between atoms: C8_13  and  O5_14 
REMARK    7  A    between atoms: C10_17  and  C11_18 
REMARK    8  A    between atoms: C16_24  and  O7_25 
REMARK    9  A    between atoms: O7_25  and  C17_26 
ROOT
HETATM    1  C5  UNL     1      23.406  -1.901  13.059  1.00  0.00     0.072 C 
HETATM    2  C6  UNL     1      24.463  -0.873  12.753  1.00  0.00     0.029 C 
HETATM    3  C7  UNL     1      25.725  -1.362  12.174  1.00  0.00     0.039 C 
HETATM    4  C8  UNL     1      25.574  -1.945  10.786  1.00  0.00     0.059 C 
HETATM    5  C9  UNL     1      24.840  -1.099   9.819  1.00  0.00     0.043 C 
HETATM    6  C10 UNL     1      23.446  -1.668   9.505  1.00  0.00     0.003 C 
HETATM    7  C19 UNL     1      22.535  -1.622  10.660  1.00  0.00     0.016 C 
HETATM    8  C20 UNL     1      22.783  -2.476  11.838  1.00  0.00    -0.018 C 
HETATM    9  C21 UNL     1      21.491  -3.238  12.195  1.00  0.00     0.017 C 
HETATM   10  C22 UNL     1      23.847  -3.496  11.765  1.00  0.00    -0.000 C 
HETATM   11  C23 UNL     1      25.028  -3.332  10.924  1.00  0.00     0.043 C 
HETATM   12  C24 UNL     1      24.047  -3.303  13.255  1.00  0.00     0.031 C 
ENDROOT
BRANCH   6  13
HETATM   13  C11 UNL     1      22.925  -0.795   8.389  1.00  0.00     0.089 C 
HETATM   14  C12 UNL     1      23.800  -0.875   7.182  1.00  0.00     0.134 C 
HETATM   15  O6  UNL     1      24.573  -1.762   6.967  1.00  0.00    -0.297 OA
HETATM   16  C13 UNL     1      23.668   0.241   6.210  1.00  0.00     0.079 C 
HETATM   17  C14 UNL     1      22.173   0.247   5.847  1.00  0.00     0.010 C 
HETATM   18  C15 UNL     1      21.518  -1.020   6.373  1.00  0.00     0.034 C 
HETATM   19  C16 UNL     1      21.533  -1.022   7.936  1.00  0.00     0.143 C 
BRANCH  19  20
HETATM   20  O7  UNL     1      20.643   0.062   8.240  1.00  0.00    -0.316 OA
BRANCH  20  21
HETATM   21  C17 UNL     1      19.480  -0.222   8.916  1.00  0.00     0.255 C 
HETATM   22  C18 UNL     1      18.272   0.608   8.644  1.00  0.00     0.126 C 
HETATM   23  O8  UNL     1      19.381  -1.147   9.754  1.00  0.00    -0.266 OA
ENDBRANCH  20  21
ENDBRANCH  19  20
ENDBRANCH   6  13
BRANCH   4  24
HETATM   24  O5  UNL     1      26.897  -2.097  10.301  1.00  0.00    -0.390 OA
ATOM     25  H5  UNL     1      27.018  -3.034  10.196  1.00  0.00     0.210 HD
ENDBRANCH   4  24
BRANCH   1  26
HETATM   26  S1  UNL     1      22.435  -1.429  14.429  1.00  0.00     0.155 S 
HETATM   27  O3  UNL     1      22.138  -2.597  15.387  1.00  0.00    -0.227 OA
HETATM   28  O4  UNL     1      20.985  -1.125  13.950  1.00  0.00    -0.227 OA
BRANCH  26  29
HETATM   29  C4  UNL     1      22.874  -0.010  15.322  1.00  0.00     0.168 C 
BRANCH  29  30
HETATM   30  C3  UNL     1      21.753   0.826  15.813  1.00  0.00     0.193 C 
BRANCH  30  31
HETATM   31  O2  UNL     1      21.529   0.550  17.237  1.00  0.00    -0.321 OA
BRANCH  31  32
HETATM   32  C2  UNL     1      20.254   0.233  17.643  1.00  0.00     0.254 C 
HETATM   33  C1  UNL     1      19.861  -1.212  17.648  1.00  0.00     0.126 C 
HETATM   34  O1  UNL     1      19.474   1.142  17.990  1.00  0.00    -0.266 OA
ENDBRANCH  31  32
ENDBRANCH  30  31
ENDBRANCH  29  30
ENDBRANCH  26  29
ENDBRANCH   1  26
TORSDOF 9
ENDMDL
MODEL 4
REMARK VINA RESULT: -6.456984467      1.868      3.416
REMARK  9 active torsions:
REMARK  status: ('A' for Active; 'I' for Inactive)
REMARK    1  A    between atoms: C2_2  and  O2_4 
REMARK    2  A    between atoms: O2_4  and  C3_5 
REMARK    3  A    between atoms: C3_5  and  C4_6 
REMARK    4  A    between atoms: C4_6  and  S1_7 
REMARK    5  A    between atoms: S1_7  and  C5_10 
REMARK    6  A    between atoms: C8_13  and  O5_14 
REMARK    7  A    between atoms: C10_17  and  C11_18 
REMARK    8  A    between atoms: C16_24  and  O7_25 
REMARK    9  A    between atoms: O7_25  and  C17_26 
ROOT
HETATM    1  C5  UNL     1      23.896  -1.789  12.065  1.00  0.00     0.072 C 
HETATM    2  C6  UNL     1      24.412  -0.377  11.981  1.00  0.00     0.029 C 
HETATM    3  C7  UNL     1      25.813  -0.199  11.563  1.00  0.00     0.039 C 
HETATM    4  C8  UNL     1      26.081  -0.618  10.135  1.00  0.00     0.059 C 
HETATM    5  C9  UNL     1      25.152  -0.063   9.125  1.00  0.00     0.043 C 
HETATM    6  C10 UNL     1      24.198  -1.136   8.577  1.00  0.00     0.003 C 
HETATM    7  C19 UNL     1      23.246  -1.628   9.586  1.00  0.00     0.016 C 
HETATM    8  C20 UNL     1      23.725  -2.426  10.732  1.00  0.00    -0.018 C 
HETATM    9  C21 UNL     1      22.877  -3.708  10.849  1.00  0.00     0.017 C 
HETATM   10  C22 UNL     1      25.132  -2.869  10.753  1.00  0.00    -0.000 C 
HETATM   11  C23 UNL     1      26.197  -2.110  10.105  1.00  0.00     0.043 C 
HETATM   12  C24 UNL     1      25.069  -2.789  12.265  1.00  0.00     0.031 C 
ENDROOT
BRANCH   6  13
HETATM   13  C11 UNL     1      23.462  -0.448   7.452  1.00  0.00     0.089 C 
HETATM   14  C12 UNL     1      24.166  -0.629   6.149  1.00  0.00     0.134 C 
HETATM   15  O6  UNL     1      24.969  -1.489   5.930  1.00  0.00    -0.297 OA
HETATM   16  C13 UNL     1      23.816   0.341   5.081  1.00  0.00     0.079 C 
HETATM   17  C14 UNL     1      22.289   0.211   4.942  1.00  0.00     0.010 C 
HETATM   18  C15 UNL     1      21.813  -1.014   5.705  1.00  0.00     0.034 C 
HETATM   19  C16 UNL     1      22.043  -0.814   7.238  1.00  0.00     0.143 C 
BRANCH  19  20
HETATM   20  O7  UNL     1      21.122   0.245   7.537  1.00  0.00    -0.316 OA
BRANCH  20  21
HETATM   21  C17 UNL     1      20.013  -0.052   8.294  1.00  0.00     0.255 C 
HETATM   22  C18 UNL     1      18.838   0.862   8.235  1.00  0.00     0.126 C 
HETATM   23  O8  UNL     1      19.937  -1.058   9.036  1.00  0.00    -0.266 OA
ENDBRANCH  20  21
ENDBRANCH  19  20
ENDBRANCH   6  13
BRANCH   4  24
HETATM   24  O5  UNL     1      27.376  -0.123   9.840  1.00  0.00    -0.390 OA
ATOM     25  H5  UNL     1      27.231   0.684   9.360  1.00  0.00     0.210 HD
ENDBRANCH   4  24
BRANCH   1  26
HETATM   26  S1  UNL     1      22.681  -1.952  13.305  1.00  0.00     0.155 S 
HETATM   27  O3  UNL     1      21.247  -1.794  12.766  1.00  0.00    -0.227 OA
HETATM   28  O4  UNL     1      22.733  -0.708  14.241  1.00  0.00    -0.227 OA
BRANCH  26  29
HETATM   29  C4  UNL     1      22.772  -3.290  14.402  1.00  0.00     0.168 C 
BRANCH  29  30
HETATM   30  C3  UNL     1      22.553  -2.977  15.835  1.00  0.00     0.193 C 
BRANCH  30  31
HETATM   31  O2  UNL     1      22.478  -4.226  16.599  1.00  0.00    -0.321 OA
BRANCH  31  32
HETATM   32  C2  UNL     1      23.642  -4.924  16.819  1.00  0.00     0.254 C 
HETATM   33  C1  UNL     1      23.639  -6.395  16.542  1.00  0.00     0.126 C 
HETATM   34  O1  UNL     1      24.651  -4.321  17.236  1.00  0.00    -0.266 OA
ENDBRANCH  31  32
ENDBRANCH  30  31
ENDBRANCH  29  30
ENDBRANCH  26  29
ENDBRANCH   1  26
TORSDOF 9
ENDMDL
MODEL 5
REMARK VINA RESULT: -6.444885855      3.458      7.866
REMARK  9 active torsions:
REMARK  status: ('A' for Active; 'I' for Inactive)
REMARK    1  A    between atoms: C2_2  and  O2_4 
REMARK    2  A    between atoms: O2_4  and  C3_5 
REMARK    3  A    between atoms: C3_5  and  C4_6 
REMARK    4  A    between atoms: C4_6  and  S1_7 
REMARK    5  A    between atoms: S1_7  and  C5_10 
REMARK    6  A    between atoms: C8_13  and  O5_14 
REMARK    7  A    between atoms: C10_17  and  C11_18 
REMARK    8  A    between atoms: C16_24  and  O7_25 
REMARK    9  A    between atoms: O7_25  and  C17_26 
ROOT
HETATM    1  C5  UNL     1      25.393  -0.684   3.515  1.00  0.00     0.072 C 
HETATM    2  C6  UNL     1      24.568   0.559   3.315  1.00  0.00     0.029 C 
HETATM    3  C7  UNL     1      23.358   0.434   2.484  1.00  0.00     0.039 C 
HETATM    4  C8  UNL     1      22.289  -0.446   3.092  1.00  0.00     0.059 C 
HETATM    5  C9  UNL     1      21.938  -0.140   4.497  1.00  0.00     0.043 C 
HETATM    6  C10 UNL     1      22.459  -1.216   5.463  1.00  0.00     0.003 C 
HETATM    7  C19 UNL     1      23.928  -1.249   5.546  1.00  0.00     0.016 C 
HETATM    8  C20 UNL     1      24.729  -1.689   4.387  1.00  0.00    -0.018 C 
HETATM    9  C21 UNL     1      25.738  -2.762   4.844  1.00  0.00     0.017 C 
HETATM   10  C22 UNL     1      24.034  -2.259   3.217  1.00  0.00    -0.000 C 
HETATM   11  C23 UNL     1      22.674  -1.873   2.854  1.00  0.00     0.043 C 
HETATM   12  C24 UNL     1      25.148  -1.695   2.359  1.00  0.00     0.031 C 
ENDROOT
BRANCH   6  13
HETATM   13  C11 UNL     1      21.865  -0.843   6.800  1.00  0.00     0.089 C 
HETATM   14  C12 UNL     1      20.409  -1.168   6.858  1.00  0.00     0.134 C 
HETATM   15  O6  UNL     1      19.862  -1.944   6.130  1.00  0.00    -0.297 OA
HETATM   16  C13 UNL     1      19.627  -0.460   7.904  1.00  0.00     0.079 C 
HETATM   17  C14 UNL     1      20.355  -0.807   9.215  1.00  0.00     0.010 C 
HETATM   18  C15 UNL     1      21.355  -1.923   8.960  1.00  0.00     0.034 C 
HETATM   19  C16 UNL     1      22.491  -1.420   8.012  1.00  0.00     0.143 C 
BRANCH  19  20
HETATM   20  O7  UNL     1      23.153  -0.450   8.837  1.00  0.00    -0.316 OA
BRANCH  20  21
HETATM   21  C17 UNL     1      24.476  -0.656   9.148  1.00  0.00     0.255 C 
HETATM   22  C18 UNL     1      25.050  -2.021   8.975  1.00  0.00     0.126 C 
HETATM   23  O8  UNL     1      25.231   0.249   9.573  1.00  0.00    -0.266 OA
ENDBRANCH  20  21
ENDBRANCH  19  20
ENDBRANCH   6  13
BRANCH   4  24
HETATM   24  O5  UNL     1      21.131  -0.222   2.305  1.00  0.00    -0.390 OA
ATOM     25  H5  UNL     1      20.407  -0.229   2.919  1.00  0.00     0.210 HD
ENDBRANCH   4  24
BRANCH   1  26
HETATM   26  S1  UNL     1      27.084  -0.303   3.703  1.00  0.00     0.155 S 
HETATM   27  O3  UNL     1      27.513   0.941   2.903  1.00  0.00    -0.227 OA
HETATM   28  O4  UNL     1      27.938  -1.378   2.967  1.00  0.00    -0.227 OA
BRANCH  26  29
HETATM   29  C4  UNL     1      27.765  -0.264   5.296  1.00  0.00     0.168 C 
BRANCH  29  30
HETATM   30  C3  UNL     1      27.643   1.019   6.028  1.00  0.00     0.193 C 
BRANCH  30  31
HETATM   31  O2  UNL     1      26.296   1.127   6.598  1.00  0.00    -0.321 OA
BRANCH  31  32
HETATM   32  C2  UNL     1      25.541   2.231   6.274  1.00  0.00     0.254 C 
HETATM   33  C1  UNL     1      24.164   2.331   6.853  1.00  0.00     0.126 C 
HETATM   34  O1  UNL     1      26.017   3.102   5.520  1.00  0.00    -0.266 OA
ENDBRANCH  31  32
ENDBRANCH  30  31
ENDBRANCH  29  30
ENDBRANCH  26  29
ENDBRANCH   1  26
TORSDOF 9
ENDMDL
