MODEL 1
REMARK VINA RESULT: -6.426612228      0.000      0.000
REMARK  5 active torsions:
REMARK  status: ('A' for Active; 'I' for Inactive)
REMARK    1  A    between atoms: C5_6  and  O1_7 
REMARK    2  A    between atoms: C9_15  and  N3_16 
REMARK       I    between atoms: N3_16  and  C10_18 
REMARK    3  A    between atoms: C10_18  and  C11_20 
REMARK    4  A    between atoms: C11_20  and  O3_22 
REMARK    5  A    between atoms: C11_20  and  C13_24 
ROOT
HETATM    1  C1  UNL     1       9.160  14.738  18.861  1.00  0.00     0.018 C 
HETATM    2  C2  UNL     1       8.825  15.355  17.888  1.00  0.00    -0.074 C 
HETATM    3  C3  UNL     1       8.442  16.092  16.707  1.00  0.00     0.066 A 
HETATM    4  C4  UNL     1       8.271  15.445  15.484  1.00  0.00     0.065 A 
HETATM    5 BR1  UNL     1       8.559  13.554  15.422  1.00  0.00    -0.046 Br
HETATM    6  C5  UNL     1       7.905  16.153  14.361  1.00  0.00     0.089 A 
HETATM    7  C7  UNL     1       7.703  17.511  14.429  1.00  0.00     0.071 A 
HETATM    8  C8  UNL     1       7.872  18.139  15.630  1.00  0.00     0.080 A 
HETATM    9  N1  UNL     1       7.675  19.463  15.699  1.00  0.00    -0.284 N 
ATOM     10  H1  UNL     1       7.404  19.987  14.867  1.00  0.00     0.187 HD
HETATM   11  N2  UNL     1       7.835  20.078  16.845  1.00  0.00    -0.131 N 
ATOM     12  H2  UNL     1       7.683  21.086  16.881  1.00  0.00     0.205 HD
HETATM   13  C9  UNL     1       8.187  19.446  17.966  1.00  0.00     0.700 A 
HETATM   14  N4  UNL     1       8.392  18.124  17.936  1.00  0.00    -0.186 N 
ATOM     15  H4  UNL     1       8.662  17.628  18.785  1.00  0.00     0.184 HD
HETATM   16  C16 UNL     1       8.241  17.457  16.789  1.00  0.00     0.097 A 
ENDROOT
BRANCH   6  17
HETATM   17  O1  UNL     1       7.735  15.513  13.150  1.00  0.00    -0.354 OA
HETATM   18  C6  UNL     1       7.720  16.170  11.917  1.00  0.00     0.210 C 
ENDBRANCH   6  17
BRANCH  13  19
HETATM   19  N3  UNL     1       8.333  20.116  19.089  1.00  0.00    -0.156 N 
HETATM   20  C10 UNL     1       9.488  19.988  19.885  1.00  0.00     0.270 C 
HETATM   21  O2  UNL     1      10.591  19.801  19.324  1.00  0.00    -0.269 OA
ATOM     22  H3  UNL     1       7.589  20.745  19.392  1.00  0.00     0.187 HD
BRANCH  20  23
HETATM   23  C11 UNL     1       9.409  20.069  21.359  1.00  0.00     0.138 C 
HETATM   24  C12 UNL     1      10.211  21.259  21.877  1.00  0.00     0.057 C 
BRANCH  23  25
HETATM   25  O3  UNL     1       8.082  20.305  21.735  1.00  0.00    -0.380 OA
ATOM     26  H3  UNL     1       8.049  21.071  22.296  1.00  0.00     0.211 HD
ENDBRANCH  23  25
BRANCH  23  27
HETATM   27  C13 UNL     1       9.837  18.789  22.037  1.00  0.00     0.021 C 
HETATM   28  C14 UNL     1       9.013  17.604  21.645  1.00  0.00     0.013 C 
HETATM   29  C15 UNL     1       9.653  19.004  23.532  1.00  0.00     0.013 C 
ENDBRANCH  23  27
ENDBRANCH  20  23
ENDBRANCH  13  19
TORSDOF 5
ENDMDL
MODEL 2
REMARK VINA RESULT: -5.588625216      1.013      1.529
REMARK  5 active torsions:
REMARK  status: ('A' for Active; 'I' for Inactive)
REMARK    1  A    between atoms: C5_6  and  O1_7 
REMARK    2  A    between atoms: C9_15  and  N3_16 
REMARK       I    between atoms: N3_16  and  C10_18 
REMARK    3  A    between atoms: C10_18  and  C11_20 
REMARK    4  A    between atoms: C11_20  and  O3_22 
REMARK    5  A    between atoms: C11_20  and  C13_24 
ROOT
HETATM    1  C1  UNL     1       9.242  14.493  18.056  1.00  0.00     0.018 C 
HETATM    2  C2  UNL     1       8.815  15.319  17.298  1.00  0.00    -0.074 C 
HETATM    3  C3  UNL     1       8.320  16.310  16.373  1.00  0.00     0.066 A 
HETATM    4  C4  UNL     1       8.037  15.975  15.049  1.00  0.00     0.065 A 
HETATM    5 BR1  UNL     1       8.325  14.165  14.501  1.00  0.00    -0.046 Br
HETATM    6  C5  UNL     1       7.565  16.926  14.171  1.00  0.00     0.089 A 
HETATM    7  C7  UNL     1       7.365  18.221  14.587  1.00  0.00     0.071 A 
HETATM    8  C8  UNL     1       7.645  18.542  15.884  1.00  0.00     0.080 A 
HETATM    9  N1  UNL     1       7.451  19.804  16.291  1.00  0.00    -0.284 N 
ATOM     10  H1  UNL     1       7.101  20.507  15.641  1.00  0.00     0.187 HD
HETATM   11  N2  UNL     1       7.715  20.126  17.534  1.00  0.00    -0.131 N 
ATOM     12  H2  UNL     1       7.564  21.091  17.829  1.00  0.00     0.205 HD
HETATM   13  C9  UNL     1       8.173  19.251  18.430  1.00  0.00     0.700 A 
HETATM   14  N4  UNL     1       8.379  17.981  18.060  1.00  0.00    -0.186 N 
ATOM     15  H4  UNL     1       8.730  17.301  18.734  1.00  0.00     0.184 HD
HETATM   16  C16 UNL     1       8.123  17.609  16.803  1.00  0.00     0.097 A 
ENDROOT
BRANCH   6  17
HETATM   17  O1  UNL     1       7.284  16.594  12.860  1.00  0.00    -0.354 OA
HETATM   18  C6  UNL     1       8.211  16.682  11.819  1.00  0.00     0.210 C 
ENDBRANCH   6  17
BRANCH  13  19
HETATM   19  N3  UNL     1       8.422  19.631  19.665  1.00  0.00    -0.156 N 
HETATM   20  C10 UNL     1       9.697  19.483  20.245  1.00  0.00     0.270 C 
HETATM   21  O2  UNL     1      10.710  19.611  19.519  1.00  0.00    -0.269 OA
ATOM     22  H3  UNL     1       7.671  20.045  20.217  1.00  0.00     0.187 HD
BRANCH  20  23
HETATM   23  C11 UNL     1       9.849  19.179  21.683  1.00  0.00     0.138 C 
HETATM   24  C12 UNL     1       9.206  17.839  22.024  1.00  0.00     0.057 C 
BRANCH  23  25
HETATM   25  O3  UNL     1      11.210  19.041  21.981  1.00  0.00    -0.380 OA
ATOM     26  H3  UNL     1      11.713  19.604  21.406  1.00  0.00     0.211 HD
ENDBRANCH  23  25
BRANCH  23  27
HETATM   27  C13 UNL     1       9.315  20.279  22.570  1.00  0.00     0.021 C 
HETATM   28  C14 UNL     1       7.888  20.629  22.292  1.00  0.00     0.013 C 
HETATM   29  C15 UNL     1      10.156  21.516  22.287  1.00  0.00     0.013 C 
ENDBRANCH  23  27
ENDBRANCH  20  23
ENDBRANCH  13  19
TORSDOF 5
ENDMDL
MODEL 3
REMARK VINA RESULT: -5.065156107      0.790      1.205
REMARK  5 active torsions:
REMARK  status: ('A' for Active; 'I' for Inactive)
REMARK    1  A    between atoms: C5_6  and  O1_7 
REMARK    2  A    between atoms: C9_15  and  N3_16 
REMARK       I    between atoms: N3_16  and  C10_18 
REMARK    3  A    between atoms: C10_18  and  C11_20 
REMARK    4  A    between atoms: C11_20  and  O3_22 
REMARK    5  A    between atoms: C11_20  and  C13_24 
ROOT
HETATM    1  C1  UNL     1       9.403  14.589  18.440  1.00  0.00     0.018 C 
HETATM    2  C2  UNL     1       8.989  15.255  17.532  1.00  0.00    -0.074 C 
HETATM    3  C3  UNL     1       8.511  16.052  16.427  1.00  0.00     0.066 A 
HETATM    4  C4  UNL     1       8.310  15.484  15.169  1.00  0.00     0.065 A 
HETATM    5 BR1  UNL     1       8.688  13.621  14.956  1.00  0.00    -0.046 Br
HETATM    6  C5  UNL     1       7.854  16.250  14.119  1.00  0.00     0.089 A 
HETATM    7  C7  UNL     1       7.589  17.588  14.296  1.00  0.00     0.071 A 
HETATM    8  C8  UNL     1       7.788  18.137  15.529  1.00  0.00     0.080 A 
HETATM    9  N1  UNL     1       7.531  19.440  15.704  1.00  0.00    -0.284 N 
ATOM     10  H1  UNL     1       7.193  20.007  14.926  1.00  0.00     0.187 HD
HETATM   11  N2  UNL     1       7.717  19.981  16.883  1.00  0.00    -0.131 N 
ATOM     12  H2  UNL     1       7.518  20.975  16.999  1.00  0.00     0.205 HD
HETATM   13  C9  UNL     1       8.156  19.291  17.937  1.00  0.00     0.700 A 
HETATM   14  N4  UNL     1       8.424  17.987  17.802  1.00  0.00    -0.186 N 
ATOM     15  H4  UNL     1       8.761  17.448  18.598  1.00  0.00     0.184 HD
HETATM   16  C16 UNL     1       8.248  17.396  16.617  1.00  0.00     0.097 A 
ENDROOT
BRANCH   6  17
HETATM   17  O1  UNL     1       7.655  15.688  12.874  1.00  0.00    -0.354 OA
HETATM   18  C6  UNL     1       7.728  16.404  11.676  1.00  0.00     0.210 C 
ENDBRANCH   6  17
BRANCH  13  19
HETATM   19  N3  UNL     1       8.326  19.887  19.098  1.00  0.00    -0.156 N 
HETATM   20  C10 UNL     1       9.427  19.598  19.927  1.00  0.00     0.270 C 
HETATM   21  O2  UNL     1      10.527  19.321  19.396  1.00  0.00    -0.269 OA
ATOM     22  H3  UNL     1       7.640  20.577  19.406  1.00  0.00     0.187 HD
BRANCH  20  23
HETATM   23  C11 UNL     1       9.298  19.617  21.399  1.00  0.00     0.138 C 
HETATM   24  C12 UNL     1       8.010  20.316  21.820  1.00  0.00     0.057 C 
BRANCH  23  25
HETATM   25  O3  UNL     1       9.193  18.302  21.867  1.00  0.00    -0.380 OA
ATOM     26  H3  UNL     1       9.695  18.216  22.669  1.00  0.00     0.211 HD
ENDBRANCH  23  25
BRANCH  23  27
HETATM   27  C13 UNL     1      10.498  20.231  22.081  1.00  0.00     0.021 C 
HETATM   28  C14 UNL     1      10.812  19.611  23.405  1.00  0.00     0.013 C 
HETATM   29  C15 UNL     1      10.160  21.694  22.327  1.00  0.00     0.013 C 
ENDBRANCH  23  27
ENDBRANCH  20  23
ENDBRANCH  13  19
TORSDOF 5
ENDMDL
MODEL 4
REMARK VINA RESULT: -4.937964849      1.398      1.820
REMARK  5 active torsions:
REMARK  status: ('A' for Active; 'I' for Inactive)
REMARK    1  A    between atoms: C5_6  and  O1_7 
REMARK    2  A    between atoms: C9_15  and  N3_16 
REMARK       I    between atoms: N3_16  and  C10_18 
REMARK    3  A    between atoms: C10_18  and  C11_20 
REMARK    4  A    between atoms: C11_20  and  O3_22 
REMARK    5  A    between atoms: C11_20  and  C13_24 
ROOT
HETATM    1  C1  UNL     1       9.897  14.171  17.463  1.00  0.00     0.018 C 
HETATM    2  C2  UNL     1       9.385  15.108  16.914  1.00  0.00    -0.074 C 
HETATM    3  C3  UNL     1       8.786  16.232  16.236  1.00  0.00     0.066 A 
HETATM    4  C4  UNL     1       8.240  16.091  14.960  1.00  0.00     0.065 A 
HETATM    5 BR1  UNL     1       8.311  14.364  14.141  1.00  0.00    -0.046 Br
HETATM    6  C5  UNL     1       7.669  17.169  14.319  1.00  0.00     0.089 A 
HETATM    7  C7  UNL     1       7.629  18.401  14.927  1.00  0.00     0.071 A 
HETATM    8  C8  UNL     1       8.165  18.532  16.176  1.00  0.00     0.080 A 
HETATM    9  N1  UNL     1       8.128  19.732  16.771  1.00  0.00    -0.284 N 
ATOM     10  H1  UNL     1       7.705  20.529  16.295  1.00  0.00     0.187 HD
HETATM   11  N2  UNL     1       8.639  19.873  17.969  1.00  0.00    -0.131 N 
ATOM     12  H2  UNL     1       8.603  20.792  18.409  1.00  0.00     0.205 HD
HETATM   13  C9  UNL     1       9.203  18.867  18.640  1.00  0.00     0.700 A 
HETATM   14  N4  UNL     1       9.260  17.654  18.079  1.00  0.00    -0.186 N 
ATOM     15  H4  UNL     1       9.690  16.877  18.580  1.00  0.00     0.184 HD
HETATM   16  C16 UNL     1       8.751  17.466  16.858  1.00  0.00     0.097 A 
ENDROOT
BRANCH   6  17
HETATM   17  O1  UNL     1       7.129  17.029  13.056  1.00  0.00    -0.354 OA
HETATM   18  C6  UNL     1       7.886  17.010  11.883  1.00  0.00     0.210 C 
ENDBRANCH   6  17
BRANCH  13  19
HETATM   19  N3  UNL     1       9.702  19.067  19.842  1.00  0.00    -0.156 N 
HETATM   20  C10 UNL     1       8.946  18.831  21.008  1.00  0.00     0.270 C 
HETATM   21  O2  UNL     1       8.118  17.891  21.011  1.00  0.00    -0.269 OA
ATOM     22  H3  UNL     1      10.661  19.401  19.932  1.00  0.00     0.187 HD
BRANCH  20  23
HETATM   23  C11 UNL     1       9.118  19.673  22.210  1.00  0.00     0.138 C 
HETATM   24  C12 UNL     1       7.929  20.609  22.389  1.00  0.00     0.057 C 
BRANCH  23  25
HETATM   25  O3  UNL     1       9.137  18.852  23.345  1.00  0.00    -0.380 OA
ATOM     26  H3  UNL     1       8.870  19.362  24.101  1.00  0.00     0.211 HD
ENDBRANCH  23  25
BRANCH  23  27
HETATM   27  C13 UNL     1      10.419  20.441  22.202  1.00  0.00     0.021 C 
HETATM   28  C14 UNL     1      11.318  20.101  23.348  1.00  0.00     0.013 C 
HETATM   29  C15 UNL     1      10.057  21.914  22.321  1.00  0.00     0.013 C 
ENDBRANCH  23  27
ENDBRANCH  20  23
ENDBRANCH  13  19
TORSDOF 5
ENDMDL
MODEL 5
REMARK VINA RESULT: -4.874837423      1.499      2.845
REMARK  5 active torsions:
REMARK  status: ('A' for Active; 'I' for Inactive)
REMARK    1  A    between atoms: C5_6  and  O1_7 
REMARK    2  A    between atoms: C9_15  and  N3_16 
REMARK       I    between atoms: N3_16  and  C10_18 
REMARK    3  A    between atoms: C10_18  and  C11_20 
REMARK    4  A    between atoms: C11_20  and  O3_22 
REMARK    5  A    between atoms: C11_20  and  C13_24 
ROOT
HETATM    1  C1  UNL     1       7.972  19.778  14.110  1.00  0.00     0.018 C 
HETATM    2  C2  UNL     1       8.032  18.714  14.661  1.00  0.00    -0.074 C 
HETATM    3  C3  UNL     1       8.082  17.427  15.315  1.00  0.00     0.066 A 
HETATM    4  C4  UNL     1       8.054  16.246  14.574  1.00  0.00     0.065 A 
HETATM    5 BR1  UNL     1       7.946  16.386  12.668  1.00  0.00    -0.046 Br
HETATM    6  C5  UNL     1       8.102  15.022  15.203  1.00  0.00     0.089 A 
HETATM    7  C7  UNL     1       8.179  14.946  16.574  1.00  0.00     0.071 A 
HETATM    8  C8  UNL     1       8.207  16.106  17.293  1.00  0.00     0.080 A 
HETATM    9  N1  UNL     1       8.282  16.035  18.629  1.00  0.00    -0.284 N 
ATOM     10  H1  UNL     1       8.318  15.128  19.095  1.00  0.00     0.187 HD
HETATM   11  N2  UNL     1       8.309  17.140  19.333  1.00  0.00    -0.131 N 
ATOM     12  H2  UNL     1       8.365  17.069  20.348  1.00  0.00     0.205 HD
HETATM   13  C9  UNL     1       8.265  18.353  18.780  1.00  0.00     0.700 A 
HETATM   14  N4  UNL     1       8.190  18.466  17.448  1.00  0.00    -0.186 N 
ATOM     15  H4  UNL     1       8.155  19.387  17.013  1.00  0.00     0.184 HD
HETATM   16  C16 UNL     1       8.160  17.364  16.693  1.00  0.00     0.097 A 
ENDROOT
BRANCH   6  17
HETATM   17  O1  UNL     1       8.074  13.853  14.470  1.00  0.00    -0.354 OA
HETATM   18  C6  UNL     1       8.663  12.657  14.889  1.00  0.00     0.210 C 
ENDBRANCH   6  17
BRANCH  13  19
HETATM   19  N3  UNL     1       8.295  19.430  19.536  1.00  0.00    -0.156 N 
HETATM   20  C10 UNL     1       9.422  19.760  20.314  1.00  0.00     0.270 C 
HETATM   21  O2  UNL     1      10.562  19.485  19.874  1.00  0.00    -0.269 OA
ATOM     22  H3  UNL     1       7.479  20.042  19.560  1.00  0.00     0.187 HD
BRANCH  20  23
HETATM   23  C11 UNL     1       9.273  20.419  21.629  1.00  0.00     0.138 C 
HETATM   24  C12 UNL     1      10.112  21.690  21.694  1.00  0.00     0.057 C 
BRANCH  23  25
HETATM   25  O3  UNL     1       7.943  20.826  21.790  1.00  0.00    -0.380 OA
ATOM     26  H3  UNL     1       7.403  20.386  21.144  1.00  0.00     0.211 HD
ENDBRANCH  23  25
BRANCH  23  27
HETATM   27  C13 UNL     1       9.592  19.497  22.782  1.00  0.00     0.021 C 
HETATM   28  C14 UNL     1      11.014  19.581  23.236  1.00  0.00     0.013 C 
HETATM   29  C15 UNL     1       9.351  18.078  22.287  1.00  0.00     0.013 C 
ENDBRANCH  23  27
ENDBRANCH  20  23
ENDBRANCH  13  19
TORSDOF 5
ENDMDL
