MODEL 1
REMARK VINA RESULT: -5.191454959      0.000      0.000
REMARK  5 active torsions:
REMARK  status: ('A' for Active; 'I' for Inactive)
REMARK    1  A    between atoms: C2_2  and  N1_3 
REMARK    2  A    between atoms: C6_7  and  N2_8 
REMARK    3  A    between atoms: N2_8  and  C7_10 
REMARK    4  A    between atoms: C13_22  and  N6_23 
REMARK    5  A    between atoms: N6_23  and  C14_25 
ROOT
HETATM    1  C7  UNL     1       8.378  17.215  17.627  1.00  0.00     0.147 A 
HETATM    2  N3  UNL     1       8.539  17.476  18.926  1.00  0.00    -0.336 N 
ATOM      3  H3  UNL     1       8.249  16.761  19.593  1.00  0.00     0.168 HD
HETATM    4  C8  UNL     1       9.062  18.621  19.421  1.00  0.00     0.085 A 
HETATM    5  C9  UNL     1       9.199  18.822  20.787  1.00  0.00    -0.019 A 
HETATM    6  C10 UNL     1       9.735  20.005  21.197  1.00  0.00    -0.026 A 
HETATM    7  C11 UNL     1      10.121  20.956  20.266  1.00  0.00     0.098 A 
HETATM    8  N4  UNL     1       9.976  20.734  18.949  1.00  0.00    -0.350 N 
ATOM      9  H4  UNL     1      10.267  21.447  18.279  1.00  0.00     0.166 HD
HETATM   10  C12 UNL     1       9.446  19.566  18.504  1.00  0.00     0.134 A 
HETATM   11  N5  UNL     1       9.312  19.370  17.163  1.00  0.00    -0.324 N 
ATOM     12  H5  UNL     1       9.606  20.091  16.503  1.00  0.00     0.169 HD
HETATM   13  C13 UNL     1       8.794  18.233  16.728  1.00  0.00     0.148 A 
HETATM   14  C17 UNL     1       9.776  19.993  22.675  1.00  0.00    -0.018 C 
HETATM   15  C18 UNL     1       8.487  20.578  23.229  1.00  0.00     0.020 C 
HETATM   16  C19 UNL     1      10.986  20.739  23.196  1.00  0.00     0.020 C 
HETATM   17  C20 UNL     1       9.804  18.535  23.013  1.00  0.00     0.018 C 
HETATM   18  C21 UNL     1       8.863  17.958  21.946  1.00  0.00     0.043 C 
ENDROOT
BRANCH   1  19
HETATM   19  N2  UNL     1       7.906  16.186  17.127  1.00  0.00    -0.367 N 
ATOM     20  H2  UNL     1       6.938  16.335  16.844  1.00  0.00     0.161 HD
BRANCH  19  21
HETATM   21  C6  UNL     1       8.310  14.884  16.838  1.00  0.00     0.111 C 
HETATM   22  C5  UNL     1       7.772  14.446  15.489  1.00  0.00     0.028 C 
HETATM   23  C4  UNL     1       8.200  13.056  15.128  1.00  0.00     0.032 C 
HETATM   24  C3  UNL     1       9.602  12.712  15.504  1.00  0.00     0.272 C 
HETATM   25  N1  UNL     1      10.033  13.212  16.770  1.00  0.00     0.090 N 
HETATM   26  C22 UNL     1       9.792  14.607  16.992  1.00  0.00     0.297 C 
BRANCH  25  27
HETATM   27  C2  UNL     1      11.376  12.830  17.055  1.00  0.00     0.268 C 
HETATM   28  C1  UNL     1      12.394  13.232  16.036  1.00  0.00     0.037 C 
ENDBRANCH  25  27
ENDBRANCH  19  21
ENDBRANCH   1  19
BRANCH  13  29
HETATM   29  N6  UNL     1       8.634  17.967  15.522  1.00  0.00    -0.366 N 
ATOM     30  H6  UNL     1       8.608  16.953  15.414  1.00  0.00     0.161 HD
BRANCH  29  31
HETATM   31  C14 UNL     1       8.480  18.545  14.279  1.00  0.00     0.120 A 
HETATM   32  C15 UNL     1       7.771  17.726  13.166  1.00  0.00     0.067 A 
HETATM   33  C16 UNL     1       7.205  18.995  13.647  1.00  0.00     0.195 A 
HETATM   34  F1  UNL     1       7.291  20.055  12.726  1.00  0.00    -0.247 F 
ENDBRANCH  29  31
ENDBRANCH  13  29
TORSDOF 5
ENDMDL
MODEL 2
REMARK VINA RESULT: -4.231075820      2.415      4.743
REMARK  5 active torsions:
REMARK  status: ('A' for Active; 'I' for Inactive)
REMARK    1  A    between atoms: C2_2  and  N1_3 
REMARK    2  A    between atoms: C6_7  and  N2_8 
REMARK    3  A    between atoms: N2_8  and  C7_10 
REMARK    4  A    between atoms: C13_22  and  N6_23 
REMARK    5  A    between atoms: N6_23  and  C14_25 
ROOT
HETATM    1  C7  UNL     1       9.166  16.802  17.342  1.00  0.00     0.147 A 
HETATM    2  N3  UNL     1       9.367  17.795  18.211  1.00  0.00    -0.336 N 
ATOM      3  H3  UNL     1       9.652  18.701  17.838  1.00  0.00     0.168 HD
HETATM    4  C8  UNL     1       9.219  17.686  19.551  1.00  0.00     0.085 A 
HETATM    5  C9  UNL     1       9.445  18.764  20.394  1.00  0.00    -0.019 A 
HETATM    6  C10 UNL     1       9.272  18.564  21.730  1.00  0.00    -0.026 A 
HETATM    7  C11 UNL     1       8.883  17.322  22.206  1.00  0.00     0.098 A 
HETATM    8  N4  UNL     1       8.670  16.295  21.365  1.00  0.00    -0.350 N 
ATOM      9  H4  UNL     1       8.384  15.388  21.734  1.00  0.00     0.166 HD
HETATM   10  C12 UNL     1       8.834  16.458  20.027  1.00  0.00     0.134 A 
HETATM   11  N5  UNL     1       8.610  15.399  19.201  1.00  0.00    -0.324 N 
ATOM     12  H5  UNL     1       8.323  14.497  19.582  1.00  0.00     0.169 HD
HETATM   13  C13 UNL     1       8.769  15.556  17.896  1.00  0.00     0.148 A 
HETATM   14  C17 UNL     1       9.574  19.837  22.419  1.00  0.00    -0.018 C 
HETATM   15  C18 UNL     1      11.048  19.885  22.788  1.00  0.00     0.020 C 
HETATM   16  C19 UNL     1       8.697  20.022  23.639  1.00  0.00     0.020 C 
HETATM   17  C20 UNL     1       9.328  20.873  21.366  1.00  0.00     0.018 C 
HETATM   18  C21 UNL     1       9.858  20.161  20.112  1.00  0.00     0.043 C 
ENDROOT
BRANCH   1  19
HETATM   19  N2  UNL     1       9.289  16.853  16.112  1.00  0.00    -0.367 N 
ATOM     20  H2  UNL     1      10.183  16.459  15.823  1.00  0.00     0.161 HD
BRANCH  19  21
HETATM   21  C6  UNL     1       8.563  17.291  15.006  1.00  0.00     0.111 C 
HETATM   22  C5  UNL     1       8.885  18.741  14.696  1.00  0.00     0.028 C 
HETATM   23  C4  UNL     1       8.140  19.249  13.500  1.00  0.00     0.032 C 
HETATM   24  C3  UNL     1       8.010  18.272  12.379  1.00  0.00     0.272 C 
HETATM   25  N1  UNL     1       7.756  16.923  12.773  1.00  0.00     0.090 N 
HETATM   26  C22 UNL     1       8.635  16.405  13.779  1.00  0.00     0.297 C 
BRANCH  25  27
HETATM   27  C2  UNL     1       7.636  16.061  11.645  1.00  0.00     0.268 C 
HETATM   28  C1  UNL     1       6.270  15.970  11.043  1.00  0.00     0.037 C 
ENDBRANCH  25  27
ENDBRANCH  19  21
ENDBRANCH   1  19
BRANCH  13  29
HETATM   29  N6  UNL     1       8.587  14.645  17.067  1.00  0.00    -0.366 N 
ATOM     30  H6  UNL     1       7.750  14.863  16.525  1.00  0.00     0.161 HD
BRANCH  29  31
HETATM   31  C14 UNL     1       9.105  13.449  16.614  1.00  0.00     0.120 A 
HETATM   32  C15 UNL     1      10.346  13.487  15.681  1.00  0.00     0.067 A 
HETATM   33  C16 UNL     1      10.409  12.831  16.995  1.00  0.00     0.195 A 
HETATM   34  F1  UNL     1      10.487  11.427  16.939  1.00  0.00    -0.247 F 
ENDBRANCH  29  31
ENDBRANCH  13  29
TORSDOF 5
ENDMDL
MODEL 3
REMARK VINA RESULT: -3.527919914      2.491      4.802
REMARK  5 active torsions:
REMARK  status: ('A' for Active; 'I' for Inactive)
REMARK    1  A    between atoms: C2_2  and  N1_3 
REMARK    2  A    between atoms: C6_7  and  N2_8 
REMARK    3  A    between atoms: N2_8  and  C7_10 
REMARK    4  A    between atoms: C13_22  and  N6_23 
REMARK    5  A    between atoms: N6_23  and  C14_25 
ROOT
HETATM    1  C7  UNL     1       9.560  16.310  17.298  1.00  0.00     0.147 A 
HETATM    2  N3  UNL     1       9.716  17.394  18.061  1.00  0.00    -0.336 N 
ATOM      3  H3  UNL     1      10.119  18.224  17.628  1.00  0.00     0.168 HD
HETATM    4  C8  UNL     1       9.377  17.469  19.369  1.00  0.00     0.085 A 
HETATM    5  C9  UNL     1       9.568  18.632  20.099  1.00  0.00    -0.019 A 
HETATM    6  C10 UNL     1       9.198  18.618  21.410  1.00  0.00    -0.026 A 
HETATM    7  C11 UNL     1       8.651  17.474  21.970  1.00  0.00     0.098 A 
HETATM    8  N4  UNL     1       8.477  16.362  21.237  1.00  0.00    -0.350 N 
ATOM      9  H4  UNL     1       8.073  15.529  21.666  1.00  0.00     0.166 HD
HETATM   10  C12 UNL     1       8.835  16.339  19.927  1.00  0.00     0.134 A 
HETATM   11  N5  UNL     1       8.645  15.196  19.210  1.00  0.00    -0.324 N 
ATOM     12  H5  UNL     1       8.240  14.370  19.651  1.00  0.00     0.169 HD
HETATM   13  C13 UNL     1       8.995  15.172  17.934  1.00  0.00     0.148 A 
HETATM   14  C17 UNL     1       9.500  19.950  21.977  1.00  0.00    -0.018 C 
HETATM   15  C18 UNL     1      10.908  19.957  22.550  1.00  0.00     0.020 C 
HETATM   16  C19 UNL     1       8.480  20.344  23.024  1.00  0.00     0.020 C 
HETATM   17  C20 UNL     1       9.483  20.853  20.783  1.00  0.00     0.018 C 
HETATM   18  C21 UNL     1      10.123  19.953  19.715  1.00  0.00     0.043 C 
ENDROOT
BRANCH   1  19
HETATM   19  N2  UNL     1       9.854  16.193  16.102  1.00  0.00    -0.367 N 
ATOM     20  H2  UNL     1      10.766  15.747  15.998  1.00  0.00     0.161 HD
BRANCH  19  21
HETATM   21  C6  UNL     1       9.306  16.491  14.856  1.00  0.00     0.111 C 
HETATM   22  C5  UNL     1       8.463  15.334  14.354  1.00  0.00     0.028 C 
HETATM   23  C4  UNL     1       7.836  15.620  13.022  1.00  0.00     0.032 C 
HETATM   24  C3  UNL     1       7.341  17.017  12.848  1.00  0.00     0.272 C 
HETATM   25  N1  UNL     1       8.179  18.033  13.399  1.00  0.00     0.090 N 
HETATM   26  C22 UNL     1       8.586  17.821  14.757  1.00  0.00     0.297 C 
BRANCH  25  27
HETATM   27  C2  UNL     1       7.639  19.334  13.180  1.00  0.00     0.268 C 
HETATM   28  C1  UNL     1       8.562  20.475  13.472  1.00  0.00     0.037 C 
ENDBRANCH  25  27
ENDBRANCH  19  21
ENDBRANCH   1  19
BRANCH  13  29
HETATM   29  N6  UNL     1       8.858  14.174  17.202  1.00  0.00    -0.366 N 
ATOM     30  H6  UNL     1       7.967  14.250  16.713  1.00  0.00     0.161 HD
BRANCH  29  31
HETATM   31  C14 UNL     1       9.475  13.003  16.813  1.00  0.00     0.120 A 
HETATM   32  C15 UNL     1      10.825  13.095  16.052  1.00  0.00     0.067 A 
HETATM   33  C16 UNL     1      10.738  12.425  17.359  1.00  0.00     0.195 A 
HETATM   34  F1  UNL     1      10.874  11.026  17.303  1.00  0.00    -0.247 F 
ENDBRANCH  29  31
ENDBRANCH  13  29
TORSDOF 5
ENDMDL
MODEL 4
REMARK VINA RESULT: -3.405921885      1.899      2.393
REMARK  5 active torsions:
REMARK  status: ('A' for Active; 'I' for Inactive)
REMARK    1  A    between atoms: C2_2  and  N1_3 
REMARK    2  A    between atoms: C6_7  and  N2_8 
REMARK    3  A    between atoms: N2_8  and  C7_10 
REMARK    4  A    between atoms: C13_22  and  N6_23 
REMARK    5  A    between atoms: N6_23  and  C14_25 
ROOT
HETATM    1  C7  UNL     1       8.488  16.469  17.889  1.00  0.00     0.147 A 
HETATM    2  N3  UNL     1       9.009  17.064  18.964  1.00  0.00    -0.336 N 
ATOM      3  H3  UNL     1       9.858  16.662  19.363  1.00  0.00     0.168 HD
HETATM    4  C8  UNL     1       8.493  18.162  19.561  1.00  0.00     0.085 A 
HETATM    5  C9  UNL     1       9.092  18.727  20.678  1.00  0.00    -0.019 A 
HETATM    6  C10 UNL     1       8.504  19.831  21.214  1.00  0.00    -0.026 A 
HETATM    7  C11 UNL     1       7.352  20.354  20.649  1.00  0.00     0.098 A 
HETATM    8  N4  UNL     1       6.794  19.786  19.566  1.00  0.00    -0.350 N 
ATOM      9  H4  UNL     1       5.945  20.185  19.164  1.00  0.00     0.166 HD
HETATM   10  C12 UNL     1       7.353  18.683  19.005  1.00  0.00     0.134 A 
HETATM   11  N5  UNL     1       6.764  18.130  17.908  1.00  0.00    -0.324 N 
ATOM     12  H5  UNL     1       5.916  18.539  17.515  1.00  0.00     0.169 HD
HETATM   13  C13 UNL     1       7.307  17.055  17.360  1.00  0.00     0.148 A 
HETATM   14  C17 UNL     1       9.307  20.246  22.385  1.00  0.00    -0.018 C 
HETATM   15  C18 UNL     1       8.779  19.564  23.637  1.00  0.00     0.020 C 
HETATM   16  C19 UNL     1       9.312  21.751  22.542  1.00  0.00     0.020 C 
HETATM   17  C20 UNL     1      10.665  19.688  22.094  1.00  0.00     0.018 C 
HETATM   18  C21 UNL     1      10.308  18.346  21.439  1.00  0.00     0.043 C 
ENDROOT
BRANCH   1  19
HETATM   19  N2  UNL     1       8.921  15.465  17.309  1.00  0.00    -0.367 N 
ATOM     20  H2  UNL     1       8.230  15.100  16.655  1.00  0.00     0.161 HD
BRANCH  19  21
HETATM   21  C6  UNL     1      10.078  14.688  17.288  1.00  0.00     0.111 C 
HETATM   22  C5  UNL     1       9.920  13.523  16.330  1.00  0.00     0.028 C 
HETATM   23  C4  UNL     1      11.151  12.669  16.262  1.00  0.00     0.032 C 
HETATM   24  C3  UNL     1      12.439  13.422  16.294  1.00  0.00     0.272 C 
HETATM   25  N1  UNL     1      12.473  14.533  17.190  1.00  0.00     0.090 N 
HETATM   26  C22 UNL     1      11.374  15.445  17.076  1.00  0.00     0.297 C 
BRANCH  25  27
HETATM   27  C2  UNL     1      13.739  15.186  17.167  1.00  0.00     0.268 C 
HETATM   28  C1  UNL     1      13.713  16.658  17.432  1.00  0.00     0.037 C 
ENDBRANCH  25  27
ENDBRANCH  19  21
ENDBRANCH   1  19
BRANCH  13  29
HETATM   29  N6  UNL     1       6.839  16.483  16.358  1.00  0.00    -0.366 N 
ATOM     30  H6  UNL     1       6.134  15.813  16.666  1.00  0.00     0.161 HD
BRANCH  29  31
HETATM   31  C14 UNL     1       6.928  16.427  14.982  1.00  0.00     0.120 A 
HETATM   32  C15 UNL     1       7.794  17.489  14.252  1.00  0.00     0.067 A 
HETATM   33  C16 UNL     1       8.125  16.058  14.171  1.00  0.00     0.195 A 
HETATM   34  F1  UNL     1       7.887  15.479  12.912  1.00  0.00    -0.247 F 
ENDBRANCH  29  31
ENDBRANCH  13  29
TORSDOF 5
ENDMDL
MODEL 5
REMARK VINA RESULT: -3.227617836      1.563      2.279
REMARK  5 active torsions:
REMARK  status: ('A' for Active; 'I' for Inactive)
REMARK    1  A    between atoms: C2_2  and  N1_3 
REMARK    2  A    between atoms: C6_7  and  N2_8 
REMARK    3  A    between atoms: N2_8  and  C7_10 
REMARK    4  A    between atoms: C13_22  and  N6_23 
REMARK    5  A    between atoms: N6_23  and  C14_25 
ROOT
HETATM    1  C7  UNL     1       8.817  17.303  17.100  1.00  0.00     0.147 A 
HETATM    2  N3  UNL     1       9.315  17.776  18.245  1.00  0.00    -0.336 N 
ATOM      3  H3  UNL     1      10.268  17.512  18.492  1.00  0.00     0.168 HD
HETATM    4  C8  UNL     1       8.644  18.581  19.100  1.00  0.00     0.085 A 
HETATM    5  C9  UNL     1       9.228  19.035  20.274  1.00  0.00    -0.019 A 
HETATM    6  C10 UNL     1       8.479  19.841  21.076  1.00  0.00    -0.026 A 
HETATM    7  C11 UNL     1       7.187  20.183  20.713  1.00  0.00     0.098 A 
HETATM    8  N4  UNL     1       6.647  19.729  19.569  1.00  0.00    -0.350 N 
ATOM      9  H4  UNL     1       5.694  19.992  19.318  1.00  0.00     0.166 HD
HETATM   10  C12 UNL     1       7.364  18.923  18.745  1.00  0.00     0.134 A 
HETATM   11  N5  UNL     1       6.790  18.479  17.592  1.00  0.00    -0.324 N 
ATOM     12  H5  UNL     1       5.835  18.749  17.352  1.00  0.00     0.169 HD
HETATM   13  C13 UNL     1       7.487  17.692  16.788  1.00  0.00     0.148 A 
HETATM   14  C17 UNL     1       9.299  20.188  22.257  1.00  0.00    -0.018 C 
HETATM   15  C18 UNL     1       9.072  19.166  23.359  1.00  0.00     0.020 C 
HETATM   16  C19 UNL     1       8.999  21.591  22.740  1.00  0.00     0.020 C 
HETATM   17  C20 UNL     1      10.705  20.033  21.766  1.00  0.00     0.018 C 
HETATM   18  C21 UNL     1      10.574  18.804  20.855  1.00  0.00     0.043 C 
ENDROOT
BRANCH   1  19
HETATM   19  N2  UNL     1       9.389  16.566  16.287  1.00  0.00    -0.367 N 
ATOM     20  H2  UNL     1       9.141  16.822  15.332  1.00  0.00     0.161 HD
BRANCH  19  21
HETATM   21  C6  UNL     1      10.273  15.488  16.295  1.00  0.00     0.111 C 
HETATM   22  C5  UNL     1      11.530  15.835  17.071  1.00  0.00     0.028 C 
HETATM   23  C4  UNL     1      12.502  14.696  17.122  1.00  0.00     0.032 C 
HETATM   24  C3  UNL     1      11.883  13.349  17.294  1.00  0.00     0.272 C 
HETATM   25  N1  UNL     1      10.676  13.135  16.562  1.00  0.00     0.090 N 
HETATM   26  C22 UNL     1       9.682  14.157  16.711  1.00  0.00     0.297 C 
BRANCH  25  27
HETATM   27  C2  UNL     1      10.159  11.825  16.774  1.00  0.00     0.268 C 
HETATM   28  C1  UNL     1      10.921  10.977  17.742  1.00  0.00     0.037 C 
ENDBRANCH  25  27
ENDBRANCH  19  21
ENDBRANCH   1  19
BRANCH  13  29
HETATM   29  N6  UNL     1       7.045  17.240  15.715  1.00  0.00    -0.366 N 
ATOM     30  H6  UNL     1       6.619  16.331  15.898  1.00  0.00     0.161 HD
BRANCH  29  31
HETATM   31  C14 UNL     1       6.922  17.521  14.370  1.00  0.00     0.120 A 
HETATM   32  C15 UNL     1       7.591  18.810  13.820  1.00  0.00     0.067 A 
HETATM   33  C16 UNL     1       8.000  17.481  13.339  1.00  0.00     0.195 A 
HETATM   34  F1  UNL     1       7.608  17.196  12.019  1.00  0.00    -0.247 F 
ENDBRANCH  29  31
ENDBRANCH  13  29
TORSDOF 5
ENDMDL
