MODEL 1
REMARK VINA RESULT: 4.899132916      0.000      0.000
REMARK  1 active torsions:
REMARK  status: ('A' for Active; 'I' for Inactive)
REMARK    1  A    between atoms: C13_14  and  C14_15 
ROOT
HETATM    1  C1  UNL     1       6.286  19.856  17.018  1.00  0.00     0.151 C 
HETATM    2  N1  UNL     1       6.854  18.565  16.820  1.00  0.00    -0.367 N 
HETATM    3  C2  UNL     1       8.113  18.087  17.350  1.00  0.00     0.041 A 
HETATM    4  C3  UNL     1       8.830  18.374  18.476  1.00  0.00     0.030 A 
HETATM    5  C4  UNL     1      10.018  17.705  18.668  1.00  0.00     0.002 A 
HETATM    6  C5  UNL     1      10.503  16.770  17.780  1.00  0.00     0.001 A 
HETATM    7  C6  UNL     1       9.765  16.476  16.622  1.00  0.00     0.014 A 
HETATM    8  C7  UNL     1       8.581  17.148  16.432  1.00  0.00     0.000 A 
HETATM    9  C8  UNL     1       7.601  17.071  15.348  1.00  0.00    -0.001 C 
HETATM   10  C9  UNL     1       7.630  16.778  14.071  1.00  0.00     0.001 A 
HETATM   11  C10 UNL     1       8.817  16.434  13.466  1.00  0.00     0.014 A 
HETATM   12  C11 UNL     1       8.824  16.080  12.112  1.00  0.00     0.002 A 
HETATM   13  C12 UNL     1       7.653  16.086  11.430  1.00  0.00     0.017 A 
HETATM   14  C13 UNL     1       6.445  16.424  11.987  1.00  0.00     0.036 A 
HETATM   15  C23 UNL     1       6.450  16.774  13.326  1.00  0.00     0.059 A 
HETATM   16  N5  UNL     1       5.324  17.201  13.832  1.00  0.00    -0.323 N 
ATOM     17  H5  UNL     1       4.483  17.178  13.256  1.00  0.00     0.169 HD
HETATM   18  C24 UNL     1       5.236  17.694  15.158  1.00  0.00     0.249 C 
HETATM   19  O2  UNL     1       4.224  18.330  15.501  1.00  0.00    -0.270 OA
HETATM   20  C25 UNL     1       6.315  17.449  16.073  1.00  0.00     0.212 C 
ENDROOT
BRANCH  14  21
HETATM   21  C14 UNL     1       5.188  16.421  11.213  1.00  0.00     0.119 A 
HETATM   22  N2  UNL     1       4.044  16.807  11.801  1.00  0.00    -0.351 N 
HETATM   23  C15 UNL     1       2.870  16.812  11.102  1.00  0.00     0.106 A 
ATOM     24  H2  UNL     1       4.052  17.099  12.779  1.00  0.00     0.166 HD
HETATM   25  C16 UNL     1       2.842  16.418   9.781  1.00  0.00     0.045 A 
HETATM   26  C17 UNL     1       4.021  16.024   9.188  1.00  0.00     0.164 A 
HETATM   27  C22 UNL     1       1.869  16.305   8.815  1.00  0.00     0.031 A 
HETATM   28  N3  UNL     1       5.156  16.041   9.931  1.00  0.00    -0.321 N 
HETATM   29  O1  UNL     1       3.738  15.703   7.951  1.00  0.00    -0.275 OA
ATOM     30  H3  UNL     1       6.028  15.749   9.490  1.00  0.00     0.169 HD
HETATM   31  C18 UNL     1       2.478  15.848   7.666  1.00  0.00     0.161 A 
HETATM   32  N4  UNL     1       1.714  15.655   6.561  1.00  0.00    -0.346 N 
HETATM   33  C19 UNL     1       0.392  15.896   6.556  1.00  0.00     0.090 A 
ATOM     34  H4  UNL     1       2.158  15.317   5.707  1.00  0.00     0.167 HD
HETATM   35  C20 UNL     1      -0.265  16.354   7.679  1.00  0.00     0.018 A 
HETATM   36  C21 UNL     1       0.505  16.553   8.807  1.00  0.00     0.018 A 
ENDBRANCH  14  21
TORSDOF 1
ENDMDL
MODEL 2
REMARK VINA RESULT: 6.058777217      1.389      1.884
REMARK  1 active torsions:
REMARK  status: ('A' for Active; 'I' for Inactive)
REMARK    1  A    between atoms: C13_14  and  C14_15 
ROOT
HETATM    1  C1  UNL     1       5.965  20.129  17.424  1.00  0.00     0.151 C 
HETATM    2  N1  UNL     1       6.328  18.755  17.529  1.00  0.00    -0.367 N 
HETATM    3  C2  UNL     1       7.279  18.183  18.458  1.00  0.00     0.041 A 
HETATM    4  C3  UNL     1       7.683  18.521  19.718  1.00  0.00     0.030 A 
HETATM    5  C4  UNL     1       8.629  17.724  20.323  1.00  0.00     0.002 A 
HETATM    6  C5  UNL     1       9.173  16.614  19.715  1.00  0.00     0.001 A 
HETATM    7  C6  UNL     1       8.757  16.269  18.420  1.00  0.00     0.014 A 
HETATM    8  C7  UNL     1       7.815  17.068  17.817  1.00  0.00     0.000 A 
HETATM    9  C8  UNL     1       7.188  16.979  16.497  1.00  0.00    -0.001 C 
HETATM   10  C9  UNL     1       7.528  16.509  15.323  1.00  0.00     0.001 A 
HETATM   11  C10 UNL     1       8.758  15.918  15.143  1.00  0.00     0.014 A 
HETATM   12  C11 UNL     1       9.088  15.380  13.894  1.00  0.00     0.002 A 
HETATM   13  C12 UNL     1       8.181  15.456  12.890  1.00  0.00     0.017 A 
HETATM   14  C13 UNL     1       6.944  16.036  13.018  1.00  0.00     0.036 A 
HETATM   15  C23 UNL     1       6.629  16.567  14.257  1.00  0.00     0.059 A 
HETATM   16  N5  UNL     1       5.499  17.216  14.355  1.00  0.00    -0.323 N 
ATOM     17  H5  UNL     1       4.867  17.232  13.555  1.00  0.00     0.169 HD
HETATM   18  C24 UNL     1       5.125  17.898  15.539  1.00  0.00     0.249 C 
HETATM   19  O2  UNL     1       4.186  18.713  15.498  1.00  0.00    -0.270 OA
HETATM   20  C25 UNL     1       5.837  17.634  16.758  1.00  0.00     0.212 C 
ENDROOT
BRANCH  14  21
HETATM   21  C14 UNL     1       5.981  16.104  11.902  1.00  0.00     0.119 A 
HETATM   22  N2  UNL     1       6.351  15.694  10.679  1.00  0.00    -0.351 N 
HETATM   23  C15 UNL     1       5.474  15.748   9.632  1.00  0.00     0.106 A 
ATOM     24  H2  UNL     1       7.296  15.339  10.529  1.00  0.00     0.166 HD
HETATM   25  C16 UNL     1       4.195  16.227   9.817  1.00  0.00     0.045 A 
HETATM   26  C17 UNL     1       3.825  16.645  11.076  1.00  0.00     0.164 A 
HETATM   27  C22 UNL     1       3.095  16.414   9.012  1.00  0.00     0.031 A 
HETATM   28  N3  UNL     1       4.737  16.567  12.077  1.00  0.00    -0.321 N 
HETATM   29  O1  UNL     1       2.583  17.049  10.996  1.00  0.00    -0.275 OA
ATOM     30  H3  UNL     1       4.462  16.877  13.009  1.00  0.00     0.169 HD
HETATM   31  C18 UNL     1       2.091  16.938   9.798  1.00  0.00     0.161 A 
HETATM   32  N4  UNL     1       0.893  17.211   9.221  1.00  0.00    -0.346 N 
HETATM   33  C19 UNL     1       0.661  16.987   7.917  1.00  0.00     0.090 A 
ATOM     34  H4  UNL     1       0.145  17.600   9.797  1.00  0.00     0.167 HD
HETATM   35  C20 UNL     1       1.631  16.465   7.088  1.00  0.00     0.018 A 
HETATM   36  C21 UNL     1       2.852  16.184   7.667  1.00  0.00     0.018 A 
ENDBRANCH  14  21
TORSDOF 1
ENDMDL
MODEL 3
REMARK VINA RESULT: 6.612303967      3.729     10.544
REMARK  1 active torsions:
REMARK  status: ('A' for Active; 'I' for Inactive)
REMARK    1  A    between atoms: C13_14  and  C14_15 
ROOT
HETATM    1  C1  UNL     1       4.629  18.115  14.500  1.00  0.00     0.151 C 
HETATM    2  N1  UNL     1       5.940  17.801  14.041  1.00  0.00    -0.367 N 
HETATM    3  C2  UNL     1       6.281  16.968  12.908  1.00  0.00     0.041 A 
HETATM    4  C3  UNL     1       5.659  16.688  11.725  1.00  0.00     0.030 A 
HETATM    5  C4  UNL     1       6.294  15.832  10.854  1.00  0.00     0.002 A 
HETATM    6  C5  UNL     1       7.516  15.257  11.126  1.00  0.00     0.001 A 
HETATM    7  C6  UNL     1       8.154  15.546  12.342  1.00  0.00     0.014 A 
HETATM    8  C7  UNL     1       7.517  16.398  13.212  1.00  0.00     0.000 A 
HETATM    9  C8  UNL     1       7.910  16.887  14.534  1.00  0.00    -0.001 C 
HETATM   10  C9  UNL     1       8.642  16.439  15.524  1.00  0.00     0.001 A 
HETATM   11  C10 UNL     1       9.260  15.213  15.429  1.00  0.00     0.014 A 
HETATM   12  C11 UNL     1      10.076  14.770  16.476  1.00  0.00     0.002 A 
HETATM   13  C12 UNL     1      10.235  15.566  17.561  1.00  0.00     0.017 A 
HETATM   14  C13 UNL     1       9.639  16.793  17.705  1.00  0.00     0.036 A 
HETATM   15  C23 UNL     1       8.833  17.221  16.664  1.00  0.00     0.059 A 
HETATM   16  N5  UNL     1       8.177  18.337  16.841  1.00  0.00    -0.323 N 
ATOM     17  H5  UNL     1       8.348  18.882  17.686  1.00  0.00     0.169 HD
HETATM   18  C24 UNL     1       7.237  18.814  15.894  1.00  0.00     0.249 C 
HETATM   19  O2  UNL     1       6.452  19.721  16.225  1.00  0.00    -0.270 OA
HETATM   20  C25 UNL     1       7.210  18.240  14.579  1.00  0.00     0.212 C 
ENDROOT
BRANCH  14  21
HETATM   21  C14 UNL     1       9.832  17.633  18.903  1.00  0.00     0.119 A 
HETATM   22  N2  UNL     1       9.809  17.069  20.121  1.00  0.00    -0.351 N 
HETATM   23  C15 UNL     1       9.986  17.830  21.242  1.00  0.00     0.106 A 
ATOM     24  H2  UNL     1       9.656  16.064  20.210  1.00  0.00     0.166 HD
HETATM   25  C16 UNL     1      10.190  19.190  21.140  1.00  0.00     0.045 A 
HETATM   26  C17 UNL     1      10.212  19.757  19.885  1.00  0.00     0.164 A 
HETATM   27  C22 UNL     1      10.396  20.217  22.031  1.00  0.00     0.031 A 
HETATM   28  N3  UNL     1      10.032  18.953  18.808  1.00  0.00    -0.321 N 
HETATM   29  O1  UNL     1      10.419  21.040  20.049  1.00  0.00    -0.275 OA
ATOM     30  H3  UNL     1      10.048  19.375  17.879  1.00  0.00     0.169 HD
HETATM   31  C18 UNL     1      10.537  21.377  21.299  1.00  0.00     0.161 A 
HETATM   32  N4  UNL     1      10.752  22.541  21.964  1.00  0.00    -0.346 N 
HETATM   33  C19 UNL     1      10.831  22.592  23.304  1.00  0.00     0.090 A 
ATOM     34  H4  UNL     1      10.857  23.403  21.429  1.00  0.00     0.167 HD
HETATM   35  C20 UNL     1      10.696  21.461  24.082  1.00  0.00     0.018 A 
HETATM   36  C21 UNL     1      10.478  20.275  23.413  1.00  0.00     0.018 A 
ENDBRANCH  14  21
TORSDOF 1
ENDMDL
MODEL 4
REMARK VINA RESULT: 7.089261145      1.796      3.079
REMARK  1 active torsions:
REMARK  status: ('A' for Active; 'I' for Inactive)
REMARK    1  A    between atoms: C13_14  and  C14_15 
ROOT
HETATM    1  C1  UNL     1       9.096  15.027  15.379  1.00  0.00     0.151 C 
HETATM    2  N1  UNL     1       8.743  16.406  15.357  1.00  0.00    -0.367 N 
HETATM    3  C2  UNL     1       8.935  17.363  16.426  1.00  0.00     0.041 A 
HETATM    4  C3  UNL     1       9.852  17.479  17.431  1.00  0.00     0.030 A 
HETATM    5  C4  UNL     1       9.732  18.550  18.288  1.00  0.00     0.002 A 
HETATM    6  C5  UNL     1       8.737  19.495  18.171  1.00  0.00     0.001 A 
HETATM    7  C6  UNL     1       7.794  19.374  17.137  1.00  0.00     0.014 A 
HETATM    8  C7  UNL     1       7.915  18.302  16.285  1.00  0.00     0.000 A 
HETATM    9  C8  UNL     1       7.107  17.900  15.132  1.00  0.00    -0.001 C 
HETATM   10  C9  UNL     1       5.859  18.044  14.762  1.00  0.00     0.001 A 
HETATM   11  C10 UNL     1       4.973  18.727  15.562  1.00  0.00     0.014 A 
HETATM   12  C11 UNL     1       3.654  18.911  15.130  1.00  0.00     0.002 A 
HETATM   13  C12 UNL     1       3.285  18.406  13.928  1.00  0.00     0.017 A 
HETATM   14  C13 UNL     1       4.130  17.716  13.095  1.00  0.00     0.036 A 
HETATM   15  C23 UNL     1       5.430  17.538  13.533  1.00  0.00     0.059 A 
HETATM   16  N5  UNL     1       6.208  16.790  12.797  1.00  0.00    -0.323 N 
ATOM     17  H5  UNL     1       5.859  16.444  11.903  1.00  0.00     0.169 HD
HETATM   18  C24 UNL     1       7.521  16.446  13.201  1.00  0.00     0.249 C 
HETATM   19  O2  UNL     1       8.116  15.526  12.610  1.00  0.00    -0.270 OA
HETATM   20  C25 UNL     1       8.135  17.162  14.283  1.00  0.00     0.212 C 
ENDROOT
BRANCH  14  21
HETATM   21  C14 UNL     1       3.693  17.178  11.792  1.00  0.00     0.119 A 
HETATM   22  N2  UNL     1       4.554  16.473  11.041  1.00  0.00    -0.351 N 
HETATM   23  C15 UNL     1       4.169  15.967   9.832  1.00  0.00     0.106 A 
ATOM     24  H2  UNL     1       5.505  16.315  11.376  1.00  0.00     0.166 HD
HETATM   25  C16 UNL     1       2.889  16.175   9.363  1.00  0.00     0.045 A 
HETATM   26  C17 UNL     1       2.014  16.899  10.142  1.00  0.00     0.164 A 
HETATM   27  C22 UNL     1       2.193  15.821   8.230  1.00  0.00     0.031 A 
HETATM   28  N3  UNL     1       2.451  17.376  11.333  1.00  0.00    -0.321 N 
HETATM   29  O1  UNL     1       0.880  16.957   9.490  1.00  0.00    -0.275 OA
ATOM     30  H3  UNL     1       1.802  17.913  11.909  1.00  0.00     0.169 HD
HETATM   31  C18 UNL     1       0.920  16.336   8.349  1.00  0.00     0.161 A 
HETATM   32  N4  UNL     1       0.036  16.117   7.342  1.00  0.00    -0.346 N 
HETATM   33  C19 UNL     1       0.365  15.416   6.244  1.00  0.00     0.090 A 
ATOM     34  H4  UNL     1      -0.908  16.495   7.423  1.00  0.00     0.167 HD
HETATM   35  C20 UNL     1       1.624  14.880   6.077  1.00  0.00     0.018 A 
HETATM   36  C21 UNL     1       2.529  15.099   7.096  1.00  0.00     0.018 A 
ENDBRANCH  14  21
TORSDOF 1
ENDMDL
MODEL 5
REMARK VINA RESULT: 7.910988768      3.766     10.541
REMARK  1 active torsions:
REMARK  status: ('A' for Active; 'I' for Inactive)
REMARK    1  A    between atoms: C13_14  and  C14_15 
ROOT
HETATM    1  C1  UNL     1       4.729  18.268  14.394  1.00  0.00     0.151 C 
HETATM    2  N1  UNL     1       6.039  17.930  13.946  1.00  0.00    -0.367 N 
HETATM    3  C2  UNL     1       6.375  17.011  12.880  1.00  0.00     0.041 A 
HETATM    4  C3  UNL     1       5.743  16.630  11.731  1.00  0.00     0.030 A 
HETATM    5  C4  UNL     1       6.376  15.711  10.924  1.00  0.00     0.002 A 
HETATM    6  C5  UNL     1       7.607  15.171  11.227  1.00  0.00     0.001 A 
HETATM    7  C6  UNL     1       8.256  15.564  12.408  1.00  0.00     0.014 A 
HETATM    8  C7  UNL     1       7.620  16.478  13.214  1.00  0.00     0.000 A 
HETATM    9  C8  UNL     1       8.022  17.077  14.487  1.00  0.00    -0.001 C 
HETATM   10  C9  UNL     1       8.771  16.718  15.501  1.00  0.00     0.001 A 
HETATM   11  C10 UNL     1       9.400  15.494  15.499  1.00  0.00     0.014 A 
HETATM   12  C11 UNL     1      10.232  15.145  16.568  1.00  0.00     0.002 A 
HETATM   13  C12 UNL     1      10.396  16.028  17.583  1.00  0.00     0.017 A 
HETATM   14  C13 UNL     1       9.788  17.258  17.634  1.00  0.00     0.036 A 
HETATM   15  C23 UNL     1       8.966  17.592  16.572  1.00  0.00     0.059 A 
HETATM   16  N5  UNL     1       8.301  18.712  16.666  1.00  0.00    -0.323 N 
ATOM     17  H5  UNL     1       8.476  19.326  17.461  1.00  0.00     0.169 HD
HETATM   18  C24 UNL     1       7.346  19.102  15.694  1.00  0.00     0.249 C 
HETATM   19  O2  UNL     1       6.555  20.026  15.959  1.00  0.00    -0.270 OA
HETATM   20  C25 UNL     1       7.310  18.423  14.430  1.00  0.00     0.212 C 
ENDROOT
BRANCH  14  21
HETATM   21  C14 UNL     1       9.987  18.194  18.757  1.00  0.00     0.119 A 
HETATM   22  N2  UNL     1      11.226  18.609  19.065  1.00  0.00    -0.351 N 
HETATM   23  C15 UNL     1      11.431  19.476  20.102  1.00  0.00     0.106 A 
ATOM     24  H2  UNL     1      12.021  18.275  18.520  1.00  0.00     0.166 HD
HETATM   25  C16 UNL     1      10.367  19.936  20.849  1.00  0.00     0.045 A 
HETATM   26  C17 UNL     1       9.101  19.503  20.524  1.00  0.00     0.164 A 
HETATM   27  C22 UNL     1      10.220  20.783  21.922  1.00  0.00     0.031 A 
HETATM   28  N3  UNL     1       8.958  18.643  19.485  1.00  0.00    -0.321 N 
HETATM   29  O1  UNL     1       8.275  20.071  21.366  1.00  0.00    -0.275 OA
ATOM     30  H3  UNL     1       8.019  18.324  19.246  1.00  0.00     0.169 HD
HETATM   31  C18 UNL     1       8.876  20.844  22.221  1.00  0.00     0.161 A 
HETATM   32  N4  UNL     1       8.477  21.627  23.255  1.00  0.00    -0.346 N 
HETATM   33  C19 UNL     1       9.348  22.338  23.989  1.00  0.00     0.090 A 
ATOM     34  H4  UNL     1       7.483  21.676  23.482  1.00  0.00     0.167 HD
HETATM   35  C20 UNL     1      10.703  22.312  23.732  1.00  0.00     0.018 A 
HETATM   36  C21 UNL     1      11.117  21.519  22.682  1.00  0.00     0.018 A 
ENDBRANCH  14  21
TORSDOF 1
ENDMDL
