MODEL 1
REMARK VINA RESULT: -0.770059375      0.000      0.000
REMARK  3 active torsions:
REMARK  status: ('A' for Active; 'I' for Inactive)
REMARK    1  A    between atoms: C3_4  and  C4_5 
REMARK    2  A    between atoms: N2_12  and  O1_13 
REMARK    3  A    between atoms: N3_17  and  O2_18 
ROOT
HETATM    1  N1  UNL     1      10.314  21.645  18.322  1.00  0.00    -0.191 NA
HETATM    2  C1  UNL     1       9.779  20.627  18.598  1.00  0.00     0.104 C 
HETATM    3  C2  UNL     1       9.129  19.442  18.884  1.00  0.00     0.102 C 
HETATM    4  C3  UNL     1       8.996  19.161  20.205  1.00  0.00     0.024 C 
HETATM    5  C10 UNL     1       8.348  17.978  20.664  1.00  0.00     0.059 C 
HETATM    6  N2  UNL     1       9.193  17.348  21.328  1.00  0.00    -0.237 N 
HETATM    7  C11 UNL     1       8.847  15.906  21.517  1.00  0.00     0.142 C 
HETATM    8  C12 UNL     1       8.397  15.130  20.467  1.00  0.00     0.144 C 
HETATM    9  N3  UNL     1       8.277  15.794  19.176  1.00  0.00    -0.221 N 
HETATM   10  C13 UNL     1       7.633  16.863  19.043  1.00  0.00     0.123 C 
HETATM   11  C14 UNL     1       6.904  17.563  20.233  1.00  0.00     0.140 C 
HETATM   12  N4  UNL     1       7.926  17.382  17.815  1.00  0.00    -0.280 N 
HETATM   13  C15 UNL     1       8.653  18.555  17.795  1.00  0.00     0.136 A 
HETATM   14  N5  UNL     1       8.878  18.810  16.497  1.00  0.00    -0.338 N 
ATOM     15  H5  UNL     1       9.392  19.606  16.120  1.00  0.00     0.167 HD
HETATM   16  C16 UNL     1       8.304  17.828  15.784  1.00  0.00     0.075 A 
HETATM   17  C17 UNL     1       8.211  17.614  14.441  1.00  0.00     0.020 A 
HETATM   18  C18 UNL     1       8.822  18.505  13.591  1.00  0.00     0.016 A 
HETATM   19  C19 UNL     1       8.752  18.313  12.239  1.00  0.00     0.001 A 
HETATM   20  C20 UNL     1       8.079  17.242  11.718  1.00  0.00     0.002 A 
HETATM   21  C21 UNL     1       7.456  16.335  12.578  1.00  0.00     0.030 A 
HETATM   22  C22 UNL     1       7.519  16.514  13.936  1.00  0.00     0.044 A 
HETATM   23  N6  UNL     1       6.947  15.677  14.805  1.00  0.00    -0.363 N 
ATOM     24  H6  UNL     1       6.441  14.876  14.428  1.00  0.00     0.165 HD
HETATM   25  C23 UNL     1       6.991  15.812  16.125  1.00  0.00     0.121 A 
HETATM   26  C24 UNL     1       7.696  16.924  16.622  1.00  0.00     0.085 A 
ENDROOT
BRANCH   4  27
HETATM   27  C4  UNL     1       9.447  19.931  21.266  1.00  0.00    -0.022 A 
HETATM   28  C5  UNL     1       8.475  20.664  21.979  1.00  0.00     0.012 A 
HETATM   29  C6  UNL     1       8.735  21.462  23.045  1.00  0.00     0.001 A 
HETATM   30  C7  UNL     1      10.040  21.571  23.470  1.00  0.00     0.000 A 
HETATM   31  C8  UNL     1      11.051  20.888  22.830  1.00  0.00     0.001 A 
HETATM   32  C9  UNL     1      10.722  20.100  21.761  1.00  0.00     0.012 A 
ENDBRANCH   4  27
BRANCH   6  33
HETATM   33  O1  UNL     1      10.430  17.548  21.677  1.00  0.00    -0.283 OA
ATOM     34  H1  UNL     1      11.152  16.994  21.951  1.00  0.00     0.245 HD
ENDBRANCH   6  33
BRANCH   9  35
HETATM   35  O2  UNL     1       8.877  15.371  18.118  1.00  0.00    -0.282 OA
ATOM     36  H2  UNL     1       9.201  15.955  17.442  1.00  0.00     0.245 HD
ENDBRANCH   9  35
TORSDOF 3
ENDMDL
MODEL 2
REMARK VINA RESULT: 1.213396628      1.934      7.401
REMARK  3 active torsions:
REMARK  status: ('A' for Active; 'I' for Inactive)
REMARK    1  A    between atoms: C3_4  and  C4_5 
REMARK    2  A    between atoms: N2_12  and  O1_13 
REMARK    3  A    between atoms: N3_17  and  O2_18 
ROOT
HETATM    1  N1  UNL     1       5.661  18.905  15.648  1.00  0.00    -0.191 NA
HETATM    2  C1  UNL     1       6.687  18.424  15.984  1.00  0.00     0.104 C 
HETATM    3  C2  UNL     1       7.895  17.897  16.402  1.00  0.00     0.102 C 
HETATM    4  C3  UNL     1       8.522  17.104  15.496  1.00  0.00     0.024 C 
HETATM    5  C10 UNL     1       9.776  16.487  15.774  1.00  0.00     0.059 C 
HETATM    6  N2  UNL     1       9.592  15.258  15.683  1.00  0.00    -0.237 N 
HETATM    7  C11 UNL     1      10.652  14.446  16.356  1.00  0.00     0.142 C 
HETATM    8  C12 UNL     1      11.110  14.764  17.619  1.00  0.00     0.144 C 
HETATM    9  N3  UNL     1      10.505  15.928  18.253  1.00  0.00    -0.221 N 
HETATM   10  C13 UNL     1      10.456  17.041  17.674  1.00  0.00     0.123 C 
HETATM   11  C14 UNL     1      11.039  17.276  16.245  1.00  0.00     0.140 C 
HETATM   12  N4  UNL     1       9.606  17.845  18.377  1.00  0.00    -0.280 N 
HETATM   13  C15 UNL     1       8.418  18.180  17.760  1.00  0.00     0.136 A 
HETATM   14  N5  UNL     1       7.735  18.893  18.669  1.00  0.00    -0.338 N 
ATOM     15  H5  UNL     1       6.808  19.299  18.543  1.00  0.00     0.167 HD
HETATM   16  C16 UNL     1       8.493  18.975  19.774  1.00  0.00     0.075 A 
HETATM   17  C17 UNL     1       8.293  19.597  20.970  1.00  0.00     0.020 A 
HETATM   18  C18 UNL     1       7.104  20.255  21.176  1.00  0.00     0.016 A 
HETATM   19  C19 UNL     1       6.872  20.884  22.369  1.00  0.00     0.001 A 
HETATM   20  C20 UNL     1       7.810  20.865  23.364  1.00  0.00     0.002 A 
HETATM   21  C21 UNL     1       9.019  20.197  23.159  1.00  0.00     0.030 A 
HETATM   22  C22 UNL     1       9.266  19.563  21.968  1.00  0.00     0.044 A 
HETATM   23  N6  UNL     1      10.401  18.906  21.718  1.00  0.00    -0.363 N 
ATOM     24  H6  UNL     1      11.109  18.887  22.452  1.00  0.00     0.165 HD
HETATM   25  C23 UNL     1      10.675  18.274  20.583  1.00  0.00     0.121 A 
HETATM   26  C24 UNL     1       9.683  18.312  19.585  1.00  0.00     0.085 A 
ENDROOT
BRANCH   4  27
HETATM   27  C4  UNL     1       8.069  16.775  14.227  1.00  0.00    -0.022 A 
HETATM   28  C5  UNL     1       8.470  17.621  13.171  1.00  0.00     0.012 A 
HETATM   29  C6  UNL     1       8.128  17.447  11.869  1.00  0.00     0.001 A 
HETATM   30  C7  UNL     1       7.333  16.372  11.545  1.00  0.00     0.000 A 
HETATM   31  C8  UNL     1       6.898  15.496  12.516  1.00  0.00     0.001 A 
HETATM   32  C9  UNL     1       7.278  15.727  13.811  1.00  0.00     0.012 A 
ENDBRANCH   4  27
BRANCH   6  33
HETATM   33  O1  UNL     1       8.581  14.494  15.388  1.00  0.00    -0.283 OA
ATOM     34  H1  UNL     1       8.255  14.083  14.595  1.00  0.00     0.245 HD
ENDBRANCH   6  33
BRANCH   9  35
HETATM   35  O2  UNL     1       9.926  15.873  19.402  1.00  0.00    -0.282 OA
ATOM     36  H2  UNL     1       9.753  16.645  19.928  1.00  0.00     0.245 HD
ENDBRANCH   9  35
TORSDOF 3
ENDMDL
MODEL 3
REMARK VINA RESULT: 1.222231309      1.655      7.204
REMARK  3 active torsions:
REMARK  status: ('A' for Active; 'I' for Inactive)
REMARK    1  A    between atoms: C3_4  and  C4_5 
REMARK    2  A    between atoms: N2_12  and  O1_13 
REMARK    3  A    between atoms: N3_17  and  O2_18 
ROOT
HETATM    1  N1  UNL     1       9.018  20.070  14.602  1.00  0.00    -0.191 NA
HETATM    2  C1  UNL     1       8.979  19.075  15.241  1.00  0.00     0.104 C 
HETATM    3  C2  UNL     1       8.965  17.930  16.014  1.00  0.00     0.102 C 
HETATM    4  C3  UNL     1       8.670  16.786  15.345  1.00  0.00     0.024 C 
HETATM    5  C10 UNL     1       8.617  15.522  15.999  1.00  0.00     0.059 C 
HETATM    6  N2  UNL     1       7.459  15.090  15.839  1.00  0.00    -0.237 N 
HETATM    7  C11 UNL     1       7.088  14.010  16.804  1.00  0.00     0.142 C 
HETATM    8  C12 UNL     1       7.371  14.118  18.151  1.00  0.00     0.144 C 
HETATM    9  N3  UNL     1       8.048  15.337  18.574  1.00  0.00    -0.221 N 
HETATM   10  C13 UNL     1       9.107  15.727  18.023  1.00  0.00     0.123 C 
HETATM   11  C14 UNL     1       9.789  14.945  16.857  1.00  0.00     0.140 C 
HETATM   12  N4  UNL     1       9.347  17.007  18.429  1.00  0.00    -0.280 N 
HETATM   13  C15 UNL     1       9.230  17.993  17.471  1.00  0.00     0.136 A 
HETATM   14  N5  UNL     1       9.429  19.148  18.125  1.00  0.00    -0.338 N 
ATOM     15  H5  UNL     1       9.412  20.082  17.716  1.00  0.00     0.167 HD
HETATM   16  C16 UNL     1       9.657  18.852  19.414  1.00  0.00     0.075 A 
HETATM   17  C17 UNL     1       9.937  19.637  20.493  1.00  0.00     0.020 A 
HETATM   18  C18 UNL     1       9.980  20.999  20.318  1.00  0.00     0.016 A 
HETATM   19  C19 UNL     1      10.253  21.814  21.383  1.00  0.00     0.001 A 
HETATM   20  C20 UNL     1      10.485  21.288  22.624  1.00  0.00     0.002 A 
HETATM   21  C21 UNL     1      10.443  19.904  22.806  1.00  0.00     0.030 A 
HETATM   22  C22 UNL     1      10.170  19.076  21.748  1.00  0.00     0.044 A 
HETATM   23  N6  UNL     1      10.112  17.746  21.863  1.00  0.00    -0.363 N 
ATOM     24  H6  UNL     1      10.286  17.344  22.783  1.00  0.00     0.165 HD
HETATM   25  C23 UNL     1       9.845  16.912  20.866  1.00  0.00     0.121 A 
HETATM   26  C24 UNL     1       9.608  17.491  19.605  1.00  0.00     0.085 A 
ENDROOT
BRANCH   4  27
HETATM   27  C4  UNL     1       8.381  16.667  13.994  1.00  0.00    -0.022 A 
HETATM   28  C5  UNL     1       8.204  17.867  13.273  1.00  0.00     0.012 A 
HETATM   29  C6  UNL     1       7.924  17.938  11.946  1.00  0.00     0.001 A 
HETATM   30  C7  UNL     1       7.802  16.761  11.245  1.00  0.00     0.000 A 
HETATM   31  C8  UNL     1       7.960  15.544  11.873  1.00  0.00     0.001 A 
HETATM   32  C9  UNL     1       8.241  15.540  13.212  1.00  0.00     0.012 A 
ENDBRANCH   4  27
BRANCH   6  33
HETATM   33  O1  UNL     1       6.391  15.513  15.228  1.00  0.00    -0.283 OA
ATOM     34  H1  UNL     1       5.563  15.891  15.501  1.00  0.00     0.245 HD
ENDBRANCH   6  33
BRANCH   9  35
HETATM   35  O2  UNL     1       7.571  16.120  19.478  1.00  0.00    -0.282 OA
ATOM     36  H2  UNL     1       7.507  15.869  20.393  1.00  0.00     0.245 HD
ENDBRANCH   9  35
TORSDOF 3
ENDMDL
