MODEL 1
REMARK VINA RESULT: -3.078976362      0.000      0.000
REMARK  2 active torsions:
REMARK  status: ('A' for Active; 'I' for Inactive)
REMARK    1  A    between atoms: C4_5  and  C5_6 
REMARK    2  A    between atoms: N2_14  and  C11_15 
ROOT
HETATM    1  C11 UNL     1       8.175  16.932  18.261  1.00  0.00     0.151 C 
HETATM    2  N3  UNL     1       6.940  16.867  17.871  1.00  0.00    -0.263 N 
ATOM      3  H3  UNL     1       6.240  16.923  18.612  1.00  0.00     0.180 HD
HETATM    4  S1  UNL     1       6.317  16.699  16.263  1.00  0.00     0.265 S 
HETATM    5  O2  UNL     1       6.455  15.259  15.875  1.00  0.00    -0.200 OA
HETATM    6  O3  UNL     1       4.878  17.087  16.182  1.00  0.00    -0.200 OA
HETATM    7  C12 UNL     1       7.254  17.691  15.170  1.00  0.00     0.090 A 
HETATM    8  C13 UNL     1       6.496  18.346  14.263  1.00  0.00     0.026 A 
HETATM    9  C14 UNL     1       7.122  19.202  13.379  1.00  0.00     0.002 A 
HETATM   10  C15 UNL     1       8.484  19.394  13.407  1.00  0.00     0.001 A 
HETATM   11  C16 UNL     1       9.278  18.720  14.344  1.00  0.00     0.014 A 
HETATM   12  C17 UNL     1       8.649  17.874  15.212  1.00  0.00    -0.002 A 
HETATM   13  C18 UNL     1       9.593  17.226  16.103  1.00  0.00    -0.010 A 
HETATM   14  C19 UNL     1      10.799  17.031  15.481  1.00  0.00     0.013 A 
HETATM   15  C20 UNL     1      11.834  16.442  16.198  1.00  0.00     0.001 A 
HETATM   16  C21 UNL     1      11.624  16.065  17.528  1.00  0.00     0.001 A 
HETATM   17  C22 UNL     1      10.395  16.279  18.113  1.00  0.00     0.016 A 
HETATM   18  C23 UNL     1       9.343  16.866  17.417  1.00  0.00     0.022 A 
ENDROOT
BRANCH   1  19
HETATM   19  N2  UNL     1       8.447  17.072  19.649  1.00  0.00    -0.202 N 
HETATM   20  C1  UNL     1       8.382  15.976  20.427  1.00  0.00     0.268 A 
HETATM   21  O1  UNL     1       8.079  14.869  19.889  1.00  0.00    -0.266 OA
HETATM   22  C2  UNL     1       8.632  16.021  21.786  1.00  0.00     0.079 A 
HETATM   23  C3  UNL     1       8.959  17.285  22.294  1.00  0.00     0.037 A 
HETATM   24  C4  UNL     1       9.025  18.403  21.492  1.00  0.00     0.059 A 
HETATM   25  N1  UNL     1       8.760  18.240  20.177  1.00  0.00    -0.289 N 
ATOM     26  H1  UNL     1       8.803  19.056  19.567  1.00  0.00     0.188 HD
BRANCH  24  27
HETATM   27  C5  UNL     1       9.367  19.706  22.048  1.00  0.00    -0.008 A 
HETATM   28  C6  UNL     1       8.463  20.711  22.294  1.00  0.00     0.014 A 
HETATM   29  C7  UNL     1       8.857  21.941  22.830  1.00  0.00     0.001 A 
HETATM   30  C8  UNL     1      10.177  22.191  23.132  1.00  0.00     0.000 A 
HETATM   31  C9  UNL     1      11.089  21.189  22.887  1.00  0.00     0.001 A 
HETATM   32  C10 UNL     1      10.696  19.976  22.358  1.00  0.00     0.014 A 
ENDBRANCH  24  27
ENDBRANCH   1  19
TORSDOF 2
ENDMDL
MODEL 2
REMARK VINA RESULT: -3.046063694      2.767      7.509
REMARK  2 active torsions:
REMARK  status: ('A' for Active; 'I' for Inactive)
REMARK    1  A    between atoms: C4_5  and  C5_6 
REMARK    2  A    between atoms: N2_14  and  C11_15 
ROOT
HETATM    1  C11 UNL     1       8.664  18.549  18.416  1.00  0.00     0.151 C 
HETATM    2  N3  UNL     1       9.352  19.635  18.242  1.00  0.00    -0.263 N 
ATOM      3  H3  UNL     1       9.142  20.158  17.392  1.00  0.00     0.180 HD
HETATM    4  S1  UNL     1      10.578  20.317  19.259  1.00  0.00     0.265 S 
HETATM    5  O2  UNL     1      11.840  19.548  19.021  1.00  0.00    -0.200 OA
HETATM    6  O3  UNL     1      10.820  21.756  18.946  1.00  0.00    -0.200 OA
HETATM    7  C12 UNL     1      10.101  20.155  20.934  1.00  0.00     0.090 A 
HETATM    8  C13 UNL     1      10.360  21.257  21.671  1.00  0.00     0.026 A 
HETATM    9  C14 UNL     1       9.979  21.264  22.998  1.00  0.00     0.002 A 
HETATM   10  C15 UNL     1       9.350  20.184  23.571  1.00  0.00     0.001 A 
HETATM   11  C16 UNL     1       9.076  19.037  22.815  1.00  0.00     0.014 A 
HETATM   12  C17 UNL     1       9.460  19.039  21.504  1.00  0.00    -0.002 A 
HETATM   13  C18 UNL     1       9.140  17.782  20.854  1.00  0.00    -0.010 A 
HETATM   14  C19 UNL     1       9.217  16.739  21.739  1.00  0.00     0.013 A 
HETATM   15  C20 UNL     1       8.916  15.457  21.291  1.00  0.00     0.001 A 
HETATM   16  C21 UNL     1       8.544  15.263  19.957  1.00  0.00     0.001 A 
HETATM   17  C22 UNL     1       8.481  16.342  19.101  1.00  0.00     0.016 A 
HETATM   18  C23 UNL     1       8.778  17.633  19.525  1.00  0.00     0.022 A 
ENDROOT
BRANCH   1  19
HETATM   19  N2  UNL     1       7.701  18.185  17.436  1.00  0.00    -0.202 N 
HETATM   20  C1  UNL     1       6.407  18.131  17.800  1.00  0.00     0.268 A 
HETATM   21  O1  UNL     1       6.104  18.407  19.000  1.00  0.00    -0.266 OA
HETATM   22  C2  UNL     1       5.405  17.787  16.912  1.00  0.00     0.079 A 
HETATM   23  C3  UNL     1       5.832  17.499  15.610  1.00  0.00     0.037 A 
HETATM   24  C4  UNL     1       7.158  17.556  15.243  1.00  0.00     0.059 A 
HETATM   25  N1  UNL     1       8.051  17.904  16.195  1.00  0.00    -0.289 N 
ATOM     26  H1  UNL     1       9.038  17.952  15.944  1.00  0.00     0.188 HD
BRANCH  24  27
HETATM   27  C5  UNL     1       7.574  17.251  13.880  1.00  0.00    -0.008 A 
HETATM   28  C6  UNL     1       7.585  15.992  13.331  1.00  0.00     0.014 A 
HETATM   29  C7  UNL     1       7.997  15.767  12.013  1.00  0.00     0.001 A 
HETATM   30  C8  UNL     1       8.409  16.808  11.212  1.00  0.00     0.000 A 
HETATM   31  C9  UNL     1       8.401  18.073  11.756  1.00  0.00     0.001 A 
HETATM   32  C10 UNL     1       7.994  18.292  13.056  1.00  0.00     0.014 A 
ENDBRANCH  24  27
ENDBRANCH   1  19
TORSDOF 2
ENDMDL
MODEL 3
REMARK VINA RESULT: -1.967226577      0.957      1.044
REMARK  2 active torsions:
REMARK  status: ('A' for Active; 'I' for Inactive)
REMARK    1  A    between atoms: C4_5  and  C5_6 
REMARK    2  A    between atoms: N2_14  and  C11_15 
ROOT
HETATM    1  C11 UNL     1       7.915  16.736  18.084  1.00  0.00     0.151 C 
HETATM    2  N3  UNL     1       6.699  17.063  17.778  1.00  0.00    -0.263 N 
ATOM      3  H3  UNL     1       6.134  17.428  18.544  1.00  0.00     0.180 HD
HETATM    4  S1  UNL     1       5.902  16.962  16.242  1.00  0.00     0.265 S 
HETATM    5  O2  UNL     1       5.511  15.532  16.030  1.00  0.00    -0.200 OA
HETATM    6  O3  UNL     1       4.677  17.812  16.196  1.00  0.00    -0.200 OA
HETATM    7  C12 UNL     1       7.007  17.460  14.981  1.00  0.00     0.090 A 
HETATM    8  C13 UNL     1       6.429  18.244  14.044  1.00  0.00     0.026 A 
HETATM    9  C14 UNL     1       7.217  18.741  13.026  1.00  0.00     0.002 A 
HETATM   10  C15 UNL     1       8.560  18.454  12.951  1.00  0.00     0.001 A 
HETATM   11  C16 UNL     1       9.169  17.643  13.917  1.00  0.00     0.014 A 
HETATM   12  C17 UNL     1       8.380  17.154  14.919  1.00  0.00    -0.002 A 
HETATM   13  C18 UNL     1       9.134  16.311  15.827  1.00  0.00    -0.010 A 
HETATM   14  C19 UNL     1      10.138  15.653  15.166  1.00  0.00     0.013 A 
HETATM   15  C20 UNL     1      10.980  14.816  15.890  1.00  0.00     0.001 A 
HETATM   16  C21 UNL     1      10.785  14.666  17.267  1.00  0.00     0.001 A 
HETATM   17  C22 UNL     1       9.762  15.347  17.891  1.00  0.00     0.016 A 
HETATM   18  C23 UNL     1       8.906  16.190  17.189  1.00  0.00     0.022 A 
ENDROOT
BRANCH   1  19
HETATM   19  N2  UNL     1       8.353  16.908  19.426  1.00  0.00    -0.202 N 
HETATM   20  C1  UNL     1       8.306  15.849  20.255  1.00  0.00     0.268 A 
HETATM   21  O1  UNL     1       7.874  14.746  19.803  1.00  0.00    -0.266 OA
HETATM   22  C2  UNL     1       8.711  15.927  21.574  1.00  0.00     0.079 A 
HETATM   23  C3  UNL     1       9.174  17.183  21.985  1.00  0.00     0.037 A 
HETATM   24  C4  UNL     1       9.220  18.263  21.132  1.00  0.00     0.059 A 
HETATM   25  N1  UNL     1       8.797  18.071  19.863  1.00  0.00    -0.289 N 
ATOM     26  H1  UNL     1       8.823  18.858  19.216  1.00  0.00     0.188 HD
BRANCH  24  27
HETATM   27  C5  UNL     1       9.705  19.560  21.588  1.00  0.00    -0.008 A 
HETATM   28  C6  UNL     1      10.187  20.547  20.762  1.00  0.00     0.014 A 
HETATM   29  C7  UNL     1      10.638  21.772  21.264  1.00  0.00     0.001 A 
HETATM   30  C8  UNL     1      10.616  22.035  22.615  1.00  0.00     0.000 A 
HETATM   31  C9  UNL     1      10.134  21.050  23.449  1.00  0.00     0.001 A 
HETATM   32  C10 UNL     1       9.690  19.843  22.951  1.00  0.00     0.014 A 
ENDBRANCH  24  27
ENDBRANCH   1  19
TORSDOF 2
ENDMDL
MODEL 4
REMARK VINA RESULT: -1.667569340      2.436      7.178
REMARK  2 active torsions:
REMARK  status: ('A' for Active; 'I' for Inactive)
REMARK    1  A    between atoms: C4_5  and  C5_6 
REMARK    2  A    between atoms: N2_14  and  C11_15 
ROOT
HETATM    1  C11 UNL     1       8.189  16.636  18.654  1.00  0.00     0.151 C 
HETATM    2  N3  UNL     1       8.690  16.036  19.688  1.00  0.00    -0.263 N 
ATOM      3  H3  UNL     1       9.057  15.100  19.521  1.00  0.00     0.180 HD
HETATM    4  S1  UNL     1       8.822  16.612  21.318  1.00  0.00     0.265 S 
HETATM    5  O2  UNL     1       7.475  16.466  21.957  1.00  0.00    -0.200 OA
HETATM    6  O3  UNL     1       9.819  15.829  22.104  1.00  0.00    -0.200 OA
HETATM    7  C12 UNL     1       9.282  18.299  21.303  1.00  0.00     0.090 A 
HETATM    8  C13 UNL     1      10.210  18.606  22.237  1.00  0.00     0.026 A 
HETATM    9  C14 UNL     1      10.689  19.900  22.285  1.00  0.00     0.002 A 
HETATM   10  C15 UNL     1      10.244  20.865  21.412  1.00  0.00     0.001 A 
HETATM   11  C16 UNL     1       9.284  20.556  20.440  1.00  0.00     0.014 A 
HETATM   12  C17 UNL     1       8.814  19.274  20.402  1.00  0.00    -0.002 A 
HETATM   13  C18 UNL     1       7.809  19.106  19.370  1.00  0.00    -0.010 A 
HETATM   14  C19 UNL     1       7.089  20.258  19.194  1.00  0.00     0.013 A 
HETATM   15  C20 UNL     1       6.095  20.285  18.222  1.00  0.00     0.001 A 
HETATM   16  C21 UNL     1       5.854  19.143  17.451  1.00  0.00     0.001 A 
HETATM   17  C22 UNL     1       6.602  18.005  17.663  1.00  0.00     0.016 A 
HETATM   18  C23 UNL     1       7.601  17.953  18.629  1.00  0.00     0.022 A 
ENDROOT
BRANCH   1  19
HETATM   19  N2  UNL     1       8.191  15.959  17.404  1.00  0.00    -0.202 N 
HETATM   20  C1  UNL     1       8.169  14.613  17.405  1.00  0.00     0.268 A 
HETATM   21  O1  UNL     1       8.149  14.010  18.520  1.00  0.00    -0.266 OA
HETATM   22  C2  UNL     1       8.168  13.874  16.237  1.00  0.00     0.079 A 
HETATM   23  C3  UNL     1       8.191  14.624  15.054  1.00  0.00     0.037 A 
HETATM   24  C4  UNL     1       8.212  16.001  15.059  1.00  0.00     0.059 A 
HETATM   25  N1  UNL     1       8.211  16.618  16.261  1.00  0.00    -0.289 N 
ATOM     26  H1  UNL     1       8.228  17.637  16.286  1.00  0.00     0.188 HD
BRANCH  24  27
HETATM   27  C5  UNL     1       8.236  16.757  13.812  1.00  0.00    -0.008 A 
HETATM   28  C6  UNL     1       8.222  16.195  12.559  1.00  0.00     0.014 A 
HETATM   29  C7  UNL     1       8.245  16.978  11.400  1.00  0.00     0.001 A 
HETATM   30  C8  UNL     1       8.285  18.352  11.476  1.00  0.00     0.000 A 
HETATM   31  C9  UNL     1       8.301  18.923  12.729  1.00  0.00     0.001 A 
HETATM   32  C10 UNL     1       8.277  18.147  13.870  1.00  0.00     0.014 A 
ENDBRANCH  24  27
ENDBRANCH   1  19
TORSDOF 2
ENDMDL
MODEL 5
REMARK VINA RESULT: -0.824433608      2.548      3.127
REMARK  2 active torsions:
REMARK  status: ('A' for Active; 'I' for Inactive)
REMARK    1  A    between atoms: C4_5  and  C5_6 
REMARK    2  A    between atoms: N2_14  and  C11_15 
ROOT
HETATM    1  C11 UNL     1       8.733  17.921  16.572  1.00  0.00     0.151 C 
HETATM    2  N3  UNL     1       8.408  18.937  15.835  1.00  0.00    -0.263 N 
ATOM      3  H3  UNL     1       8.816  19.830  16.111  1.00  0.00     0.180 HD
HETATM    4  S1  UNL     1       7.374  18.983  14.445  1.00  0.00     0.265 S 
HETATM    5  O2  UNL     1       5.959  18.959  14.935  1.00  0.00    -0.200 OA
HETATM    6  O3  UNL     1       7.587  20.219  13.637  1.00  0.00    -0.200 OA
HETATM    7  C12 UNL     1       7.673  17.575  13.451  1.00  0.00     0.090 A 
HETATM    8  C13 UNL     1       7.703  17.853  12.129  1.00  0.00     0.026 A 
HETATM    9  C14 UNL     1       7.983  16.827  11.249  1.00  0.00     0.002 A 
HETATM   10  C15 UNL     1       8.228  15.548  11.691  1.00  0.00     0.001 A 
HETATM   11  C16 UNL     1       8.200  15.250  13.059  1.00  0.00     0.014 A 
HETATM   12  C17 UNL     1       7.920  16.271  13.922  1.00  0.00    -0.002 A 
HETATM   13  C18 UNL     1       7.897  15.814  15.298  1.00  0.00    -0.010 A 
HETATM   14  C19 UNL     1       7.459  14.518  15.378  1.00  0.00     0.013 A 
HETATM   15  C20 UNL     1       7.398  13.908  16.625  1.00  0.00     0.001 A 
HETATM   16  C21 UNL     1       7.781  14.625  17.763  1.00  0.00     0.001 A 
HETATM   17  C22 UNL     1       8.213  15.927  17.636  1.00  0.00     0.016 A 
HETATM   18  C23 UNL     1       8.284  16.560  16.400  1.00  0.00     0.022 A 
ENDROOT
BRANCH   1  19
HETATM   19  N2  UNL     1       9.607  18.126  17.674  1.00  0.00    -0.202 N 
HETATM   20  C1  UNL     1      10.819  17.542  17.647  1.00  0.00     0.268 A 
HETATM   21  O1  UNL     1      11.127  16.834  16.641  1.00  0.00    -0.266 OA
HETATM   22  C2  UNL     1      11.732  17.689  18.675  1.00  0.00     0.079 A 
HETATM   23  C3  UNL     1      11.306  18.487  19.744  1.00  0.00     0.037 A 
HETATM   24  C4  UNL     1      10.065  19.083  19.766  1.00  0.00     0.059 A 
HETATM   25  N1  UNL     1       9.255  18.869  18.706  1.00  0.00    -0.289 N 
ATOM     26  H1  UNL     1       8.331  19.301  18.703  1.00  0.00     0.188 HD
BRANCH  24  27
HETATM   27  C5  UNL     1       9.647  19.909  20.892  1.00  0.00    -0.008 A 
HETATM   28  C6  UNL     1       8.446  19.786  21.547  1.00  0.00     0.014 A 
HETATM   29  C7  UNL     1       8.107  20.612  22.624  1.00  0.00     0.001 A 
HETATM   30  C8  UNL     1       8.972  21.585  23.070  1.00  0.00     0.000 A 
HETATM   31  C9  UNL     1      10.179  21.714  22.417  1.00  0.00     0.001 A 
HETATM   32  C10 UNL     1      10.510  20.898  21.356  1.00  0.00     0.014 A 
ENDBRANCH  24  27
ENDBRANCH   1  19
TORSDOF 2
ENDMDL
