MODEL 1
REMARK VINA RESULT: -5.946503702      0.000      0.000
REMARK  1 active torsions:
REMARK  status: ('A' for Active; 'I' for Inactive)
REMARK    1  A    between atoms: N4_10  and  C4_11 
ROOT
HETATM    1  N1  UNL     1      -5.006  17.945 -11.071  1.00  0.00    -0.062 NA
HETATM    2  C1  UNL     1      -4.289  16.710 -11.013  1.00  0.00     0.211 C 
HETATM    3  N2  UNL     1      -3.767  16.188 -12.071  1.00  0.00    -0.271 N 
ATOM      4  H2  UNL     1      -3.861  16.658 -12.971  1.00  0.00     0.189 HD
HETATM    5  N3  UNL     1      -3.078  14.986 -11.983  1.00  0.00    -0.266 N 
ATOM      6  H3  UNL     1      -2.660  14.563 -12.811  1.00  0.00     0.190 HD
HETATM    7  C2  UNL     1      -2.969  14.354 -10.706  1.00  0.00     0.254 C 
HETATM    8  O1  UNL     1      -1.995  13.613 -10.489  1.00  0.00    -0.270 OA
HETATM    9  C3  UNL     1      -4.046  14.621  -9.688  1.00  0.00     0.238 C 
HETATM   10  N4  UNL     1      -4.176  16.097  -9.741  1.00  0.00    -0.295 N 
ENDROOT
BRANCH  10  11
HETATM   11  C4  UNL     1      -4.168  16.855  -8.552  1.00  0.00     0.143 A 
HETATM   12  C5  UNL     1      -4.169  16.528  -7.224  1.00  0.00     0.158 A 
HETATM   13  N5  UNL     1      -4.150  17.627  -6.447  1.00  0.00    -0.294 N 
HETATM   14  N6  UNL     1      -4.137  18.646  -7.277  1.00  0.00    -0.241 N 
ATOM     15  H5  UNL     1      -4.147  17.662  -5.427  1.00  0.00     0.187 HD
HETATM   16  N7  UNL     1      -4.148  18.224  -8.531  1.00  0.00    -0.270 N 
ATOM     17  H6  UNL     1      -4.121  19.626  -6.993  1.00  0.00     0.208 HD
ATOM     18  H7  UNL     1      -4.141  18.826  -9.355  1.00  0.00     0.190 HD
ENDBRANCH  10  11
TORSDOF 1
ENDMDL
MODEL 2
REMARK VINA RESULT: -5.381946397      2.446      3.512
REMARK  1 active torsions:
REMARK  status: ('A' for Active; 'I' for Inactive)
REMARK    1  A    between atoms: N4_10  and  C4_11 
ROOT
HETATM    1  N1  UNL     1      -4.437  17.072  -6.862  1.00  0.00    -0.062 NA
HETATM    2  C1  UNL     1      -4.046  16.956  -8.231  1.00  0.00     0.211 C 
HETATM    3  N2  UNL     1      -3.739  17.996  -8.931  1.00  0.00    -0.271 N 
ATOM      4  H2  UNL     1      -3.771  18.923  -8.508  1.00  0.00     0.189 HD
HETATM    5  N3  UNL     1      -3.364  17.851 -10.260  1.00  0.00    -0.266 N 
ATOM      6  H3  UNL     1      -3.117  18.664 -10.823  1.00  0.00     0.190 HD
HETATM    7  C2  UNL     1      -3.331  16.537 -10.820  1.00  0.00     0.254 C 
HETATM    8  O1  UNL     1      -2.558  16.311 -11.767  1.00  0.00    -0.270 OA
HETATM    9  C3  UNL     1      -4.241  15.491 -10.230  1.00  0.00     0.238 C 
HETATM   10  N4  UNL     1      -4.006  15.649  -8.775  1.00  0.00    -0.295 N 
ENDROOT
BRANCH  10  11
HETATM   11  C4  UNL     1      -3.734  14.521  -7.972  1.00  0.00     0.143 A 
HETATM   12  C5  UNL     1      -4.219  13.243  -7.946  1.00  0.00     0.158 A 
HETATM   13  N5  UNL     1      -3.629  12.513  -6.980  1.00  0.00    -0.294 N 
HETATM   14  N6  UNL     1      -2.776  13.324  -6.397  1.00  0.00    -0.241 N 
ATOM     15  H5  UNL     1      -3.808  11.536  -6.749  1.00  0.00     0.187 HD
HETATM   16  N7  UNL     1      -2.812  14.521  -6.960  1.00  0.00    -0.270 N 
ATOM     17  H6  UNL     1      -2.168  13.067  -5.619  1.00  0.00     0.208 HD
ATOM     18  H7  UNL     1      -2.241  15.320  -6.683  1.00  0.00     0.190 HD
ENDBRANCH  10  11
TORSDOF 1
ENDMDL
MODEL 3
REMARK VINA RESULT: -5.327566684      2.657      3.731
REMARK  1 active torsions:
REMARK  status: ('A' for Active; 'I' for Inactive)
REMARK    1  A    between atoms: N4_10  and  C4_11 
ROOT
HETATM    1  N1  UNL     1      -3.724  17.154  -6.622  1.00  0.00    -0.062 NA
HETATM    2  C1  UNL     1      -3.865  16.993  -8.035  1.00  0.00     0.211 C 
HETATM    3  N2  UNL     1      -4.273  17.964  -8.782  1.00  0.00    -0.271 N 
ATOM      4  H2  UNL     1      -4.499  18.867  -8.366  1.00  0.00     0.189 HD
HETATM    5  N3  UNL     1      -4.402  17.776 -10.151  1.00  0.00    -0.266 N 
ATOM      6  H3  UNL     1      -4.721  18.535 -10.753  1.00  0.00     0.190 HD
HETATM    7  C2  UNL     1      -4.077  16.497 -10.699  1.00  0.00     0.254 C 
HETATM    8  O1  UNL     1      -3.696  16.433 -11.880  1.00  0.00    -0.270 OA
HETATM    9  C3  UNL     1      -4.216  15.289  -9.809  1.00  0.00     0.238 C 
HETATM   10  N4  UNL     1      -3.530  15.726  -8.569  1.00  0.00    -0.295 N 
ENDROOT
BRANCH  10  11
HETATM   11  C4  UNL     1      -2.563  14.898  -7.962  1.00  0.00     0.143 A 
HETATM   12  C5  UNL     1      -1.262  14.595  -8.256  1.00  0.00     0.158 A 
HETATM   13  N5  UNL     1      -0.741  13.742  -7.354  1.00  0.00    -0.294 N 
HETATM   14  N6  UNL     1      -1.705  13.505  -6.494  1.00  0.00    -0.241 N 
ATOM     15  H5  UNL     1       0.205  13.359  -7.342  1.00  0.00     0.187 HD
HETATM   16  N7  UNL     1      -2.798  14.173  -6.824  1.00  0.00    -0.270 N 
ATOM     17  H6  UNL     1      -1.623  12.890  -5.684  1.00  0.00     0.208 HD
ATOM     18  H7  UNL     1      -3.680  14.153  -6.311  1.00  0.00     0.190 HD
ENDBRANCH  10  11
TORSDOF 1
ENDMDL
MODEL 4
REMARK VINA RESULT: -5.150836763      1.422      1.521
REMARK  1 active torsions:
REMARK  status: ('A' for Active; 'I' for Inactive)
REMARK    1  A    between atoms: N4_10  and  C4_11 
ROOT
HETATM    1  N1  UNL     1      -2.516  17.364 -10.809  1.00  0.00    -0.062 NA
HETATM    2  C1  UNL     1      -2.605  16.002 -10.385  1.00  0.00     0.211 C 
HETATM    3  N2  UNL     1      -1.897  15.079 -10.945  1.00  0.00    -0.271 N 
ATOM      4  H2  UNL     1      -1.259  15.315 -11.704  1.00  0.00     0.189 HD
HETATM    5  N3  UNL     1      -2.007  13.764 -10.511  1.00  0.00    -0.266 N 
ATOM      6  H3  UNL     1      -1.453  13.026 -10.944  1.00  0.00     0.190 HD
HETATM    7  C2  UNL     1      -2.912  13.469  -9.446  1.00  0.00     0.254 C 
HETATM    8  O1  UNL     1      -2.681  12.487  -8.721  1.00  0.00    -0.270 OA
HETATM    9  C3  UNL     1      -4.105  14.371  -9.260  1.00  0.00     0.238 C 
HETATM   10  N4  UNL     1      -3.496  15.722  -9.322  1.00  0.00    -0.295 N 
ENDROOT
BRANCH  10  11
HETATM   11  C4  UNL     1      -3.794  16.682  -8.332  1.00  0.00     0.143 A 
HETATM   12  C5  UNL     1      -3.802  16.657  -6.965  1.00  0.00     0.158 A 
HETATM   13  N5  UNL     1      -4.155  17.851  -6.454  1.00  0.00    -0.294 N 
HETATM   14  N6  UNL     1      -4.370  18.629  -7.490  1.00  0.00    -0.241 N 
ATOM     15  H5  UNL     1      -4.239  18.100  -5.468  1.00  0.00     0.187 HD
HETATM   16  N7  UNL     1      -4.165  17.969  -8.618  1.00  0.00    -0.270 N 
ATOM     17  H6  UNL     1      -4.654  19.607  -7.434  1.00  0.00     0.208 HD
ATOM     18  H7  UNL     1      -4.267  18.357  -9.556  1.00  0.00     0.190 HD
ENDBRANCH  10  11
TORSDOF 1
ENDMDL
MODEL 5
REMARK VINA RESULT: -5.058038323      2.618      3.121
REMARK  1 active torsions:
REMARK  status: ('A' for Active; 'I' for Inactive)
REMARK    1  A    between atoms: N4_10  and  C4_11 
ROOT
HETATM    1  N1  UNL     1      -1.791  16.074  -9.680  1.00  0.00    -0.062 NA
HETATM    2  C1  UNL     1      -2.170  15.056  -8.751  1.00  0.00     0.211 C 
HETATM    3  N2  UNL     1      -1.478  13.974  -8.623  1.00  0.00    -0.271 N 
ATOM      4  H2  UNL     1      -0.642  13.833  -9.190  1.00  0.00     0.189 HD
HETATM    5  N3  UNL     1      -1.874  13.003  -7.713  1.00  0.00    -0.266 N 
ATOM      6  H3  UNL     1      -1.336  12.144  -7.601  1.00  0.00     0.190 HD
HETATM    7  C2  UNL     1      -3.051  13.233  -6.938  1.00  0.00     0.254 C 
HETATM    8  O1  UNL     1      -3.149  12.688  -5.825  1.00  0.00    -0.270 OA
HETATM    9  C3  UNL     1      -4.117  14.129  -7.515  1.00  0.00     0.238 C 
HETATM   10  N4  UNL     1      -3.332  15.298  -7.979  1.00  0.00    -0.295 N 
ENDROOT
BRANCH  10  11
HETATM   11  C4  UNL     1      -3.736  16.607  -7.639  1.00  0.00     0.143 A 
HETATM   12  C5  UNL     1      -3.944  17.251  -6.451  1.00  0.00     0.158 A 
HETATM   13  N5  UNL     1      -4.324  18.528  -6.645  1.00  0.00    -0.294 N 
HETATM   14  N6  UNL     1      -4.356  18.693  -7.947  1.00  0.00    -0.241 N 
ATOM     15  H5  UNL     1      -4.542  19.222  -5.929  1.00  0.00     0.187 HD
HETATM   16  N7  UNL     1      -4.013  17.575  -8.567  1.00  0.00    -0.270 N 
ATOM     17  H6  UNL     1      -4.610  19.562  -8.417  1.00  0.00     0.208 HD
ATOM     18  H7  UNL     1      -3.963  17.453  -9.579  1.00  0.00     0.190 HD
ENDBRANCH  10  11
TORSDOF 1
ENDMDL
