MODEL 1
REMARK VINA RESULT: -6.916491857      0.000      0.000
REMARK  13 active torsions:
REMARK  status: ('A' for Active; 'I' for Inactive)
REMARK    1  A    between atoms: C2_2  and  C3_3 
REMARK    2  A    between atoms: C3_3  and  N1_4 
REMARK    3  A    between atoms: C5_9  and  N3_10 
REMARK    4  A    between atoms: C8_13  and  N4_14 
REMARK    5  A    between atoms: N4_14  and  C9_16 
REMARK    6  A    between atoms: C9_16  and  C10_17 
REMARK    7  A    between atoms: C10_17  and  N5_18 
REMARK    8  A    between atoms: C13_23  and  N7_24 
REMARK    9  A    between atoms: N7_24  and  C14_26 
REMARK   10  A    between atoms: C18_30  and  C19_31 
REMARK   11  A    between atoms: C19_31  and  O1_32 
REMARK   12  A    between atoms: C21_40  and  N11_41 
REMARK   13  A    between atoms: N11_41  and  N12_43 
ROOT
HETATM    1  N3  UNL     1      23.567  17.321  34.937  1.00  0.00    -0.072 N 
HETATM    2  C6  UNL     1      22.465  17.274  35.706  1.00  0.00     0.174 A 
HETATM    3  C7  UNL     1      21.700  16.802  34.657  1.00  0.00     0.139 A 
HETATM    4  C8  UNL     1      20.554  16.364  34.050  1.00  0.00     0.152 A 
HETATM    5  N6  UNL     1      20.640  16.021  32.736  1.00  0.00    -0.173 N 
ATOM      6  H6  UNL     1      19.792  15.692  32.276  1.00  0.00     0.186 HD
HETATM    7  C13 UNL     1      21.758  16.084  32.008  1.00  0.00     0.700 A 
HETATM    8  N8  UNL     1      22.859  16.517  32.635  1.00  0.00    -0.109 N 
ATOM      9  H8  UNL     1      23.735  16.580  32.117  1.00  0.00     0.208 HD
HETATM   10  N9  UNL     1      22.836  16.870  33.933  1.00  0.00    -0.156 N 
ENDROOT
BRANCH   1  11
HETATM   11  C5  UNL     1      24.944  17.701  35.139  1.00  0.00     0.734 A 
HETATM   12  N2  UNL     1      25.561  17.393  36.288  1.00  0.00    -0.019 N 
HETATM   13  C4  UNL     1      26.867  17.750  36.470  1.00  0.00     0.707 A 
ATOM     14  H2  UNL     1      25.058  16.896  37.022  1.00  0.00     0.203 HD
HETATM   15  N1  UNL     1      27.466  17.465  37.559  1.00  0.00    -0.222 N 
HETATM   16  N13 UNL     1      27.525  18.406  35.503  1.00  0.00    -0.020 N 
ATOM     17  H1  UNL     1      26.916  16.968  38.259  1.00  0.00     0.178 HD
HETATM   18  C21 UNL     1      26.906  18.722  34.334  1.00  0.00     0.725 A 
ATOM     19  H13 UNL     1      28.500  18.670  35.645  1.00  0.00     0.203 HD
HETATM   20  N10 UNL     1      25.623  18.361  34.177  1.00  0.00    -0.018 N 
ATOM     21  H10 UNL     1      25.147  18.593  33.305  1.00  0.00     0.203 HD
BRANCH  15  22
HETATM   22  C3  UNL     1      28.817  17.760  37.913  1.00  0.00     0.164 C 
BRANCH  22  23
HETATM   23  C2  UNL     1      28.987  19.091  38.555  1.00  0.00    -0.017 C 
HETATM   24  C1  UNL     1      29.923  19.952  38.177  1.00  0.00     0.008 C 
ENDBRANCH  22  23
ENDBRANCH  15  22
BRANCH  18  25
HETATM   25  N11 UNL     1      27.559  19.360  33.404  1.00  0.00    -0.138 N 
ATOM     26  H11 UNL     1      27.271  19.232  32.434  1.00  0.00     0.205 HD
BRANCH  25  27
HETATM   27  N12 UNL     1      28.618  20.199  33.666  1.00  0.00    -0.331 N 
ATOM     28 2H12 UNL     1      28.581  20.745  34.527  1.00  0.00     0.177 HD
ATOM     29 1H12 UNL     1      29.421  20.296  33.046  1.00  0.00     0.177 HD
ENDBRANCH  25  27
ENDBRANCH  18  25
ENDBRANCH   1  11
BRANCH   4  30
HETATM   30  N4  UNL     1      19.467  16.282  34.687  1.00  0.00    -0.352 N 
ATOM     31  H4  UNL     1      18.682  16.824  34.326  1.00  0.00     0.166 HD
BRANCH  30  32
HETATM   32  C9  UNL     1      19.232  15.521  35.840  1.00  0.00     0.092 C 
BRANCH  32  33
HETATM   33  C10 UNL     1      19.585  14.067  35.593  1.00  0.00     0.315 C 
BRANCH  33  34
HETATM   34  N5  UNL     1      20.796  13.670  36.231  1.00  0.00     0.084 N 
HETATM   35  C11 UNL     1      21.793  13.142  35.349  1.00  0.00     0.309 C 
HETATM   36  C12 UNL     1      20.661  12.865  37.401  1.00  0.00     0.309 C 
ENDBRANCH  33  34
ENDBRANCH  32  33
ENDBRANCH  30  32
ENDBRANCH   4  30
BRANCH   7  37
HETATM   37  N7  UNL     1      21.807  15.755  30.773  1.00  0.00    -0.190 N 
ATOM     38  H7  UNL     1      21.648  14.777  30.531  1.00  0.00     0.184 HD
BRANCH  37  39
HETATM   39  C14 UNL     1      22.070  16.667  29.718  1.00  0.00     0.049 A 
HETATM   40  C15 UNL     1      21.058  17.398  29.124  1.00  0.00     0.030 A 
HETATM   41  C16 UNL     1      21.309  18.293  28.095  1.00  0.00     0.003 A 
HETATM   42  C17 UNL     1      22.570  18.484  27.631  1.00  0.00     0.009 A 
HETATM   43  C18 UNL     1      23.611  17.761  28.210  1.00  0.00    -0.033 A 
HETATM   44  C20 UNL     1      23.346  16.868  29.238  1.00  0.00     0.039 A 
BRANCH  43  45
HETATM   45  C19 UNL     1      24.984  17.992  27.677  1.00  0.00     0.203 C 
BRANCH  45  46
HETATM   46  O1  UNL     1      24.902  19.077  26.819  1.00  0.00    -0.396 OA
ATOM     47  H1  UNL     1      25.793  19.309  26.584  1.00  0.00     0.209 HD
ENDBRANCH  45  46
ENDBRANCH  43  45
ENDBRANCH  37  39
ENDBRANCH   7  37
TORSDOF 13
ENDMDL
MODEL 2
REMARK VINA RESULT: -6.882165874      1.290      1.831
REMARK  13 active torsions:
REMARK  status: ('A' for Active; 'I' for Inactive)
REMARK    1  A    between atoms: C2_2  and  C3_3 
REMARK    2  A    between atoms: C3_3  and  N1_4 
REMARK    3  A    between atoms: C5_9  and  N3_10 
REMARK    4  A    between atoms: C8_13  and  N4_14 
REMARK    5  A    between atoms: N4_14  and  C9_16 
REMARK    6  A    between atoms: C9_16  and  C10_17 
REMARK    7  A    between atoms: C10_17  and  N5_18 
REMARK    8  A    between atoms: C13_23  and  N7_24 
REMARK    9  A    between atoms: N7_24  and  C14_26 
REMARK   10  A    between atoms: C18_30  and  C19_31 
REMARK   11  A    between atoms: C19_31  and  O1_32 
REMARK   12  A    between atoms: C21_40  and  N11_41 
REMARK   13  A    between atoms: N11_41  and  N12_43 
ROOT
HETATM    1  N3  UNL     1      24.203  16.547  34.685  1.00  0.00    -0.072 N 
HETATM    2  C6  UNL     1      23.408  15.672  35.325  1.00  0.00     0.174 A 
HETATM    3  C7  UNL     1      22.913  15.183  34.132  1.00  0.00     0.139 A 
HETATM    4  C8  UNL     1      22.135  14.379  33.342  1.00  0.00     0.152 A 
HETATM    5  N6  UNL     1      22.242  14.542  31.996  1.00  0.00    -0.173 N 
ATOM      6  H6  UNL     1      21.668  13.947  31.400  1.00  0.00     0.186 HD
HETATM    7  C13 UNL     1      23.046  15.426  31.401  1.00  0.00     0.700 A 
HETATM    8  N8  UNL     1      23.792  16.195  32.204  1.00  0.00    -0.109 N 
ATOM      9  H8  UNL     1      24.421  16.884  31.792  1.00  0.00     0.208 HD
HETATM   10  N9  UNL     1      23.730  16.080  33.544  1.00  0.00    -0.156 N 
ENDROOT
BRANCH   1  11
HETATM   11  C5  UNL     1      25.156  17.552  35.088  1.00  0.00     0.734 A 
HETATM   12  N2  UNL     1      25.446  17.717  36.386  1.00  0.00    -0.019 N 
HETATM   13  C4  UNL     1      26.355  18.667  36.760  1.00  0.00     0.707 A 
ATOM     14  H2  UNL     1      24.992  17.137  37.090  1.00  0.00     0.203 HD
HETATM   15  N1  UNL     1      26.640  18.835  37.991  1.00  0.00    -0.222 N 
HETATM   16  N13 UNL     1      26.950  19.430  35.831  1.00  0.00    -0.020 N 
ATOM     17  H1  UNL     1      26.155  18.228  38.652  1.00  0.00     0.178 HD
HETATM   18  C21 UNL     1      26.660  19.268  34.512  1.00  0.00     0.725 A 
ATOM     19  H13 UNL     1      27.627  20.137  36.117  1.00  0.00     0.203 HD
HETATM   20  N10 UNL     1      25.766  18.330  34.168  1.00  0.00    -0.018 N 
ATOM     21  H10 UNL     1      25.540  18.199  33.181  1.00  0.00     0.203 HD
BRANCH  15  22
HETATM   22  C3  UNL     1      27.558  19.772  38.553  1.00  0.00     0.164 C 
BRANCH  22  23
HETATM   23  C2  UNL     1      28.967  19.296  38.555  1.00  0.00    -0.017 C 
HETATM   24  C1  UNL     1      29.946  19.958  37.951  1.00  0.00     0.008 C 
ENDBRANCH  22  23
ENDBRANCH  15  22
BRANCH  18  25
HETATM   25  N11 UNL     1      27.247  20.019  33.622  1.00  0.00    -0.138 N 
ATOM     26  H11 UNL     1      26.694  20.363  32.837  1.00  0.00     0.205 HD
BRANCH  25  27
HETATM   27  N12 UNL     1      28.576  20.369  33.688  1.00  0.00    -0.331 N 
ATOM     28 2H12 UNL     1      29.035  20.295  34.596  1.00  0.00     0.177 HD
ATOM     29 1H12 UNL     1      29.109  20.694  32.882  1.00  0.00     0.177 HD
ENDBRANCH  25  27
ENDBRANCH  18  25
ENDBRANCH   1  11
BRANCH   4  30
HETATM   30  N4  UNL     1      21.356  13.524  33.847  1.00  0.00    -0.352 N 
ATOM     31  H4  UNL     1      21.540  12.546  33.622  1.00  0.00     0.166 HD
BRANCH  30  32
HETATM   32  C9  UNL     1      20.263  13.784  34.686  1.00  0.00     0.092 C 
BRANCH  32  33
HETATM   33  C10 UNL     1      19.232  14.626  33.961  1.00  0.00     0.315 C 
BRANCH  33  34
HETATM   34  N5  UNL     1      19.177  15.971  34.433  1.00  0.00     0.084 N 
HETATM   35  C11 UNL     1      19.720  16.943  33.534  1.00  0.00     0.309 C 
HETATM   36  C12 UNL     1      19.626  16.193  35.769  1.00  0.00     0.309 C 
ENDBRANCH  33  34
ENDBRANCH  32  33
ENDBRANCH  30  32
ENDBRANCH   4  30
BRANCH   7  37
HETATM   37  N7  UNL     1      23.124  15.557  30.130  1.00  0.00    -0.190 N 
ATOM     38  H7  UNL     1      23.523  14.787  29.593  1.00  0.00     0.184 HD
BRANCH  37  39
HETATM   39  C14 UNL     1      22.690  16.707  29.423  1.00  0.00     0.049 A 
HETATM   40  C15 UNL     1      21.356  17.066  29.371  1.00  0.00     0.030 A 
HETATM   41  C16 UNL     1      20.926  18.191  28.683  1.00  0.00     0.003 A 
HETATM   42  C17 UNL     1      21.811  18.987  28.030  1.00  0.00     0.009 A 
HETATM   43  C18 UNL     1      23.163  18.651  28.064  1.00  0.00    -0.033 A 
HETATM   44  C20 UNL     1      23.579  17.522  28.755  1.00  0.00     0.039 A 
BRANCH  43  45
HETATM   45  C19 UNL     1      24.108  19.545  27.337  1.00  0.00     0.203 C 
BRANCH  45  46
HETATM   46  O1  UNL     1      25.194  18.766  26.970  1.00  0.00    -0.396 OA
ATOM     47  H1  UNL     1      25.230  18.776  26.021  1.00  0.00     0.209 HD
ENDBRANCH  45  46
ENDBRANCH  43  45
ENDBRANCH  37  39
ENDBRANCH   7  37
TORSDOF 13
ENDMDL
MODEL 3
REMARK VINA RESULT: -6.660855019      2.726      7.532
REMARK  13 active torsions:
REMARK  status: ('A' for Active; 'I' for Inactive)
REMARK    1  A    between atoms: C2_2  and  C3_3 
REMARK    2  A    between atoms: C3_3  and  N1_4 
REMARK    3  A    between atoms: C5_9  and  N3_10 
REMARK    4  A    between atoms: C8_13  and  N4_14 
REMARK    5  A    between atoms: N4_14  and  C9_16 
REMARK    6  A    between atoms: C9_16  and  C10_17 
REMARK    7  A    between atoms: C10_17  and  N5_18 
REMARK    8  A    between atoms: C13_23  and  N7_24 
REMARK    9  A    between atoms: N7_24  and  C14_26 
REMARK   10  A    between atoms: C18_30  and  C19_31 
REMARK   11  A    between atoms: C19_31  and  O1_32 
REMARK   12  A    between atoms: C21_40  and  N11_41 
REMARK   13  A    between atoms: N11_41  and  N12_43 
ROOT
HETATM    1  N3  UNL     1      22.243  15.541  34.320  1.00  0.00    -0.072 N 
HETATM    2  C6  UNL     1      22.148  14.441  35.088  1.00  0.00     0.174 A 
HETATM    3  C7  UNL     1      22.691  15.099  36.174  1.00  0.00     0.139 A 
HETATM    4  C8  UNL     1      23.135  15.218  37.464  1.00  0.00     0.152 A 
HETATM    5  N6  UNL     1      23.625  16.430  37.841  1.00  0.00    -0.173 N 
ATOM      6  H6  UNL     1      23.956  16.529  38.801  1.00  0.00     0.186 HD
HETATM    7  C13 UNL     1      23.702  17.498  37.045  1.00  0.00     0.700 A 
HETATM    8  N8  UNL     1      23.259  17.345  35.791  1.00  0.00    -0.109 N 
ATOM      9  H8  UNL     1      23.298  18.136  35.148  1.00  0.00     0.208 HD
HETATM   10  N9  UNL     1      22.763  16.171  35.359  1.00  0.00    -0.156 N 
ENDROOT
BRANCH   1  11
HETATM   11  C5  UNL     1      21.914  15.872  32.956  1.00  0.00     0.734 A 
HETATM   12  N2  UNL     1      22.873  15.884  32.020  1.00  0.00    -0.019 N 
HETATM   13  C4  UNL     1      22.553  16.192  30.727  1.00  0.00     0.707 A 
ATOM     14  H2  UNL     1      23.837  15.663  32.271  1.00  0.00     0.203 HD
HETATM   15  N1  UNL     1      23.456  16.207  29.828  1.00  0.00    -0.222 N 
HETATM   16  N13 UNL     1      21.285  16.483  30.401  1.00  0.00    -0.020 N 
ATOM     17  H1  UNL     1      24.402  15.980  30.135  1.00  0.00     0.178 HD
HETATM   18  C21 UNL     1      20.306  16.473  31.345  1.00  0.00     0.725 A 
ATOM     19  H13 UNL     1      21.053  16.713  29.435  1.00  0.00     0.203 HD
HETATM   20  N10 UNL     1      20.643  16.168  32.607  1.00  0.00    -0.018 N 
ATOM     21  H10 UNL     1      19.918  16.158  33.324  1.00  0.00     0.203 HD
BRANCH  15  22
HETATM   22  C3  UNL     1      23.298  16.505  28.441  1.00  0.00     0.164 C 
BRANCH  22  23
HETATM   23  C2  UNL     1      23.654  17.906  28.089  1.00  0.00    -0.017 C 
HETATM   24  C1  UNL     1      22.749  18.872  27.998  1.00  0.00     0.008 C 
ENDBRANCH  22  23
ENDBRANCH  15  22
BRANCH  18  25
HETATM   25  N11 UNL     1      19.079  16.759  31.011  1.00  0.00    -0.138 N 
ATOM     26  H11 UNL     1      18.462  15.996  30.733  1.00  0.00     0.205 HD
BRANCH  25  27
HETATM   27  N12 UNL     1      18.574  18.039  31.015  1.00  0.00    -0.331 N 
ATOM     28 2H12 UNL     1      19.167  18.775  31.399  1.00  0.00     0.177 HD
ATOM     29 1H12 UNL     1      17.650  18.277  30.657  1.00  0.00     0.177 HD
ENDBRANCH  25  27
ENDBRANCH  18  25
ENDBRANCH   1  11
BRANCH   4  30
HETATM   30  N4  UNL     1      23.087  14.243  38.264  1.00  0.00    -0.352 N 
ATOM     31  H4  UNL     1      22.345  14.260  38.963  1.00  0.00     0.166 HD
BRANCH  30  32
HETATM   32  C9  UNL     1      23.953  13.141  38.288  1.00  0.00     0.092 C 
BRANCH  32  33
HETATM   33  C10 UNL     1      23.200  11.873  37.937  1.00  0.00     0.315 C 
BRANCH  33  34
HETATM   34  N5  UNL     1      23.696  11.235  36.762  1.00  0.00     0.084 N 
HETATM   35  C11 UNL     1      24.780  11.916  36.123  1.00  0.00     0.309 C 
HETATM   36  C12 UNL     1      22.720  10.808  35.813  1.00  0.00     0.309 C 
ENDBRANCH  33  34
ENDBRANCH  32  33
ENDBRANCH  30  32
ENDBRANCH   4  30
BRANCH   7  37
HETATM   37  N7  UNL     1      24.170  18.626  37.429  1.00  0.00    -0.190 N 
ATOM     38  H7  UNL     1      23.517  19.308  37.816  1.00  0.00     0.184 HD
BRANCH  37  39
HETATM   39  C14 UNL     1      25.539  18.985  37.351  1.00  0.00     0.049 A 
HETATM   40  C15 UNL     1      26.330  19.077  38.481  1.00  0.00     0.030 A 
HETATM   41  C16 UNL     1      27.671  19.425  38.410  1.00  0.00     0.003 A 
HETATM   42  C17 UNL     1      28.258  19.691  37.215  1.00  0.00     0.009 A 
HETATM   43  C18 UNL     1      27.486  19.607  36.058  1.00  0.00    -0.033 A 
HETATM   44  C20 UNL     1      26.146  19.258  36.143  1.00  0.00     0.039 A 
BRANCH  43  45
HETATM   45  C19 UNL     1      28.160  19.906  34.762  1.00  0.00     0.203 C 
BRANCH  45  46
HETATM   46  O1  UNL     1      27.363  20.825  34.099  1.00  0.00    -0.396 OA
ATOM     47  H1  UNL     1      26.714  20.327  33.616  1.00  0.00     0.209 HD
ENDBRANCH  45  46
ENDBRANCH  43  45
ENDBRANCH  37  39
ENDBRANCH   7  37
TORSDOF 13
ENDMDL
MODEL 4
REMARK VINA RESULT: -6.639588239      2.706      6.999
REMARK  13 active torsions:
REMARK  status: ('A' for Active; 'I' for Inactive)
REMARK    1  A    between atoms: C2_2  and  C3_3 
REMARK    2  A    between atoms: C3_3  and  N1_4 
REMARK    3  A    between atoms: C5_9  and  N3_10 
REMARK    4  A    between atoms: C8_13  and  N4_14 
REMARK    5  A    between atoms: N4_14  and  C9_16 
REMARK    6  A    between atoms: C9_16  and  C10_17 
REMARK    7  A    between atoms: C10_17  and  N5_18 
REMARK    8  A    between atoms: C13_23  and  N7_24 
REMARK    9  A    between atoms: N7_24  and  C14_26 
REMARK   10  A    between atoms: C18_30  and  C19_31 
REMARK   11  A    between atoms: C19_31  and  O1_32 
REMARK   12  A    between atoms: C21_40  and  N11_41 
REMARK   13  A    between atoms: N11_41  and  N12_43 
ROOT
HETATM    1  N3  UNL     1      25.891  17.930  33.708  1.00  0.00    -0.072 N 
HETATM    2  C6  UNL     1      26.570  18.500  34.719  1.00  0.00     0.174 A 
HETATM    3  C7  UNL     1      25.501  18.349  35.580  1.00  0.00     0.139 A 
HETATM    4  C8  UNL     1      24.838  18.457  36.774  1.00  0.00     0.152 A 
HETATM    5  N6  UNL     1      23.565  17.979  36.821  1.00  0.00    -0.173 N 
ATOM      6  H6  UNL     1      23.064  18.054  37.705  1.00  0.00     0.186 HD
HETATM    7  C13 UNL     1      22.927  17.420  35.790  1.00  0.00     0.700 A 
HETATM    8  N8  UNL     1      23.606  17.331  34.640  1.00  0.00    -0.109 N 
ATOM      9  H8  UNL     1      23.156  16.910  33.827  1.00  0.00     0.208 HD
HETATM   10  N9  UNL     1      24.868  17.785  34.532  1.00  0.00    -0.156 N 
ENDROOT
BRANCH   1  11
HETATM   11  C5  UNL     1      26.173  17.618  32.329  1.00  0.00     0.734 A 
HETATM   12  N2  UNL     1      25.602  16.551  31.754  1.00  0.00    -0.019 N 
HETATM   13  C4  UNL     1      25.868  16.264  30.445  1.00  0.00     0.707 A 
ATOM     14  H2  UNL     1      24.972  15.955  32.291  1.00  0.00     0.203 HD
HETATM   15  N1  UNL     1      25.333  15.251  29.886  1.00  0.00    -0.222 N 
HETATM   16  N13 UNL     1      26.699  17.048  29.741  1.00  0.00    -0.020 N 
ATOM     17  H1  UNL     1      24.712  14.690  30.470  1.00  0.00     0.178 HD
HETATM   18  C21 UNL     1      27.283  18.133  30.318  1.00  0.00     0.725 A 
ATOM     19  H13 UNL     1      26.895  16.829  28.765  1.00  0.00     0.203 HD
HETATM   20  N10 UNL     1      27.006  18.395  31.604  1.00  0.00    -0.018 N 
ATOM     21  H10 UNL     1      27.438  19.206  32.048  1.00  0.00     0.203 HD
BRANCH  15  22
HETATM   22  C3  UNL     1      25.500  14.810  28.539  1.00  0.00     0.164 C 
BRANCH  22  23
HETATM   23  C2  UNL     1      24.302  15.038  27.686  1.00  0.00    -0.017 C 
HETATM   24  C1  UNL     1      23.621  16.177  27.701  1.00  0.00     0.008 C 
ENDBRANCH  22  23
ENDBRANCH  15  22
BRANCH  18  25
HETATM   25  N11 UNL     1      28.088  18.884  29.621  1.00  0.00    -0.138 N 
ATOM     26  H11 UNL     1      29.071  18.924  29.893  1.00  0.00     0.205 HD
BRANCH  25  27
HETATM   27  N12 UNL     1      27.679  19.626  28.536  1.00  0.00    -0.331 N 
ATOM     28 2H12 UNL     1      28.256  19.584  27.696  1.00  0.00     0.177 HD
ATOM     29 1H12 UNL     1      26.839  20.204  28.539  1.00  0.00     0.177 HD
ENDBRANCH  25  27
ENDBRANCH  18  25
ENDBRANCH   1  11
BRANCH   4  30
HETATM   30  N4  UNL     1      25.390  18.976  37.783  1.00  0.00    -0.352 N 
ATOM     31  H4  UNL     1      24.906  19.762  38.218  1.00  0.00     0.166 HD
BRANCH  30  32
HETATM   32  C9  UNL     1      26.601  18.579  38.367  1.00  0.00     0.092 C 
BRANCH  32  33
HETATM   33  C10 UNL     1      27.576  19.740  38.397  1.00  0.00     0.315 C 
BRANCH  33  34
HETATM   34  N5  UNL     1      28.816  19.445  37.758  1.00  0.00     0.084 N 
HETATM   35  C11 UNL     1      29.023  18.061  37.462  1.00  0.00     0.309 C 
HETATM   36  C12 UNL     1      29.981  20.032  38.334  1.00  0.00     0.309 C 
ENDBRANCH  33  34
ENDBRANCH  32  33
ENDBRANCH  30  32
ENDBRANCH   4  30
BRANCH   7  37
HETATM   37  N7  UNL     1      21.727  16.981  35.866  1.00  0.00    -0.190 N 
ATOM     38  H7  UNL     1      21.249  17.045  36.765  1.00  0.00     0.184 HD
BRANCH  37  39
HETATM   39  C14 UNL     1      21.020  16.411  34.776  1.00  0.00     0.049 A 
HETATM   40  C15 UNL     1      20.851  15.044  34.658  1.00  0.00     0.030 A 
HETATM   41  C16 UNL     1      20.158  14.481  33.597  1.00  0.00     0.003 A 
HETATM   42  C17 UNL     1      19.617  15.262  32.627  1.00  0.00     0.009 A 
HETATM   43  C18 UNL     1      19.771  16.643  32.719  1.00  0.00    -0.033 A 
HETATM   44  C20 UNL     1      20.467  17.194  33.785  1.00  0.00     0.039 A 
BRANCH  43  45
HETATM   45  C19 UNL     1      19.166  17.473  31.637  1.00  0.00     0.203 C 
BRANCH  45  46
HETATM   46  O1  UNL     1      18.443  18.478  32.261  1.00  0.00    -0.396 OA
ATOM     47  H1  UNL     1      17.535  18.202  32.262  1.00  0.00     0.209 HD
ENDBRANCH  45  46
ENDBRANCH  43  45
ENDBRANCH  37  39
ENDBRANCH   7  37
TORSDOF 13
ENDMDL
MODEL 5
REMARK VINA RESULT: -6.608824959      3.716      7.741
REMARK  13 active torsions:
REMARK  status: ('A' for Active; 'I' for Inactive)
REMARK    1  A    between atoms: C2_2  and  C3_3 
REMARK    2  A    between atoms: C3_3  and  N1_4 
REMARK    3  A    between atoms: C5_9  and  N3_10 
REMARK    4  A    between atoms: C8_13  and  N4_14 
REMARK    5  A    between atoms: N4_14  and  C9_16 
REMARK    6  A    between atoms: C9_16  and  C10_17 
REMARK    7  A    between atoms: C10_17  and  N5_18 
REMARK    8  A    between atoms: C13_23  and  N7_24 
REMARK    9  A    between atoms: N7_24  and  C14_26 
REMARK   10  A    between atoms: C18_30  and  C19_31 
REMARK   11  A    between atoms: C19_31  and  O1_32 
REMARK   12  A    between atoms: C21_40  and  N11_41 
REMARK   13  A    between atoms: N11_41  and  N12_43 
ROOT
HETATM    1  N3  UNL     1      27.072  18.015  31.297  1.00  0.00    -0.072 N 
HETATM    2  C6  UNL     1      28.272  18.028  30.690  1.00  0.00     0.174 A 
HETATM    3  C7  UNL     1      27.699  17.791  29.456  1.00  0.00     0.139 A 
HETATM    4  C8  UNL     1      27.698  17.585  28.102  1.00  0.00     0.152 A 
HETATM    5  N6  UNL     1      26.492  17.390  27.506  1.00  0.00    -0.173 N 
ATOM      6  H6  UNL     1      26.480  17.237  26.498  1.00  0.00     0.186 HD
HETATM    7  C13 UNL     1      25.321  17.384  28.148  1.00  0.00     0.700 A 
HETATM    8  N8  UNL     1      25.360  17.588  29.470  1.00  0.00    -0.109 N 
ATOM      9  H8  UNL     1      24.488  17.593  30.000  1.00  0.00     0.208 HD
HETATM   10  N9  UNL     1      26.523  17.788  30.116  1.00  0.00    -0.156 N 
ENDROOT
BRANCH   1  11
HETATM   11  C5  UNL     1      26.604  18.180  32.651  1.00  0.00     0.734 A 
HETATM   12  N2  UNL     1      25.549  17.477  33.085  1.00  0.00    -0.019 N 
HETATM   13  C4  UNL     1      25.115  17.633  34.371  1.00  0.00     0.707 A 
ATOM     14  H2  UNL     1      25.073  16.828  32.458  1.00  0.00     0.203 HD
HETATM   15  N1  UNL     1      24.112  16.971  34.796  1.00  0.00    -0.222 N 
HETATM   16  N13 UNL     1      25.742  18.488  35.193  1.00  0.00    -0.020 N 
ATOM     17  H1  UNL     1      23.673  16.338  34.127  1.00  0.00     0.178 HD
HETATM   18  C21 UNL     1      26.814  19.205  34.760  1.00  0.00     0.725 A 
ATOM     19  H13 UNL     1      25.413  18.600  36.151  1.00  0.00     0.203 HD
HETATM   20  N10 UNL     1      27.223  19.035  33.493  1.00  0.00    -0.018 N 
ATOM     21  H10 UNL     1      28.025  19.568  33.157  1.00  0.00     0.203 HD
BRANCH  15  22
HETATM   22  C3  UNL     1      23.530  17.011  36.099  1.00  0.00     0.164 C 
BRANCH  22  23
HETATM   23  C2  UNL     1      22.042  17.014  36.086  1.00  0.00    -0.017 C 
HETATM   24  C1  UNL     1      21.338  17.495  35.070  1.00  0.00     0.008 C 
ENDBRANCH  22  23
ENDBRANCH  15  22
BRANCH  18  25
HETATM   25  N11 UNL     1      27.412  20.032  35.570  1.00  0.00    -0.138 N 
ATOM     26  H11 UNL     1      28.107  20.672  35.184  1.00  0.00     0.205 HD
BRANCH  25  27
HETATM   27  N12 UNL     1      27.153  20.085  36.921  1.00  0.00    -0.331 N 
ATOM     28 2H12 UNL     1      27.611  19.393  37.513  1.00  0.00     0.177 HD
ATOM     29 1H12 UNL     1      26.534  20.776  37.344  1.00  0.00     0.177 HD
ENDBRANCH  25  27
ENDBRANCH  18  25
ENDBRANCH   1  11
BRANCH   4  30
HETATM   30  N4  UNL     1      28.774  17.581  27.441  1.00  0.00    -0.352 N 
ATOM     31  H4  UNL     1      28.959  16.755  26.871  1.00  0.00     0.166 HD
BRANCH  30  32
HETATM   32  C9  UNL     1      29.739  18.597  27.412  1.00  0.00     0.092 C 
BRANCH  32  33
HETATM   33  C10 UNL     1      31.125  18.003  27.265  1.00  0.00     0.315 C 
BRANCH  33  34
HETATM   34  N5  UNL     1      32.005  18.819  26.494  1.00  0.00     0.084 N 
HETATM   35  C11 UNL     1      31.954  20.215  26.804  1.00  0.00     0.309 C 
HETATM   36  C12 UNL     1      31.998  18.601  25.084  1.00  0.00     0.309 C 
ENDBRANCH  33  34
ENDBRANCH  32  33
ENDBRANCH  30  32
ENDBRANCH   4  30
BRANCH   7  37
HETATM   37  N7  UNL     1      24.201  17.195  27.558  1.00  0.00    -0.190 N 
ATOM     38  H7  UNL     1      24.215  16.796  26.619  1.00  0.00     0.184 HD
BRANCH  37  39
HETATM   39  C14 UNL     1      22.940  17.507  28.129  1.00  0.00     0.049 A 
HETATM   40  C15 UNL     1      22.316  18.716  27.890  1.00  0.00     0.030 A 
HETATM   41  C16 UNL     1      21.082  19.025  28.443  1.00  0.00     0.003 A 
HETATM   42  C17 UNL     1      20.439  18.141  29.247  1.00  0.00     0.009 A 
HETATM   43  C18 UNL     1      21.044  16.913  29.507  1.00  0.00    -0.033 A 
HETATM   44  C20 UNL     1      22.279  16.616  28.948  1.00  0.00     0.039 A 
BRANCH  43  45
HETATM   45  C19 UNL     1      20.313  15.964  30.395  1.00  0.00     0.203 C 
BRANCH  45  46
HETATM   46  O1  UNL     1      19.200  16.638  30.871  1.00  0.00    -0.396 OA
ATOM     47  H1  UNL     1      18.862  16.130  31.598  1.00  0.00     0.209 HD
ENDBRANCH  45  46
ENDBRANCH  43  45
ENDBRANCH  37  39
ENDBRANCH   7  37
TORSDOF 13
ENDMDL
