MODEL 1
REMARK VINA RESULT: -6.416348938      0.000      0.000
REMARK  17 active torsions:
REMARK  status: ('A' for Active; 'I' for Inactive)
REMARK    1  A    between atoms: N1_2  and  C2_3 
REMARK       I    between atoms: N1_2  and  C4_9 
REMARK    2  A    between atoms: C2_3  and  C3_4 
REMARK    3  A    between atoms: C3_4  and  N2_5 
REMARK       I    between atoms: C4_9  and  N3_11 
REMARK    4  A    between atoms: N3_11  and  C5_13 
REMARK    5  A    between atoms: C8_21  and  N6_22 
REMARK    6  A    between atoms: N8_28  and  C10_29 
REMARK    7  A    between atoms: C10_29  and  O3_30 
REMARK    8  A    between atoms: C10_29  and  C13_39 
REMARK    9  A    between atoms: O3_30  and  C11_31 
REMARK   10  A    between atoms: C11_31  and  N10_35 
REMARK   11  A    between atoms: C13_39  and  N12_40 
REMARK   12  A    between atoms: C13_39  and  C14_44 
REMARK   13  A    between atoms: C14_44  and  C15_45 
REMARK   14  A    between atoms: C15_45  and  C16_46 
REMARK   15  A    between atoms: C16_46  and  N13_47 
REMARK   16  A    between atoms: N13_47  and  N14_49 
REMARK   17  A    between atoms: N14_49  and  N15_50 
ROOT
HETATM    1  N10 UNL     1      21.425  13.590  33.496  1.00  0.00    -0.259 N 
ATOM      2  H10 UNL     1      22.259  13.020  33.347  1.00  0.00     0.181 HD
HETATM    3  C12 UNL     1      20.666  13.457  34.687  1.00  0.00     0.185 C 
HETATM    4  N11 UNL     1      20.044  13.355  35.655  1.00  0.00    -0.172 NA
ENDROOT
BRANCH   1   5
HETATM    5  C11 UNL     1      21.010  14.526  32.518  1.00  0.00     0.228 C 
HETATM    6  N9  UNL     1      19.834  15.116  32.616  1.00  0.00    -0.365 N 
ATOM      7  H92 UNL     1      19.534  15.791  31.911  1.00  0.00     0.159 HD
ATOM      8  H91 UNL     1      19.317  14.813  33.441  1.00  0.00     0.159 HD
BRANCH   5   9
HETATM    9  O3  UNL     1      21.699  14.931  31.416  1.00  0.00    -0.292 OA
BRANCH   9  10
HETATM   10  C10 UNL     1      23.071  15.131  31.257  1.00  0.00     0.287 C 
BRANCH  10  11
HETATM   11  N8  UNL     1      23.166  15.941  30.014  1.00  0.00    -0.135 N 
HETATM   12  C5  UNL     1      24.238  15.882  29.214  1.00  0.00     0.693 A 
HETATM   13  N4  UNL     1      24.020  16.723  28.181  1.00  0.00    -0.182 N 
HETATM   14  C6  UNL     1      22.822  17.299  28.340  1.00  0.00     0.163 A 
ATOM     15  H4  UNL     1      24.662  16.892  27.406  1.00  0.00     0.184 HD
HETATM   16  C7  UNL     1      22.090  18.216  27.624  1.00  0.00     0.290 A 
HETATM   17  C9  UNL     1      22.286  16.797  29.509  1.00  0.00     0.174 A 
HETATM   18  O2  UNL     1      22.545  18.696  26.556  1.00  0.00    -0.265 OA
HETATM   19  N5  UNL     1      20.882  18.620  28.042  1.00  0.00    -0.154 N 
HETATM   20  C8  UNL     1      20.393  18.100  29.197  1.00  0.00     0.680 A 
ATOM     21  H5  UNL     1      20.343  19.300  27.505  1.00  0.00     0.187 HD
HETATM   22  N7  UNL     1      21.081  17.197  29.930  1.00  0.00    -0.173 N 
ATOM     23  H7  UNL     1      20.685  16.824  30.794  1.00  0.00     0.186 HD
BRANCH  12  24
HETATM   24  N3  UNL     1      25.308  15.185  29.338  1.00  0.00    -0.141 N 
HETATM   25  C4  UNL     1      26.533  15.540  28.705  1.00  0.00     0.336 C 
HETATM   26  N1  UNL     1      27.665  15.718  29.545  1.00  0.00    -0.336 N 
HETATM   27  O1  UNL     1      26.627  15.692  27.465  1.00  0.00    -0.246 OA
HETATM   28  C1  UNL     1      27.588  15.533  30.987  1.00  0.00     0.154 C 
ATOM     29  H3  UNL     1      25.279  14.343  29.914  1.00  0.00     0.189 HD
BRANCH  26  30
HETATM   30  C2  UNL     1      28.918  16.103  28.934  1.00  0.00     0.154 C 
BRANCH  30  31
HETATM   31  C3  UNL     1      29.149  17.581  28.903  1.00  0.00     0.249 C 
BRANCH  31  32
HETATM   32  N2  UNL     1      28.705  18.129  27.663  1.00  0.00    -0.078 N 
ATOM     33  H23 UNL     1      27.688  18.124  27.589  1.00  0.00     0.274 HD
ATOM     34  H22 UNL     1      28.856  19.137  27.618  1.00  0.00     0.274 HD
ATOM     35  H21 UNL     1      29.145  17.643  26.882  1.00  0.00     0.274 HD
ENDBRANCH  31  32
ENDBRANCH  30  31
ENDBRANCH  26  30
ENDBRANCH  12  24
BRANCH  20  36
HETATM   36  N6  UNL     1      19.224  18.513  29.569  1.00  0.00    -0.234 N 
ATOM     37  H62 UNL     1      18.375  18.147  29.139  1.00  0.00     0.174 HD
ATOM     38  H61 UNL     1      19.203  19.218  30.307  1.00  0.00     0.174 HD
ENDBRANCH  20  36
ENDBRANCH  10  11
BRANCH  10  39
HETATM   39  C13 UNL     1      23.735  15.996  32.278  1.00  0.00     0.233 C 
BRANCH  39  40
HETATM   40  N12 UNL     1      24.635  15.149  33.121  1.00  0.00    -0.071 N 
ATOM     41 3H12 UNL     1      25.448  15.664  33.459  1.00  0.00     0.274 HD
ATOM     42 2H12 UNL     1      24.222  14.925  34.027  1.00  0.00     0.274 HD
ATOM     43 1H12 UNL     1      24.893  14.315  32.595  1.00  0.00     0.274 HD
ENDBRANCH  39  40
BRANCH  39  44
HETATM   44  C14 UNL     1      22.903  16.718  33.259  1.00  0.00     0.039 C 
BRANCH  44  45
HETATM   45  C15 UNL     1      23.440  16.923  34.624  1.00  0.00     0.024 C 
BRANCH  45  46
HETATM   46  C16 UNL     1      22.230  17.024  35.568  1.00  0.00     0.155 C 
BRANCH  46  47
HETATM   47  N13 UNL     1      21.072  17.550  34.876  1.00  0.00    -0.253 N 
ATOM     48  H13 UNL     1      21.165  18.199  34.094  1.00  0.00     0.196 HD
BRANCH  47  49
HETATM   49  N14 UNL     1      19.966  17.174  35.279  1.00  0.00    -0.249 NA
BRANCH  49  50
HETATM   50  N15 UNL     1      19.021  16.528  35.698  1.00  0.00    -0.261 N 
ATOM     51 2H15 UNL     1      19.607  15.978  36.326  1.00  0.00     0.193 HD
ATOM     52 1H15 UNL     1      18.096  16.138  35.881  1.00  0.00     0.193 HD
ENDBRANCH  49  50
ENDBRANCH  47  49
ENDBRANCH  46  47
ENDBRANCH  45  46
ENDBRANCH  44  45
ENDBRANCH  39  44
ENDBRANCH  10  39
ENDBRANCH   9  10
ENDBRANCH   5   9
ENDBRANCH   1   5
TORSDOF 17
ENDMDL
MODEL 2
REMARK VINA RESULT: -6.376259451      1.559      2.150
REMARK  17 active torsions:
REMARK  status: ('A' for Active; 'I' for Inactive)
REMARK    1  A    between atoms: N1_2  and  C2_3 
REMARK       I    between atoms: N1_2  and  C4_9 
REMARK    2  A    between atoms: C2_3  and  C3_4 
REMARK    3  A    between atoms: C3_4  and  N2_5 
REMARK       I    between atoms: C4_9  and  N3_11 
REMARK    4  A    between atoms: N3_11  and  C5_13 
REMARK    5  A    between atoms: C8_21  and  N6_22 
REMARK    6  A    between atoms: N8_28  and  C10_29 
REMARK    7  A    between atoms: C10_29  and  O3_30 
REMARK    8  A    between atoms: C10_29  and  C13_39 
REMARK    9  A    between atoms: O3_30  and  C11_31 
REMARK   10  A    between atoms: C11_31  and  N10_35 
REMARK   11  A    between atoms: C13_39  and  N12_40 
REMARK   12  A    between atoms: C13_39  and  C14_44 
REMARK   13  A    between atoms: C14_44  and  C15_45 
REMARK   14  A    between atoms: C15_45  and  C16_46 
REMARK   15  A    between atoms: C16_46  and  N13_47 
REMARK   16  A    between atoms: N13_47  and  N14_49 
REMARK   17  A    between atoms: N14_49  and  N15_50 
ROOT
HETATM    1  N10 UNL     1      22.161  12.012  32.421  1.00  0.00    -0.259 N 
ATOM      2  H10 UNL     1      22.139  11.085  32.848  1.00  0.00     0.181 HD
HETATM    3  C12 UNL     1      22.647  12.183  31.100  1.00  0.00     0.185 C 
HETATM    4  N11 UNL     1      23.041  12.329  30.024  1.00  0.00    -0.172 NA
ENDROOT
BRANCH   1   5
HETATM    5  C11 UNL     1      21.708  13.145  33.138  1.00  0.00     0.228 C 
HETATM    6  N9  UNL     1      21.144  13.005  34.323  1.00  0.00    -0.365 N 
ATOM      7  H92 UNL     1      20.818  13.822  34.840  1.00  0.00     0.159 HD
ATOM      8  H91 UNL     1      21.093  12.028  34.612  1.00  0.00     0.159 HD
BRANCH   5   9
HETATM    9  O3  UNL     1      21.776  14.449  32.752  1.00  0.00    -0.292 OA
BRANCH   9  10
HETATM   10  C10 UNL     1      22.897  15.266  32.595  1.00  0.00     0.287 C 
BRANCH  10  11
HETATM   11  N8  UNL     1      22.714  15.858  31.244  1.00  0.00    -0.135 N 
HETATM   12  C5  UNL     1      23.661  15.769  30.301  1.00  0.00     0.693 A 
HETATM   13  N4  UNL     1      23.196  16.396  29.200  1.00  0.00    -0.182 N 
HETATM   14  C6  UNL     1      21.972  16.870  29.458  1.00  0.00     0.163 A 
ATOM     15  H4  UNL     1      23.697  16.493  28.316  1.00  0.00     0.184 HD
HETATM   16  C7  UNL     1      21.039  17.575  28.736  1.00  0.00     0.290 A 
HETATM   17  C9  UNL     1      21.673  16.524  30.761  1.00  0.00     0.174 A 
HETATM   18  O2  UNL     1      21.275  17.908  27.548  1.00  0.00    -0.265 OA
HETATM   19  N5  UNL     1      19.860  17.922  29.274  1.00  0.00    -0.154 N 
HETATM   20  C8  UNL     1      19.608  17.561  30.558  1.00  0.00     0.680 A 
ATOM     21  H5  UNL     1      19.172  18.444  28.732  1.00  0.00     0.187 HD
HETATM   22  N7  UNL     1      20.499  16.869  31.302  1.00  0.00    -0.173 N 
ATOM     23  H7  UNL     1      20.278  16.611  32.265  1.00  0.00     0.186 HD
BRANCH  12  24
HETATM   24  N3  UNL     1      24.815  15.212  30.359  1.00  0.00    -0.141 N 
HETATM   25  C4  UNL     1      25.756  15.285  29.292  1.00  0.00     0.336 C 
HETATM   26  N1  UNL     1      27.035  15.826  29.595  1.00  0.00    -0.336 N 
HETATM   27  O1  UNL     1      25.486  14.894  28.133  1.00  0.00    -0.246 OA
HETATM   28  C1  UNL     1      27.380  16.275  30.937  1.00  0.00     0.154 C 
ATOM     29  H3  UNL     1      25.069  14.698  31.202  1.00  0.00     0.189 HD
BRANCH  26  30
HETATM   30  C2  UNL     1      28.003  15.936  28.527  1.00  0.00     0.154 C 
BRANCH  30  31
HETATM   31  C3  UNL     1      28.020  17.275  27.859  1.00  0.00     0.249 C 
BRANCH  31  32
HETATM   32  N2  UNL     1      27.017  17.339  26.847  1.00  0.00    -0.078 N 
ATOM     33  H23 UNL     1      27.419  17.287  25.911  1.00  0.00     0.274 HD
ATOM     34  H22 UNL     1      26.453  16.489  26.817  1.00  0.00     0.274 HD
ATOM     35  H21 UNL     1      26.442  18.172  26.968  1.00  0.00     0.274 HD
ENDBRANCH  31  32
ENDBRANCH  30  31
ENDBRANCH  26  30
ENDBRANCH  12  24
BRANCH  20  36
HETATM   36  N6  UNL     1      18.462  17.915  31.044  1.00  0.00    -0.234 N 
ATOM     37  H62 UNL     1      17.880  18.608  30.573  1.00  0.00     0.174 HD
ATOM     38  H61 UNL     1      18.178  17.466  31.916  1.00  0.00     0.174 HD
ENDBRANCH  20  36
ENDBRANCH  10  11
BRANCH  10  39
HETATM   39  C13 UNL     1      22.968  16.465  33.484  1.00  0.00     0.233 C 
BRANCH  39  40
HETATM   40  N12 UNL     1      24.405  16.813  33.715  1.00  0.00    -0.071 N 
ATOM     41 3H12 UNL     1      24.968  16.721  32.869  1.00  0.00     0.274 HD
ATOM     42 2H12 UNL     1      24.543  17.812  33.869  1.00  0.00     0.274 HD
ATOM     43 1H12 UNL     1      24.763  16.248  34.484  1.00  0.00     0.274 HD
ENDBRANCH  39  40
BRANCH  39  44
HETATM   44  C14 UNL     1      22.398  16.389  34.841  1.00  0.00     0.039 C 
BRANCH  44  45
HETATM   45  C15 UNL     1      21.296  17.312  35.197  1.00  0.00     0.024 C 
BRANCH  45  46
HETATM   46  C16 UNL     1      20.001  16.693  34.644  1.00  0.00     0.155 C 
BRANCH  46  47
HETATM   47  N13 UNL     1      19.084  16.363  35.714  1.00  0.00    -0.253 N 
ATOM     48  H13 UNL     1      18.345  17.005  36.004  1.00  0.00     0.196 HD
BRANCH  47  49
HETATM   49  N14 UNL     1      19.239  15.266  36.260  1.00  0.00    -0.249 NA
BRANCH  49  50
HETATM   50  N15 UNL     1      19.479  14.361  37.042  1.00  0.00    -0.261 N 
ATOM     51 2H15 UNL     1      20.224  13.982  36.457  1.00  0.00     0.193 HD
ATOM     52 1H15 UNL     1      19.485  13.715  37.832  1.00  0.00     0.193 HD
ENDBRANCH  49  50
ENDBRANCH  47  49
ENDBRANCH  46  47
ENDBRANCH  45  46
ENDBRANCH  44  45
ENDBRANCH  39  44
ENDBRANCH  10  39
ENDBRANCH   9  10
ENDBRANCH   5   9
ENDBRANCH   1   5
TORSDOF 17
ENDMDL
MODEL 3
REMARK VINA RESULT: -6.308630768      1.436      1.774
REMARK  17 active torsions:
REMARK  status: ('A' for Active; 'I' for Inactive)
REMARK    1  A    between atoms: N1_2  and  C2_3 
REMARK       I    between atoms: N1_2  and  C4_9 
REMARK    2  A    between atoms: C2_3  and  C3_4 
REMARK    3  A    between atoms: C3_4  and  N2_5 
REMARK       I    between atoms: C4_9  and  N3_11 
REMARK    4  A    between atoms: N3_11  and  C5_13 
REMARK    5  A    between atoms: C8_21  and  N6_22 
REMARK    6  A    between atoms: N8_28  and  C10_29 
REMARK    7  A    between atoms: C10_29  and  O3_30 
REMARK    8  A    between atoms: C10_29  and  C13_39 
REMARK    9  A    between atoms: O3_30  and  C11_31 
REMARK   10  A    between atoms: C11_31  and  N10_35 
REMARK   11  A    between atoms: C13_39  and  N12_40 
REMARK   12  A    between atoms: C13_39  and  C14_44 
REMARK   13  A    between atoms: C14_44  and  C15_45 
REMARK   14  A    between atoms: C15_45  and  C16_46 
REMARK   15  A    between atoms: C16_46  and  N13_47 
REMARK   16  A    between atoms: N13_47  and  N14_49 
REMARK   17  A    between atoms: N14_49  and  N15_50 
ROOT
HETATM    1  N10 UNL     1      22.166  12.320  31.793  1.00  0.00    -0.259 N 
ATOM      2  H10 UNL     1      21.752  12.474  32.713  1.00  0.00     0.181 HD
HETATM    3  C12 UNL     1      22.603  11.027  31.408  1.00  0.00     0.185 C 
HETATM    4  N11 UNL     1      22.960   9.977  31.087  1.00  0.00    -0.172 NA
ENDROOT
BRANCH   1   5
HETATM    5  C11 UNL     1      22.313  13.395  30.883  1.00  0.00     0.228 C 
HETATM    6  N9  UNL     1      22.185  13.193  29.585  1.00  0.00    -0.365 N 
ATOM      7  H92 UNL     1      22.291  13.967  28.929  1.00  0.00     0.159 HD
ATOM      8  H91 UNL     1      21.980  12.219  29.365  1.00  0.00     0.159 HD
BRANCH   5   9
HETATM    9  O3  UNL     1      22.586  14.696  31.177  1.00  0.00    -0.292 OA
BRANCH   9  10
HETATM   10  C10 UNL     1      23.812  15.363  31.178  1.00  0.00     0.287 C 
BRANCH  10  11
HETATM   11  N8  UNL     1      23.765  16.187  29.941  1.00  0.00    -0.135 N 
HETATM   12  C5  UNL     1      24.827  16.311  29.137  1.00  0.00     0.693 A 
HETATM   13  N4  UNL     1      24.468  17.112  28.111  1.00  0.00    -0.182 N 
HETATM   14  C6  UNL     1      23.192  17.481  28.279  1.00  0.00     0.163 A 
ATOM     15  H4  UNL     1      25.069  17.390  27.335  1.00  0.00     0.184 HD
HETATM   16  C7  UNL     1      22.315  18.269  27.574  1.00  0.00     0.290 A 
HETATM   17  C9  UNL     1      22.753  16.889  29.447  1.00  0.00     0.174 A 
HETATM   18  O2  UNL     1      22.679  18.825  26.507  1.00  0.00    -0.265 OA
HETATM   19  N5  UNL     1      21.058  18.464  27.999  1.00  0.00    -0.154 N 
HETATM   20  C8  UNL     1      20.669  17.862  29.152  1.00  0.00     0.680 A 
ATOM     21  H5  UNL     1      20.412  19.049  27.470  1.00  0.00     0.187 HD
HETATM   22  N7  UNL     1      21.500  17.080  29.875  1.00  0.00    -0.173 N 
ATOM     23  H7  UNL     1      21.176  16.641  30.737  1.00  0.00     0.186 HD
BRANCH  12  24
HETATM   24  N3  UNL     1      25.998  15.800  29.251  1.00  0.00    -0.141 N 
HETATM   25  C4  UNL     1      27.115  16.260  28.496  1.00  0.00     0.336 C 
HETATM   26  N1  UNL     1      28.252  16.698  29.226  1.00  0.00    -0.336 N 
HETATM   27  O1  UNL     1      27.111  16.285  27.243  1.00  0.00    -0.246 OA
HETATM   28  C1  UNL     1      28.288  16.667  30.681  1.00  0.00     0.154 C 
ATOM     29  H3  UNL     1      26.135  15.033  29.910  1.00  0.00     0.189 HD
BRANCH  26  30
HETATM   30  C2  UNL     1      29.392  17.195  28.488  1.00  0.00     0.154 C 
BRANCH  30  31
HETATM   31  C3  UNL     1      29.502  18.687  28.475  1.00  0.00     0.249 C 
BRANCH  31  32
HETATM   32  N2  UNL     1      28.369  19.265  27.831  1.00  0.00    -0.078 N 
ATOM     33  H23 UNL     1      28.003  18.662  27.094  1.00  0.00     0.274 HD
ATOM     34  H22 UNL     1      27.550  19.275  28.440  1.00  0.00     0.274 HD
ATOM     35  H21 UNL     1      28.594  20.197  27.482  1.00  0.00     0.274 HD
ENDBRANCH  31  32
ENDBRANCH  30  31
ENDBRANCH  26  30
ENDBRANCH  12  24
BRANCH  20  36
HETATM   36  N6  UNL     1      19.449  18.074  29.532  1.00  0.00    -0.234 N 
ATOM     37  H62 UNL     1      19.203  18.900  30.076  1.00  0.00     0.174 HD
ATOM     38  H61 UNL     1      18.759  17.373  29.259  1.00  0.00     0.174 HD
ENDBRANCH  20  36
ENDBRANCH  10  11
BRANCH  10  39
HETATM   39  C13 UNL     1      24.008  16.379  32.255  1.00  0.00     0.233 C 
BRANCH  39  40
HETATM   40  N12 UNL     1      25.380  16.218  32.831  1.00  0.00    -0.071 N 
ATOM     41 3H12 UNL     1      25.454  16.602  33.773  1.00  0.00     0.274 HD
ATOM     42 2H12 UNL     1      25.596  15.247  33.056  1.00  0.00     0.274 HD
ATOM     43 1H12 UNL     1      26.059  16.628  32.189  1.00  0.00     0.274 HD
ENDBRANCH  39  40
BRANCH  39  44
HETATM   44  C14 UNL     1      23.123  16.358  33.435  1.00  0.00     0.039 C 
BRANCH  44  45
HETATM   45  C15 UNL     1      23.431  17.265  34.564  1.00  0.00     0.024 C 
BRANCH  45  46
HETATM   46  C16 UNL     1      22.217  17.229  35.508  1.00  0.00     0.155 C 
BRANCH  46  47
HETATM   47  N13 UNL     1      21.022  17.694  34.837  1.00  0.00    -0.253 N 
ATOM     48  H13 UNL     1      21.066  18.353  34.059  1.00  0.00     0.196 HD
BRANCH  47  49
HETATM   49  N14 UNL     1      19.944  17.255  35.253  1.00  0.00    -0.249 NA
BRANCH  49  50
HETATM   50  N15 UNL     1      19.037  16.550  35.661  1.00  0.00    -0.261 N 
ATOM     51 2H15 UNL     1      19.333  16.640  36.633  1.00  0.00     0.193 HD
ATOM     52 1H15 UNL     1      18.218  15.948  35.748  1.00  0.00     0.193 HD
ENDBRANCH  49  50
ENDBRANCH  47  49
ENDBRANCH  46  47
ENDBRANCH  45  46
ENDBRANCH  44  45
ENDBRANCH  39  44
ENDBRANCH  10  39
ENDBRANCH   9  10
ENDBRANCH   5   9
ENDBRANCH   1   5
TORSDOF 17
ENDMDL
MODEL 4
REMARK VINA RESULT: -6.180935642      1.623      1.964
REMARK  17 active torsions:
REMARK  status: ('A' for Active; 'I' for Inactive)
REMARK    1  A    between atoms: N1_2  and  C2_3 
REMARK       I    between atoms: N1_2  and  C4_9 
REMARK    2  A    between atoms: C2_3  and  C3_4 
REMARK    3  A    between atoms: C3_4  and  N2_5 
REMARK       I    between atoms: C4_9  and  N3_11 
REMARK    4  A    between atoms: N3_11  and  C5_13 
REMARK    5  A    between atoms: C8_21  and  N6_22 
REMARK    6  A    between atoms: N8_28  and  C10_29 
REMARK    7  A    between atoms: C10_29  and  O3_30 
REMARK    8  A    between atoms: C10_29  and  C13_39 
REMARK    9  A    between atoms: O3_30  and  C11_31 
REMARK   10  A    between atoms: C11_31  and  N10_35 
REMARK   11  A    between atoms: C13_39  and  N12_40 
REMARK   12  A    between atoms: C13_39  and  C14_44 
REMARK   13  A    between atoms: C14_44  and  C15_45 
REMARK   14  A    between atoms: C15_45  and  C16_46 
REMARK   15  A    between atoms: C16_46  and  N13_47 
REMARK   16  A    between atoms: N13_47  and  N14_49 
REMARK   17  A    between atoms: N14_49  and  N15_50 
ROOT
HETATM    1  N10 UNL     1      22.086  11.816  32.574  1.00  0.00    -0.259 N 
ATOM      2  H10 UNL     1      22.219  10.842  32.300  1.00  0.00     0.181 HD
HETATM    3  C12 UNL     1      21.715  12.144  33.903  1.00  0.00     0.185 C 
HETATM    4  N11 UNL     1      21.414  12.419  34.984  1.00  0.00    -0.172 NA
ENDROOT
BRANCH   1   5
HETATM    5  C11 UNL     1      22.268  12.859  31.635  1.00  0.00     0.228 C 
HETATM    6  N9  UNL     1      22.598  12.584  30.387  1.00  0.00    -0.365 N 
ATOM      7  H92 UNL     1      22.729  13.336  29.710  1.00  0.00     0.159 HD
ATOM      8  H91 UNL     1      22.693  11.582  30.225  1.00  0.00     0.159 HD
BRANCH   5   9
HETATM    9  O3  UNL     1      22.142  14.198  31.851  1.00  0.00    -0.292 OA
BRANCH   9  10
HETATM   10  C10 UNL     1      23.122  15.191  31.838  1.00  0.00     0.287 C 
BRANCH  10  11
HETATM   11  N8  UNL     1      22.838  15.947  30.589  1.00  0.00    -0.135 N 
HETATM   12  C5  UNL     1      23.723  16.012  29.587  1.00  0.00     0.693 A 
HETATM   13  N4  UNL     1      23.174  16.761  28.608  1.00  0.00    -0.182 N 
HETATM   14  C6  UNL     1      21.958  17.159  29.001  1.00  0.00     0.163 A 
ATOM     15  H4  UNL     1      23.613  16.988  27.716  1.00  0.00     0.184 HD
HETATM   16  C7  UNL     1      20.964  17.923  28.437  1.00  0.00     0.290 A 
HETATM   17  C9  UNL     1      21.753  16.638  30.263  1.00  0.00     0.174 A 
HETATM   18  O2  UNL     1      21.115  18.414  27.291  1.00  0.00    -0.265 OA
HETATM   19  N5  UNL     1      19.816  18.160  29.088  1.00  0.00    -0.154 N 
HETATM   20  C8  UNL     1      19.657  17.628  30.327  1.00  0.00     0.680 A 
ATOM     21  H5  UNL     1      19.082  18.727  28.663  1.00  0.00     0.187 HD
HETATM   22  N7  UNL     1      20.609  16.872  30.917  1.00  0.00    -0.173 N 
ATOM     23  H7  UNL     1      20.457  16.486  31.849  1.00  0.00     0.186 HD
BRANCH  12  24
HETATM   24  N3  UNL     1      24.891  15.488  29.500  1.00  0.00    -0.141 N 
HETATM   25  C4  UNL     1      26.085  16.231  29.727  1.00  0.00     0.336 C 
HETATM   26  N1  UNL     1      26.964  15.749  30.733  1.00  0.00    -0.336 N 
HETATM   27  O1  UNL     1      26.363  17.267  29.078  1.00  0.00    -0.246 OA
HETATM   28  C1  UNL     1      26.673  14.542  31.492  1.00  0.00     0.154 C 
ATOM     29  H3  UNL     1      24.968  14.500  29.258  1.00  0.00     0.189 HD
BRANCH  26  30
HETATM   30  C2  UNL     1      28.172  16.497  31.004  1.00  0.00     0.154 C 
BRANCH  30  31
HETATM   31  C3  UNL     1      28.070  17.405  32.188  1.00  0.00     0.249 C 
BRANCH  31  32
HETATM   32  N2  UNL     1      27.350  18.589  31.848  1.00  0.00    -0.078 N 
ATOM     33  H23 UNL     1      27.959  19.405  31.807  1.00  0.00     0.274 HD
ATOM     34  H22 UNL     1      27.043  18.579  30.875  1.00  0.00     0.274 HD
ATOM     35  H21 UNL     1      26.570  18.728  32.491  1.00  0.00     0.274 HD
ENDBRANCH  31  32
ENDBRANCH  30  31
ENDBRANCH  26  30
ENDBRANCH  12  24
BRANCH  20  36
HETATM   36  N6  UNL     1      18.536  17.879  30.925  1.00  0.00    -0.234 N 
ATOM     37  H62 UNL     1      18.203  17.291  31.689  1.00  0.00     0.174 HD
ATOM     38  H61 UNL     1      18.013  18.689  30.591  1.00  0.00     0.174 HD
ENDBRANCH  20  36
ENDBRANCH  10  11
BRANCH  10  39
HETATM   39  C13 UNL     1      23.016  16.236  32.899  1.00  0.00     0.233 C 
BRANCH  39  40
HETATM   40  N12 UNL     1      24.390  16.570  33.391  1.00  0.00    -0.071 N 
ATOM     41 3H12 UNL     1      25.034  15.783  33.307  1.00  0.00     0.274 HD
ATOM     42 2H12 UNL     1      24.877  17.219  32.773  1.00  0.00     0.274 HD
ATOM     43 1H12 UNL     1      24.323  16.919  34.347  1.00  0.00     0.274 HD
ENDBRANCH  39  40
BRANCH  39  44
HETATM   44  C14 UNL     1      22.261  15.938  34.130  1.00  0.00     0.039 C 
BRANCH  44  45
HETATM   45  C15 UNL     1      21.468  17.022  34.752  1.00  0.00     0.024 C 
BRANCH  45  46
HETATM   46  C16 UNL     1      19.996  16.763  34.389  1.00  0.00     0.155 C 
BRANCH  46  47
HETATM   47  N13 UNL     1      19.187  16.601  35.579  1.00  0.00    -0.253 N 
ATOM     48  H13 UNL     1      18.701  17.389  36.007  1.00  0.00     0.196 HD
BRANCH  47  49
HETATM   49  N14 UNL     1      19.115  15.461  36.051  1.00  0.00    -0.249 NA
BRANCH  49  50
HETATM   50  N15 UNL     1      19.355  14.370  36.539  1.00  0.00    -0.261 N 
ATOM     51 2H15 UNL     1      20.034  14.753  37.196  1.00  0.00     0.193 HD
ATOM     52 1H15 UNL     1      19.378  13.377  36.771  1.00  0.00     0.193 HD
ENDBRANCH  49  50
ENDBRANCH  47  49
ENDBRANCH  46  47
ENDBRANCH  45  46
ENDBRANCH  44  45
ENDBRANCH  39  44
ENDBRANCH  10  39
ENDBRANCH   9  10
ENDBRANCH   5   9
ENDBRANCH   1   5
TORSDOF 17
ENDMDL
MODEL 5
REMARK VINA RESULT: -6.090525034      2.340      7.229
REMARK  17 active torsions:
REMARK  status: ('A' for Active; 'I' for Inactive)
REMARK    1  A    between atoms: N1_2  and  C2_3 
REMARK       I    between atoms: N1_2  and  C4_9 
REMARK    2  A    between atoms: C2_3  and  C3_4 
REMARK    3  A    between atoms: C3_4  and  N2_5 
REMARK       I    between atoms: C4_9  and  N3_11 
REMARK    4  A    between atoms: N3_11  and  C5_13 
REMARK    5  A    between atoms: C8_21  and  N6_22 
REMARK    6  A    between atoms: N8_28  and  C10_29 
REMARK    7  A    between atoms: C10_29  and  O3_30 
REMARK    8  A    between atoms: C10_29  and  C13_39 
REMARK    9  A    between atoms: O3_30  and  C11_31 
REMARK   10  A    between atoms: C11_31  and  N10_35 
REMARK   11  A    between atoms: C13_39  and  N12_40 
REMARK   12  A    between atoms: C13_39  and  C14_44 
REMARK   13  A    between atoms: C14_44  and  C15_45 
REMARK   14  A    between atoms: C15_45  and  C16_46 
REMARK   15  A    between atoms: C16_46  and  N13_47 
REMARK   16  A    between atoms: N13_47  and  N14_49 
REMARK   17  A    between atoms: N14_49  and  N15_50 
ROOT
HETATM    1  N10 UNL     1      25.481  13.460  28.876  1.00  0.00    -0.259 N 
ATOM      2  H10 UNL     1      26.496  13.387  28.809  1.00  0.00     0.181 HD
HETATM    3  C12 UNL     1      24.765  12.686  29.825  1.00  0.00     0.185 C 
HETATM    4  N11 UNL     1      24.175  12.060  30.596  1.00  0.00    -0.172 NA
ENDROOT
BRANCH   1   5
HETATM    5  C11 UNL     1      24.765  14.334  28.023  1.00  0.00     0.228 C 
HETATM    6  N9  UNL     1      24.540  14.005  26.766  1.00  0.00    -0.365 N 
ATOM      7  H92 UNL     1      24.023  14.635  26.151  1.00  0.00     0.159 HD
ATOM      8  H91 UNL     1      24.932  13.094  26.529  1.00  0.00     0.159 HD
BRANCH   5   9
HETATM    9  O3  UNL     1      24.240  15.551  28.339  1.00  0.00    -0.292 OA
BRANCH   9  10
HETATM   10  C10 UNL     1      23.182  15.861  29.194  1.00  0.00     0.287 C 
BRANCH  10  11
HETATM   11  N8  UNL     1      23.838  16.039  30.516  1.00  0.00    -0.135 N 
HETATM   12  C5  UNL     1      23.349  15.478  31.628  1.00  0.00     0.693 A 
HETATM   13  N4  UNL     1      24.163  15.822  32.648  1.00  0.00    -0.182 N 
HETATM   14  C6  UNL     1      25.149  16.591  32.172  1.00  0.00     0.163 A 
ATOM     15  H4  UNL     1      24.046  15.541  33.622  1.00  0.00     0.184 HD
HETATM   16  C7  UNL     1      26.237  17.219  32.729  1.00  0.00     0.290 A 
HETATM   17  C9  UNL     1      24.934  16.725  30.814  1.00  0.00     0.174 A 
HETATM   18  O2  UNL     1      26.464  17.120  33.961  1.00  0.00    -0.265 OA
HETATM   19  N5  UNL     1      27.079  17.946  31.980  1.00  0.00    -0.154 N 
HETATM   20  C8  UNL     1      26.830  18.051  30.650  1.00  0.00     0.680 A 
ATOM     21  H5  UNL     1      27.885  18.409  32.400  1.00  0.00     0.187 HD
HETATM   22  N7  UNL     1      25.772  17.450  30.063  1.00  0.00    -0.173 N 
ATOM     23  H7  UNL     1      25.613  17.548  29.060  1.00  0.00     0.186 HD
BRANCH  12  24
HETATM   24  N3  UNL     1      22.309  14.741  31.776  1.00  0.00    -0.141 N 
HETATM   25  C4  UNL     1      21.700  14.518  33.044  1.00  0.00     0.336 C 
HETATM   26  N1  UNL     1      20.328  14.863  33.172  1.00  0.00    -0.336 N 
HETATM   27  O1  UNL     1      22.332  14.041  34.016  1.00  0.00    -0.246 OA
HETATM   28  C1  UNL     1      19.567  15.406  32.055  1.00  0.00     0.154 C 
ATOM     29  H3  UNL     1      21.902  14.297  30.953  1.00  0.00     0.189 HD
BRANCH  26  30
HETATM   30  C2  UNL     1      19.689  14.673  34.455  1.00  0.00     0.154 C 
BRANCH  30  31
HETATM   31  C3  UNL     1      19.047  15.908  35.001  1.00  0.00     0.249 C 
BRANCH  31  32
HETATM   32  N2  UNL     1      20.027  16.918  35.235  1.00  0.00    -0.078 N 
ATOM     33  H23 UNL     1      20.512  16.777  36.121  1.00  0.00     0.274 HD
ATOM     34  H22 UNL     1      20.826  16.823  34.608  1.00  0.00     0.274 HD
ATOM     35  H21 UNL     1      19.605  17.844  35.176  1.00  0.00     0.274 HD
ENDBRANCH  31  32
ENDBRANCH  30  31
ENDBRANCH  26  30
ENDBRANCH  12  24
BRANCH  20  36
HETATM   36  N6  UNL     1      27.663  18.762  29.960  1.00  0.00    -0.234 N 
ATOM     37  H62 UNL     1      28.373  19.334  30.417  1.00  0.00     0.174 HD
ATOM     38  H61 UNL     1      27.569  18.717  28.945  1.00  0.00     0.174 HD
ENDBRANCH  20  36
ENDBRANCH  10  11
BRANCH  10  39
HETATM   39  C13 UNL     1      22.514  17.177  28.966  1.00  0.00     0.233 C 
BRANCH  39  40
HETATM   40  N12 UNL     1      21.081  17.074  29.385  1.00  0.00    -0.071 N 
ATOM     41 3H12 UNL     1      20.980  16.756  30.350  1.00  0.00     0.274 HD
ATOM     42 2H12 UNL     1      20.640  17.988  29.490  1.00  0.00     0.274 HD
ATOM     43 1H12 UNL     1      20.585  16.476  28.724  1.00  0.00     0.274 HD
ENDBRANCH  39  40
BRANCH  39  44
HETATM   44  C14 UNL     1      22.446  17.722  27.598  1.00  0.00     0.039 C 
BRANCH  44  45
HETATM   45  C15 UNL     1      22.784  19.149  27.389  1.00  0.00     0.024 C 
BRANCH  45  46
HETATM   46  C16 UNL     1      24.187  19.365  27.978  1.00  0.00     0.155 C 
BRANCH  46  47
HETATM   47  N13 UNL     1      25.209  19.184  26.968  1.00  0.00    -0.253 N 
ATOM     48  H13 UNL     1      25.316  19.836  26.191  1.00  0.00     0.196 HD
BRANCH  47  49
HETATM   49  N14 UNL     1      25.945  18.199  27.093  1.00  0.00    -0.249 NA
BRANCH  49  50
HETATM   50  N15 UNL     1      26.698  17.258  26.907  1.00  0.00    -0.261 N 
ATOM     51 2H15 UNL     1      27.268  17.484  27.722  1.00  0.00     0.193 HD
ATOM     52 1H15 UNL     1      27.170  16.429  26.546  1.00  0.00     0.193 HD
ENDBRANCH  49  50
ENDBRANCH  47  49
ENDBRANCH  46  47
ENDBRANCH  45  46
ENDBRANCH  44  45
ENDBRANCH  39  44
ENDBRANCH  10  39
ENDBRANCH   9  10
ENDBRANCH   5   9
ENDBRANCH   1   5
TORSDOF 17
ENDMDL
