MODEL 1
REMARK VINA RESULT: -7.692623693      0.000      0.000
REMARK  12 active torsions:
REMARK  status: ('A' for Active; 'I' for Inactive)
REMARK    1  A    between atoms: C2_2  and  O1_3 
REMARK    2  A    between atoms: C2_2  and  C3_5 
REMARK    3  A    between atoms: C3_5  and  N1_6 
REMARK    4  A    between atoms: N1_6  and  C4_8 
REMARK    5  A    between atoms: N5_19  and  C8_20 
REMARK    6  A    between atoms: C8_20  and  C9_21 
REMARK    7  A    between atoms: N7_25  and  C12_26 
REMARK    8  A    between atoms: C12_26  and  C13_27 
REMARK    9  A    between atoms: C13_27  and  C14_28 
REMARK   10  A    between atoms: C14_28  and  S1_29 
REMARK   11  A    between atoms: S1_29  and  C15_32 
REMARK   12  A    between atoms: C15_32  and  O4_35 
ROOT
HETATM    1  C4  UNL     1      25.912  16.404  28.061  1.00  0.00     0.681 A 
HETATM    2  N2  UNL     1      26.869  17.307  28.274  1.00  0.00    -0.175 N 
ATOM      3  H2  UNL     1      27.820  16.979  28.439  1.00  0.00     0.186 HD
HETATM    4  C5  UNL     1      26.634  18.639  28.279  1.00  0.00     0.145 A 
HETATM    5  N3  UNL     1      27.605  19.436  28.490  1.00  0.00    -0.383 N 
ATOM      6  H31 UNL     1      27.429  20.441  28.495  1.00  0.00     0.157 HD
ATOM      7  H32 UNL     1      28.556  19.107  28.656  1.00  0.00     0.157 HD
HETATM    8  C6  UNL     1      25.348  19.083  28.055  1.00  0.00     0.123 A 
HETATM    9  N4  UNL     1      24.770  20.300  27.992  1.00  0.00    -0.346 N 
ATOM     10  H4  UNL     1      25.241  21.197  28.114  1.00  0.00     0.167 HD
HETATM   11  C7  UNL     1      23.448  20.116  27.738  1.00  0.00     0.185 A 
HETATM   12  N5  UNL     1      23.167  18.813  27.637  1.00  0.00    -0.323 N 
HETATM   13  C19 UNL     1      24.334  18.168  27.832  1.00  0.00     0.155 A 
HETATM   14  N8  UNL     1      24.657  16.868  27.843  1.00  0.00    -0.174 N 
ATOM     15  H8  UNL     1      23.915  16.188  27.678  1.00  0.00     0.186 HD
ENDROOT
BRANCH  12  16
HETATM   16  C8  UNL     1      21.894  18.164  27.375  1.00  0.00     0.171 C 
BRANCH  16  17
HETATM   17  C9  UNL     1      21.196  17.779  28.630  1.00  0.00    -0.021 A 
HETATM   18  C10 UNL     1      20.153  18.434  29.244  1.00  0.00     0.055 A 
HETATM   19  C11 UNL     1      19.848  17.698  30.375  1.00  0.00     0.118 A 
HETATM   20  N6  UNL     1      18.835  17.975  31.342  1.00  0.00    -0.083 NA
HETATM   21  N7  UNL     1      20.662  16.631  30.463  1.00  0.00    -0.345 N 
HETATM   22  C18 UNL     1      21.485  16.676  29.404  1.00  0.00     0.101 A 
BRANCH  21  23
HETATM   23  C12 UNL     1      20.649  15.628  31.508  1.00  0.00     0.130 C 
BRANCH  23  24
HETATM   24  C13 UNL     1      21.789  15.922  32.470  1.00  0.00     0.035 C 
BRANCH  24  25
HETATM   25  C14 UNL     1      21.666  15.051  33.710  1.00  0.00     0.145 C 
BRANCH  25  26
HETATM   26  S1  UNL     1      21.037  16.123  35.008  1.00  0.00     0.176 S 
HETATM   27  O2  UNL     1      20.870  17.521  34.533  1.00  0.00    -0.225 OA
HETATM   28  O3  UNL     1      22.006  16.077  36.148  1.00  0.00    -0.225 OA
BRANCH  26  29
HETATM   29  C15 UNL     1      19.472  15.403  35.514  1.00  0.00     0.153 C 
HETATM   30  C16 UNL     1      19.771  14.631  36.802  1.00  0.00     0.063 C 
HETATM   31  C17 UNL     1      19.065  14.441  34.429  1.00  0.00     0.063 C 
BRANCH  29  32
HETATM   32  O4  UNL     1      18.556  16.412  35.711  1.00  0.00    -0.375 OA
ATOM     33  H4  UNL     1      17.683  16.037  35.740  1.00  0.00     0.211 HD
ENDBRANCH  29  32
ENDBRANCH  26  29
ENDBRANCH  25  26
ENDBRANCH  24  25
ENDBRANCH  23  24
ENDBRANCH  21  23
ENDBRANCH  16  17
ENDBRANCH  12  16
BRANCH   1  34
HETATM   34  N1  UNL     1      26.043  15.132  28.039  1.00  0.00    -0.224 N 
ATOM     35  H1  UNL     1      26.979  14.728  28.082  1.00  0.00     0.177 HD
BRANCH  34  36
HETATM   36  C3  UNL     1      24.904  14.254  27.954  1.00  0.00     0.169 C 
BRANCH  36  37
HETATM   37  C2  UNL     1      24.765  13.554  29.298  1.00  0.00     0.132 C 
HETATM   38  C1  UNL     1      23.280  13.495  29.595  1.00  0.00     0.041 C 
BRANCH  37  39
HETATM   39  O1  UNL     1      25.325  12.295  29.211  1.00  0.00    -0.394 OA
ATOM     40  H1  UNL     1      25.323  11.966  28.320  1.00  0.00     0.210 HD
ENDBRANCH  37  39
ENDBRANCH  36  37
ENDBRANCH  34  36
ENDBRANCH   1  34
TORSDOF 12
ENDMDL
MODEL 2
REMARK VINA RESULT: -7.611606613      2.346      4.642
REMARK  12 active torsions:
REMARK  status: ('A' for Active; 'I' for Inactive)
REMARK    1  A    between atoms: C2_2  and  O1_3 
REMARK    2  A    between atoms: C2_2  and  C3_5 
REMARK    3  A    between atoms: C3_5  and  N1_6 
REMARK    4  A    between atoms: N1_6  and  C4_8 
REMARK    5  A    between atoms: N5_19  and  C8_20 
REMARK    6  A    between atoms: C8_20  and  C9_21 
REMARK    7  A    between atoms: N7_25  and  C12_26 
REMARK    8  A    between atoms: C12_26  and  C13_27 
REMARK    9  A    between atoms: C13_27  and  C14_28 
REMARK   10  A    between atoms: C14_28  and  S1_29 
REMARK   11  A    between atoms: S1_29  and  C15_32 
REMARK   12  A    between atoms: C15_32  and  O4_35 
ROOT
HETATM    1  C4  UNL     1      23.208  17.958  28.197  1.00  0.00     0.681 A 
HETATM    2  N2  UNL     1      22.193  18.819  28.251  1.00  0.00    -0.175 N 
ATOM      3  H2  UNL     1      22.316  19.744  27.838  1.00  0.00     0.186 HD
HETATM    4  C5  UNL     1      21.007  18.522  28.828  1.00  0.00     0.145 A 
HETATM    5  N3  UNL     1      20.086  19.403  28.838  1.00  0.00    -0.383 N 
ATOM      6  H31 UNL     1      19.192  19.179  29.273  1.00  0.00     0.157 HD
ATOM      7  H32 UNL     1      20.210  20.327  28.425  1.00  0.00     0.157 HD
HETATM    8  C6  UNL     1      20.839  17.272  29.386  1.00  0.00     0.123 A 
HETATM    9  N4  UNL     1      19.825  16.654  30.023  1.00  0.00    -0.346 N 
ATOM     10  H4  UNL     1      18.907  17.053  30.222  1.00  0.00     0.167 HD
HETATM   11  C7  UNL     1      20.245  15.404  30.354  1.00  0.00     0.185 A 
HETATM   12  N5  UNL     1      21.502  15.209  29.943  1.00  0.00    -0.323 N 
HETATM   13  C19 UNL     1      21.877  16.357  29.345  1.00  0.00     0.155 A 
HETATM   14  N8  UNL     1      23.016  16.736  28.753  1.00  0.00    -0.174 N 
ATOM     15  H8  UNL     1      23.785  16.066  28.717  1.00  0.00     0.186 HD
ENDROOT
BRANCH  12  16
HETATM   16  C8  UNL     1      22.342  14.032  30.081  1.00  0.00     0.171 C 
BRANCH  16  17
HETATM   17  C9  UNL     1      22.393  13.546  31.486  1.00  0.00    -0.021 A 
HETATM   18  C10 UNL     1      21.870  12.377  31.988  1.00  0.00     0.055 A 
HETATM   19  C11 UNL     1      22.169  12.369  33.338  1.00  0.00     0.118 A 
HETATM   20  N6  UNL     1      21.835  11.362  34.294  1.00  0.00    -0.083 NA
HETATM   21  N7  UNL     1      22.850  13.482  33.664  1.00  0.00    -0.345 N 
HETATM   22  C18 UNL     1      22.989  14.202  32.542  1.00  0.00     0.101 A 
BRANCH  21  23
HETATM   23  C12 UNL     1      23.337  13.831  34.983  1.00  0.00     0.130 C 
BRANCH  23  24
HETATM   24  C13 UNL     1      23.357  15.348  35.102  1.00  0.00     0.035 C 
BRANCH  24  25
HETATM   25  C14 UNL     1      22.228  15.817  36.004  1.00  0.00     0.145 C 
BRANCH  25  26
HETATM   26  S1  UNL     1      20.985  16.525  34.915  1.00  0.00     0.176 S 
HETATM   27  O2  UNL     1      21.428  16.516  33.497  1.00  0.00    -0.225 OA
HETATM   28  O3  UNL     1      20.729  17.929  35.367  1.00  0.00    -0.225 OA
BRANCH  26  29
HETATM   29  C15 UNL     1      19.509  15.532  35.156  1.00  0.00     0.153 C 
HETATM   30  C16 UNL     1      19.845  14.562  36.293  1.00  0.00     0.063 C 
HETATM   31  C17 UNL     1      19.290  14.762  33.880  1.00  0.00     0.063 C 
BRANCH  29  32
HETATM   32  O4  UNL     1      18.456  16.361  35.472  1.00  0.00    -0.375 OA
ATOM     33  H4  UNL     1      18.037  16.043  36.263  1.00  0.00     0.211 HD
ENDBRANCH  29  32
ENDBRANCH  26  29
ENDBRANCH  25  26
ENDBRANCH  24  25
ENDBRANCH  23  24
ENDBRANCH  21  23
ENDBRANCH  16  17
ENDBRANCH  12  16
BRANCH   1  34
HETATM   34  N1  UNL     1      24.359  18.154  27.673  1.00  0.00    -0.224 N 
ATOM     35  H1  UNL     1      24.444  18.797  26.886  1.00  0.00     0.177 HD
BRANCH  34  36
HETATM   36  C3  UNL     1      25.539  17.489  28.166  1.00  0.00     0.169 C 
BRANCH  36  37
HETATM   37  C2  UNL     1      26.723  17.999  27.358  1.00  0.00     0.132 C 
HETATM   38  C1  UNL     1      27.556  18.838  28.307  1.00  0.00     0.041 C 
BRANCH  37  39
HETATM   39  O1  UNL     1      27.430  16.921  26.866  1.00  0.00    -0.394 OA
ATOM     40  H1  UNL     1      27.794  17.097  26.006  1.00  0.00     0.210 HD
ENDBRANCH  37  39
ENDBRANCH  36  37
ENDBRANCH  34  36
ENDBRANCH   1  34
TORSDOF 12
ENDMDL
MODEL 3
REMARK VINA RESULT: -7.583693360      1.965      3.914
REMARK  12 active torsions:
REMARK  status: ('A' for Active; 'I' for Inactive)
REMARK    1  A    between atoms: C2_2  and  O1_3 
REMARK    2  A    between atoms: C2_2  and  C3_5 
REMARK    3  A    between atoms: C3_5  and  N1_6 
REMARK    4  A    between atoms: N1_6  and  C4_8 
REMARK    5  A    between atoms: N5_19  and  C8_20 
REMARK    6  A    between atoms: C8_20  and  C9_21 
REMARK    7  A    between atoms: N7_25  and  C12_26 
REMARK    8  A    between atoms: C12_26  and  C13_27 
REMARK    9  A    between atoms: C13_27  and  C14_28 
REMARK   10  A    between atoms: C14_28  and  S1_29 
REMARK   11  A    between atoms: S1_29  and  C15_32 
REMARK   12  A    between atoms: C15_32  and  O4_35 
ROOT
HETATM    1  C4  UNL     1      24.142  18.700  27.728  1.00  0.00     0.681 A 
HETATM    2  N2  UNL     1      25.209  19.443  28.018  1.00  0.00    -0.175 N 
ATOM      3  H2  UNL     1      25.121  20.458  27.977  1.00  0.00     0.186 HD
HETATM    4  C5  UNL     1      26.404  18.910  28.362  1.00  0.00     0.145 A 
HETATM    5  N3  UNL     1      27.376  19.692  28.625  1.00  0.00    -0.383 N 
ATOM      6  H31 UNL     1      28.277  19.291  28.884  1.00  0.00     0.157 HD
ATOM      7  H32 UNL     1      27.287  20.707  28.584  1.00  0.00     0.157 HD
HETATM    8  C6  UNL     1      26.524  17.538  28.417  1.00  0.00     0.123 A 
HETATM    9  N4  UNL     1      27.530  16.692  28.713  1.00  0.00    -0.346 N 
ATOM     10  H4  UNL     1      28.480  16.955  28.977  1.00  0.00     0.167 HD
HETATM   11  C7  UNL     1      27.053  15.425  28.598  1.00  0.00     0.185 A 
HETATM   12  N5  UNL     1      25.766  15.441  28.235  1.00  0.00    -0.323 N 
HETATM   13  C19 UNL     1      25.431  16.741  28.121  1.00  0.00     0.155 A 
HETATM   14  N8  UNL     1      24.287  17.353  27.790  1.00  0.00    -0.174 N 
ATOM     15  H8  UNL     1      23.477  16.772  27.572  1.00  0.00     0.186 HD
ENDROOT
BRANCH  12  16
HETATM   16  C8  UNL     1      24.864  14.327  27.998  1.00  0.00     0.171 C 
BRANCH  16  17
HETATM   17  C9  UNL     1      23.991  14.058  29.171  1.00  0.00    -0.021 A 
HETATM   18  C10 UNL     1      24.195  13.138  30.173  1.00  0.00     0.055 A 
HETATM   19  C11 UNL     1      23.118  13.258  31.032  1.00  0.00     0.118 A 
HETATM   20  N6  UNL     1      22.874  12.514  32.227  1.00  0.00    -0.083 NA
HETATM   21  N7  UNL     1      22.280  14.211  30.588  1.00  0.00    -0.345 N 
HETATM   22  C18 UNL     1      22.806  14.701  29.455  1.00  0.00     0.101 A 
BRANCH  21  23
HETATM   23  C12 UNL     1      21.042  14.625  31.218  1.00  0.00     0.130 C 
BRANCH  23  24
HETATM   24  C13 UNL     1      21.210  16.054  31.712  1.00  0.00     0.035 C 
BRANCH  24  25
HETATM   25  C14 UNL     1      21.612  16.059  33.177  1.00  0.00     0.145 C 
BRANCH  25  26
HETATM   26  S1  UNL     1      20.290  16.906  34.051  1.00  0.00     0.176 S 
HETATM   27  O2  UNL     1      19.248  17.408  33.118  1.00  0.00    -0.225 OA
HETATM   28  O3  UNL     1      20.899  18.046  34.805  1.00  0.00    -0.225 OA
BRANCH  26  29
HETATM   29  C15 UNL     1      19.624  15.703  35.205  1.00  0.00     0.153 C 
HETATM   30  C16 UNL     1      20.811  15.252  36.062  1.00  0.00     0.063 C 
HETATM   31  C17 UNL     1      19.121  14.545  34.385  1.00  0.00     0.063 C 
BRANCH  29  32
HETATM   32  O4  UNL     1      18.636  16.300  35.957  1.00  0.00    -0.375 OA
ATOM     33  H4  UNL     1      18.020  15.636  36.243  1.00  0.00     0.211 HD
ENDBRANCH  29  32
ENDBRANCH  26  29
ENDBRANCH  25  26
ENDBRANCH  24  25
ENDBRANCH  23  24
ENDBRANCH  21  23
ENDBRANCH  16  17
ENDBRANCH  12  16
BRANCH   1  34
HETATM   34  N1  UNL     1      22.979  19.117  27.394  1.00  0.00    -0.224 N 
ATOM     35  H1  UNL     1      22.846  20.107  27.189  1.00  0.00     0.177 HD
BRANCH  34  36
HETATM   36  C3  UNL     1      21.853  18.223  27.298  1.00  0.00     0.169 C 
BRANCH  36  37
HETATM   37  C2  UNL     1      21.110  18.279  28.625  1.00  0.00     0.132 C 
HETATM   38  C1  UNL     1      20.717  19.728  28.832  1.00  0.00     0.041 C 
BRANCH  37  39
HETATM   39  O1  UNL     1      20.010  17.449  28.561  1.00  0.00    -0.394 OA
ATOM     40  H1  UNL     1      20.200  16.641  28.098  1.00  0.00     0.210 HD
ENDBRANCH  37  39
ENDBRANCH  36  37
ENDBRANCH  34  36
ENDBRANCH   1  34
TORSDOF 12
ENDMDL
MODEL 4
REMARK VINA RESULT: -7.462769225      2.725      4.323
REMARK  12 active torsions:
REMARK  status: ('A' for Active; 'I' for Inactive)
REMARK    1  A    between atoms: C2_2  and  O1_3 
REMARK    2  A    between atoms: C2_2  and  C3_5 
REMARK    3  A    between atoms: C3_5  and  N1_6 
REMARK    4  A    between atoms: N1_6  and  C4_8 
REMARK    5  A    between atoms: N5_19  and  C8_20 
REMARK    6  A    between atoms: C8_20  and  C9_21 
REMARK    7  A    between atoms: N7_25  and  C12_26 
REMARK    8  A    between atoms: C12_26  and  C13_27 
REMARK    9  A    between atoms: C13_27  and  C14_28 
REMARK   10  A    between atoms: C14_28  and  S1_29 
REMARK   11  A    between atoms: S1_29  and  C15_32 
REMARK   12  A    between atoms: C15_32  and  O4_35 
ROOT
HETATM    1  C4  UNL     1      22.547  17.870  28.450  1.00  0.00     0.681 A 
HETATM    2  N2  UNL     1      22.788  18.820  27.547  1.00  0.00    -0.175 N 
ATOM      3  H2  UNL     1      22.011  19.165  26.984  1.00  0.00     0.186 HD
HETATM    4  C5  UNL     1      24.017  19.347  27.345  1.00  0.00     0.145 A 
HETATM    5  N3  UNL     1      24.163  20.253  26.461  1.00  0.00    -0.383 N 
ATOM      6  H31 UNL     1      25.090  20.650  26.308  1.00  0.00     0.157 HD
ATOM      7  H32 UNL     1      23.385  20.598  25.899  1.00  0.00     0.157 HD
HETATM    8  C6  UNL     1      25.068  18.881  28.105  1.00  0.00     0.123 A 
HETATM    9  N4  UNL     1      26.384  19.168  28.170  1.00  0.00    -0.346 N 
ATOM     10  H4  UNL     1      26.878  19.857  27.603  1.00  0.00     0.167 HD
HETATM   11  C7  UNL     1      26.934  18.375  29.128  1.00  0.00     0.185 A 
HETATM   12  N5  UNL     1      26.002  17.589  29.675  1.00  0.00    -0.323 N 
HETATM   13  C19 UNL     1      24.848  17.893  29.051  1.00  0.00     0.155 A 
HETATM   14  N8  UNL     1      23.599  17.430  29.184  1.00  0.00    -0.174 N 
ATOM     15  H8  UNL     1      23.428  16.703  29.880  1.00  0.00     0.186 HD
ENDROOT
BRANCH  12  16
HETATM   16  C8  UNL     1      26.140  16.595  30.726  1.00  0.00     0.171 C 
BRANCH  16  17
HETATM   17  C9  UNL     1      25.941  17.181  32.078  1.00  0.00    -0.021 A 
HETATM   18  C10 UNL     1      26.655  18.202  32.662  1.00  0.00     0.055 A 
HETATM   19  C11 UNL     1      26.102  18.392  33.915  1.00  0.00     0.118 A 
HETATM   20  N6  UNL     1      26.500  19.341  34.904  1.00  0.00    -0.083 NA
HETATM   21  N7  UNL     1      25.087  17.529  34.105  1.00  0.00    -0.345 N 
HETATM   22  C18 UNL     1      24.985  16.790  32.991  1.00  0.00     0.101 A 
BRANCH  21  23
HETATM   23  C12 UNL     1      24.265  17.424  35.293  1.00  0.00     0.130 C 
BRANCH  23  24
HETATM   24  C13 UNL     1      23.573  16.069  35.279  1.00  0.00     0.035 C 
BRANCH  24  25
HETATM   25  C14 UNL     1      22.260  16.144  36.040  1.00  0.00     0.145 C 
BRANCH  25  26
HETATM   26  S1  UNL     1      21.001  16.533  34.819  1.00  0.00     0.176 S 
HETATM   27  O2  UNL     1      21.460  16.228  33.440  1.00  0.00    -0.225 OA
HETATM   28  O3  UNL     1      20.678  17.990  34.945  1.00  0.00    -0.225 OA
BRANCH  26  29
HETATM   29  C15 UNL     1      19.566  15.554  35.273  1.00  0.00     0.153 C 
HETATM   30  C16 UNL     1      20.023  14.669  36.436  1.00  0.00     0.063 C 
HETATM   31  C17 UNL     1      19.231  14.694  34.082  1.00  0.00     0.063 C 
BRANCH  29  32
HETATM   32  O4  UNL     1      18.540  16.400  35.633  1.00  0.00    -0.375 OA
ATOM     33  H4  UNL     1      17.740  15.896  35.722  1.00  0.00     0.211 HD
ENDBRANCH  29  32
ENDBRANCH  26  29
ENDBRANCH  25  26
ENDBRANCH  24  25
ENDBRANCH  23  24
ENDBRANCH  21  23
ENDBRANCH  16  17
ENDBRANCH  12  16
BRANCH   1  34
HETATM   34  N1  UNL     1      21.422  17.317  28.706  1.00  0.00    -0.224 N 
ATOM     35  H1  UNL     1      20.766  17.147  27.944  1.00  0.00     0.177 HD
BRANCH  34  36
HETATM   36  C3  UNL     1      21.057  16.928  30.045  1.00  0.00     0.169 C 
BRANCH  36  37
HETATM   37  C2  UNL     1      20.277  15.626  29.947  1.00  0.00     0.132 C 
HETATM   38  C1  UNL     1      21.210  14.533  30.427  1.00  0.00     0.041 C 
BRANCH  37  39
HETATM   39  O1  UNL     1      19.144  15.720  30.729  1.00  0.00    -0.394 OA
ATOM     40  H1  UNL     1      18.464  16.235  30.311  1.00  0.00     0.210 HD
ENDBRANCH  37  39
ENDBRANCH  36  37
ENDBRANCH  34  36
ENDBRANCH   1  34
TORSDOF 12
ENDMDL
MODEL 5
REMARK VINA RESULT: -7.262728710      4.451      7.780
REMARK  12 active torsions:
REMARK  status: ('A' for Active; 'I' for Inactive)
REMARK    1  A    between atoms: C2_2  and  O1_3 
REMARK    2  A    between atoms: C2_2  and  C3_5 
REMARK    3  A    between atoms: C3_5  and  N1_6 
REMARK    4  A    between atoms: N1_6  and  C4_8 
REMARK    5  A    between atoms: N5_19  and  C8_20 
REMARK    6  A    between atoms: C8_20  and  C9_21 
REMARK    7  A    between atoms: N7_25  and  C12_26 
REMARK    8  A    between atoms: C12_26  and  C13_27 
REMARK    9  A    between atoms: C13_27  and  C14_28 
REMARK   10  A    between atoms: C14_28  and  S1_29 
REMARK   11  A    between atoms: S1_29  and  C15_32 
REMARK   12  A    between atoms: C15_32  and  O4_35 
ROOT
HETATM    1  C4  UNL     1      24.479  17.312  34.819  1.00  0.00     0.681 A 
HETATM    2  N2  UNL     1      24.487  17.378  36.150  1.00  0.00    -0.175 N 
ATOM      3  H2  UNL     1      25.151  18.007  36.602  1.00  0.00     0.186 HD
HETATM    4  C5  UNL     1      23.655  16.648  36.927  1.00  0.00     0.145 A 
HETATM    5  N3  UNL     1      23.728  16.770  38.194  1.00  0.00    -0.383 N 
ATOM      6  H31 UNL     1      23.101  16.219  38.780  1.00  0.00     0.157 HD
ATOM      7  H32 UNL     1      24.391  17.399  38.645  1.00  0.00     0.157 HD
HETATM    8  C6  UNL     1      22.758  15.798  36.317  1.00  0.00     0.123 A 
HETATM    9  N4  UNL     1      21.812  14.948  36.764  1.00  0.00    -0.346 N 
ATOM     10  H4  UNL     1      21.574  14.772  37.741  1.00  0.00     0.167 HD
HETATM   11  C7  UNL     1      21.231  14.368  35.681  1.00  0.00     0.185 A 
HETATM   12  N5  UNL     1      21.783  14.826  34.553  1.00  0.00    -0.323 N 
HETATM   13  C19 UNL     1      22.727  15.708  34.935  1.00  0.00     0.155 A 
HETATM   14  N8  UNL     1      23.586  16.468  34.244  1.00  0.00    -0.174 N 
ATOM     15  H8  UNL     1      23.568  16.409  33.226  1.00  0.00     0.186 HD
ENDROOT
BRANCH  12  16
HETATM   16  C8  UNL     1      21.477  14.485  33.175  1.00  0.00     0.171 C 
BRANCH  16  17
HETATM   17  C9  UNL     1      20.777  15.591  32.469  1.00  0.00    -0.021 A 
HETATM   18  C10 UNL     1      19.790  16.410  32.966  1.00  0.00     0.055 A 
HETATM   19  C11 UNL     1      19.457  17.278  31.942  1.00  0.00     0.118 A 
HETATM   20  N6  UNL     1      18.480  18.319  31.971  1.00  0.00    -0.083 NA
HETATM   21  N7  UNL     1      20.203  17.014  30.855  1.00  0.00    -0.345 N 
HETATM   22  C18 UNL     1      21.007  15.988  31.169  1.00  0.00     0.101 A 
BRANCH  21  23
HETATM   23  C12 UNL     1      20.142  17.709  29.585  1.00  0.00     0.130 C 
BRANCH  23  24
HETATM   24  C13 UNL     1      21.296  17.228  28.719  1.00  0.00     0.035 C 
BRANCH  24  25
HETATM   25  C14 UNL     1      22.246  18.378  28.426  1.00  0.00     0.145 C 
BRANCH  25  26
HETATM   26  S1  UNL     1      23.881  17.646  28.288  1.00  0.00     0.176 S 
HETATM   27  O2  UNL     1      23.897  16.512  27.328  1.00  0.00    -0.225 OA
HETATM   28  O3  UNL     1      24.286  17.175  29.650  1.00  0.00    -0.225 OA
BRANCH  26  29
HETATM   29  C15 UNL     1      24.964  18.977  27.761  1.00  0.00     0.153 C 
HETATM   30  C16 UNL     1      25.994  19.140  28.883  1.00  0.00     0.063 C 
HETATM   31  C17 UNL     1      24.115  20.218  27.668  1.00  0.00     0.063 C 
BRANCH  29  32
HETATM   32  O4  UNL     1      25.549  18.634  26.562  1.00  0.00    -0.375 OA
ATOM     33  H4  UNL     1      24.871  18.532  25.905  1.00  0.00     0.211 HD
ENDBRANCH  29  32
ENDBRANCH  26  29
ENDBRANCH  25  26
ENDBRANCH  24  25
ENDBRANCH  23  24
ENDBRANCH  21  23
ENDBRANCH  16  17
ENDBRANCH  12  16
BRANCH   1  34
HETATM   34  N1  UNL     1      25.226  17.963  34.010  1.00  0.00    -0.224 N 
ATOM     35  H1  UNL     1      24.837  18.284  33.123  1.00  0.00     0.177 HD
BRANCH  34  36
HETATM   36  C3  UNL     1      26.603  18.255  34.318  1.00  0.00     0.169 C 
BRANCH  36  37
HETATM   37  C2  UNL     1      26.719  19.759  34.513  1.00  0.00     0.132 C 
HETATM   38  C1  UNL     1      27.071  19.974  35.971  1.00  0.00     0.041 C 
BRANCH  37  39
HETATM   39  O1  UNL     1      27.695  20.249  33.668  1.00  0.00    -0.394 OA
ATOM     40  H1  UNL     1      27.808  21.188  33.763  1.00  0.00     0.210 HD
ENDBRANCH  37  39
ENDBRANCH  36  37
ENDBRANCH  34  36
ENDBRANCH   1  34
TORSDOF 12
ENDMDL
