MODEL 1
REMARK VINA RESULT: -4.284926493      0.000      0.000
REMARK  4 active torsions:
REMARK  status: ('A' for Active; 'I' for Inactive)
REMARK    1  A    between atoms: C2_2  and  C3_3 
REMARK    2  A    between atoms: C3_3  and  N1_4 
REMARK    3  A    between atoms: C3_3  and  C4_8 
REMARK    4  A    between atoms: C4_8  and  N2_9 
ROOT
HETATM    1  C4  UNL     1      48.430 -67.536  40.491  1.00  0.00     0.155 A 
HETATM    2  C5  UNL     1      47.554 -66.978  41.515  1.00  0.00     0.043 A 
HETATM    3  C6  UNL     1      48.802 -66.233  41.217  1.00  0.00     0.043 A 
ENDROOT
BRANCH   1   4
HETATM    4  C3  UNL     1      48.203 -67.350  39.020  1.00  0.00     0.241 C 
BRANCH   4   5
HETATM    5  C2  UNL     1      48.087 -68.612  38.277  1.00  0.00    -0.002 C 
HETATM    6  C1  UNL     1      46.957 -69.302  38.367  1.00  0.00     0.009 C 
ENDBRANCH   4   5
BRANCH   4   7
HETATM    7  N1  UNL     1      46.947 -66.596  38.880  1.00  0.00    -0.069 N 
ATOM      8  H13 UNL     1      46.710 -66.074  39.724  1.00  0.00     0.275 HD
ATOM      9  H12 UNL     1      47.038 -65.803  38.244  1.00  0.00     0.275 HD
ATOM     10  H11 UNL     1      46.206 -67.237  38.598  1.00  0.00     0.275 HD
ENDBRANCH   4   7
ENDBRANCH   1   4
BRANCH   1  11
HETATM   11  N2  UNL     1      49.257 -68.685  40.822  1.00  0.00    -0.068 N 
ATOM     12  H23 UNL     1      50.235 -68.497  40.603  1.00  0.00     0.275 HD
ATOM     13  H22 UNL     1      49.324 -68.798  41.833  1.00  0.00     0.275 HD
ATOM     14  H21 UNL     1      48.954 -69.555  40.384  1.00  0.00     0.275 HD
ENDBRANCH   1  11
TORSDOF 4
ENDMDL
MODEL 2
REMARK VINA RESULT: -4.272267955      1.280      1.509
REMARK  4 active torsions:
REMARK  status: ('A' for Active; 'I' for Inactive)
REMARK    1  A    between atoms: C2_2  and  C3_3 
REMARK    2  A    between atoms: C3_3  and  N1_4 
REMARK    3  A    between atoms: C3_3  and  C4_8 
REMARK    4  A    between atoms: C4_8  and  N2_9 
ROOT
HETATM    1  C4  UNL     1      48.211 -67.280  40.875  1.00  0.00     0.155 A 
HETATM    2  C5  UNL     1      49.325 -66.423  41.267  1.00  0.00     0.043 A 
HETATM    3  C6  UNL     1      49.407 -67.854  41.650  1.00  0.00     0.043 A 
ENDROOT
BRANCH   1   4
HETATM    4  C3  UNL     1      48.062 -67.861  39.501  1.00  0.00     0.241 C 
BRANCH   4   5
HETATM    5  C2  UNL     1      47.287 -69.109  39.469  1.00  0.00    -0.002 C 
HETATM    6  C1  UNL     1      46.849 -69.557  38.299  1.00  0.00     0.009 C 
ENDBRANCH   4   5
BRANCH   4   7
HETATM    7  N1  UNL     1      47.370 -66.850  38.687  1.00  0.00    -0.069 N 
ATOM      8  H13 UNL     1      46.573 -67.236  38.181  1.00  0.00     0.275 HD
ATOM      9  H12 UNL     1      46.861 -66.174  39.258  1.00  0.00     0.275 HD
ATOM     10  H11 UNL     1      48.047 -66.404  38.068  1.00  0.00     0.275 HD
ENDBRANCH   4   7
ENDBRANCH   1   4
BRANCH   1  11
HETATM   11  N2  UNL     1      46.968 -67.204  41.625  1.00  0.00    -0.068 N 
ATOM     12  H23 UNL     1      46.299 -66.599  41.149  1.00  0.00     0.275 HD
ATOM     13  H22 UNL     1      46.465 -68.090  41.575  1.00  0.00     0.275 HD
ATOM     14  H21 UNL     1      47.085 -66.915  42.596  1.00  0.00     0.275 HD
ENDBRANCH   1  11
TORSDOF 4
ENDMDL
MODEL 3
REMARK VINA RESULT: -4.002668867      0.676      3.487
REMARK  4 active torsions:
REMARK  status: ('A' for Active; 'I' for Inactive)
REMARK    1  A    between atoms: C2_2  and  C3_3 
REMARK    2  A    between atoms: C3_3  and  N1_4 
REMARK    3  A    between atoms: C3_3  and  C4_8 
REMARK    4  A    between atoms: C4_8  and  N2_9 
ROOT
HETATM    1  C4  UNL     1      47.706 -67.707  39.044  1.00  0.00     0.155 A 
HETATM    2  C5  UNL     1      47.193 -69.009  38.629  1.00  0.00     0.043 A 
HETATM    3  C6  UNL     1      48.205 -68.370  37.751  1.00  0.00     0.043 A 
ENDROOT
BRANCH   1   4
HETATM    4  C3  UNL     1      48.781 -67.535  40.075  1.00  0.00     0.241 C 
BRANCH   4   5
HETATM    5  C2  UNL     1      48.717 -66.251  40.786  1.00  0.00    -0.002 C 
HETATM    6  C1  UNL     1      48.503 -66.258  42.096  1.00  0.00     0.009 C 
ENDBRANCH   4   5
BRANCH   4   7
HETATM    7  N1  UNL     1      48.613 -68.627  41.046  1.00  0.00    -0.069 N 
ATOM      8  H13 UNL     1      48.008 -68.365  41.825  1.00  0.00     0.275 HD
ATOM      9  H12 UNL     1      48.047 -69.392  40.677  1.00  0.00     0.275 HD
ATOM     10  H11 UNL     1      49.533 -68.939  41.357  1.00  0.00     0.275 HD
ENDBRANCH   4   7
ENDBRANCH   1   4
BRANCH   1  11
HETATM   11  N2  UNL     1      46.874 -66.530  38.853  1.00  0.00    -0.068 N 
ATOM     12  H23 UNL     1      45.889 -66.765  38.969  1.00  0.00     0.275 HD
ATOM     13  H22 UNL     1      46.990 -65.880  39.631  1.00  0.00     0.275 HD
ATOM     14  H21 UNL     1      47.026 -66.053  37.965  1.00  0.00     0.275 HD
ENDBRANCH   1  11
TORSDOF 4
ENDMDL
MODEL 4
REMARK VINA RESULT: -3.950667609      1.392      3.241
REMARK  4 active torsions:
REMARK  status: ('A' for Active; 'I' for Inactive)
REMARK    1  A    between atoms: C2_2  and  C3_3 
REMARK    2  A    between atoms: C3_3  and  N1_4 
REMARK    3  A    between atoms: C3_3  and  C4_8 
REMARK    4  A    between atoms: C4_8  and  N2_9 
ROOT
HETATM    1  C4  UNL     1      47.585 -67.922  39.273  1.00  0.00     0.155 A 
HETATM    2  C5  UNL     1      47.064 -69.006  38.446  1.00  0.00     0.043 A 
HETATM    3  C6  UNL     1      48.518 -68.723  38.351  1.00  0.00     0.043 A 
ENDROOT
BRANCH   1   4
HETATM    4  C3  UNL     1      47.912 -68.079  40.728  1.00  0.00     0.241 C 
BRANCH   4   5
HETATM    5  C2  UNL     1      49.334 -67.875  41.038  1.00  0.00    -0.002 C 
HETATM    6  C1  UNL     1      49.944 -68.747  41.831  1.00  0.00     0.009 C 
ENDBRANCH   4   5
BRANCH   4   7
HETATM    7  N1  UNL     1      47.117 -67.074  41.450  1.00  0.00    -0.069 N 
ATOM      8  H13 UNL     1      46.123 -67.132  41.229  1.00  0.00     0.275 HD
ATOM      9  H12 UNL     1      47.052 -67.273  42.448  1.00  0.00     0.275 HD
ATOM     10  H11 UNL     1      47.504 -66.149  41.262  1.00  0.00     0.275 HD
ENDBRANCH   4   7
ENDBRANCH   1   4
BRANCH   1  11
HETATM   11  N2  UNL     1      47.344 -66.548  38.864  1.00  0.00    -0.068 N 
ATOM     12  H23 UNL     1      47.438 -66.454  37.853  1.00  0.00     0.275 HD
ATOM     13  H22 UNL     1      46.357 -66.311  38.969  1.00  0.00     0.275 HD
ATOM     14  H21 UNL     1      47.928 -65.863  39.343  1.00  0.00     0.275 HD
ENDBRANCH   1  11
TORSDOF 4
ENDMDL
MODEL 5
REMARK VINA RESULT: -3.932224625      1.806      3.097
REMARK  4 active torsions:
REMARK  status: ('A' for Active; 'I' for Inactive)
REMARK    1  A    between atoms: C2_2  and  C3_3 
REMARK    2  A    between atoms: C3_3  and  N1_4 
REMARK    3  A    between atoms: C3_3  and  C4_8 
REMARK    4  A    between atoms: C4_8  and  N2_9 
ROOT
HETATM    1  C4  UNL     1      48.188 -67.117  39.573  1.00  0.00     0.155 A 
HETATM    2  C5  UNL     1      47.044 -66.995  38.676  1.00  0.00     0.043 A 
HETATM    3  C6  UNL     1      48.374 -67.196  38.049  1.00  0.00     0.043 A 
ENDROOT
BRANCH   1   4
HETATM    4  C3  UNL     1      48.549 -68.389  40.280  1.00  0.00     0.241 C 
BRANCH   4   5
HETATM    5  C2  UNL     1      49.140 -68.178  41.609  1.00  0.00    -0.002 C 
HETATM    6  C1  UNL     1      50.207 -68.889  41.951  1.00  0.00     0.009 C 
ENDBRANCH   4   5
BRANCH   4   7
HETATM    7  N1  UNL     1      47.304 -69.157  40.428  1.00  0.00    -0.069 N 
ATOM      8  H13 UNL     1      46.503 -68.685  40.007  1.00  0.00     0.275 HD
ATOM      9  H12 UNL     1      47.294 -69.997  39.849  1.00  0.00     0.275 HD
ATOM     10  H11 UNL     1      47.158 -69.364  41.416  1.00  0.00     0.275 HD
ENDBRANCH   4   7
ENDBRANCH   1   4
BRANCH   1  11
HETATM   11  N2  UNL     1      48.723 -65.918  40.199  1.00  0.00    -0.068 N 
ATOM     12  H23 UNL     1      49.546 -65.588  39.695  1.00  0.00     0.275 HD
ATOM     13  H22 UNL     1      48.098 -65.126  40.047  1.00  0.00     0.275 HD
ATOM     14  H21 UNL     1      48.930 -66.025  41.191  1.00  0.00     0.275 HD
ENDBRANCH   1  11
TORSDOF 4
ENDMDL
