MODEL 1
REMARK VINA RESULT: -4.287283405      0.000      0.000
REMARK  2 active torsions:
REMARK  status: ('A' for Active; 'I' for Inactive)
REMARK    1  A    between atoms: C2_2  and  C3_3 
REMARK    2  A    between atoms: C3_3  and  N1_4 
ROOT
HETATM    1  N1  UNL     1      48.030 -68.200  39.564  1.00  0.00    -0.189 N 
HETATM    2  C4  UNL     1      48.812 -68.626  40.566  1.00  0.00     0.127 A 
HETATM    3  C5  UNL     1      49.116 -67.562  41.379  1.00  0.00     0.124 A 
HETATM    4  N2  UNL     1      48.503 -66.491  40.848  1.00  0.00    -0.201 N 
ATOM      5  H2  UNL     1      48.532 -65.541  41.219  1.00  0.00     0.183 HD
HETATM    6  C6  UNL     1      47.847 -66.884  39.749  1.00  0.00     0.677 A 
HETATM    7  N3  UNL     1      47.137 -66.125  38.968  1.00  0.00    -0.234 N 
ATOM      8  H31 UNL     1      46.998 -65.125  39.108  1.00  0.00     0.174 HD
ATOM      9  H32 UNL     1      46.637 -66.424  38.131  1.00  0.00     0.174 HD
ENDROOT
BRANCH   1  10
HETATM   10  C3  UNL     1      47.476 -69.019  38.468  1.00  0.00     0.173 C 
BRANCH  10  11
HETATM   11  C2  UNL     1      46.567 -70.051  38.997  1.00  0.00    -0.016 C 
HETATM   12  C1  UNL     1      45.677 -70.611  38.201  1.00  0.00     0.008 C 
ENDBRANCH  10  11
ENDBRANCH   1  10
TORSDOF 2
ENDMDL
MODEL 2
REMARK VINA RESULT: -4.133626646      1.232      3.397
REMARK  2 active torsions:
REMARK  status: ('A' for Active; 'I' for Inactive)
REMARK    1  A    between atoms: C2_2  and  C3_3 
REMARK    2  A    between atoms: C3_3  and  N1_4 
ROOT
HETATM    1  N1  UNL     1      47.885 -68.092  40.274  1.00  0.00    -0.189 N 
HETATM    2  C4  UNL     1      47.354 -69.260  39.882  1.00  0.00     0.127 A 
HETATM    3  C5  UNL     1      47.037 -69.181  38.548  1.00  0.00     0.124 A 
HETATM    4  N2  UNL     1      47.387 -67.947  38.146  1.00  0.00    -0.201 N 
ATOM      5  H2  UNL     1      47.281 -67.574  37.203  1.00  0.00     0.183 HD
HETATM    6  C6  UNL     1      47.900 -67.293  39.196  1.00  0.00     0.677 A 
HETATM    7  N3  UNL     1      48.347 -66.073  39.195  1.00  0.00    -0.234 N 
ATOM      8  H31 UNL     1      48.359 -65.465  38.376  1.00  0.00     0.174 HD
ATOM      9  H32 UNL     1      48.738 -65.575  39.994  1.00  0.00     0.174 HD
ENDROOT
BRANCH   1  10
HETATM   10  C3  UNL     1      48.360 -67.751  41.629  1.00  0.00     0.173 C 
BRANCH  10  11
HETATM   11  C2  UNL     1      49.813 -67.969  41.741  1.00  0.00    -0.016 C 
HETATM   12  C1  UNL     1      50.275 -69.168  42.035  1.00  0.00     0.008 C 
ENDBRANCH  10  11
ENDBRANCH   1  10
TORSDOF 2
ENDMDL
MODEL 3
REMARK VINA RESULT: -3.986091181      1.356      2.192
REMARK  2 active torsions:
REMARK  status: ('A' for Active; 'I' for Inactive)
REMARK    1  A    between atoms: C2_2  and  C3_3 
REMARK    2  A    between atoms: C3_3  and  N1_4 
ROOT
HETATM    1  N1  UNL     1      48.134 -68.022  40.511  1.00  0.00    -0.189 N 
HETATM    2  C4  UNL     1      47.784 -66.795  40.099  1.00  0.00     0.127 A 
HETATM    3  C5  UNL     1      48.616 -65.873  40.686  1.00  0.00     0.124 A 
HETATM    4  N2  UNL     1      49.469 -66.568  41.457  1.00  0.00    -0.201 N 
ATOM      5  H2  UNL     1      50.216 -66.172  42.028  1.00  0.00     0.183 HD
HETATM    6  C6  UNL     1      49.172 -67.869  41.346  1.00  0.00     0.677 A 
HETATM    7  N3  UNL     1      49.781 -68.848  41.946  1.00  0.00    -0.234 N 
ATOM      8  H31 UNL     1      50.570 -68.732  42.581  1.00  0.00     0.174 HD
ATOM      9  H32 UNL     1      49.555 -69.838  41.862  1.00  0.00     0.174 HD
ENDROOT
BRANCH   1  10
HETATM   10  C3  UNL     1      47.498 -69.297  40.122  1.00  0.00     0.173 C 
BRANCH  10  11
HETATM   11  C2  UNL     1      47.027 -69.239  38.727  1.00  0.00    -0.016 C 
HETATM   12  C1  UNL     1      46.236 -70.186  38.263  1.00  0.00     0.008 C 
ENDBRANCH  10  11
ENDBRANCH   1  10
TORSDOF 2
ENDMDL
MODEL 4
REMARK VINA RESULT: -3.875003264      1.517      3.662
REMARK  2 active torsions:
REMARK  status: ('A' for Active; 'I' for Inactive)
REMARK    1  A    between atoms: C2_2  and  C3_3 
REMARK    2  A    between atoms: C3_3  and  N1_4 
ROOT
HETATM    1  N1  UNL     1      47.866 -67.819  39.828  1.00  0.00    -0.189 N 
HETATM    2  C4  UNL     1      48.396 -67.006  38.904  1.00  0.00     0.127 A 
HETATM    3  C5  UNL     1      48.214 -67.564  37.661  1.00  0.00     0.124 A 
HETATM    4  N2  UNL     1      47.566 -68.725  37.858  1.00  0.00    -0.201 N 
ATOM      5  H2  UNL     1      47.281 -69.380  37.130  1.00  0.00     0.183 HD
HETATM    6  C6  UNL     1      47.359 -68.874  39.173  1.00  0.00     0.677 A 
HETATM    7  N3  UNL     1      46.762 -69.875  39.745  1.00  0.00    -0.234 N 
ATOM      8  H31 UNL     1      46.376 -70.677  39.247  1.00  0.00     0.174 HD
ATOM      9  H32 UNL     1      46.603 -69.989  40.746  1.00  0.00     0.174 HD
ENDROOT
BRANCH   1  10
HETATM   10  C3  UNL     1      47.846 -67.598  41.288  1.00  0.00     0.173 C 
BRANCH  10  11
HETATM   11  C2  UNL     1      49.215 -67.588  41.832  1.00  0.00    -0.016 C 
HETATM   12  C1  UNL     1      49.936 -68.692  41.814  1.00  0.00     0.008 C 
ENDBRANCH  10  11
ENDBRANCH   1  10
TORSDOF 2
ENDMDL
MODEL 5
REMARK VINA RESULT: -3.563383884      9.182     10.082
REMARK  2 active torsions:
REMARK  status: ('A' for Active; 'I' for Inactive)
REMARK    1  A    between atoms: C2_2  and  C3_3 
REMARK    2  A    between atoms: C3_3  and  N1_4 
ROOT
HETATM    1  N1  UNL     1      54.008 -61.708  44.181  1.00  0.00    -0.189 N 
HETATM    2  C4  UNL     1      52.990 -61.762  45.052  1.00  0.00     0.127 A 
HETATM    3  C5  UNL     1      52.325 -60.559  45.037  1.00  0.00     0.124 A 
HETATM    4  N2  UNL     1      52.961 -59.785  44.142  1.00  0.00    -0.201 N 
ATOM      5  H2  UNL     1      52.711 -58.827  43.897  1.00  0.00     0.183 HD
HETATM    6  C6  UNL     1      53.980 -60.486  43.628  1.00  0.00     0.677 A 
HETATM    7  N3  UNL     1      54.822 -60.068  42.731  1.00  0.00    -0.234 N 
ATOM      8  H31 UNL     1      54.800 -59.140  42.310  1.00  0.00     0.174 HD
ATOM      9  H32 UNL     1      55.597 -60.601  42.339  1.00  0.00     0.174 HD
ENDROOT
BRANCH   1  10
HETATM   10  C3  UNL     1      54.975 -62.784  43.888  1.00  0.00     0.173 C 
BRANCH  10  11
HETATM   11  C2  UNL     1      54.310 -63.909  43.207  1.00  0.00    -0.016 C 
HETATM   12  C1  UNL     1      54.750 -65.138  43.390  1.00  0.00     0.008 C 
ENDBRANCH  10  11
ENDBRANCH   1  10
TORSDOF 2
ENDMDL
