MODEL 1
REMARK VINA RESULT: -3.783959529      0.000      0.000
REMARK  2 active torsions:
REMARK  status: ('A' for Active; 'I' for Inactive)
REMARK    1  A    between atoms: N1_2  and  C2_4 
REMARK    2  A    between atoms: C2_4  and  C4_6 
ROOT
HETATM    1  C4  UNL     1      48.870 -67.630  40.331  1.00  0.00     0.059 C 
HETATM    2  C5  UNL     1      48.851 -67.934  41.788  1.00  0.00     0.240 C 
HETATM    3  N2  UNL     1      48.058 -66.693  41.963  1.00  0.00    -0.074 N 
ATOM      4  H21 UNL     1      48.026 -66.186  42.847  1.00  0.00     0.277 HD
ATOM      5  H22 UNL     1      47.038 -66.696  41.984  1.00  0.00     0.277 HD
HETATM    6  C6  UNL     1      48.810 -66.211  40.815  1.00  0.00     0.240 C 
ENDROOT
BRANCH   1   7
HETATM    7  C2  UNL     1      47.689 -67.967  39.486  1.00  0.00     0.079 C 
HETATM    8  C3  UNL     1      48.094 -67.783  38.040  1.00  0.00     0.032 C 
BRANCH   7   9
HETATM    9  N1  UNL     1      47.130 -69.261  39.655  1.00  0.00    -0.421 N 
HETATM   10  C1  UNL     1      46.534 -69.933  38.572  1.00  0.00     0.140 C 
ATOM     11  H1  UNL     1      47.162 -69.708  40.571  1.00  0.00     0.153 HD
ENDBRANCH   7   9
ENDBRANCH   1   7
TORSDOF 2
ENDMDL
MODEL 2
REMARK VINA RESULT: -3.783462354      1.475      3.337
REMARK  2 active torsions:
REMARK  status: ('A' for Active; 'I' for Inactive)
REMARK    1  A    between atoms: N1_2  and  C2_4 
REMARK    2  A    between atoms: C2_4  and  C4_6 
ROOT
HETATM    1  C4  UNL     1      47.603 -67.741  40.202  1.00  0.00     0.059 C 
HETATM    2  C5  UNL     1      47.578 -68.870  39.230  1.00  0.00     0.240 C 
HETATM    3  N2  UNL     1      48.329 -67.990  38.301  1.00  0.00    -0.074 N 
ATOM      4  H21 UNL     1      48.314 -68.126  37.291  1.00  0.00     0.277 HD
ATOM      5  H22 UNL     1      49.347 -68.005  38.239  1.00  0.00     0.277 HD
HETATM    6  C6  UNL     1      47.606 -66.910  38.952  1.00  0.00     0.240 C 
ENDROOT
BRANCH   1   7
HETATM    7  C2  UNL     1      48.824 -67.494  41.022  1.00  0.00     0.079 C 
HETATM    8  C3  UNL     1      48.642 -66.164  41.721  1.00  0.00     0.032 C 
BRANCH   7   9
HETATM    9  N1  UNL     1      49.161 -68.484  41.981  1.00  0.00    -0.421 N 
HETATM   10  C1  UNL     1      50.426 -69.101  41.961  1.00  0.00     0.140 C 
ATOM     11  H1  UNL     1      48.480 -68.751  42.691  1.00  0.00     0.153 HD
ENDBRANCH   7   9
ENDBRANCH   1   7
TORSDOF 2
ENDMDL
MODEL 3
REMARK VINA RESULT: -3.728174271      1.245      3.576
REMARK  2 active torsions:
REMARK  status: ('A' for Active; 'I' for Inactive)
REMARK    1  A    between atoms: N1_2  and  C2_4 
REMARK    2  A    between atoms: C2_4  and  C4_6 
ROOT
HETATM    1  C4  UNL     1      48.706 -68.487  39.624  1.00  0.00     0.059 C 
HETATM    2  C5  UNL     1      48.417 -67.506  38.541  1.00  0.00     0.240 C 
HETATM    3  N2  UNL     1      46.993 -67.588  38.947  1.00  0.00    -0.074 N 
ATOM      4  H21 UNL     1      46.230 -67.359  38.310  1.00  0.00     0.277 HD
ATOM      5  H22 UNL     1      46.574 -66.931  39.606  1.00  0.00     0.277 HD
HETATM    6  C6  UNL     1      47.315 -68.958  39.313  1.00  0.00     0.240 C 
ENDROOT
BRANCH   1   7
HETATM    7  C2  UNL     1      48.821 -68.023  41.036  1.00  0.00     0.079 C 
HETATM    8  C3  UNL     1      49.903 -68.846  41.700  1.00  0.00     0.032 C 
BRANCH   7   9
HETATM    9  N1  UNL     1      49.091 -66.645  41.236  1.00  0.00    -0.421 N 
HETATM   10  C1  UNL     1      48.332 -65.889  42.149  1.00  0.00     0.140 C 
ATOM     11  H1  UNL     1      49.844 -66.197  40.713  1.00  0.00     0.153 HD
ENDBRANCH   7   9
ENDBRANCH   1   7
TORSDOF 2
ENDMDL
MODEL 4
REMARK VINA RESULT: -3.297869118      1.368      3.432
REMARK  2 active torsions:
REMARK  status: ('A' for Active; 'I' for Inactive)
REMARK    1  A    between atoms: N1_2  and  C2_4 
REMARK    2  A    between atoms: C2_4  and  C4_6 
ROOT
HETATM    1  C4  UNL     1      48.602 -68.372  39.614  1.00  0.00     0.059 C 
HETATM    2  C5  UNL     1      48.411 -67.958  38.196  1.00  0.00     0.240 C 
HETATM    3  N2  UNL     1      46.974 -67.780  38.518  1.00  0.00    -0.074 N 
ATOM      4  H21 UNL     1      46.247 -67.818  37.805  1.00  0.00     0.277 HD
ATOM      5  H22 UNL     1      46.585 -66.879  38.797  1.00  0.00     0.277 HD
HETATM    6  C6  UNL     1      47.191 -68.860  39.467  1.00  0.00     0.240 C 
ENDROOT
BRANCH   1   7
HETATM    7  C2  UNL     1      48.712 -67.336  40.682  1.00  0.00     0.079 C 
HETATM    8  C3  UNL     1      47.359 -67.225  41.351  1.00  0.00     0.032 C 
BRANCH   7   9
HETATM    9  N1  UNL     1      49.709 -67.540  41.671  1.00  0.00    -0.421 N 
HETATM   10  C1  UNL     1      50.162 -68.836  41.977  1.00  0.00     0.140 C 
ATOM     11  H1  UNL     1      50.101 -66.738  42.164  1.00  0.00     0.153 HD
ENDBRANCH   7   9
ENDBRANCH   1   7
TORSDOF 2
ENDMDL
MODEL 5
REMARK VINA RESULT: -2.928596680      1.245      2.027
REMARK  2 active torsions:
REMARK  status: ('A' for Active; 'I' for Inactive)
REMARK    1  A    between atoms: N1_2  and  C2_4 
REMARK    2  A    between atoms: C2_4  and  C4_6 
ROOT
HETATM    1  C4  UNL     1      48.031 -68.018  41.288  1.00  0.00     0.059 C 
HETATM    2  C5  UNL     1      47.936 -66.577  41.652  1.00  0.00     0.240 C 
HETATM    3  N2  UNL     1      49.382 -66.478  41.339  1.00  0.00    -0.074 N 
ATOM      4  H21 UNL     1      49.978 -65.752  41.735  1.00  0.00     0.277 HD
ATOM      5  H22 UNL     1      49.723 -66.188  40.422  1.00  0.00     0.277 HD
HETATM    6  C6  UNL     1      49.437 -67.860  41.788  1.00  0.00     0.240 C 
ENDROOT
BRANCH   1   7
HETATM    7  C2  UNL     1      48.004 -68.426  39.854  1.00  0.00     0.079 C 
HETATM    8  C3  UNL     1      47.079 -69.617  39.735  1.00  0.00     0.032 C 
BRANCH   7   9
HETATM    9  N1  UNL     1      47.616 -67.436  38.915  1.00  0.00    -0.421 N 
HETATM   10  C1  UNL     1      48.230 -67.364  37.651  1.00  0.00     0.140 C 
ATOM     11  H1  UNL     1      46.884 -66.769  39.159  1.00  0.00     0.153 HD
ENDBRANCH   7   9
ENDBRANCH   1   7
TORSDOF 2
ENDMDL
