MODEL 1
REMARK VINA RESULT: -5.098613072      0.000      0.000
REMARK  2 active torsions:
REMARK  status: ('A' for Active; 'I' for Inactive)
REMARK    1  A    between atoms: N1_2  and  C2_5 
REMARK    2  A    between atoms: C2_5  and  C3_6 
ROOT
HETATM    1  C3  UNL     1      48.103 -68.112  39.757  1.00  0.00    -0.030 A 
HETATM    2  C4  UNL     1      47.945 -66.741  39.779  1.00  0.00     0.026 A 
HETATM    3  C5  UNL     1      48.587 -65.971  40.717  1.00  0.00     0.088 A 
HETATM    4  N2  UNL     1      49.379 -66.546  41.625  1.00  0.00    -0.375 N 
ATOM      5  H2  UNL     1      49.853 -65.967  42.319  1.00  0.00     0.164 HD
HETATM    6  C6  UNL     1      49.560 -67.883  41.638  1.00  0.00     0.088 A 
HETATM    7  C7  UNL     1      48.929 -68.671  40.711  1.00  0.00     0.026 A 
ENDROOT
BRANCH   1   8
HETATM    8  C2  UNL     1      47.385 -68.869  38.726  1.00  0.00     0.270 C 
BRANCH   8   9
HETATM    9  N1  UNL     1      46.570 -69.927  39.235  1.00  0.00    -0.075 N 
HETATM   10  C1  UNL     1      45.824 -70.476  38.116  1.00  0.00     0.267 C 
ATOM     11  H12 UNL     1      45.972 -69.633  40.007  1.00  0.00     0.277 HD
ATOM     12  H11 UNL     1      47.105 -70.633  39.743  1.00  0.00     0.277 HD
ENDBRANCH   8   9
ENDBRANCH   1   8
TORSDOF 2
ENDMDL
MODEL 2
REMARK VINA RESULT: -5.054133148      0.068      1.565
REMARK  2 active torsions:
REMARK  status: ('A' for Active; 'I' for Inactive)
REMARK    1  A    between atoms: N1_2  and  C2_5 
REMARK    2  A    between atoms: C2_5  and  C3_6 
ROOT
HETATM    1  C3  UNL     1      48.107 -68.051  39.724  1.00  0.00    -0.030 A 
HETATM    2  C4  UNL     1      48.921 -68.664  40.654  1.00  0.00     0.026 A 
HETATM    3  C5  UNL     1      49.552 -67.934  41.630  1.00  0.00     0.088 A 
HETATM    4  N2  UNL     1      49.383 -66.611  41.689  1.00  0.00    -0.375 N 
ATOM      5  H2  UNL     1      49.856 -66.075  42.418  1.00  0.00     0.164 HD
HETATM    6  C6  UNL     1      48.596 -65.973  40.798  1.00  0.00     0.088 A 
HETATM    7  C7  UNL     1      47.956 -66.682  39.816  1.00  0.00     0.026 A 
ENDROOT
BRANCH   1   8
HETATM    8  C2  UNL     1      47.465 -68.896  38.710  1.00  0.00     0.270 C 
BRANCH   8   9
HETATM    9  N1  UNL     1      46.574 -69.878  39.244  1.00  0.00    -0.075 N 
HETATM   10  C1  UNL     1      45.859 -70.467  38.125  1.00  0.00     0.267 C 
ATOM     11  H12 UNL     1      45.952 -69.504  39.961  1.00  0.00     0.277 HD
ATOM     12  H11 UNL     1      47.046 -70.571  39.825  1.00  0.00     0.277 HD
ENDBRANCH   8   9
ENDBRANCH   1   8
TORSDOF 2
ENDMDL
MODEL 3
REMARK VINA RESULT: -4.169367924      1.118      1.971
REMARK  2 active torsions:
REMARK  status: ('A' for Active; 'I' for Inactive)
REMARK    1  A    between atoms: N1_2  and  C2_5 
REMARK    2  A    between atoms: C2_5  and  C3_6 
ROOT
HETATM    1  C3  UNL     1      48.008 -68.301  40.458  1.00  0.00    -0.030 A 
HETATM    2  C4  UNL     1      49.186 -68.690  41.062  1.00  0.00     0.026 A 
HETATM    3  C5  UNL     1      49.936 -67.798  41.786  1.00  0.00     0.088 A 
HETATM    4  N2  UNL     1      49.530 -66.533  41.914  1.00  0.00    -0.375 N 
ATOM      5  H2  UNL     1      50.094 -65.875  42.454  1.00  0.00     0.164 HD
HETATM    6  C6  UNL     1      48.385 -66.111  41.339  1.00  0.00     0.088 A 
HETATM    7  C7  UNL     1      47.620 -66.986  40.612  1.00  0.00     0.026 A 
ENDROOT
BRANCH   1   8
HETATM    8  C2  UNL     1      47.259 -69.310  39.700  1.00  0.00     0.270 C 
BRANCH   8   9
HETATM    9  N1  UNL     1      46.823 -68.871  38.411  1.00  0.00    -0.075 N 
HETATM   10  C1  UNL     1      48.007 -68.507  37.653  1.00  0.00     0.267 C 
ATOM     11  H12 UNL     1      46.133 -68.121  38.457  1.00  0.00     0.277 HD
ATOM     12  H11 UNL     1      46.239 -69.559  37.933  1.00  0.00     0.277 HD
ENDBRANCH   8   9
ENDBRANCH   1   8
TORSDOF 2
ENDMDL
MODEL 4
REMARK VINA RESULT: -4.160597734      1.131      1.270
REMARK  2 active torsions:
REMARK  status: ('A' for Active; 'I' for Inactive)
REMARK    1  A    between atoms: N1_2  and  C2_5 
REMARK    2  A    between atoms: C2_5  and  C3_6 
ROOT
HETATM    1  C3  UNL     1      48.067 -68.364  40.477  1.00  0.00    -0.030 A 
HETATM    2  C4  UNL     1      47.628 -67.061  40.597  1.00  0.00     0.026 A 
HETATM    3  C5  UNL     1      48.348 -66.137  41.312  1.00  0.00     0.088 A 
HETATM    4  N2  UNL     1      49.490 -66.492  41.905  1.00  0.00    -0.375 N 
ATOM      5  H2  UNL     1      50.019 -65.799  42.435  1.00  0.00     0.164 HD
HETATM    6  C6  UNL     1      49.954 -67.756  41.813  1.00  0.00     0.088 A 
HETATM    7  C7  UNL     1      49.251 -68.695  41.103  1.00  0.00     0.026 A 
ENDROOT
BRANCH   1   8
HETATM    8  C2  UNL     1      47.245 -69.296  39.697  1.00  0.00     0.270 C 
BRANCH   8   9
HETATM    9  N1  UNL     1      46.835 -68.793  38.424  1.00  0.00    -0.075 N 
HETATM   10  C1  UNL     1      48.039 -68.527  37.655  1.00  0.00     0.267 C 
ATOM     11  H12 UNL     1      46.221 -67.982  38.494  1.00  0.00     0.277 HD
ATOM     12  H11 UNL     1      46.183 -69.412  37.942  1.00  0.00     0.277 HD
ENDBRANCH   8   9
ENDBRANCH   1   8
TORSDOF 2
ENDMDL
MODEL 5
REMARK VINA RESULT: -3.708273915      1.322      3.776
REMARK  2 active torsions:
REMARK  status: ('A' for Active; 'I' for Inactive)
REMARK    1  A    between atoms: N1_2  and  C2_5 
REMARK    2  A    between atoms: C2_5  and  C3_6 
ROOT
HETATM    1  C3  UNL     1      48.005 -67.938  40.241  1.00  0.00    -0.030 A 
HETATM    2  C4  UNL     1      48.386 -67.195  39.142  1.00  0.00     0.026 A 
HETATM    3  C5  UNL     1      48.089 -67.614  37.870  1.00  0.00     0.088 A 
HETATM    4  N2  UNL     1      47.421 -68.755  37.680  1.00  0.00    -0.375 N 
ATOM      5  H2  UNL     1      47.204 -69.059  36.731  1.00  0.00     0.164 HD
HETATM    6  C6  UNL     1      47.031 -69.511  38.728  1.00  0.00     0.088 A 
HETATM    7  C7  UNL     1      47.317 -69.111  40.007  1.00  0.00     0.026 A 
ENDROOT
BRANCH   1   8
HETATM    8  C2  UNL     1      48.358 -67.427  41.571  1.00  0.00     0.270 C 
BRANCH   8   9
HETATM    9  N1  UNL     1      49.761 -67.422  41.843  1.00  0.00    -0.075 N 
HETATM   10  C1  UNL     1      50.181 -68.805  41.985  1.00  0.00     0.267 C 
ATOM     11  H12 UNL     1      50.009 -66.846  42.649  1.00  0.00     0.277 HD
ATOM     12  H11 UNL     1      50.301 -66.911  41.144  1.00  0.00     0.277 HD
ENDBRANCH   8   9
ENDBRANCH   1   8
TORSDOF 2
ENDMDL
