MODEL 1
REMARK VINA RESULT: -4.994470004      0.000      0.000
REMARK  3 active torsions:
REMARK  status: ('A' for Active; 'I' for Inactive)
REMARK    1  A    between atoms: C2_2  and  C3_3 
REMARK    2  A    between atoms: C5_9  and  C6_10 
REMARK    3  A    between atoms: C6_10  and  N3_11 
ROOT
HETATM    1  C3  UNL     1      48.562 -67.763  40.274  1.00  0.00     0.006 A 
HETATM    2  C4  UNL     1      48.508 -66.432  40.627  1.00  0.00     0.120 A 
HETATM    3  N1  UNL     1      47.812 -65.814  39.671  1.00  0.00    -0.311 N 
ATOM      4  H1  UNL     1      47.612 -64.814  39.670  1.00  0.00     0.186 HD
HETATM    5  N2  UNL     1      47.412 -66.644  38.729  1.00  0.00    -0.303 N 
ATOM      6  H2  UNL     1      46.867 -66.410  37.899  1.00  0.00     0.186 HD
HETATM    7  C5  UNL     1      47.864 -67.858  39.080  1.00  0.00     0.062 A 
ENDROOT
BRANCH   7   8
HETATM    8  C6  UNL     1      47.635 -69.094  38.288  1.00  0.00     0.288 C 
BRANCH   8   9
HETATM    9  N3  UNL     1      46.361 -69.669  38.593  1.00  0.00    -0.074 N 
ATOM     10  H33 UNL     1      45.805 -69.057  39.189  1.00  0.00     0.274 HD
ATOM     11  H32 UNL     1      45.750 -69.686  37.776  1.00  0.00     0.274 HD
ATOM     12  H31 UNL     1      46.468 -70.597  39.002  1.00  0.00     0.274 HD
ENDBRANCH   8   9
ENDBRANCH   7   8
BRANCH   1  13
HETATM   13  C2  UNL     1      49.195 -68.860  40.968  1.00  0.00     0.004 C 
HETATM   14  C1  UNL     1      50.091 -68.640  41.920  1.00  0.00     0.012 C 
ENDBRANCH   1  13
TORSDOF 3
ENDMDL
MODEL 2
REMARK VINA RESULT: -4.459591635      1.192      2.772
REMARK  3 active torsions:
REMARK  status: ('A' for Active; 'I' for Inactive)
REMARK    1  A    between atoms: C2_2  and  C3_3 
REMARK    2  A    between atoms: C5_9  and  C6_10 
REMARK    3  A    between atoms: C6_10  and  N3_11 
ROOT
HETATM    1  C3  UNL     1      48.220 -68.272  40.498  1.00  0.00     0.006 A 
HETATM    2  C4  UNL     1      47.519 -68.995  39.557  1.00  0.00     0.120 A 
HETATM    3  N1  UNL     1      47.105 -68.121  38.638  1.00  0.00    -0.311 N 
ATOM      4  H1  UNL     1      46.558 -68.377  37.816  1.00  0.00     0.186 HD
HETATM    5  N2  UNL     1      47.485 -66.890  38.913  1.00  0.00    -0.303 N 
ATOM      6  H2  UNL     1      47.292 -66.052  38.363  1.00  0.00     0.186 HD
HETATM    7  C5  UNL     1      48.177 -66.956  40.061  1.00  0.00     0.062 A 
ENDROOT
BRANCH   7   8
HETATM    8  C6  UNL     1      48.791 -65.783  40.734  1.00  0.00     0.288 C 
BRANCH   8   9
HETATM    9  N3  UNL     1      48.432 -65.741  42.119  1.00  0.00    -0.074 N 
ATOM     10  H33 UNL     1      49.210 -66.015  42.718  1.00  0.00     0.274 HD
ATOM     11  H32 UNL     1      48.313 -64.783  42.448  1.00  0.00     0.274 HD
ATOM     12  H31 UNL     1      47.602 -66.306  42.298  1.00  0.00     0.274 HD
ENDBRANCH   8   9
ENDBRANCH   7   8
BRANCH   1  13
HETATM   13  C2  UNL     1      48.875 -68.739  41.697  1.00  0.00     0.004 C 
HETATM   14  C1  UNL     1      50.191 -68.890  41.741  1.00  0.00     0.012 C 
ENDBRANCH   1  13
TORSDOF 3
ENDMDL
MODEL 3
REMARK VINA RESULT: -4.104455563      1.883      3.268
REMARK  3 active torsions:
REMARK  status: ('A' for Active; 'I' for Inactive)
REMARK    1  A    between atoms: C2_2  and  C3_3 
REMARK    2  A    between atoms: C5_9  and  C6_10 
REMARK    3  A    between atoms: C6_10  and  N3_11 
ROOT
HETATM    1  C3  UNL     1      47.620 -68.430  39.214  1.00  0.00     0.006 A 
HETATM    2  C4  UNL     1      48.014 -68.071  37.944  1.00  0.00     0.120 A 
HETATM    3  N1  UNL     1      48.531 -66.844  38.039  1.00  0.00    -0.311 N 
ATOM      4  H1  UNL     1      48.906 -66.323  37.247  1.00  0.00     0.186 HD
HETATM    5  N2  UNL     1      48.501 -66.385  39.274  1.00  0.00    -0.303 N 
ATOM      6  H2  UNL     1      48.836 -65.478  39.597  1.00  0.00     0.186 HD
HETATM    7  C5  UNL     1      47.941 -67.349  40.021  1.00  0.00     0.062 A 
ENDROOT
BRANCH   7   8
HETATM    8  C6  UNL     1      47.714 -67.243  41.485  1.00  0.00     0.288 C 
BRANCH   8   9
HETATM    9  N3  UNL     1      48.496 -66.187  42.050  1.00  0.00    -0.074 N 
ATOM     10  H33 UNL     1      48.117 -65.270  41.814  1.00  0.00     0.274 HD
ATOM     11  H32 UNL     1      48.391 -66.142  43.064  1.00  0.00     0.274 HD
ATOM     12  H31 UNL     1      49.475 -66.271  41.777  1.00  0.00     0.274 HD
ENDBRANCH   8   9
ENDBRANCH   7   8
BRANCH   1  13
HETATM   13  C2  UNL     1      47.003 -69.658  39.659  1.00  0.00     0.004 C 
HETATM   14  C1  UNL     1      46.284 -70.400  38.829  1.00  0.00     0.012 C 
ENDBRANCH   1  13
TORSDOF 3
ENDMDL
MODEL 4
REMARK VINA RESULT: -4.073982467      2.045      3.222
REMARK  3 active torsions:
REMARK  status: ('A' for Active; 'I' for Inactive)
REMARK    1  A    between atoms: C2_2  and  C3_3 
REMARK    2  A    between atoms: C5_9  and  C6_10 
REMARK    3  A    between atoms: C6_10  and  N3_11 
ROOT
HETATM    1  C3  UNL     1      48.115 -67.757  40.216  1.00  0.00     0.006 A 
HETATM    2  C4  UNL     1      48.022 -66.489  39.684  1.00  0.00     0.120 A 
HETATM    3  N1  UNL     1      48.742 -65.692  40.476  1.00  0.00    -0.311 N 
ATOM      4  H1  UNL     1      48.853 -64.690  40.323  1.00  0.00     0.186 HD
HETATM    5  N2  UNL     1      49.292 -66.348  41.477  1.00  0.00    -0.303 N 
ATOM      6  H2  UNL     1      49.884 -65.959  42.212  1.00  0.00     0.186 HD
HETATM    7  C5  UNL     1      48.919 -67.629  41.339  1.00  0.00     0.062 A 
ENDROOT
BRANCH   7   8
HETATM    8  C6  UNL     1      49.321 -68.720  42.263  1.00  0.00     0.288 C 
BRANCH   8   9
HETATM    9  N3  UNL     1      50.615 -69.229  41.923  1.00  0.00    -0.074 N 
ATOM     10  H33 UNL     1      51.156 -68.551  41.387  1.00  0.00     0.274 HD
ATOM     11  H32 UNL     1      51.220 -69.297  42.742  1.00  0.00     0.274 HD
ATOM     12  H31 UNL     1      50.540 -70.121  41.435  1.00  0.00     0.274 HD
ENDBRANCH   8   9
ENDBRANCH   7   8
BRANCH   1  13
HETATM   13  C2  UNL     1      47.522 -68.985  39.740  1.00  0.00     0.004 C 
HETATM   14  C1  UNL     1      47.177 -69.129  38.469  1.00  0.00     0.012 C 
ENDBRANCH   1  13
TORSDOF 3
ENDMDL
MODEL 5
REMARK VINA RESULT: -3.653797561      1.641      1.768
REMARK  3 active torsions:
REMARK  status: ('A' for Active; 'I' for Inactive)
REMARK    1  A    between atoms: C2_2  and  C3_3 
REMARK    2  A    between atoms: C5_9  and  C6_10 
REMARK    3  A    between atoms: C6_10  and  N3_11 
ROOT
HETATM    1  C3  UNL     1      47.902 -67.429  39.919  1.00  0.00     0.006 A 
HETATM    2  C4  UNL     1      48.455 -66.508  39.056  1.00  0.00     0.120 A 
HETATM    3  N1  UNL     1      48.426 -67.061  37.842  1.00  0.00    -0.311 N 
ATOM      4  H1  UNL     1      48.774 -66.602  37.001  1.00  0.00     0.186 HD
HETATM    5  N2  UNL     1      47.897 -68.267  37.856  1.00  0.00    -0.303 N 
ATOM      6  H2  UNL     1      47.766 -68.888  37.056  1.00  0.00     0.186 HD
HETATM    7  C5  UNL     1      47.564 -68.518  39.131  1.00  0.00     0.062 A 
ENDROOT
BRANCH   7   8
HETATM    8  C6  UNL     1      46.932 -69.780  39.596  1.00  0.00     0.288 C 
BRANCH   8   9
HETATM    9  N3  UNL     1      46.051 -70.308  38.600  1.00  0.00    -0.074 N 
ATOM     10  H33 UNL     1      46.532 -70.460  37.713  1.00  0.00     0.274 HD
ATOM     11  H32 UNL     1      45.791 -71.274  38.801  1.00  0.00     0.274 HD
ATOM     12  H31 UNL     1      45.230 -69.714  38.486  1.00  0.00     0.274 HD
ENDBRANCH   8   9
ENDBRANCH   7   8
BRANCH   1  13
HETATM   13  C2  UNL     1      47.696 -67.325  41.345  1.00  0.00     0.004 C 
HETATM   14  C1  UNL     1      48.396 -66.469  42.076  1.00  0.00     0.012 C 
ENDBRANCH   1  13
TORSDOF 3
ENDMDL
