MODEL 1
REMARK VINA RESULT: -8.342063271      0.000      0.000
REMARK  4 active torsions:
REMARK  status: ('A' for Active; 'I' for Inactive)
REMARK    1  A    between atoms: C2_2  and  N1_4 
REMARK       I    between atoms: N1_4  and  C4_6 
REMARK       I    between atoms: C4_6  and  N2_8 
REMARK    2  A    between atoms: N2_8  and  C5_10 
REMARK    3  A    between atoms: C6_11  and  C7_12 
REMARK    4  A    between atoms: C7_12  and  C9_14 
ROOT
HETATM    1  C5  UNL     1      -4.379   3.703  12.578  1.00  0.00     0.127 C 
HETATM    2  C6  UNL     1      -3.082   2.985  12.731  1.00  0.00     0.162 C 
HETATM    3  O4  UNL     1      -1.938   3.788  12.710  1.00  0.00    -0.350 OA
HETATM    4  C10 UNL     1      -2.208   4.968  13.235  1.00  0.00     0.299 C 
HETATM    5  O5  UNL     1      -1.204   5.815  13.633  1.00  0.00    -0.323 OA
HETATM    6  C11 UNL     1      -1.869   7.036  13.793  1.00  0.00     0.165 C 
HETATM    7  C12 UNL     1      -1.780   7.581  15.200  1.00  0.00     0.079 C 
HETATM    8  C13 UNL     1      -1.168   7.982  12.805  1.00  0.00     0.069 C 
HETATM    9  C14 UNL     1      -1.039   7.113  11.539  1.00  0.00     0.013 C 
HETATM   10  C15 UNL     1      -2.448   6.615  11.283  1.00  0.00     0.030 C 
HETATM   11  C16 UNL     1      -2.473   6.030   9.915  1.00  0.00    -0.012 C 
HETATM   12  C17 UNL     1      -1.157   5.354   9.527  1.00  0.00     0.010 C 
HETATM   13  C18 UNL     1      -3.622   5.145   9.600  1.00  0.00     0.005 C 
HETATM   14  C19 UNL     1      -4.699   5.114  10.600  1.00  0.00     0.015 C 
HETATM   15  C20 UNL     1      -4.299   5.123  12.053  1.00  0.00     0.016 C 
HETATM   16  C21 UNL     1      -5.445   5.912  12.731  1.00  0.00     0.020 C 
HETATM   17  C22 UNL     1      -3.066   5.852  12.386  1.00  0.00     0.127 C 
HETATM   18  O6  UNL     1      -3.215   6.835  13.418  1.00  0.00    -0.338 OA
ENDROOT
BRANCH   1  19
HETATM   19  N2  UNL     1      -5.200   3.746  13.770  1.00  0.00    -0.335 N 
HETATM   20  C4  UNL     1      -5.335   2.763  14.751  1.00  0.00     0.316 C 
HETATM   21  N1  UNL     1      -6.208   2.903  15.885  1.00  0.00    -0.339 N 
HETATM   22  O1  UNL     1      -4.700   1.681  14.714  1.00  0.00    -0.247 OA
ATOM     23  H1  UNL     1      -6.793   3.737  15.935  1.00  0.00     0.164 HD
ATOM     24  H2  UNL     1      -5.745   4.596  13.910  1.00  0.00     0.164 HD
BRANCH  21  25
HETATM   25  C2  UNL     1      -6.312   1.956  16.945  1.00  0.00     0.078 C 
HETATM   26  C1  UNL     1      -7.501   1.026  16.843  1.00  0.00     0.032 C 
HETATM   27  C3  UNL     1      -6.362   2.703  18.233  1.00  0.00     0.032 C 
ENDBRANCH  21  25
ENDBRANCH   1  19
BRANCH   2  28
HETATM   28  C7  UNL     1      -2.783   1.913  11.730  1.00  0.00     0.114 C 
HETATM   29  C8  UNL     1      -1.928   2.253  10.576  1.00  0.00     0.024 C 
BRANCH  28  30
HETATM   30  C9  UNL     1      -4.129   1.445  11.229  1.00  0.00     0.179 C 
HETATM   31  O2  UNL     1      -4.600   1.829  10.129  1.00  0.00    -0.648 OA
HETATM   32  O3  UNL     1      -4.921   0.548  11.973  1.00  0.00    -0.648 OA
ENDBRANCH  28  30
ENDBRANCH   2  28
TORSDOF 4
ENDMDL
MODEL 2
REMARK VINA RESULT: -8.300977827      3.169      7.160
REMARK  4 active torsions:
REMARK  status: ('A' for Active; 'I' for Inactive)
REMARK    1  A    between atoms: C2_2  and  N1_4 
REMARK       I    between atoms: N1_4  and  C4_6 
REMARK       I    between atoms: C4_6  and  N2_8 
REMARK    2  A    between atoms: N2_8  and  C5_10 
REMARK    3  A    between atoms: C6_11  and  C7_12 
REMARK    4  A    between atoms: C7_12  and  C9_14 
ROOT
HETATM    1  C5  UNL     1      -1.759   5.124  10.370  1.00  0.00     0.127 C 
HETATM    2  C6  UNL     1      -0.651   4.379  11.033  1.00  0.00     0.162 C 
HETATM    3  O4  UNL     1      -1.044   3.381  11.929  1.00  0.00    -0.350 OA
HETATM    4  C10 UNL     1      -2.178   2.838  11.530  1.00  0.00     0.299 C 
HETATM    5  O5  UNL     1      -2.607   1.636  12.034  1.00  0.00    -0.323 OA
HETATM    6  C11 UNL     1      -3.949   1.591  11.640  1.00  0.00     0.165 C 
HETATM    7  C12 UNL     1      -4.267   0.408  10.753  1.00  0.00     0.079 C 
HETATM    8  C13 UNL     1      -4.729   1.499  12.960  1.00  0.00     0.069 C 
HETATM    9  C14 UNL     1      -4.020   2.541  13.847  1.00  0.00     0.013 C 
HETATM   10  C15 UNL     1      -4.032   3.808  13.014  1.00  0.00     0.030 C 
HETATM   11  C16 UNL     1      -3.650   4.934  13.909  1.00  0.00    -0.012 C 
HETATM   12  C17 UNL     1      -2.639   4.530  14.984  1.00  0.00     0.010 C 
HETATM   13  C18 UNL     1      -3.222   6.188  13.242  1.00  0.00     0.005 C 
HETATM   14  C19 UNL     1      -3.420   6.238  11.786  1.00  0.00     0.015 C 
HETATM   15  C20 UNL     1      -3.131   4.985  11.002  1.00  0.00     0.016 C 
HETATM   16  C21 UNL     1      -4.159   5.043   9.846  1.00  0.00     0.020 C 
HETATM   17  C22 UNL     1      -3.383   3.711  11.691  1.00  0.00     0.127 C 
HETATM   18  O6  UNL     1      -4.233   2.805  10.977  1.00  0.00    -0.338 OA
ENDROOT
BRANCH   1  19
HETATM   19  N2  UNL     1      -1.922   4.850   8.957  1.00  0.00    -0.335 N 
HETATM   20  C4  UNL     1      -1.203   5.393   7.893  1.00  0.00     0.316 C 
HETATM   21  N1  UNL     1      -1.472   5.067   6.518  1.00  0.00    -0.339 N 
HETATM   22  O1  UNL     1      -0.263   6.208   8.059  1.00  0.00    -0.247 OA
ATOM     23  H1  UNL     1      -2.264   4.454   6.321  1.00  0.00     0.164 HD
ATOM     24  H2  UNL     1      -2.649   4.179   8.710  1.00  0.00     0.164 HD
BRANCH  21  25
HETATM   25  C2  UNL     1      -0.709   5.540   5.412  1.00  0.00     0.078 C 
HETATM   26  C1  UNL     1      -1.533   5.986   4.224  1.00  0.00     0.032 C 
HETATM   27  C3  UNL     1       0.232   4.461   5.000  1.00  0.00     0.032 C 
ENDBRANCH  21  25
ENDBRANCH   1  19
BRANCH   2  28
HETATM   28  C7  UNL     1       0.335   5.191  11.813  1.00  0.00     0.114 C 
HETATM   29  C8  UNL     1       0.119   6.647  11.913  1.00  0.00     0.024 C 
BRANCH  28  30
HETATM   30  C9  UNL     1       1.672   4.933  11.160  1.00  0.00     0.179 C 
HETATM   31  O2  UNL     1       2.367   3.924  11.441  1.00  0.00    -0.648 OA
HETATM   32  O3  UNL     1       2.204   5.814  10.196  1.00  0.00    -0.648 OA
ENDBRANCH  28  30
ENDBRANCH   2  28
TORSDOF 4
ENDMDL
MODEL 3
REMARK VINA RESULT: -8.265122524      1.919      3.854
REMARK  4 active torsions:
REMARK  status: ('A' for Active; 'I' for Inactive)
REMARK    1  A    between atoms: C2_2  and  N1_4 
REMARK       I    between atoms: N1_4  and  C4_6 
REMARK       I    between atoms: C4_6  and  N2_8 
REMARK    2  A    between atoms: N2_8  and  C5_10 
REMARK    3  A    between atoms: C6_11  and  C7_12 
REMARK    4  A    between atoms: C7_12  and  C9_14 
ROOT
HETATM    1  C5  UNL     1      -4.486   5.281  13.321  1.00  0.00     0.127 C 
HETATM    2  C6  UNL     1      -4.961   5.405  11.914  1.00  0.00     0.162 C 
HETATM    3  O4  UNL     1      -3.975   5.291  10.929  1.00  0.00    -0.350 OA
HETATM    4  C10 UNL     1      -3.032   4.460  11.330  1.00  0.00     0.299 C 
HETATM    5  O5  UNL     1      -2.135   3.921  10.443  1.00  0.00    -0.323 OA
HETATM    6  C11 UNL     1      -1.138   3.405  11.280  1.00  0.00     0.165 C 
HETATM    7  C12 UNL     1      -0.949   1.913  11.126  1.00  0.00     0.079 C 
HETATM    8  C13 UNL     1       0.135   4.155  10.861  1.00  0.00     0.069 C 
HETATM    9  C14 UNL     1      -0.356   5.610  10.731  1.00  0.00     0.013 C 
HETATM   10  C15 UNL     1      -1.034   5.894  12.057  1.00  0.00     0.030 C 
HETATM   11  C16 UNL     1      -1.260   7.363  12.138  1.00  0.00    -0.012 C 
HETATM   12  C17 UNL     1      -1.559   7.999  10.779  1.00  0.00     0.010 C 
HETATM   13  C18 UNL     1      -2.242   7.822  13.151  1.00  0.00     0.005 C 
HETATM   14  C19 UNL     1      -2.720   6.797  14.089  1.00  0.00     0.015 C 
HETATM   15  C20 UNL     1      -2.992   5.421  13.537  1.00  0.00     0.016 C 
HETATM   16  C21 UNL     1      -2.624   4.486  14.715  1.00  0.00     0.020 C 
HETATM   17  C22 UNL     1      -2.146   4.991  12.413  1.00  0.00     0.127 C 
HETATM   18  O6  UNL     1      -1.494   3.730  12.607  1.00  0.00    -0.338 OA
ENDROOT
BRANCH   1  19
HETATM   19  N2  UNL     1      -4.893   4.067  13.999  1.00  0.00    -0.335 N 
HETATM   20  C4  UNL     1      -5.735   3.947  15.104  1.00  0.00     0.316 C 
HETATM   21  N1  UNL     1      -6.049   2.684  15.716  1.00  0.00    -0.339 N 
HETATM   22  O1  UNL     1      -6.284   4.937  15.645  1.00  0.00    -0.247 OA
ATOM     23  H1  UNL     1      -5.583   1.851  15.353  1.00  0.00     0.164 HD
ATOM     24  H2  UNL     1      -4.519   3.196  13.623  1.00  0.00     0.164 HD
BRANCH  21  25
HETATM   25  C2  UNL     1      -6.964   2.515  16.794  1.00  0.00     0.078 C 
HETATM   26  C1  UNL     1      -6.342   2.612  18.169  1.00  0.00     0.032 C 
HETATM   27  C3  UNL     1      -7.634   1.194  16.633  1.00  0.00     0.032 C 
ENDBRANCH  21  25
ENDBRANCH   1  19
BRANCH   2  28
HETATM   28  C7  UNL     1      -5.678   6.669  11.554  1.00  0.00     0.114 C 
HETATM   29  C8  UNL     1      -6.991   6.929  12.175  1.00  0.00     0.024 C 
BRANCH  28  30
HETATM   30  C9  UNL     1      -5.842   6.623  10.053  1.00  0.00     0.179 C 
HETATM   31  O2  UNL     1      -6.677   5.867   9.496  1.00  0.00    -0.648 OA
HETATM   32  O3  UNL     1      -5.064   7.434   9.201  1.00  0.00    -0.648 OA
ENDBRANCH  28  30
ENDBRANCH   2  28
TORSDOF 4
ENDMDL
MODEL 4
REMARK VINA RESULT: -8.207369515      2.869      6.262
REMARK  4 active torsions:
REMARK  status: ('A' for Active; 'I' for Inactive)
REMARK    1  A    between atoms: C2_2  and  N1_4 
REMARK       I    between atoms: N1_4  and  C4_6 
REMARK       I    between atoms: C4_6  and  N2_8 
REMARK    2  A    between atoms: N2_8  and  C5_10 
REMARK    3  A    between atoms: C6_11  and  C7_12 
REMARK    4  A    between atoms: C7_12  and  C9_14 
ROOT
HETATM    1  C5  UNL     1      -1.900   4.093  10.940  1.00  0.00     0.127 C 
HETATM    2  C6  UNL     1      -2.958   3.094  10.615  1.00  0.00     0.162 C 
HETATM    3  O4  UNL     1      -4.275   3.555  10.704  1.00  0.00    -0.350 OA
HETATM    4  C10 UNL     1      -4.327   4.833  10.382  1.00  0.00     0.299 C 
HETATM    5  O5  UNL     1      -5.518   5.439  10.071  1.00  0.00    -0.323 OA
HETATM    6  C11 UNL     1      -5.203   6.801  10.133  1.00  0.00     0.165 C 
HETATM    7  C12 UNL     1      -5.427   7.523   8.823  1.00  0.00     0.079 C 
HETATM    8  C13 UNL     1      -6.136   7.357  11.219  1.00  0.00     0.069 C 
HETATM    9  C14 UNL     1      -6.036   6.293  12.329  1.00  0.00     0.013 C 
HETATM   10  C15 UNL     1      -4.546   6.148  12.573  1.00  0.00     0.030 C 
HETATM   11  C16 UNL     1      -4.373   5.378  13.834  1.00  0.00    -0.012 C 
HETATM   12  C17 UNL     1      -5.463   4.326  14.050  1.00  0.00     0.010 C 
HETATM   13  C18 UNL     1      -3.031   4.786  14.064  1.00  0.00     0.005 C 
HETATM   14  C19 UNL     1      -1.980   5.201  13.124  1.00  0.00     0.015 C 
HETATM   15  C20 UNL     1      -2.359   5.339  11.673  1.00  0.00     0.016 C 
HETATM   16  C21 UNL     1      -1.462   6.500  11.180  1.00  0.00     0.020 C 
HETATM   17  C22 UNL     1      -3.740   5.763  11.397  1.00  0.00     0.127 C 
HETATM   18  O6  UNL     1      -3.853   6.903  10.536  1.00  0.00    -0.338 OA
ENDROOT
BRANCH   1  19
HETATM   19  N2  UNL     1      -1.114   4.542   9.809  1.00  0.00    -0.335 N 
HETATM   20  C4  UNL     1       0.150   4.103   9.419  1.00  0.00     0.316 C 
HETATM   21  N1  UNL     1       0.853   4.644   8.287  1.00  0.00    -0.339 N 
HETATM   22  O1  UNL     1       0.769   3.198  10.030  1.00  0.00    -0.247 OA
ATOM     23  H1  UNL     1       0.423   5.423   7.788  1.00  0.00     0.164 HD
ATOM     24  H2  UNL     1      -1.536   5.266   9.227  1.00  0.00     0.164 HD
BRANCH  21  25
HETATM   25  C2  UNL     1       2.110   4.167   7.814  1.00  0.00     0.078 C 
HETATM   26  C1  UNL     1       3.229   5.183   7.868  1.00  0.00     0.032 C 
HETATM   27  C3  UNL     1       1.928   3.687   6.415  1.00  0.00     0.032 C 
ENDBRANCH  21  25
ENDBRANCH   1  19
BRANCH   2  28
HETATM   28  C7  UNL     1      -2.966   1.834  11.424  1.00  0.00     0.114 C 
HETATM   29  C8  UNL     1      -1.830   0.904  11.279  1.00  0.00     0.024 C 
BRANCH  28  30
HETATM   30  C9  UNL     1      -4.242   1.121  11.042  1.00  0.00     0.179 C 
HETATM   31  O2  UNL     1      -4.378   0.549   9.931  1.00  0.00    -0.648 OA
HETATM   32  O3  UNL     1      -5.343   1.061  11.919  1.00  0.00    -0.648 OA
ENDBRANCH  28  30
ENDBRANCH   2  28
TORSDOF 4
ENDMDL
MODEL 5
REMARK VINA RESULT: -7.817891025      2.625      6.135
REMARK  4 active torsions:
REMARK  status: ('A' for Active; 'I' for Inactive)
REMARK    1  A    between atoms: C2_2  and  N1_4 
REMARK       I    between atoms: N1_4  and  C4_6 
REMARK       I    between atoms: C4_6  and  N2_8 
REMARK    2  A    between atoms: N2_8  and  C5_10 
REMARK    3  A    between atoms: C6_11  and  C7_12 
REMARK    4  A    between atoms: C7_12  and  C9_14 
ROOT
HETATM    1  C5  UNL     1      -2.158   5.248  10.882  1.00  0.00     0.127 C 
HETATM    2  C6  UNL     1      -3.249   4.950   9.913  1.00  0.00     0.162 C 
HETATM    3  O4  UNL     1      -4.103   3.900  10.265  1.00  0.00    -0.350 OA
HETATM    4  C10 UNL     1      -4.231   3.844  11.576  1.00  0.00     0.299 C 
HETATM    5  O5  UNL     1      -5.248   3.135  12.162  1.00  0.00    -0.323 OA
HETATM    6  C11 UNL     1      -4.838   3.041  13.497  1.00  0.00     0.165 C 
HETATM    7  C12 UNL     1      -5.815   3.673  14.463  1.00  0.00     0.079 C 
HETATM    8  C13 UNL     1      -4.727   1.531  13.755  1.00  0.00     0.069 C 
HETATM    9  C14 UNL     1      -4.011   1.022  12.489  1.00  0.00     0.013 C 
HETATM   10  C15 UNL     1      -2.774   1.894  12.385  1.00  0.00     0.030 C 
HETATM   11  C16 UNL     1      -1.873   1.271  11.379  1.00  0.00    -0.012 C 
HETATM   12  C17 UNL     1      -2.628   0.580  10.241  1.00  0.00     0.010 C 
HETATM   13  C18 UNL     1      -0.798   2.138  10.833  1.00  0.00     0.005 C 
HETATM   14  C19 UNL     1      -0.625   3.437  11.498  1.00  0.00     0.015 C 
HETATM   15  C20 UNL     1      -1.871   4.176  11.916  1.00  0.00     0.016 C 
HETATM   16  C21 UNL     1      -1.432   4.910  13.206  1.00  0.00     0.020 C 
HETATM   17  C22 UNL     1      -3.021   3.347  12.305  1.00  0.00     0.127 C 
HETATM   18  O6  UNL     1      -3.571   3.657  13.592  1.00  0.00    -0.338 OA
ENDROOT
BRANCH   1  19
HETATM   19  N2  UNL     1      -2.304   6.495  11.605  1.00  0.00    -0.335 N 
HETATM   20  C4  UNL     1      -1.984   7.779  11.167  1.00  0.00     0.316 C 
HETATM   21  N1  UNL     1      -2.146   8.950  11.987  1.00  0.00    -0.339 N 
HETATM   22  O1  UNL     1      -1.531   8.007  10.019  1.00  0.00    -0.247 OA
ATOM     23  H1  UNL     1      -2.455   8.816  12.950  1.00  0.00     0.164 HD
ATOM     24  H2  UNL     1      -2.687   6.425  12.548  1.00  0.00     0.164 HD
BRANCH  21  25
HETATM   25  C2  UNL     1      -1.904  10.283  11.546  1.00  0.00     0.078 C 
HETATM   26  C1  UNL     1      -1.326  11.199  12.602  1.00  0.00     0.032 C 
HETATM   27  C3  UNL     1      -3.187  10.844  11.037  1.00  0.00     0.032 C 
ENDBRANCH  21  25
ENDBRANCH   1  19
BRANCH   2  28
HETATM   28  C7  UNL     1      -2.836   4.618   8.513  1.00  0.00     0.114 C 
HETATM   29  C8  UNL     1      -1.457   4.939   8.096  1.00  0.00     0.024 C 
BRANCH  28  30
HETATM   30  C9  UNL     1      -3.807   5.358   7.622  1.00  0.00     0.179 C 
HETATM   31  O2  UNL     1      -3.934   6.607   7.669  1.00  0.00    -0.648 OA
HETATM   32  O3  UNL     1      -4.616   4.677   6.689  1.00  0.00    -0.648 OA
ENDBRANCH  28  30
ENDBRANCH   2  28
TORSDOF 4
ENDMDL
