MODEL 1
REMARK VINA RESULT: -7.593873646      0.000      0.000
REMARK  6 active torsions:
REMARK  status: ('A' for Active; 'I' for Inactive)
REMARK    1  A    between atoms: C3_3  and  O1_4 
REMARK    2  A    between atoms: C9_11  and  C10_12 
REMARK    3  A    between atoms: C13_16  and  O3_17 
REMARK    4  A    between atoms: O3_17  and  S1_18 
REMARK    5  A    between atoms: S1_18  and  N1_19 
REMARK    6  A    between atoms: S1_18  and  N2_22 
ROOT
HETATM    1  C1  UNL     1      -5.179   1.585  11.557  1.00  0.00     0.015 C 
HETATM    2  C2  UNL     1      -4.809   2.168  12.542  1.00  0.00    -0.078 C 
HETATM    3  C3  UNL     1      -4.385   2.881  13.721  1.00  0.00     0.128 C 
HETATM    4  C4  UNL     1      -5.621   3.512  14.363  1.00  0.00     0.052 C 
HETATM    5  C5  UNL     1      -5.491   5.006  14.174  1.00  0.00     0.010 C 
HETATM    6  C6  UNL     1      -4.535   5.105  13.003  1.00  0.00     0.006 C 
HETATM    7  C7  UNL     1      -3.955   6.428  12.759  1.00  0.00     0.023 C 
HETATM    8  C8  UNL     1      -4.554   7.140  11.541  1.00  0.00    -0.074 C 
HETATM    9  C9  UNL     1      -5.755   6.935  11.097  1.00  0.00     0.010 C 
HETATM   10  C16 UNL     1      -3.491   8.019  11.073  1.00  0.00     0.035 C 
HETATM   11  C17 UNL     1      -2.177   7.548  11.602  1.00  0.00     0.009 C 
HETATM   12  C18 UNL     1      -2.498   6.343  12.448  1.00  0.00    -0.006 C 
HETATM   13  C19 UNL     1      -2.147   5.118  11.632  1.00  0.00     0.006 C 
HETATM   14  C20 UNL     1      -2.543   3.848  12.323  1.00  0.00     0.014 C 
HETATM   15  C21 UNL     1      -3.508   4.089  13.416  1.00  0.00     0.003 C 
HETATM   16  C22 UNL     1      -2.783   4.410  14.689  1.00  0.00     0.020 C 
ENDROOT
BRANCH   3  17
HETATM   17  O1  UNL     1      -3.804   2.056  14.673  1.00  0.00    -0.377 OA
ATOM     18  H1  UNL     1      -4.035   2.296  15.563  1.00  0.00     0.211 HD
ENDBRANCH   3  17
BRANCH   9  19
HETATM   19  C10 UNL     1      -6.541   7.457  10.009  1.00  0.00    -0.059 C 
HETATM   20  C11 UNL     1      -6.515   8.806   9.919  1.00  0.00     0.006 C 
HETATM   21  C12 UNL     1      -7.155   9.748   8.985  1.00  0.00     0.199 C 
HETATM   22  O2  UNL     1      -8.057   9.199   8.124  1.00  0.00    -0.356 OA
HETATM   23  C13 UNL     1      -7.359   8.269   7.350  1.00  0.00     0.279 C 
HETATM   24  C14 UNL     1      -7.725   6.921   7.832  1.00  0.00     0.066 C 
HETATM   25  C15 UNL     1      -7.232   6.495   9.162  1.00  0.00     0.043 C 
BRANCH  23  26
HETATM   26  O3  UNL     1      -6.019   8.532   7.233  1.00  0.00    -0.243 OA
BRANCH  26  27
HETATM   27  S1  UNL     1      -5.311   8.737   5.720  1.00  0.00     0.229 S 
HETATM   28  O4  UNL     1      -4.509  10.331   6.841  1.00  0.00    -0.199 OA
BRANCH  27  29
HETATM   29  N1  UNL     1      -4.412   7.381   5.595  1.00  0.00    -0.323 N 
ATOM     30  H12 UNL     1      -4.444   6.541   6.172  1.00  0.00     0.169 HD
ATOM     31  H11 UNL     1      -3.821   7.602   4.793  1.00  0.00     0.169 HD
ENDBRANCH  27  29
BRANCH  27  32
HETATM   32  N2  UNL     1      -6.887   9.359   4.971  1.00  0.00    -0.323 N 
ATOM     33  H22 UNL     1      -7.096  10.100   4.302  1.00  0.00     0.169 HD
ATOM     34  H21 UNL     1      -7.453   8.681   5.482  1.00  0.00     0.169 HD
ENDBRANCH  27  32
ENDBRANCH  26  27
ENDBRANCH  23  26
ENDBRANCH   9  19
TORSDOF 6
ENDMDL
MODEL 2
REMARK VINA RESULT: -7.543559687      4.921      7.304
REMARK  6 active torsions:
REMARK  status: ('A' for Active; 'I' for Inactive)
REMARK    1  A    between atoms: C3_3  and  O1_4 
REMARK    2  A    between atoms: C9_11  and  C10_12 
REMARK    3  A    between atoms: C13_16  and  O3_17 
REMARK    4  A    between atoms: O3_17  and  S1_18 
REMARK    5  A    between atoms: S1_18  and  N1_19 
REMARK    6  A    between atoms: S1_18  and  N2_22 
ROOT
HETATM    1  C1  UNL     1      -1.918   7.031   8.697  1.00  0.00     0.015 C 
HETATM    2  C2  UNL     1      -0.928   7.344   9.305  1.00  0.00    -0.078 C 
HETATM    3  C3  UNL     1       0.257   7.698  10.046  1.00  0.00     0.128 C 
HETATM    4  C4  UNL     1       0.918   6.406  10.528  1.00  0.00     0.052 C 
HETATM    5  C5  UNL     1       0.748   6.368  12.029  1.00  0.00     0.010 C 
HETATM    6  C6  UNL     1      -0.430   7.296  12.248  1.00  0.00     0.006 C 
HETATM    7  C7  UNL     1      -0.661   7.723  13.630  1.00  0.00     0.023 C 
HETATM    8  C8  UNL     1      -1.863   7.036  14.287  1.00  0.00    -0.074 C 
HETATM    9  C9  UNL     1      -2.300   5.860  13.956  1.00  0.00     0.010 C 
HETATM   10  C16 UNL     1      -2.330   7.991  15.284  1.00  0.00     0.035 C 
HETATM   11  C17 UNL     1      -1.818   9.354  14.956  1.00  0.00     0.009 C 
HETATM   12  C18 UNL     1      -0.986   9.177  13.712  1.00  0.00    -0.006 C 
HETATM   13  C19 UNL     1      -1.821   9.653  12.543  1.00  0.00     0.006 C 
HETATM   14  C20 UNL     1      -1.144   9.408  11.228  1.00  0.00     0.014 C 
HETATM   15  C21 UNL     1      -0.040   8.433  11.348  1.00  0.00     0.003 C 
HETATM   16  C22 UNL     1       1.232   9.130  11.731  1.00  0.00     0.020 C 
ENDROOT
BRANCH   3  17
HETATM   17  O1  UNL     1       1.193   8.377   9.279  1.00  0.00    -0.377 OA
ATOM     18  H1  UNL     1       1.838   8.838   9.803  1.00  0.00     0.211 HD
ENDBRANCH   3  17
BRANCH   9  19
HETATM   19  C10 UNL     1      -3.374   5.011  14.401  1.00  0.00    -0.059 C 
HETATM   20  C11 UNL     1      -4.593   5.409  13.972  1.00  0.00     0.006 C 
HETATM   21  C12 UNL     1      -5.943   4.856  14.178  1.00  0.00     0.199 C 
HETATM   22  O2  UNL     1      -6.029   3.835  15.075  1.00  0.00    -0.356 OA
HETATM   23  C13 UNL     1      -5.235   2.797  14.579  1.00  0.00     0.279 C 
HETATM   24  C14 UNL     1      -3.996   2.758  15.382  1.00  0.00     0.066 C 
HETATM   25  C15 UNL     1      -3.021   3.860  15.220  1.00  0.00     0.043 C 
BRANCH  23  26
HETATM   26  O3  UNL     1      -5.079   2.815  13.218  1.00  0.00    -0.243 OA
BRANCH  26  27
HETATM   27  S1  UNL     1      -4.232   1.590  12.432  1.00  0.00     0.229 S 
HETATM   28  O4  UNL     1      -5.923   1.861  11.206  1.00  0.00    -0.199 OA
BRANCH  27  29
HETATM   29  N1  UNL     1      -2.862   2.366  12.003  1.00  0.00    -0.323 N 
ATOM     30  H12 UNL     1      -2.103   2.693  12.600  1.00  0.00     0.169 HD
ATOM     31  H11 UNL     1      -2.973   2.431  10.991  1.00  0.00     0.169 HD
ENDBRANCH  27  29
BRANCH  27  32
HETATM   32  N2  UNL     1      -4.700   0.331  13.707  1.00  0.00    -0.323 N 
ATOM     33  H22 UNL     1      -4.805   0.371  14.721  1.00  0.00     0.169 HD
ATOM     34  H21 UNL     1      -4.811  -0.405  13.008  1.00  0.00     0.169 HD
ENDBRANCH  27  32
ENDBRANCH  26  27
ENDBRANCH  23  26
ENDBRANCH   9  19
TORSDOF 6
ENDMDL
MODEL 3
REMARK VINA RESULT: -7.331830386      4.225      7.526
REMARK  6 active torsions:
REMARK  status: ('A' for Active; 'I' for Inactive)
REMARK    1  A    between atoms: C3_3  and  O1_4 
REMARK    2  A    between atoms: C9_11  and  C10_12 
REMARK    3  A    between atoms: C13_16  and  O3_17 
REMARK    4  A    between atoms: O3_17  and  S1_18 
REMARK    5  A    between atoms: S1_18  and  N1_19 
REMARK    6  A    between atoms: S1_18  and  N2_22 
ROOT
HETATM    1  C1  UNL     1      -4.707   9.955  10.019  1.00  0.00     0.015 C 
HETATM    2  C2  UNL     1      -3.505   9.990  10.052  1.00  0.00    -0.078 C 
HETATM    3  C3  UNL     1      -2.064  10.006  10.093  1.00  0.00     0.128 C 
HETATM    4  C4  UNL     1      -1.560   8.663   9.566  1.00  0.00     0.052 C 
HETATM    5  C5  UNL     1      -0.961   7.933  10.746  1.00  0.00     0.010 C 
HETATM    6  C6  UNL     1      -1.631   8.613  11.923  1.00  0.00     0.006 C 
HETATM    7  C7  UNL     1      -1.039   8.348  13.237  1.00  0.00     0.023 C 
HETATM    8  C8  UNL     1      -1.872   7.393  14.099  1.00  0.00    -0.074 C 
HETATM    9  C9  UNL     1      -2.666   6.486  13.621  1.00  0.00     0.010 C 
HETATM   10  C16 UNL     1      -1.551   7.766  15.471  1.00  0.00     0.035 C 
HETATM   11  C17 UNL     1      -0.982   9.145  15.499  1.00  0.00     0.009 C 
HETATM   12  C18 UNL     1      -0.945   9.589  14.060  1.00  0.00    -0.006 C 
HETATM   13  C19 UNL     1      -2.120  10.518  13.849  1.00  0.00     0.006 C 
HETATM   14  C20 UNL     1      -2.265  10.930  12.415  1.00  0.00     0.014 C 
HETATM   15  C21 UNL     1      -1.498  10.050  11.507  1.00  0.00     0.003 C 
HETATM   16  C22 UNL     1      -0.087  10.539  11.376  1.00  0.00     0.020 C 
ENDROOT
BRANCH   3  17
HETATM   17  O1  UNL     1      -1.511  10.995   9.292  1.00  0.00    -0.377 OA
ATOM     18  H1  UNL     1      -1.622  11.868   9.650  1.00  0.00     0.211 HD
ENDBRANCH   3  17
BRANCH   9  19
HETATM   19  C10 UNL     1      -3.533   5.489  14.191  1.00  0.00    -0.059 C 
HETATM   20  C11 UNL     1      -4.833   5.643  13.853  1.00  0.00     0.006 C 
HETATM   21  C12 UNL     1      -6.043   4.876  14.198  1.00  0.00     0.199 C 
HETATM   22  O2  UNL     1      -5.875   3.907  15.140  1.00  0.00    -0.356 OA
HETATM   23  C13 UNL     1      -4.950   2.997  14.621  1.00  0.00     0.279 C 
HETATM   24  C14 UNL     1      -3.665   3.220  15.316  1.00  0.00     0.066 C 
HETATM   25  C15 UNL     1      -2.918   4.465  15.024  1.00  0.00     0.043 C 
BRANCH  23  26
HETATM   26  O3  UNL     1      -4.906   2.966  13.252  1.00  0.00    -0.243 OA
BRANCH  26  27
HETATM   27  S1  UNL     1      -4.066   1.750  12.446  1.00  0.00     0.229 S 
HETATM   28  O4  UNL     1      -5.781   2.017  11.251  1.00  0.00    -0.199 OA
BRANCH  27  29
HETATM   29  N1  UNL     1      -2.709   2.535  11.995  1.00  0.00    -0.323 N 
ATOM     30  H12 UNL     1      -2.592   3.521  11.763  1.00  0.00     0.169 HD
ATOM     31  H11 UNL     1      -2.023   1.781  12.010  1.00  0.00     0.169 HD
ENDBRANCH  27  29
BRANCH  27  32
HETATM   32  N2  UNL     1      -4.504   0.482  13.723  1.00  0.00    -0.323 N 
ATOM     33  H22 UNL     1      -5.217   0.444  14.451  1.00  0.00     0.169 HD
ATOM     34  H21 UNL     1      -3.765  -0.151  13.416  1.00  0.00     0.169 HD
ENDBRANCH  27  32
ENDBRANCH  26  27
ENDBRANCH  23  26
ENDBRANCH   9  19
TORSDOF 6
ENDMDL
MODEL 4
REMARK VINA RESULT: -7.325312797      4.693      6.688
REMARK  6 active torsions:
REMARK  status: ('A' for Active; 'I' for Inactive)
REMARK    1  A    between atoms: C3_3  and  O1_4 
REMARK    2  A    between atoms: C9_11  and  C10_12 
REMARK    3  A    between atoms: C13_16  and  O3_17 
REMARK    4  A    between atoms: O3_17  and  S1_18 
REMARK    5  A    between atoms: S1_18  and  N1_19 
REMARK    6  A    between atoms: S1_18  and  N2_22 
ROOT
HETATM    1  C1  UNL     1      -5.736   6.506  11.932  1.00  0.00     0.015 C 
HETATM    2  C2  UNL     1      -5.317   5.757  12.775  1.00  0.00    -0.078 C 
HETATM    3  C3  UNL     1      -4.792   4.871  13.784  1.00  0.00     0.128 C 
HETATM    4  C4  UNL     1      -3.618   5.573  14.467  1.00  0.00     0.052 C 
HETATM    5  C5  UNL     1      -2.370   4.827  14.053  1.00  0.00     0.010 C 
HETATM    6  C6  UNL     1      -2.810   4.137  12.778  1.00  0.00     0.006 C 
HETATM    7  C7  UNL     1      -1.923   3.080  12.283  1.00  0.00     0.023 C 
HETATM    8  C8  UNL     1      -1.108   3.495  11.053  1.00  0.00    -0.074 C 
HETATM    9  C9  UNL     1      -0.771   4.718  10.783  1.00  0.00     0.010 C 
HETATM   10  C16 UNL     1      -0.855   2.247  10.345  1.00  0.00     0.035 C 
HETATM   11  C17 UNL     1      -1.835   1.211  10.783  1.00  0.00     0.009 C 
HETATM   12  C18 UNL     1      -2.691   1.886  11.822  1.00  0.00    -0.006 C 
HETATM   13  C19 UNL     1      -3.998   2.257  11.155  1.00  0.00     0.006 C 
HETATM   14  C20 UNL     1      -4.888   3.053  12.060  1.00  0.00     0.014 C 
HETATM   15  C21 UNL     1      -4.149   3.613  13.211  1.00  0.00     0.003 C 
HETATM   16  C22 UNL     1      -4.104   2.621  14.335  1.00  0.00     0.020 C 
ENDROOT
BRANCH   3  17
HETATM   17  O1  UNL     1      -5.718   4.565  14.771  1.00  0.00    -0.377 OA
ATOM     18  H1  UNL     1      -6.287   3.842  14.536  1.00  0.00     0.211 HD
ENDBRANCH   3  17
BRANCH   9  19
HETATM   19  C10 UNL     1      -0.029   5.360   9.730  1.00  0.00    -0.059 C 
HETATM   20  C11 UNL     1       1.230   5.702  10.083  1.00  0.00     0.006 C 
HETATM   21  C12 UNL     1       2.320   6.363   9.344  1.00  0.00     0.199 C 
HETATM   22  O2  UNL     1       1.984   6.857   8.120  1.00  0.00    -0.356 OA
HETATM   23  C13 UNL     1       1.570   5.769   7.347  1.00  0.00     0.279 C 
HETATM   24  C14 UNL     1       0.098   5.830   7.241  1.00  0.00     0.066 C 
HETATM   25  C15 UNL     1      -0.705   5.542   8.452  1.00  0.00     0.043 C 
BRANCH  23  26
HETATM   26  O3  UNL     1       2.104   4.570   7.740  1.00  0.00    -0.243 OA
BRANCH  26  27
HETATM   27  S1  UNL     1       3.193   3.749   6.754  1.00  0.00     0.229 S 
HETATM   28  O4  UNL     1       3.707   3.085   8.686  1.00  0.00    -0.199 OA
BRANCH  27  29
HETATM   29  N1  UNL     1       2.191   2.805   5.877  1.00  0.00    -0.323 N 
ATOM     30  H12 UNL     1       1.174   2.752   5.914  1.00  0.00     0.169 HD
ATOM     31  H11 UNL     1       2.853   2.292   5.294  1.00  0.00     0.169 HD
ENDBRANCH  27  29
BRANCH  27  32
HETATM   32  N2  UNL     1       4.191   5.276   6.438  1.00  0.00    -0.323 N 
ATOM     33  H22 UNL     1       5.084   5.442   5.972  1.00  0.00     0.169 HD
ATOM     34  H21 UNL     1       3.510   5.876   6.904  1.00  0.00     0.169 HD
ENDBRANCH  27  32
ENDBRANCH  26  27
ENDBRANCH  23  26
ENDBRANCH   9  19
TORSDOF 6
ENDMDL
MODEL 5
REMARK VINA RESULT: -7.224077511      5.736      8.160
REMARK  6 active torsions:
REMARK  status: ('A' for Active; 'I' for Inactive)
REMARK    1  A    between atoms: C3_3  and  O1_4 
REMARK    2  A    between atoms: C9_11  and  C10_12 
REMARK    3  A    between atoms: C13_16  and  O3_17 
REMARK    4  A    between atoms: O3_17  and  S1_18 
REMARK    5  A    between atoms: S1_18  and  N1_19 
REMARK    6  A    between atoms: S1_18  and  N2_22 
ROOT
HETATM    1  C1  UNL     1      -0.710   5.355   6.060  1.00  0.00     0.015 C 
HETATM    2  C2  UNL     1       0.300   5.430   6.709  1.00  0.00    -0.078 C 
HETATM    3  C3  UNL     1       1.505   5.497   7.498  1.00  0.00     0.128 C 
HETATM    4  C4  UNL     1       1.942   4.067   7.819  1.00  0.00     0.052 C 
HETATM    5  C5  UNL     1       1.727   3.873   9.302  1.00  0.00     0.010 C 
HETATM    6  C6  UNL     1       0.705   4.943   9.627  1.00  0.00     0.006 C 
HETATM    7  C7  UNL     1       0.506   5.230  11.050  1.00  0.00     0.023 C 
HETATM    8  C8  UNL     1      -0.807   4.669  11.607  1.00  0.00    -0.074 C 
HETATM    9  C9  UNL     1      -1.414   3.628  11.128  1.00  0.00     0.010 C 
HETATM   10  C16 UNL     1      -1.144   5.557  12.712  1.00  0.00     0.035 C 
HETATM   11  C17 UNL     1      -0.415   6.850  12.560  1.00  0.00     0.009 C 
HETATM   12  C18 UNL     1       0.412   6.696  11.310  1.00  0.00    -0.006 C 
HETATM   13  C19 UNL     1      -0.305   7.438  10.203  1.00  0.00     0.006 C 
HETATM   14  C20 UNL     1       0.360   7.251   8.873  1.00  0.00     0.014 C 
HETATM   15  C21 UNL     1       1.293   6.105   8.878  1.00  0.00     0.003 C 
HETATM   16  C22 UNL     1       2.648   6.538   9.355  1.00  0.00     0.020 C 
ENDROOT
BRANCH   3  17
HETATM   17  O1  UNL     1       2.557   6.106   6.828  1.00  0.00    -0.377 OA
ATOM     18  H1  UNL     1       3.357   6.132   7.339  1.00  0.00     0.211 HD
ENDBRANCH   3  17
BRANCH   9  19
HETATM   19  C10 UNL     1      -2.620   2.913  11.455  1.00  0.00    -0.059 C 
HETATM   20  C11 UNL     1      -2.436   1.583  11.617  1.00  0.00     0.006 C 
HETATM   21  C12 UNL     1      -3.364   0.489  11.950  1.00  0.00     0.199 C 
HETATM   22  O2  UNL     1      -4.684   0.824  11.968  1.00  0.00    -0.356 OA
HETATM   23  C13 UNL     1      -4.837   1.801  12.955  1.00  0.00     0.279 C 
HETATM   24  C14 UNL     1      -5.012   3.100  12.275  1.00  0.00     0.066 C 
HETATM   25  C15 UNL     1      -3.846   3.690  11.578  1.00  0.00     0.043 C 
BRANCH  23  26
HETATM   26  O3  UNL     1      -3.887   1.752  13.941  1.00  0.00    -0.243 OA
BRANCH  26  27
HETATM   27  S1  UNL     1      -4.066   2.648  15.355  1.00  0.00     0.229 S 
HETATM   28  O4  UNL     1      -3.527   0.740  16.067  1.00  0.00    -0.199 OA
BRANCH  27  29
HETATM   29  N1  UNL     1      -2.876   3.753  15.193  1.00  0.00    -0.323 N 
ATOM     30  H12 UNL     1      -2.009   3.680  14.661  1.00  0.00     0.169 HD
ATOM     31  H11 UNL     1      -3.233   4.521  15.761  1.00  0.00     0.169 HD
ENDBRANCH  27  29
BRANCH  27  32
HETATM   32  N2  UNL     1      -5.913   2.658  15.217  1.00  0.00    -0.323 N 
ATOM     33  H22 UNL     1      -6.597   3.399  15.060  1.00  0.00     0.169 HD
ATOM     34  H21 UNL     1      -5.976   1.649  15.356  1.00  0.00     0.169 HD
ENDBRANCH  27  32
ENDBRANCH  26  27
ENDBRANCH  23  26
ENDBRANCH   9  19
TORSDOF 6
ENDMDL
