MODEL 1
REMARK VINA RESULT: -8.053841062      0.000      0.000
REMARK  6 active torsions:
REMARK  status: ('A' for Active; 'I' for Inactive)
REMARK    1  A    between atoms: C2_2  and  O2_4 
REMARK    2  A    between atoms: O2_4  and  C3_5 
REMARK    3  A    between atoms: C4_6  and  O3_7 
REMARK    4  A    between atoms: C14_21  and  C15_22 
REMARK    5  A    between atoms: C14_21  and  C16_24 
REMARK    6  A    between atoms: C19_27  and  O5_28 
ROOT
HETATM    1  C3  UNL     1      -4.564   2.092  15.458  1.00  0.00     0.169 C 
HETATM    2  C4  UNL     1      -4.930   0.979  14.519  1.00  0.00     0.148 C 
HETATM    3  C5  UNL     1      -4.140   1.443  13.280  1.00  0.00     0.040 C 
HETATM    4  C6  UNL     1      -4.624   2.897  13.240  1.00  0.00     0.005 C 
HETATM    5  C7  UNL     1      -3.811   3.729  12.335  1.00  0.00     0.021 C 
HETATM    6  C8  UNL     1      -4.517   4.994  11.937  1.00  0.00     0.238 C 
HETATM    7  N1  UNL     1      -3.817   5.410  10.711  1.00  0.00    -0.069 N 
ATOM      8  H11 UNL     1      -4.343   6.118  10.200  1.00  0.00     0.277 HD
ATOM      9  H12 UNL     1      -3.823   4.673  10.005  1.00  0.00     0.277 HD
HETATM   10  C9  UNL     1      -2.479   5.850  11.006  1.00  0.00     0.210 C 
HETATM   11  C10 UNL     1      -1.828   5.281  12.193  1.00  0.00    -0.010 C 
HETATM   12  C11 UNL     1      -1.593   6.434  13.188  1.00  0.00     0.018 C 
HETATM   13  C12 UNL     1      -0.400   4.940  11.730  1.00  0.00     0.013 C 
HETATM   14  C13 UNL     1      -0.208   5.531  10.392  1.00  0.00     0.020 C 
HETATM   15  C14 UNL     1      -1.600   5.612   9.797  1.00  0.00     0.046 C 
HETATM   16  C21 UNL     1      -2.445   4.091  12.849  1.00  0.00     0.002 C 
HETATM   17  C22 UNL     1      -2.376   4.124  14.360  1.00  0.00     0.007 C 
HETATM   18  C23 UNL     1      -3.698   4.346  15.032  1.00  0.00     0.012 C 
HETATM   19  C24 UNL     1      -4.750   3.350  14.639  1.00  0.00    -0.011 C 
HETATM   20  C25 UNL     1      -6.107   3.980  14.886  1.00  0.00     0.018 C 
ENDROOT
BRANCH  15  21
HETATM   21  C15 UNL     1      -1.920   4.361   9.096  1.00  0.00     0.243 C 
HETATM   22  O4  UNL     1      -2.803   4.327   8.273  1.00  0.00    -0.306 OA
ENDBRANCH  15  21
BRANCH  15  23
HETATM   23  C16 UNL     1      -1.579   6.718   8.809  1.00  0.00     0.005 C 
HETATM   24  C17 UNL     1      -0.378   6.849   7.954  1.00  0.00     0.008 C 
HETATM   25  C18 UNL     1      -0.450   8.289   7.433  1.00  0.00     0.032 C 
HETATM   26  C19 UNL     1      -1.529   8.976   8.203  1.00  0.00     0.118 C 
HETATM   27  C20 UNL     1      -1.817   8.082   9.400  1.00  0.00     0.037 C 
BRANCH  26  28
HETATM   28  O5  UNL     1      -2.688   9.043   7.400  1.00  0.00    -0.396 OA
ATOM     29  H5  UNL     1      -3.254   9.729   7.736  1.00  0.00     0.210 HD
ENDBRANCH  26  28
ENDBRANCH  15  23
BRANCH   2  30
HETATM   30  O3  UNL     1      -4.529  -0.265  14.938  1.00  0.00    -0.393 OA
ATOM     31  H3  UNL     1      -4.540  -0.927  14.257  1.00  0.00     0.210 HD
ENDBRANCH   2  30
BRANCH   1  32
HETATM   32  O2  UNL     1      -5.200   2.097  16.677  1.00  0.00    -0.313 OA
BRANCH  32  33
HETATM   33  C2  UNL     1      -6.006   1.127  17.216  1.00  0.00     0.255 C 
HETATM   34  C1  UNL     1      -7.476   1.181  17.011  1.00  0.00     0.126 C 
HETATM   35  O1  UNL     1      -5.426   0.237  17.861  1.00  0.00    -0.266 OA
ENDBRANCH  32  33
ENDBRANCH   1  32
TORSDOF 6
ENDMDL
MODEL 2
REMARK VINA RESULT: -7.946091635      2.198      8.256
REMARK  6 active torsions:
REMARK  status: ('A' for Active; 'I' for Inactive)
REMARK    1  A    between atoms: C2_2  and  O2_4 
REMARK    2  A    between atoms: O2_4  and  C3_5 
REMARK    3  A    between atoms: C4_6  and  O3_7 
REMARK    4  A    between atoms: C14_21  and  C15_22 
REMARK    5  A    between atoms: C14_21  and  C16_24 
REMARK    6  A    between atoms: C19_27  and  O5_28 
ROOT
HETATM    1  C3  UNL     1      -0.200   5.987   9.550  1.00  0.00     0.169 C 
HETATM    2  C4  UNL     1      -1.330   6.162   8.578  1.00  0.00     0.148 C 
HETATM    3  C5  UNL     1      -2.511   6.030   9.558  1.00  0.00     0.040 C 
HETATM    4  C6  UNL     1      -2.074   4.740  10.261  1.00  0.00     0.005 C 
HETATM    5  C7  UNL     1      -2.843   4.489  11.492  1.00  0.00     0.021 C 
HETATM    6  C8  UNL     1      -2.759   3.056  11.934  1.00  0.00     0.238 C 
HETATM    7  N1  UNL     1      -3.926   2.897  12.817  1.00  0.00    -0.069 N 
ATOM      8  H11 UNL     1      -4.130   1.914  12.997  1.00  0.00     0.277 HD
ATOM      9  H12 UNL     1      -4.793   3.152  12.344  1.00  0.00     0.277 HD
HETATM   10  C9  UNL     1      -3.751   3.636  14.040  1.00  0.00     0.210 C 
HETATM   11  C10 UNL     1      -2.889   4.824  13.992  1.00  0.00    -0.010 C 
HETATM   12  C11 UNL     1      -1.673   4.550  14.898  1.00  0.00     0.018 C 
HETATM   13  C12 UNL     1      -3.661   5.898  14.781  1.00  0.00     0.013 C 
HETATM   14  C13 UNL     1      -4.801   5.237  15.444  1.00  0.00     0.020 C 
HETATM   15  C14 UNL     1      -5.109   4.031  14.579  1.00  0.00     0.046 C 
HETATM   16  C21 UNL     1      -2.487   5.366  12.661  1.00  0.00     0.002 C 
HETATM   17  C22 UNL     1      -1.057   5.859  12.612  1.00  0.00     0.007 C 
HETATM   18  C23 UNL     1      -0.139   5.001  11.794  1.00  0.00     0.012 C 
HETATM   19  C24 UNL     1      -0.604   4.791  10.383  1.00  0.00    -0.011 C 
HETATM   20  C25 UNL     1       0.029   3.513   9.867  1.00  0.00     0.018 C 
ENDROOT
BRANCH  15  21
HETATM   21  C15 UNL     1      -6.059   4.401  13.521  1.00  0.00     0.243 C 
HETATM   22  O4  UNL     1      -6.735   5.396  13.623  1.00  0.00    -0.306 OA
ENDBRANCH  15  21
BRANCH  15  23
HETATM   23  C16 UNL     1      -5.749   3.025  15.461  1.00  0.00     0.005 C 
HETATM   24  C17 UNL     1      -6.651   3.523  16.526  1.00  0.00     0.008 C 
HETATM   25  C18 UNL     1      -6.743   2.351  17.511  1.00  0.00     0.032 C 
HETATM   26  C19 UNL     1      -5.709   1.356  17.099  1.00  0.00     0.118 C 
HETATM   27  C20 UNL     1      -4.784   2.092  16.141  1.00  0.00     0.037 C 
BRANCH  26  28
HETATM   28  O5  UNL     1      -6.342   0.306  16.399  1.00  0.00    -0.396 OA
ATOM     29  H5  UNL     1      -6.236  -0.499  16.893  1.00  0.00     0.210 HD
ENDBRANCH  26  28
ENDBRANCH  15  23
BRANCH   2  30
HETATM   30  O3  UNL     1      -1.337   7.376   7.937  1.00  0.00    -0.393 OA
ATOM     31  H3  UNL     1      -2.040   7.479   7.307  1.00  0.00     0.210 HD
ENDBRANCH   2  30
BRANCH   1  32
HETATM   32  O2  UNL     1       1.064   5.916   9.012  1.00  0.00    -0.313 OA
BRANCH  32  33
HETATM   33  C2  UNL     1       2.203   6.547   9.442  1.00  0.00     0.255 C 
HETATM   34  C1  UNL     1       2.114   7.671  10.409  1.00  0.00     0.126 C 
HETATM   35  O1  UNL     1       3.271   6.117   8.973  1.00  0.00    -0.266 OA
ENDBRANCH  32  33
ENDBRANCH   1  32
TORSDOF 6
ENDMDL
MODEL 3
REMARK VINA RESULT: -7.897222990      2.541      8.441
REMARK  6 active torsions:
REMARK  status: ('A' for Active; 'I' for Inactive)
REMARK    1  A    between atoms: C2_2  and  O2_4 
REMARK    2  A    between atoms: O2_4  and  C3_5 
REMARK    3  A    between atoms: C4_6  and  O3_7 
REMARK    4  A    between atoms: C14_21  and  C15_22 
REMARK    5  A    between atoms: C14_21  and  C16_24 
REMARK    6  A    between atoms: C19_27  and  O5_28 
ROOT
HETATM    1  C3  UNL     1       1.003   5.497   8.734  1.00  0.00     0.169 C 
HETATM    2  C4  UNL     1       0.281   4.869   7.578  1.00  0.00     0.148 C 
HETATM    3  C5  UNL     1      -1.068   4.582   8.266  1.00  0.00     0.040 C 
HETATM    4  C6  UNL     1      -0.533   3.887   9.523  1.00  0.00     0.005 C 
HETATM    5  C7  UNL     1      -1.566   3.749  10.564  1.00  0.00     0.021 C 
HETATM    6  C8  UNL     1      -1.213   2.703  11.582  1.00  0.00     0.238 C 
HETATM    7  N1  UNL     1      -2.507   2.368  12.198  1.00  0.00    -0.069 N 
ATOM      8  H11 UNL     1      -2.454   1.503  12.736  1.00  0.00     0.277 HD
ATOM      9  H12 UNL     1      -3.191   2.076  11.500  1.00  0.00     0.277 HD
HETATM   10  C9  UNL     1      -2.995   3.461  12.996  1.00  0.00     0.210 C 
HETATM   11  C10 UNL     1      -2.571   4.815  12.618  1.00  0.00    -0.010 C 
HETATM   12  C11 UNL     1      -1.720   5.372  13.775  1.00  0.00     0.018 C 
HETATM   13  C12 UNL     1      -3.852   5.664  12.703  1.00  0.00     0.013 C 
HETATM   14  C13 UNL     1      -4.895   4.841  13.345  1.00  0.00     0.020 C 
HETATM   15  C14 UNL     1      -4.508   3.409  13.036  1.00  0.00     0.046 C 
HETATM   16  C21 UNL     1      -1.917   5.018  11.292  1.00  0.00     0.002 C 
HETATM   17  C22 UNL     1      -0.777   6.013  11.321  1.00  0.00     0.007 C 
HETATM   18  C23 UNL     1       0.579   5.399  11.148  1.00  0.00     0.012 C 
HETATM   19  C24 UNL     1       0.716   4.576   9.900  1.00  0.00    -0.011 C 
HETATM   20  C25 UNL     1       1.841   3.583  10.114  1.00  0.00     0.018 C 
ENDROOT
BRANCH  15  21
HETATM   21  C15 UNL     1      -5.098   2.994  11.756  1.00  0.00     0.243 C 
HETATM   22  O4  UNL     1      -5.538   1.878  11.615  1.00  0.00    -0.306 OA
ENDBRANCH  15  21
BRANCH  15  23
HETATM   23  C16 UNL     1      -5.078   2.569  14.116  1.00  0.00     0.005 C 
HETATM   24  C17 UNL     1      -6.250   3.100  14.850  1.00  0.00     0.008 C 
HETATM   25  C18 UNL     1      -6.280   2.278  16.144  1.00  0.00     0.032 C 
HETATM   26  C19 UNL     1      -5.001   1.511  16.200  1.00  0.00     0.118 C 
HETATM   27  C20 UNL     1      -4.086   2.154  15.169  1.00  0.00     0.037 C 
BRANCH  26  28
HETATM   28  O5  UNL     1      -5.254   0.177  15.811  1.00  0.00    -0.396 OA
ATOM     29  H5  UNL     1      -4.882  -0.407  16.463  1.00  0.00     0.210 HD
ENDBRANCH  26  28
ENDBRANCH  15  23
BRANCH   2  30
HETATM   30  O3  UNL     1       0.130   5.696   6.493  1.00  0.00    -0.393 OA
ATOM     31  H3  UNL     1      -0.255   5.276   5.734  1.00  0.00     0.210 HD
ENDBRANCH   2  30
BRANCH   1  32
HETATM   32  O2  UNL     1       2.333   5.786   8.541  1.00  0.00    -0.313 OA
BRANCH  32  33
HETATM   33  C2  UNL     1       3.076   5.628   7.399  1.00  0.00     0.255 C 
HETATM   34  C1  UNL     1       3.838   4.373   7.173  1.00  0.00     0.126 C 
HETATM   35  O1  UNL     1       3.058   6.584   6.604  1.00  0.00    -0.266 OA
ENDBRANCH  32  33
ENDBRANCH   1  32
TORSDOF 6
ENDMDL
MODEL 4
REMARK VINA RESULT: -7.685610293      2.226      8.416
REMARK  6 active torsions:
REMARK  status: ('A' for Active; 'I' for Inactive)
REMARK    1  A    between atoms: C2_2  and  O2_4 
REMARK    2  A    between atoms: O2_4  and  C3_5 
REMARK    3  A    between atoms: C4_6  and  O3_7 
REMARK    4  A    between atoms: C14_21  and  C15_22 
REMARK    5  A    between atoms: C14_21  and  C16_24 
REMARK    6  A    between atoms: C19_27  and  O5_28 
ROOT
HETATM    1  C3  UNL     1       0.165   4.194   9.476  1.00  0.00     0.169 C 
HETATM    2  C4  UNL     1       1.158   4.459  10.570  1.00  0.00     0.148 C 
HETATM    3  C5  UNL     1       0.411   3.789  11.739  1.00  0.00     0.040 C 
HETATM    4  C6  UNL     1      -0.957   4.451  11.537  1.00  0.00     0.005 C 
HETATM    5  C7  UNL     1      -2.016   3.790  12.319  1.00  0.00     0.021 C 
HETATM    6  C8  UNL     1      -3.224   4.665  12.494  1.00  0.00     0.238 C 
HETATM    7  N1  UNL     1      -3.911   4.077  13.656  1.00  0.00    -0.069 N 
ATOM      8  H11 UNL     1      -4.615   4.709  14.036  1.00  0.00     0.277 HD
ATOM      9  H12 UNL     1      -3.297   4.023  14.468  1.00  0.00     0.277 HD
HETATM   10  C9  UNL     1      -4.471   2.793  13.327  1.00  0.00     0.210 C 
HETATM   11  C10 UNL     1      -3.816   2.024  12.261  1.00  0.00    -0.010 C 
HETATM   12  C11 UNL     1      -4.823   1.890  11.103  1.00  0.00     0.018 C 
HETATM   13  C12 UNL     1      -3.738   0.587  12.807  1.00  0.00     0.013 C 
HETATM   14  C13 UNL     1      -4.548   0.529  14.039  1.00  0.00     0.020 C 
HETATM   15  C14 UNL     1      -4.538   1.945  14.580  1.00  0.00     0.046 C 
HETATM   16  C21 UNL     1      -2.470   2.458  11.787  1.00  0.00     0.002 C 
HETATM   17  C22 UNL     1      -2.279   2.326  10.292  1.00  0.00     0.007 C 
HETATM   18  C23 UNL     1      -2.221   3.634   9.562  1.00  0.00     0.012 C 
HETATM   19  C24 UNL     1      -1.169   4.571  10.081  1.00  0.00    -0.011 C 
HETATM   20  C25 UNL     1      -1.571   5.983   9.704  1.00  0.00     0.018 C 
ENDROOT
BRANCH  15  21
HETATM   21  C15 UNL     1      -3.379   2.138  15.462  1.00  0.00     0.243 C 
HETATM   22  O4  UNL     1      -3.155   1.363  16.361  1.00  0.00    -0.306 OA
ENDBRANCH  15  21
BRANCH  15  23
HETATM   23  C16 UNL     1      -5.775   2.107  15.381  1.00  0.00     0.005 C 
HETATM   24  C17 UNL     1      -6.123   3.473  15.835  1.00  0.00     0.008 C 
HETATM   25  C18 UNL     1      -7.112   3.241  16.984  1.00  0.00     0.032 C 
HETATM   26  C19 UNL     1      -7.085   1.780  17.290  1.00  0.00     0.118 C 
HETATM   27  C20 UNL     1      -5.839   1.235  16.606  1.00  0.00     0.037 C 
BRANCH  26  28
HETATM   28  O5  UNL     1      -8.221   1.172  16.712  1.00  0.00    -0.396 OA
ATOM     29  H5  UNL     1      -8.618   0.594  17.353  1.00  0.00     0.210 HD
ENDBRANCH  26  28
ENDBRANCH  15  23
BRANCH   2  30
HETATM   30  O3  UNL     1       2.389   3.888  10.362  1.00  0.00    -0.393 OA
ATOM     31  H3  UNL     1       2.354   3.011   9.998  1.00  0.00     0.210 HD
ENDBRANCH   2  30
BRANCH   1  32
HETATM   32  O2  UNL     1       0.430   4.770   8.256  1.00  0.00    -0.313 OA
BRANCH  32  33
HETATM   33  C2  UNL     1       0.989   4.188   7.147  1.00  0.00     0.255 C 
HETATM   34  C1  UNL     1       0.370   4.380   5.812  1.00  0.00     0.126 C 
HETATM   35  O1  UNL     1       2.015   3.515   7.349  1.00  0.00    -0.266 OA
ENDBRANCH  32  33
ENDBRANCH   1  32
TORSDOF 6
ENDMDL
MODEL 5
REMARK VINA RESULT: -7.672602515      2.037      2.527
REMARK  6 active torsions:
REMARK  status: ('A' for Active; 'I' for Inactive)
REMARK    1  A    between atoms: C2_2  and  O2_4 
REMARK    2  A    between atoms: O2_4  and  C3_5 
REMARK    3  A    between atoms: C4_6  and  O3_7 
REMARK    4  A    between atoms: C14_21  and  C15_22 
REMARK    5  A    between atoms: C14_21  and  C16_24 
REMARK    6  A    between atoms: C19_27  and  O5_28 
ROOT
HETATM    1  C3  UNL     1      -4.481   1.847  13.956  1.00  0.00     0.169 C 
HETATM    2  C4  UNL     1      -4.650   1.357  12.547  1.00  0.00     0.148 C 
HETATM    3  C5  UNL     1      -3.871   2.465  11.814  1.00  0.00     0.040 C 
HETATM    4  C6  UNL     1      -4.540   3.678  12.468  1.00  0.00     0.005 C 
HETATM    5  C7  UNL     1      -3.803   4.928  12.210  1.00  0.00     0.021 C 
HETATM    6  C8  UNL     1      -4.650   6.146  12.438  1.00  0.00     0.238 C 
HETATM    7  N1  UNL     1      -3.954   7.199  11.682  1.00  0.00    -0.069 N 
ATOM      8  H11 UNL     1      -4.544   8.021  11.550  1.00  0.00     0.277 HD
ATOM      9  H12 UNL     1      -3.828   6.939  10.703  1.00  0.00     0.277 HD
HETATM   10  C9  UNL     1      -2.702   7.539  12.306  1.00  0.00     0.210 C 
HETATM   11  C10 UNL     1      -2.039   6.496  13.099  1.00  0.00    -0.010 C 
HETATM   12  C11 UNL     1      -2.007   6.979  14.562  1.00  0.00     0.018 C 
HETATM   13  C12 UNL     1      -0.558   6.573  12.687  1.00  0.00     0.013 C 
HETATM   14  C13 UNL     1      -0.382   7.789  11.869  1.00  0.00     0.020 C 
HETATM   15  C14 UNL     1      -1.742   8.043  11.249  1.00  0.00     0.046 C 
HETATM   16  C21 UNL     1      -2.524   5.090  12.983  1.00  0.00     0.002 C 
HETATM   17  C22 UNL     1      -2.532   4.338  14.297  1.00  0.00     0.007 C 
HETATM   18  C23 UNL     1      -3.902   4.060  14.838  1.00  0.00     0.012 C 
HETATM   19  C24 UNL     1      -4.793   3.325  13.879  1.00  0.00    -0.011 C 
HETATM   20  C25 UNL     1      -6.231   3.611  14.262  1.00  0.00     0.018 C 
ENDROOT
BRANCH  15  21
HETATM   21  C15 UNL     1      -1.859   7.316   9.978  1.00  0.00     0.243 C 
HETATM   22  O4  UNL     1      -2.729   7.596   9.187  1.00  0.00    -0.306 OA
ENDBRANCH  15  21
BRANCH  15  23
HETATM   23  C16 UNL     1      -1.821   9.498  10.973  1.00  0.00     0.005 C 
HETATM   24  C17 UNL     1      -0.640  10.142  10.353  1.00  0.00     0.008 C 
HETATM   25  C18 UNL     1      -0.837  11.634  10.645  1.00  0.00     0.032 C 
HETATM   26  C19 UNL     1      -1.965  11.741  11.618  1.00  0.00     0.118 C 
HETATM   27  C20 UNL     1      -2.168  10.339  12.172  1.00  0.00     0.037 C 
BRANCH  26  28
HETATM   28  O5  UNL     1      -3.131  12.126  10.921  1.00  0.00    -0.396 OA
ATOM     29  H5  UNL     1      -3.842  11.546  11.170  1.00  0.00     0.210 HD
ENDBRANCH  26  28
ENDBRANCH  15  23
BRANCH   2  30
HETATM   30  O3  UNL     1      -4.108   0.117  12.315  1.00  0.00    -0.393 OA
ATOM     31  H3  UNL     1      -3.234   0.139  11.942  1.00  0.00     0.210 HD
ENDBRANCH   2  30
BRANCH   1  32
HETATM   32  O2  UNL     1      -5.170   1.161  14.929  1.00  0.00    -0.313 OA
BRANCH  32  33
HETATM   33  C2  UNL     1      -4.775   0.889  16.214  1.00  0.00     0.255 C 
HETATM   34  C1  UNL     1      -5.790   0.687  17.279  1.00  0.00     0.126 C 
HETATM   35  O1  UNL     1      -3.548   0.830  16.402  1.00  0.00    -0.266 OA
ENDBRANCH  32  33
ENDBRANCH   1  32
TORSDOF 6
ENDMDL
