MODEL 1
REMARK VINA RESULT: -8.462560825      0.000      0.000
REMARK  4 active torsions:
REMARK  status: ('A' for Active; 'I' for Inactive)
REMARK    1  A    between atoms: O1_2  and  C2_3 
REMARK    2  A    between atoms: C20_24  and  C21_25 
REMARK    3  A    between atoms: C21_25  and  O3_26 
REMARK    4  A    between atoms: C24_31  and  O5_32 
ROOT
HETATM    1  C2  UNL     1      -4.671   4.940  12.114  1.00  0.00     0.160 C 
HETATM    2  C3  UNL     1      -5.193   4.194  13.308  1.00  0.00     0.024 C 
HETATM    3  C4  UNL     1      -5.157   5.023  14.580  1.00  0.00     0.008 C 
HETATM    4  C5  UNL     1      -5.834   4.353  15.727  1.00  0.00     0.008 C 
HETATM    5  C6  UNL     1      -6.146   2.944  15.433  1.00  0.00     0.026 C 
HETATM    6  C7  UNL     1      -6.580   2.070  16.525  1.00  0.00     0.080 C 
HETATM    7  C8  UNL     1      -6.400   2.534  17.914  1.00  0.00     0.020 C 
HETATM    8  C9  UNL     1      -5.885   0.767  16.233  1.00  0.00     0.222 C 
HETATM    9  O2  UNL     1      -5.943  -0.259  16.984  1.00  0.00    -0.273 OA
HETATM   10  N1  UNL     1      -5.193   0.921  15.008  1.00  0.00    -0.351 N 
ATOM     11  H1  UNL     1      -4.966   0.186  14.340  1.00  0.00     0.163 HD
HETATM   12  C10 UNL     1      -4.874   2.313  14.893  1.00  0.00     0.037 C 
HETATM   13  C11 UNL     1      -3.669   2.594  15.706  1.00  0.00     0.039 C 
HETATM   14  C12 UNL     1      -4.782   2.782  13.453  1.00  0.00     0.020 C 
HETATM   15  C13 UNL     1      -3.420   2.417  12.969  1.00  0.00     0.008 C 
HETATM   16  C14 UNL     1      -3.277   2.590  11.461  1.00  0.00     0.011 C 
HETATM   17  C15 UNL     1      -2.537   3.874  11.285  1.00  0.00     0.058 C 
HETATM   18  C16 UNL     1      -2.547   4.533   9.950  1.00  0.00     0.074 C 
HETATM   19  C17 UNL     1      -1.220   4.508   9.248  1.00  0.00     0.072 C 
HETATM   20  C18 UNL     1      -1.277   5.064   7.869  1.00  0.00    -0.074 C 
HETATM   21  C19 UNL     1       0.010   5.349   7.166  1.00  0.00     0.044 C 
HETATM   22  C20 UNL     1      -2.454   5.285   7.321  1.00  0.00    -0.031 C 
HETATM   23  C22 UNL     1      -3.744   4.991   8.056  1.00  0.00     0.205 C 
HETATM   24  O4  UNL     1      -3.577   4.114   9.090  1.00  0.00    -0.375 OA
HETATM   25  C23 UNL     1      -2.850   5.824  10.705  1.00  0.00     0.080 C 
HETATM   26  C24 UNL     1      -3.225   5.050  11.952  1.00  0.00     0.093 C 
ENDROOT
BRANCH  26  27
HETATM   27  O5  UNL     1      -2.470   5.413  13.079  1.00  0.00    -0.387 OA
ATOM     28  H5  UNL     1      -2.829   6.079  13.655  1.00  0.00     0.210 HD
ENDBRANCH  26  27
BRANCH   1  29
HETATM   29  O1  UNL     1      -5.409   6.095  12.015  1.00  0.00    -0.387 OA
HETATM   30  C1  UNL     1      -5.946   6.399  10.802  1.00  0.00     0.202 C 
ENDBRANCH   1  29
BRANCH  22  31
HETATM   31  C21 UNL     1      -2.597   5.835   5.956  1.00  0.00     0.200 C 
BRANCH  31  32
HETATM   32  O3  UNL     1      -3.475   6.856   5.799  1.00  0.00    -0.397 OA
ATOM     33  H3  UNL     1      -4.007   6.844   5.013  1.00  0.00     0.209 HD
ENDBRANCH  31  32
ENDBRANCH  22  31
TORSDOF 4
ENDMDL
MODEL 2
REMARK VINA RESULT: -8.082343701      2.202      3.251
REMARK  4 active torsions:
REMARK  status: ('A' for Active; 'I' for Inactive)
REMARK    1  A    between atoms: O1_2  and  C2_3 
REMARK    2  A    between atoms: C20_24  and  C21_25 
REMARK    3  A    between atoms: C21_25  and  O3_26 
REMARK    4  A    between atoms: C24_31  and  O5_32 
ROOT
HETATM    1  C2  UNL     1      -2.397   5.113  10.155  1.00  0.00     0.160 C 
HETATM    2  C3  UNL     1      -3.309   4.819  11.311  1.00  0.00     0.024 C 
HETATM    3  C4  UNL     1      -3.773   6.075  12.027  1.00  0.00     0.008 C 
HETATM    4  C5  UNL     1      -4.814   5.801  13.059  1.00  0.00     0.008 C 
HETATM    5  C6  UNL     1      -4.957   4.360  13.326  1.00  0.00     0.026 C 
HETATM    6  C7  UNL     1      -5.746   3.926  14.481  1.00  0.00     0.080 C 
HETATM    7  C8  UNL     1      -6.111   4.927  15.502  1.00  0.00     0.020 C 
HETATM    8  C9  UNL     1      -4.960   2.767  15.031  1.00  0.00     0.222 C 
HETATM    9  O2  UNL     1      -5.269   2.131  16.090  1.00  0.00    -0.273 OA
HETATM   10  N1  UNL     1      -3.863   2.548  14.164  1.00  0.00    -0.351 N 
ATOM     11  H1  UNL     1      -3.383   1.664  13.998  1.00  0.00     0.163 HD
HETATM   12  C10 UNL     1      -3.560   3.813  13.564  1.00  0.00     0.037 C 
HETATM   13  C11 UNL     1      -2.755   4.611  14.517  1.00  0.00     0.039 C 
HETATM   14  C12 UNL     1      -2.947   3.682  12.183  1.00  0.00     0.020 C 
HETATM   15  C13 UNL     1      -1.494   3.414  12.381  1.00  0.00     0.008 C 
HETATM   16  C14 UNL     1      -0.801   2.999  11.088  1.00  0.00     0.011 C 
HETATM   17  C15 UNL     1      -0.082   4.220  10.623  1.00  0.00     0.058 C 
HETATM   18  C16 UNL     1       0.392   4.283   9.213  1.00  0.00     0.074 C 
HETATM   19  C17 UNL     1       1.886   4.227   9.069  1.00  0.00     0.072 C 
HETATM   20  C18 UNL     1       2.336   4.171   7.651  1.00  0.00    -0.074 C 
HETATM   21  C19 UNL     1       3.785   4.387   7.359  1.00  0.00     0.044 C 
HETATM   22  C20 UNL     1       1.445   3.935   6.711  1.00  0.00    -0.031 C 
HETATM   23  C22 UNL     1      -0.019   3.724   7.034  1.00  0.00     0.205 C 
HETATM   24  O4  UNL     1      -0.229   3.376   8.338  1.00  0.00    -0.375 OA
HETATM   25  C23 UNL     1      -0.204   5.687   9.183  1.00  0.00     0.080 C 
HETATM   26  C24 UNL     1      -1.000   5.416  10.444  1.00  0.00     0.093 C 
ENDROOT
BRANCH  26  27
HETATM   27  O5  UNL     1      -0.731   6.328  11.477  1.00  0.00    -0.387 OA
ATOM     28  H5  UNL     1      -1.473   6.725  11.919  1.00  0.00     0.210 HD
ENDBRANCH  26  27
BRANCH   1  29
HETATM   29  O1  UNL     1      -3.074   5.977   9.326  1.00  0.00    -0.387 OA
HETATM   30  C1  UNL     1      -3.685   5.451   8.231  1.00  0.00     0.202 C 
ENDBRANCH   1  29
BRANCH  22  31
HETATM   31  C21 UNL     1       1.810   3.863   5.280  1.00  0.00     0.200 C 
BRANCH  31  32
HETATM   32  O3  UNL     1       0.826   3.509   4.418  1.00  0.00    -0.397 OA
ATOM     33  H3  UNL     1       1.075   2.946   3.694  1.00  0.00     0.209 HD
ENDBRANCH  31  32
ENDBRANCH  22  31
TORSDOF 4
ENDMDL
MODEL 3
REMARK VINA RESULT: -8.004096305      2.479      8.329
REMARK  4 active torsions:
REMARK  status: ('A' for Active; 'I' for Inactive)
REMARK    1  A    between atoms: O1_2  and  C2_3 
REMARK    2  A    between atoms: C20_24  and  C21_25 
REMARK    3  A    between atoms: C21_25  and  O3_26 
REMARK    4  A    between atoms: C24_31  and  O5_32 
ROOT
HETATM    1  C2  UNL     1      -1.901   3.336  11.051  1.00  0.00     0.160 C 
HETATM    2  C3  UNL     1      -1.346   3.633   9.689  1.00  0.00     0.024 C 
HETATM    3  C4  UNL     1       0.135   3.971   9.720  1.00  0.00     0.008 C 
HETATM    4  C5  UNL     1       0.728   4.094   8.357  1.00  0.00     0.008 C 
HETATM    5  C6  UNL     1      -0.306   4.120   7.308  1.00  0.00     0.026 C 
HETATM    6  C7  UNL     1       0.077   4.487   5.943  1.00  0.00     0.080 C 
HETATM    7  C8  UNL     1       1.398   5.107   5.723  1.00  0.00     0.020 C 
HETATM    8  C9  UNL     1      -1.071   5.338   5.470  1.00  0.00     0.222 C 
HETATM    9  O2  UNL     1      -1.112   5.921   4.339  1.00  0.00    -0.273 OA
HETATM   10  N1  UNL     1      -2.043   5.347   6.499  1.00  0.00    -0.351 N 
ATOM     11  H1  UNL     1      -3.050   5.468   6.385  1.00  0.00     0.163 HD
HETATM   12  C10 UNL     1      -1.337   5.154   7.729  1.00  0.00     0.037 C 
HETATM   13  C11 UNL     1      -0.755   6.448   8.152  1.00  0.00     0.039 C 
HETATM   14  C12 UNL     1      -2.173   4.466   8.792  1.00  0.00     0.020 C 
HETATM   15  C13 UNL     1      -3.014   5.521   9.426  1.00  0.00     0.008 C 
HETATM   16  C14 UNL     1      -4.094   4.935  10.328  1.00  0.00     0.011 C 
HETATM   17  C15 UNL     1      -3.576   5.105  11.717  1.00  0.00     0.058 C 
HETATM   18  C16 UNL     1      -4.196   4.319  12.818  1.00  0.00     0.074 C 
HETATM   19  C17 UNL     1      -4.991   5.149  13.786  1.00  0.00     0.072 C 
HETATM   20  C18 UNL     1      -5.701   4.335  14.809  1.00  0.00    -0.074 C 
HETATM   21  C19 UNL     1      -6.298   5.038  15.984  1.00  0.00     0.044 C 
HETATM   22  C20 UNL     1      -5.776   3.030  14.644  1.00  0.00    -0.031 C 
HETATM   23  C22 UNL     1      -5.159   2.342  13.446  1.00  0.00     0.205 C 
HETATM   24  O4  UNL     1      -4.930   3.195  12.404  1.00  0.00    -0.375 OA
HETATM   25  C23 UNL     1      -2.771   4.007  13.260  1.00  0.00     0.080 C 
HETATM   26  C24 UNL     1      -2.218   4.461  11.925  1.00  0.00     0.093 C 
ENDROOT
BRANCH  26  27
HETATM   27  O5  UNL     1      -1.263   5.485  12.038  1.00  0.00    -0.387 OA
ATOM     28  H5  UNL     1      -1.196   6.106  11.322  1.00  0.00     0.210 HD
ENDBRANCH  26  27
BRANCH   1  29
HETATM   29  O1  UNL     1      -1.137   2.321  11.578  1.00  0.00    -0.387 OA
HETATM   30  C1  UNL     1      -1.430   1.048  11.199  1.00  0.00     0.202 C 
ENDBRANCH   1  29
BRANCH  22  31
HETATM   31  C21 UNL     1      -6.463   2.151  15.614  1.00  0.00     0.200 C 
BRANCH  31  32
HETATM   32  O3  UNL     1      -5.937   0.915  15.795  1.00  0.00    -0.397 OA
ATOM     33  H3  UNL     1      -5.978   0.559  16.674  1.00  0.00     0.209 HD
ENDBRANCH  31  32
ENDBRANCH  22  31
TORSDOF 4
ENDMDL
MODEL 4
REMARK VINA RESULT: -7.781496269      3.949      6.000
REMARK  4 active torsions:
REMARK  status: ('A' for Active; 'I' for Inactive)
REMARK    1  A    between atoms: O1_2  and  C2_3 
REMARK    2  A    between atoms: C20_24  and  C21_25 
REMARK    3  A    between atoms: C21_25  and  O3_26 
REMARK    4  A    between atoms: C24_31  and  O5_32 
ROOT
HETATM    1  C2  UNL     1      -1.504   6.117  11.901  1.00  0.00     0.160 C 
HETATM    2  C3  UNL     1      -2.119   4.752  12.005  1.00  0.00     0.024 C 
HETATM    3  C4  UNL     1      -2.963   4.394  10.793  1.00  0.00     0.008 C 
HETATM    4  C5  UNL     1      -3.429   2.977  10.812  1.00  0.00     0.008 C 
HETATM    5  C6  UNL     1      -3.188   2.336  12.116  1.00  0.00     0.026 C 
HETATM    6  C7  UNL     1      -3.805   1.038  12.394  1.00  0.00     0.080 C 
HETATM    7  C8  UNL     1      -4.877   0.561  11.500  1.00  0.00     0.020 C 
HETATM    8  C9  UNL     1      -4.228   1.148  13.834  1.00  0.00     0.222 C 
HETATM    9  O2  UNL     1      -4.870   0.246  14.462  1.00  0.00    -0.273 OA
HETATM   10  N1  UNL     1      -3.782   2.403  14.312  1.00  0.00    -0.351 N 
ATOM     11  H1  UNL     1      -3.544   2.639  15.275  1.00  0.00     0.163 HD
HETATM   12  C10 UNL     1      -3.732   3.277  13.178  1.00  0.00     0.037 C 
HETATM   13  C11 UNL     1      -5.098   3.774  12.900  1.00  0.00     0.039 C 
HETATM   14  C12 UNL     1      -2.685   4.366  13.315  1.00  0.00     0.020 C 
HETATM   15  C13 UNL     1      -3.296   5.448  14.137  1.00  0.00     0.008 C 
HETATM   16  C14 UNL     1      -2.271   6.488  14.577  1.00  0.00     0.011 C 
HETATM   17  C15 UNL     1      -2.475   7.647  13.660  1.00  0.00     0.058 C 
HETATM   18  C16 UNL     1      -1.410   8.683  13.563  1.00  0.00     0.074 C 
HETATM   19  C17 UNL     1      -1.795  10.009  14.154  1.00  0.00     0.072 C 
HETATM   20  C18 UNL     1      -0.680  10.995  14.156  1.00  0.00    -0.074 C 
HETATM   21  C19 UNL     1      -0.998  12.423  14.459  1.00  0.00     0.044 C 
HETATM   22  C20 UNL     1       0.540  10.576  13.890  1.00  0.00    -0.031 C 
HETATM   23  C22 UNL     1       0.834   9.123  13.583  1.00  0.00     0.205 C 
HETATM   24  O4  UNL     1      -0.145   8.279  14.023  1.00  0.00    -0.375 OA
HETATM   25  C23 UNL     1      -1.589   8.578  12.052  1.00  0.00     0.080 C 
HETATM   26  C24 UNL     1      -2.345   7.273  12.195  1.00  0.00     0.093 C 
ENDROOT
BRANCH  26  27
HETATM   27  O5  UNL     1      -3.627   7.308  11.623  1.00  0.00    -0.387 OA
ATOM     28  H5  UNL     1      -4.233   7.968  11.939  1.00  0.00     0.210 HD
ENDBRANCH  26  27
BRANCH   1  29
HETATM   29  O1  UNL     1      -0.785   6.140  10.729  1.00  0.00    -0.387 OA
HETATM   30  C1  UNL     1       0.524   5.775  10.785  1.00  0.00     0.202 C 
ENDBRANCH   1  29
BRANCH  22  31
HETATM   31  C21 UNL     1       1.701  11.490  13.872  1.00  0.00     0.200 C 
BRANCH  31  32
HETATM   32  O3  UNL     1       2.470  11.521  14.988  1.00  0.00    -0.397 OA
ATOM     33  H3  UNL     1       2.848  12.359  15.223  1.00  0.00     0.209 HD
ENDBRANCH  31  32
ENDBRANCH  22  31
TORSDOF 4
ENDMDL
MODEL 5
REMARK VINA RESULT: -7.764786191      3.937      6.388
REMARK  4 active torsions:
REMARK  status: ('A' for Active; 'I' for Inactive)
REMARK    1  A    between atoms: O1_2  and  C2_3 
REMARK    2  A    between atoms: C20_24  and  C21_25 
REMARK    3  A    between atoms: C21_25  and  O3_26 
REMARK    4  A    between atoms: C24_31  and  O5_32 
ROOT
HETATM    1  C2  UNL     1      -0.756   5.889  11.832  1.00  0.00     0.160 C 
HETATM    2  C3  UNL     1      -1.284   4.488  11.730  1.00  0.00     0.024 C 
HETATM    3  C4  UNL     1      -1.439   4.022  10.293  1.00  0.00     0.008 C 
HETATM    4  C5  UNL     1      -1.793   2.577  10.189  1.00  0.00     0.008 C 
HETATM    5  C6  UNL     1      -2.168   2.008  11.495  1.00  0.00     0.026 C 
HETATM    6  C7  UNL     1      -2.783   0.680  11.540  1.00  0.00     0.080 C 
HETATM    7  C8  UNL     1      -3.284   0.091  10.284  1.00  0.00     0.020 C 
HETATM    8  C9  UNL     1      -3.840   0.816  12.603  1.00  0.00     0.222 C 
HETATM    9  O2  UNL     1      -4.661  -0.105  12.918  1.00  0.00    -0.273 OA
HETATM   10  N1  UNL     1      -3.731   2.118  13.146  1.00  0.00    -0.351 N 
ATOM     11  H1  UNL     1      -3.986   2.409  14.089  1.00  0.00     0.163 HD
HETATM   12  C10 UNL     1      -3.191   2.947  12.110  1.00  0.00     0.037 C 
HETATM   13  C11 UNL     1      -4.285   3.333  11.190  1.00  0.00     0.039 C 
HETATM   14  C12 UNL     1      -2.383   4.114  12.645  1.00  0.00     0.020 C 
HETATM   15  C13 UNL     1      -3.358   5.181  13.009  1.00  0.00     0.008 C 
HETATM   16  C14 UNL     1      -2.711   6.310  13.804  1.00  0.00     0.011 C 
HETATM   17  C15 UNL     1      -2.510   7.413  12.820  1.00  0.00     0.058 C 
HETATM   18  C16 UNL     1      -1.574   8.520  13.162  1.00  0.00     0.074 C 
HETATM   19  C17 UNL     1      -2.252   9.837  13.410  1.00  0.00     0.072 C 
HETATM   20  C18 UNL     1      -1.316  10.900  13.865  1.00  0.00    -0.074 C 
HETATM   21  C19 UNL     1      -1.804  12.312  13.884  1.00  0.00     0.044 C 
HETATM   22  C20 UNL     1      -0.098  10.560  14.232  1.00  0.00    -0.031 C 
HETATM   23  C22 UNL     1       0.372   9.122  14.200  1.00  0.00     0.205 C 
HETATM   24  O4  UNL     1      -0.659   8.227  14.188  1.00  0.00    -0.375 OA
HETATM   25  C23 UNL     1      -1.013   8.342  11.755  1.00  0.00     0.080 C 
HETATM   26  C24 UNL     1      -1.687   6.991  11.617  1.00  0.00     0.093 C 
ENDROOT
BRANCH  26  27
HETATM   27  O5  UNL     1      -2.547   6.911  10.509  1.00  0.00    -0.387 OA
ATOM     28  H5  UNL     1      -2.942   6.068  10.319  1.00  0.00     0.210 HD
ENDBRANCH  26  27
BRANCH   1  29
HETATM   29  O1  UNL     1       0.429   5.918  11.135  1.00  0.00    -0.387 OA
HETATM   30  C1  UNL     1       1.579   5.732  11.838  1.00  0.00     0.202 C 
ENDBRANCH   1  29
BRANCH  22  31
HETATM   31  C21 UNL     1       0.892  11.555  14.697  1.00  0.00     0.200 C 
BRANCH  31  32
HETATM   32  O3  UNL     1       0.994  11.733  16.037  1.00  0.00    -0.397 OA
ATOM     33  H3  UNL     1       1.807  11.458  16.443  1.00  0.00     0.209 HD
ENDBRANCH  31  32
ENDBRANCH  22  31
TORSDOF 4
ENDMDL
