MODEL 1
REMARK VINA RESULT: -7.448791413      0.000      0.000
REMARK  5 active torsions:
REMARK  status: ('A' for Active; 'I' for Inactive)
REMARK    1  A    between atoms: C17_19  and  C18_20 
REMARK    2  A    between atoms: C18_20  and  O3_21 
REMARK    3  A    between atoms: C18_20  and  C19_23 
REMARK    4  A    between atoms: C19_23  and  O4_24 
REMARK    5  A    between atoms: N1_30  and  O5_31 
ROOT
HETATM    1  C1  UNL     1       0.476   5.993  12.193  1.00  0.00     0.019 C 
HETATM    2  C2  UNL     1      -0.603   5.598  11.564  1.00  0.00    -0.060 C 
HETATM    3  C3  UNL     1      -0.345   4.944  10.188  1.00  0.00     0.038 C 
HETATM    4  C4  UNL     1      -1.162   5.750   9.143  1.00  0.00     0.006 C 
HETATM    5  C5  UNL     1      -2.522   5.351   8.853  1.00  0.00     0.016 C 
HETATM    6  C6  UNL     1      -3.737   5.950   9.533  1.00  0.00     0.003 C 
HETATM    7  C7  UNL     1      -4.798   5.799   8.394  1.00  0.00     0.022 C 
HETATM    8  C8  UNL     1      -3.725   7.439   9.786  1.00  0.00    -0.019 C 
HETATM    9  C9  UNL     1      -3.785   8.081  11.068  1.00  0.00    -0.026 C 
HETATM   10  C10 UNL     1      -3.207   7.678  12.387  1.00  0.00     0.072 C 
HETATM   11  C11 UNL     1      -3.081   6.171  12.571  1.00  0.00     0.117 C 
HETATM   12  O1  UNL     1      -4.309   6.018  11.883  1.00  0.00    -0.363 OA
HETATM   13  C12 UNL     1      -4.249   5.257  10.693  1.00  0.00     0.171 C 
HETATM   14  C13 UNL     1      -3.763   4.019  11.352  1.00  0.00     0.111 C 
HETATM   15  C14 UNL     1      -3.881   2.666  10.823  1.00  0.00     0.046 C 
HETATM   16  C15 UNL     1      -4.236   1.879  12.129  1.00  0.00     0.040 C 
HETATM   17  C16 UNL     1      -5.079   2.801  12.827  1.00  0.00     0.155 C 
HETATM   18  O2  UNL     1      -4.869   3.904  12.182  1.00  0.00    -0.366 OA
HETATM   19  C17 UNL     1      -4.983   3.341  14.213  1.00  0.00    -0.013 C 
HETATM   20  C20 UNL     1      -4.314   4.692  14.320  1.00  0.00    -0.032 C 
HETATM   21  C21 UNL     1      -4.980   5.435  15.167  1.00  0.00     0.021 C 
HETATM   22  C22 UNL     1      -3.122   5.421  13.764  1.00  0.00     0.098 C 
HETATM   23  C23 UNL     1      -2.390   6.159  14.896  1.00  0.00     0.044 C 
HETATM   24  N1  UNL     1      -2.311   4.244  13.367  1.00  0.00    -0.171 NA
HETATM   25  C24 UNL     1      -2.421   4.301  11.894  1.00  0.00     0.157 C 
HETATM   26  C25 UNL     1      -1.986   5.652  11.790  1.00  0.00    -0.015 C 
ENDROOT
BRANCH  19  27
HETATM   27  C18 UNL     1      -4.617   2.382  15.277  1.00  0.00     0.173 C 
BRANCH  27  28
HETATM   28  O3  UNL     1      -3.369   2.659  15.837  1.00  0.00    -0.389 OA
ATOM     29  H3  UNL     1      -2.750   1.949  15.713  1.00  0.00     0.210 HD
ENDBRANCH  27  28
BRANCH  27  30
HETATM   30  C19 UNL     1      -5.611   2.594  16.429  1.00  0.00     0.200 C 
BRANCH  30  31
HETATM   31  O4  UNL     1      -5.379   1.740  17.476  1.00  0.00    -0.398 OA
ATOM     32  H4  UNL     1      -6.099   1.135  17.613  1.00  0.00     0.209 HD
ENDBRANCH  30  31
ENDBRANCH  27  30
ENDBRANCH  19  27
BRANCH  24  33
HETATM   33  O5  UNL     1      -1.118   4.194  13.885  1.00  0.00    -0.311 OA
ATOM     34  H5  UNL     1      -0.560   3.502  13.548  1.00  0.00     0.237 HD
ENDBRANCH  24  33
TORSDOF 5
ENDMDL
MODEL 2
REMARK VINA RESULT: -7.194718722      1.491      4.006
REMARK  5 active torsions:
REMARK  status: ('A' for Active; 'I' for Inactive)
REMARK    1  A    between atoms: C17_19  and  C18_20 
REMARK    2  A    between atoms: C18_20  and  O3_21 
REMARK    3  A    between atoms: C18_20  and  C19_23 
REMARK    4  A    between atoms: C19_23  and  O4_24 
REMARK    5  A    between atoms: N1_30  and  O5_31 
ROOT
HETATM    1  C1  UNL     1      -4.788   7.377   9.149  1.00  0.00     0.019 C 
HETATM    2  C2  UNL     1      -3.942   7.492  10.142  1.00  0.00    -0.060 C 
HETATM    3  C3  UNL     1      -3.747   8.935  10.659  1.00  0.00     0.038 C 
HETATM    4  C4  UNL     1      -2.230   9.249  10.560  1.00  0.00     0.006 C 
HETATM    5  C5  UNL     1      -1.373   8.945  11.684  1.00  0.00     0.016 C 
HETATM    6  C6  UNL     1      -0.591   7.653  11.819  1.00  0.00     0.003 C 
HETATM    7  C7  UNL     1       0.636   8.153  12.649  1.00  0.00     0.022 C 
HETATM    8  C8  UNL     1       0.052   7.099  10.570  1.00  0.00    -0.019 C 
HETATM    9  C9  UNL     1      -0.234   5.833   9.959  1.00  0.00    -0.026 C 
HETATM   10  C10 UNL     1      -1.519   5.079   9.838  1.00  0.00     0.072 C 
HETATM   11  C11 UNL     1      -2.493   5.330  10.983  1.00  0.00     0.117 C 
HETATM   12  O1  UNL     1      -1.388   5.369  11.869  1.00  0.00    -0.363 OA
HETATM   13  C12 UNL     1      -1.212   6.585  12.568  1.00  0.00     0.171 C 
HETATM   14  C13 UNL     1      -2.532   6.542  13.245  1.00  0.00     0.111 C 
HETATM   15  C14 UNL     1      -2.889   7.248  14.469  1.00  0.00     0.046 C 
HETATM   16  C15 UNL     1      -3.741   6.152  15.193  1.00  0.00     0.040 C 
HETATM   17  C16 UNL     1      -3.050   4.946  14.851  1.00  0.00     0.155 C 
HETATM   18  O2  UNL     1      -2.277   5.339  13.889  1.00  0.00    -0.366 OA
HETATM   19  C17 UNL     1      -3.550   3.688  14.225  1.00  0.00    -0.013 C 
HETATM   20  C20 UNL     1      -3.347   3.602  12.730  1.00  0.00    -0.032 C 
HETATM   21  C21 UNL     1      -2.945   2.395  12.421  1.00  0.00     0.021 C 
HETATM   22  C22 UNL     1      -3.478   4.470  11.509  1.00  0.00     0.098 C 
HETATM   23  C23 UNL     1      -4.171   3.684  10.385  1.00  0.00     0.044 C 
HETATM   24  N1  UNL     1      -4.438   5.464  12.050  1.00  0.00    -0.171 NA
HETATM   25  C24 UNL     1      -3.570   6.651  12.203  1.00  0.00     0.157 C 
HETATM   26  C25 UNL     1      -3.099   6.633  10.861  1.00  0.00    -0.015 C 
ENDROOT
BRANCH  19  27
HETATM   27  C18 UNL     1      -4.852   3.179  14.704  1.00  0.00     0.173 C 
BRANCH  27  28
HETATM   28  O3  UNL     1      -5.778   3.027  13.669  1.00  0.00    -0.389 OA
ATOM     29  H3  UNL     1      -6.349   2.280  13.801  1.00  0.00     0.210 HD
ENDBRANCH  27  28
BRANCH  27  30
HETATM   30  C19 UNL     1      -4.612   1.752  15.217  1.00  0.00     0.200 C 
BRANCH  30  31
HETATM   31  O4  UNL     1      -3.545   1.684  16.076  1.00  0.00    -0.398 OA
ATOM     32  H4  UNL     1      -2.829   2.246  15.805  1.00  0.00     0.209 HD
ENDBRANCH  30  31
ENDBRANCH  27  30
ENDBRANCH  19  27
BRANCH  24  33
HETATM   33  O5  UNL     1      -5.537   5.600  11.368  1.00  0.00    -0.311 OA
ATOM     34  H5  UNL     1      -6.293   5.882  11.870  1.00  0.00     0.237 HD
ENDBRANCH  24  33
TORSDOF 5
ENDMDL
MODEL 3
REMARK VINA RESULT: -6.715924800      0.992      1.052
REMARK  5 active torsions:
REMARK  status: ('A' for Active; 'I' for Inactive)
REMARK    1  A    between atoms: C17_19  and  C18_20 
REMARK    2  A    between atoms: C18_20  and  O3_21 
REMARK    3  A    between atoms: C18_20  and  C19_23 
REMARK    4  A    between atoms: C19_23  and  O4_24 
REMARK    5  A    between atoms: N1_30  and  O5_31 
ROOT
HETATM    1  C1  UNL     1       0.777   6.627  11.098  1.00  0.00     0.019 C 
HETATM    2  C2  UNL     1      -0.416   6.308  10.660  1.00  0.00    -0.060 C 
HETATM    3  C3  UNL     1      -0.442   5.711   9.235  1.00  0.00     0.038 C 
HETATM    4  C4  UNL     1      -1.392   6.600   8.389  1.00  0.00     0.006 C 
HETATM    5  C5  UNL     1      -2.799   6.273   8.335  1.00  0.00     0.016 C 
HETATM    6  C6  UNL     1      -3.841   6.888   9.247  1.00  0.00     0.003 C 
HETATM    7  C7  UNL     1      -5.095   6.837   8.314  1.00  0.00     0.022 C 
HETATM    8  C8  UNL     1      -3.710   8.361   9.553  1.00  0.00    -0.019 C 
HETATM    9  C9  UNL     1      -3.507   8.943  10.849  1.00  0.00    -0.026 C 
HETATM   10  C10 UNL     1      -2.723   8.453  12.024  1.00  0.00     0.072 C 
HETATM   11  C11 UNL     1      -2.641   6.935  12.122  1.00  0.00     0.117 C 
HETATM   12  O1  UNL     1      -3.979   6.867  11.662  1.00  0.00    -0.363 OA
HETATM   13  C12 UNL     1      -4.171   6.162  10.451  1.00  0.00     0.171 C 
HETATM   14  C13 UNL     1      -3.637   4.874  10.961  1.00  0.00     0.111 C 
HETATM   15  C14 UNL     1      -3.915   3.555  10.408  1.00  0.00     0.046 C 
HETATM   16  C15 UNL     1      -4.069   2.721  11.725  1.00  0.00     0.040 C 
HETATM   17  C16 UNL     1      -4.726   3.642  12.601  1.00  0.00     0.155 C 
HETATM   18  O2  UNL     1      -4.580   4.765  11.973  1.00  0.00    -0.366 OA
HETATM   19  C17 UNL     1      -4.356   4.111  13.967  1.00  0.00    -0.013 C 
HETATM   20  C20 UNL     1      -3.612   5.425  14.005  1.00  0.00    -0.032 C 
HETATM   21  C21 UNL     1      -4.078   6.154  14.988  1.00  0.00     0.021 C 
HETATM   22  C22 UNL     1      -2.505   6.130  13.271  1.00  0.00     0.098 C 
HETATM   23  C23 UNL     1      -1.546   6.781  14.281  1.00  0.00     0.044 C 
HETATM   24  N1  UNL     1      -1.837   4.941  12.688  1.00  0.00    -0.171 NA
HETATM   25  C24 UNL     1      -2.207   5.073  11.262  1.00  0.00     0.157 C 
HETATM   26  C25 UNL     1      -1.731   6.408  11.135  1.00  0.00    -0.015 C 
ENDROOT
BRANCH  19  27
HETATM   27  C18 UNL     1      -3.854   3.087  14.908  1.00  0.00     0.173 C 
BRANCH  27  28
HETATM   28  O3  UNL     1      -2.713   3.507  15.593  1.00  0.00    -0.389 OA
ATOM     29  H3  UNL     1      -1.993   3.713  15.007  1.00  0.00     0.210 HD
ENDBRANCH  27  28
BRANCH  27  30
HETATM   30  C19 UNL     1      -4.920   2.924  16.000  1.00  0.00     0.200 C 
BRANCH  30  31
HETATM   31  O4  UNL     1      -4.678   1.838  16.802  1.00  0.00    -0.398 OA
ATOM     32  H4  UNL     1      -5.146   1.064  16.510  1.00  0.00     0.209 HD
ENDBRANCH  30  31
ENDBRANCH  27  30
ENDBRANCH  19  27
BRANCH  24  33
HETATM   33  O5  UNL     1      -0.576   4.815  12.978  1.00  0.00    -0.311 OA
ATOM     34  H5  UNL     1      -0.097   5.632  13.068  1.00  0.00     0.237 HD
ENDBRANCH  24  33
TORSDOF 5
ENDMDL
MODEL 4
REMARK VINA RESULT: -6.704644304      2.438      5.905
REMARK  5 active torsions:
REMARK  status: ('A' for Active; 'I' for Inactive)
REMARK    1  A    between atoms: C17_19  and  C18_20 
REMARK    2  A    between atoms: C18_20  and  O3_21 
REMARK    3  A    between atoms: C18_20  and  C19_23 
REMARK    4  A    between atoms: C19_23  and  O4_24 
REMARK    5  A    between atoms: N1_30  and  O5_31 
ROOT
HETATM    1  C1  UNL     1      -0.749   8.262  12.525  1.00  0.00     0.019 C 
HETATM    2  C2  UNL     1      -1.884   7.629  12.688  1.00  0.00    -0.060 C 
HETATM    3  C3  UNL     1      -2.603   7.926  14.022  1.00  0.00     0.038 C 
HETATM    4  C4  UNL     1      -2.816   6.564  14.736  1.00  0.00     0.006 C 
HETATM    5  C5  UNL     1      -4.027   5.817  14.480  1.00  0.00     0.016 C 
HETATM    6  C6  UNL     1      -4.137   4.725  13.436  1.00  0.00     0.003 C 
HETATM    7  C7  UNL     1      -5.229   3.818  14.091  1.00  0.00     0.022 C 
HETATM    8  C8  UNL     1      -2.963   3.786  13.289  1.00  0.00    -0.019 C 
HETATM    9  C9  UNL     1      -2.158   3.612  12.115  1.00  0.00    -0.026 C 
HETATM   10  C10 UNL     1      -1.717   4.599  11.082  1.00  0.00     0.072 C 
HETATM   11  C11 UNL     1      -2.692   5.750  10.872  1.00  0.00     0.117 C 
HETATM   12  O1  UNL     1      -3.758   4.834  11.048  1.00  0.00    -0.363 OA
HETATM   13  C12 UNL     1      -4.624   5.110  12.131  1.00  0.00     0.171 C 
HETATM   14  C13 UNL     1      -5.044   6.443  11.629  1.00  0.00     0.111 C 
HETATM   15  C14 UNL     1      -6.263   7.150  11.999  1.00  0.00     0.046 C 
HETATM   16  C15 UNL     1      -6.681   7.744  10.612  1.00  0.00     0.040 C 
HETATM   17  C16 UNL     1      -6.320   6.697   9.705  1.00  0.00     0.155 C 
HETATM   18  O2  UNL     1      -5.568   5.945  10.444  1.00  0.00    -0.366 OA
HETATM   19  C17 UNL     1      -5.463   6.726   8.485  1.00  0.00    -0.013 C 
HETATM   20  C20 UNL     1      -4.030   6.304   8.710  1.00  0.00    -0.032 C 
HETATM   21  C21 UNL     1      -3.648   5.536   7.721  1.00  0.00     0.021 C 
HETATM   22  C22 UNL     1      -2.923   6.510   9.708  1.00  0.00     0.098 C 
HETATM   23  C23 UNL     1      -1.604   6.789   8.970  1.00  0.00     0.044 C 
HETATM   24  N1  UNL     1      -3.404   7.779  10.308  1.00  0.00    -0.171 NA
HETATM   25  C24 UNL     1      -3.856   7.316  11.637  1.00  0.00     0.157 C 
HETATM   26  C25 UNL     1      -2.627   6.681  11.971  1.00  0.00    -0.015 C 
ENDROOT
BRANCH  19  27
HETATM   27  C18 UNL     1      -5.635   7.881   7.579  1.00  0.00     0.173 C 
BRANCH  27  28
HETATM   28  O3  UNL     1      -4.440   8.569   7.362  1.00  0.00    -0.389 OA
ATOM     29  H3  UNL     1      -4.581   9.430   6.986  1.00  0.00     0.210 HD
ENDBRANCH  27  28
BRANCH  27  30
HETATM   30  C19 UNL     1      -6.008   7.315   6.201  1.00  0.00     0.200 C 
BRANCH  30  31
HETATM   31  O4  UNL     1      -6.735   6.156   6.297  1.00  0.00    -0.398 OA
ATOM     32  H4  UNL     1      -6.331   5.438   5.824  1.00  0.00     0.209 HD
ENDBRANCH  30  31
ENDBRANCH  27  30
ENDBRANCH  19  27
BRANCH  24  33
HETATM   33  O5  UNL     1      -2.559   8.767  10.265  1.00  0.00    -0.311 OA
ATOM     34  H5  UNL     1      -1.669   8.530  10.031  1.00  0.00     0.237 HD
ENDBRANCH  24  33
TORSDOF 5
ENDMDL
MODEL 5
REMARK VINA RESULT: -6.442379247      2.819      5.983
REMARK  5 active torsions:
REMARK  status: ('A' for Active; 'I' for Inactive)
REMARK    1  A    between atoms: C17_19  and  C18_20 
REMARK    2  A    between atoms: C18_20  and  O3_21 
REMARK    3  A    between atoms: C18_20  and  C19_23 
REMARK    4  A    between atoms: C19_23  and  O4_24 
REMARK    5  A    between atoms: N1_30  and  O5_31 
ROOT
HETATM    1  C1  UNL     1      -3.848   9.204  10.665  1.00  0.00     0.019 C 
HETATM    2  C2  UNL     1      -3.555   8.066  11.243  1.00  0.00    -0.060 C 
HETATM    3  C3  UNL     1      -4.575   6.934  10.993  1.00  0.00     0.038 C 
HETATM    4  C4  UNL     1      -5.059   6.444  12.384  1.00  0.00     0.006 C 
HETATM    5  C5  UNL     1      -4.339   5.376  13.043  1.00  0.00     0.016 C 
HETATM    6  C6  UNL     1      -3.237   5.607  14.057  1.00  0.00     0.003 C 
HETATM    7  C7  UNL     1      -3.397   4.328  14.942  1.00  0.00     0.022 C 
HETATM    8  C8  UNL     1      -3.432   6.729  15.050  1.00  0.00    -0.019 C 
HETATM    9  C9  UNL     1      -2.601   7.889  15.192  1.00  0.00    -0.026 C 
HETATM   10  C10 UNL     1      -1.868   8.694  14.167  1.00  0.00     0.072 C 
HETATM   11  C11 UNL     1      -1.426   7.889  12.951  1.00  0.00     0.117 C 
HETATM   12  O1  UNL     1      -1.147   6.802  13.815  1.00  0.00    -0.363 OA
HETATM   13  C12 UNL     1      -1.880   5.620  13.562  1.00  0.00     0.171 C 
HETATM   14  C13 UNL     1      -1.372   5.443  12.178  1.00  0.00     0.111 C 
HETATM   15  C14 UNL     1      -1.352   4.193  11.428  1.00  0.00     0.046 C 
HETATM   16  C15 UNL     1       0.042   4.306  10.723  1.00  0.00     0.040 C 
HETATM   17  C16 UNL     1       0.848   4.931  11.728  1.00  0.00     0.155 C 
HETATM   18  O2  UNL     1      -0.044   5.353  12.567  1.00  0.00    -0.366 OA
HETATM   19  C17 UNL     1       1.688   6.162  11.668  1.00  0.00    -0.013 C 
HETATM   20  C20 UNL     1       1.014   7.412  12.184  1.00  0.00    -0.032 C 
HETATM   21  C21 UNL     1       1.867   8.093  12.906  1.00  0.00     0.021 C 
HETATM   22  C22 UNL     1      -0.319   8.104  12.106  1.00  0.00     0.098 C 
HETATM   23  C23 UNL     1      -0.110   9.606  11.854  1.00  0.00     0.044 C 
HETATM   24  N1  UNL     1      -0.815   7.482  10.853  1.00  0.00    -0.171 NA
HETATM   25  C24 UNL     1      -1.863   6.578  11.375  1.00  0.00     0.157 C 
HETATM   26  C25 UNL     1      -2.551   7.592  12.099  1.00  0.00    -0.015 C 
ENDROOT
BRANCH  19  27
HETATM   27  C18 UNL     1       2.501   6.353  10.449  1.00  0.00     0.173 C 
BRANCH  27  28
HETATM   28  O3  UNL     1       2.382   7.643   9.927  1.00  0.00    -0.389 OA
ATOM     29  H3  UNL     1       2.846   7.745   9.105  1.00  0.00     0.210 HD
ENDBRANCH  27  28
BRANCH  27  30
HETATM   30  C19 UNL     1       3.973   6.244  10.873  1.00  0.00     0.200 C 
BRANCH  30  31
HETATM   31  O4  UNL     1       4.359   4.944  11.071  1.00  0.00    -0.398 OA
ATOM     32  H4  UNL     1       4.036   4.365  10.390  1.00  0.00     0.209 HD
ENDBRANCH  30  31
ENDBRANCH  27  30
ENDBRANCH  19  27
BRANCH  24  33
HETATM   33  O5  UNL     1      -1.148   8.317   9.914  1.00  0.00    -0.311 OA
ATOM     34  H5  UNL     1      -1.225   9.225  10.186  1.00  0.00     0.237 HD
ENDBRANCH  24  33
TORSDOF 5
ENDMDL
