MODEL 1
REMARK VINA RESULT: -7.797661849      0.000      0.000
REMARK  5 active torsions:
REMARK  status: ('A' for Active; 'I' for Inactive)
REMARK    1  A    between atoms: C3_3  and  C4_4 
REMARK    2  A    between atoms: C5_5  and  C6_6 
REMARK    3  A    between atoms: C10_10  and  O1_11 
REMARK    4  A    between atoms: C13_16  and  N1_17 
REMARK    5  A    between atoms: C26_32  and  O3_33 
ROOT
HETATM    1  C6  UNL     1      -3.665   4.689  14.383  1.00  0.00     0.066 C 
HETATM    2  C7  UNL     1      -3.515   5.962  14.738  1.00  0.00     0.022 C 
HETATM    3  C8  UNL     1      -2.736   6.888  13.895  1.00  0.00     0.009 C 
HETATM    4  C9  UNL     1      -2.315   8.127  14.654  1.00  0.00     0.023 C 
HETATM    5  C10 UNL     1      -1.478   6.040  13.562  1.00  0.00     0.161 C 
HETATM    6  C11 UNL     1      -2.154   5.216  12.462  1.00  0.00     0.172 C 
HETATM    7  O2  UNL     1      -3.042   4.380  13.191  1.00  0.00    -0.343 OA
HETATM    8  C12 UNL     1      -2.690   6.160  11.542  1.00  0.00     0.041 C 
HETATM    9  C13 UNL     1      -1.869   6.408  10.374  1.00  0.00     0.187 C 
HETATM   10  N2  UNL     1      -2.167   5.137   9.568  1.00  0.00    -0.394 N 
ATOM     11  H2  UNL     1      -1.456   4.429   9.385  1.00  0.00     0.155 HD
HETATM   12  C19 UNL     1      -3.466   5.015   9.107  1.00  0.00     0.108 C 
HETATM   13  C20 UNL     1      -3.761   6.056   8.073  1.00  0.00     0.027 C 
HETATM   14  C21 UNL     1      -4.598   7.165   8.633  1.00  0.00     0.003 C 
HETATM   15  C22 UNL     1      -4.319   7.497  10.061  1.00  0.00     0.013 C 
HETATM   16  C23 UNL     1      -4.085   6.276  10.974  1.00  0.00     0.002 C 
HETATM   17  C24 UNL     1      -4.589   6.679  12.281  1.00  0.00     0.020 C 
HETATM   18  C25 UNL     1      -3.206   7.170  12.517  1.00  0.00     0.017 C 
HETATM   19  C26 UNL     1      -4.543   5.134  10.205  1.00  0.00     0.150 C 
ENDROOT
BRANCH   9  20
HETATM   20  N1  UNL     1      -0.488   6.438  10.288  1.00  0.00    -0.387 N 
HETATM   21  C14 UNL     1       0.334   5.419   9.786  1.00  0.00     0.124 C 
HETATM   22  C15 UNL     1       1.504   6.276   9.275  1.00  0.00     0.007 C 
HETATM   23  C16 UNL     1       1.635   7.277  10.408  1.00  0.00     0.031 C 
HETATM   24  C18 UNL     1       0.764   7.375   8.549  1.00  0.00     0.031 C 
HETATM   25  C17 UNL     1       0.200   7.627   9.966  1.00  0.00     0.082 C 
ENDBRANCH   9  20
BRANCH   5  26
HETATM   26  O1  UNL     1      -0.406   6.754  13.363  1.00  0.00    -0.392 OA
ATOM     27  H1  UNL     1       0.336   6.248  13.056  1.00  0.00     0.210 HD
ENDBRANCH   5  26
BRANCH  19  28
HETATM   28  O3  UNL     1      -4.772   3.953  10.829  1.00  0.00    -0.393 OA
ATOM     29  H3  UNL     1      -5.694   3.726  10.842  1.00  0.00     0.210 HD
ENDBRANCH  19  28
BRANCH   1  30
HETATM   30  C5  UNL     1      -4.419   3.747  15.194  1.00  0.00     0.036 C 
HETATM   31  C4  UNL     1      -5.674   4.033  15.470  1.00  0.00     0.002 C 
BRANCH  31  32
HETATM   32  C3  UNL     1      -6.523   3.162  16.271  1.00  0.00    -0.004 C 
HETATM   33  C2  UNL     1      -6.351   1.869  16.351  1.00  0.00    -0.031 C 
HETATM   34  C1  UNL     1      -7.285   1.079  17.205  1.00  0.00     0.036 C 
ENDBRANCH  31  32
ENDBRANCH   1  30
TORSDOF 5
ENDMDL
MODEL 2
REMARK VINA RESULT: -7.702133465      2.098      3.061
REMARK  5 active torsions:
REMARK  status: ('A' for Active; 'I' for Inactive)
REMARK    1  A    between atoms: C3_3  and  C4_4 
REMARK    2  A    between atoms: C5_5  and  C6_6 
REMARK    3  A    between atoms: C10_10  and  O1_11 
REMARK    4  A    between atoms: C13_16  and  N1_17 
REMARK    5  A    between atoms: C26_32  and  O3_33 
ROOT
HETATM    1  C6  UNL     1      -4.234   4.021  12.930  1.00  0.00     0.066 C 
HETATM    2  C7  UNL     1      -2.971   4.396  13.117  1.00  0.00     0.022 C 
HETATM    3  C8  UNL     1      -2.232   5.099  12.052  1.00  0.00     0.009 C 
HETATM    4  C9  UNL     1      -0.736   5.045  12.271  1.00  0.00     0.023 C 
HETATM    5  C10 UNL     1      -2.595   4.258  10.798  1.00  0.00     0.161 C 
HETATM    6  C11 UNL     1      -3.975   4.894  10.601  1.00  0.00     0.172 C 
HETATM    7  O2  UNL     1      -4.725   4.371  11.689  1.00  0.00    -0.343 OA
HETATM    8  C12 UNL     1      -3.750   6.297  10.527  1.00  0.00     0.041 C 
HETATM    9  C13 UNL     1      -3.691   6.836   9.183  1.00  0.00     0.187 C 
HETATM   10  N2  UNL     1      -5.186   6.845   8.837  1.00  0.00    -0.394 N 
ATOM     11  H2  UNL     1      -5.581   6.242   8.115  1.00  0.00     0.155 HD
HETATM   12  C19 UNL     1      -5.962   7.725   9.571  1.00  0.00     0.108 C 
HETATM   13  C20 UNL     1      -5.609   9.142   9.244  1.00  0.00     0.027 C 
HETATM   14  C21 UNL     1      -4.778   9.764  10.324  1.00  0.00     0.003 C 
HETATM   15  C22 UNL     1      -3.831   8.828  10.999  1.00  0.00     0.013 C 
HETATM   16  C23 UNL     1      -4.406   7.425  11.288  1.00  0.00     0.002 C 
HETATM   17  C24 UNL     1      -3.745   6.991  12.512  1.00  0.00     0.020 C 
HETATM   18  C25 UNL     1      -2.716   6.425  11.600  1.00  0.00     0.017 C 
HETATM   19  C26 UNL     1      -5.839   7.557  11.099  1.00  0.00     0.150 C 
ENDROOT
BRANCH   9  20
HETATM   20  N1  UNL     1      -3.176   6.243   8.044  1.00  0.00    -0.387 N 
HETATM   21  C14 UNL     1      -3.917   5.711   6.978  1.00  0.00     0.124 C 
HETATM   22  C15 UNL     1      -2.905   5.932   5.841  1.00  0.00     0.007 C 
HETATM   23  C16 UNL     1      -1.614   5.534   6.533  1.00  0.00     0.031 C 
HETATM   24  C18 UNL     1      -2.471   7.354   6.110  1.00  0.00     0.031 C 
HETATM   25  C17 UNL     1      -1.995   6.722   7.439  1.00  0.00     0.082 C 
ENDBRANCH   9  20
BRANCH   5  26
HETATM   26  O1  UNL     1      -1.670   4.263   9.881  1.00  0.00    -0.392 OA
ATOM     27  H1  UNL     1      -1.827   4.890   9.185  1.00  0.00     0.210 HD
ENDBRANCH   5  26
BRANCH  19  28
HETATM   28  O3  UNL     1      -6.669   6.599  11.578  1.00  0.00    -0.393 OA
ATOM     29  H3  UNL     1      -6.217   5.979  12.138  1.00  0.00     0.210 HD
ENDBRANCH  19  28
BRANCH   1  30
HETATM   30  C5  UNL     1      -4.989   3.319  13.954  1.00  0.00     0.036 C 
HETATM   31  C4  UNL     1      -5.572   4.034  14.893  1.00  0.00     0.002 C 
BRANCH  31  32
HETATM   32  C3  UNL     1      -6.355   3.436  15.966  1.00  0.00    -0.004 C 
HETATM   33  C2  UNL     1      -6.280   2.172  16.290  1.00  0.00    -0.031 C 
HETATM   34  C1  UNL     1      -7.132   1.674  17.409  1.00  0.00     0.036 C 
ENDBRANCH  31  32
ENDBRANCH   1  30
TORSDOF 5
ENDMDL
MODEL 3
REMARK VINA RESULT: -7.184030622      1.963      3.342
REMARK  5 active torsions:
REMARK  status: ('A' for Active; 'I' for Inactive)
REMARK    1  A    between atoms: C3_3  and  C4_4 
REMARK    2  A    between atoms: C5_5  and  C6_6 
REMARK    3  A    between atoms: C10_10  and  O1_11 
REMARK    4  A    between atoms: C13_16  and  N1_17 
REMARK    5  A    between atoms: C26_32  and  O3_33 
ROOT
HETATM    1  C6  UNL     1      -3.384   4.312  13.734  1.00  0.00     0.066 C 
HETATM    2  C7  UNL     1      -4.116   5.092  12.943  1.00  0.00     0.022 C 
HETATM    3  C8  UNL     1      -3.502   6.232  12.238  1.00  0.00     0.009 C 
HETATM    4  C9  UNL     1      -4.538   7.228  11.764  1.00  0.00     0.023 C 
HETATM    5  C10 UNL     1      -2.645   6.881  13.359  1.00  0.00     0.161 C 
HETATM    6  C11 UNL     1      -1.494   5.876  13.250  1.00  0.00     0.172 C 
HETATM    7  O2  UNL     1      -2.057   4.687  13.788  1.00  0.00    -0.343 OA
HETATM    8  C12 UNL     1      -1.088   5.895  11.887  1.00  0.00     0.041 C 
HETATM    9  C13 UNL     1       0.066   6.724  11.604  1.00  0.00     0.187 C 
HETATM   10  N2  UNL     1       1.180   5.817  12.143  1.00  0.00    -0.394 N 
ATOM     11  H2  UNL     1       1.739   6.067  12.959  1.00  0.00     0.155 HD
HETATM   12  C19 UNL     1       1.375   4.637  11.447  1.00  0.00     0.108 C 
HETATM   13  C20 UNL     1       1.902   4.912  10.074  1.00  0.00     0.027 C 
HETATM   14  C21 UNL     1       0.833   4.759   9.036  1.00  0.00     0.003 C 
HETATM   15  C22 UNL     1      -0.531   5.172   9.478  1.00  0.00     0.013 C 
HETATM   16  C23 UNL     1      -0.897   4.752  10.917  1.00  0.00     0.002 C 
HETATM   17  C24 UNL     1      -2.337   4.528  10.889  1.00  0.00     0.020 C 
HETATM   18  C25 UNL     1      -2.436   5.969  11.243  1.00  0.00     0.017 C 
HETATM   19  C26 UNL     1       0.106   3.774  11.294  1.00  0.00     0.150 C 
ENDROOT
BRANCH   9  20
HETATM   20  N1  UNL     1       0.421   7.927  12.190  1.00  0.00    -0.387 N 
HETATM   21  C14 UNL     1       1.541   8.156  13.002  1.00  0.00     0.124 C 
HETATM   22  C15 UNL     1       1.774   9.643  12.685  1.00  0.00     0.007 C 
HETATM   23  C16 UNL     1       0.346  10.157  12.685  1.00  0.00     0.031 C 
HETATM   24  C18 UNL     1       1.647   9.643  11.180  1.00  0.00     0.031 C 
HETATM   25  C17 UNL     1       0.221   9.153  11.522  1.00  0.00     0.082 C 
ENDBRANCH   9  20
BRANCH   5  26
HETATM   26  O1  UNL     1      -2.487   8.166  13.216  1.00  0.00    -0.392 OA
ATOM     27  H1  UNL     1      -2.031   8.407  12.418  1.00  0.00     0.210 HD
ENDBRANCH   5  26
BRANCH  19  28
HETATM   28  O3  UNL     1      -0.105   2.976  12.369  1.00  0.00    -0.393 OA
ATOM     29  H3  UNL     1      -0.774   2.322  12.205  1.00  0.00     0.210 HD
ENDBRANCH  19  28
BRANCH   1  30
HETATM   30  C5  UNL     1      -3.958   3.185  14.451  1.00  0.00     0.036 C 
HETATM   31  C4  UNL     1      -4.808   3.438  15.423  1.00  0.00     0.002 C 
BRANCH  31  32
HETATM   32  C3  UNL     1      -5.444   2.388  16.206  1.00  0.00    -0.004 C 
HETATM   33  C2  UNL     1      -6.736   2.314  16.391  1.00  0.00    -0.031 C 
HETATM   34  C1  UNL     1      -7.274   1.191  17.214  1.00  0.00     0.036 C 
ENDBRANCH  31  32
ENDBRANCH   1  30
TORSDOF 5
ENDMDL
MODEL 4
REMARK VINA RESULT: -7.100634890      1.581      2.110
REMARK  5 active torsions:
REMARK  status: ('A' for Active; 'I' for Inactive)
REMARK    1  A    between atoms: C3_3  and  C4_4 
REMARK    2  A    between atoms: C5_5  and  C6_6 
REMARK    3  A    between atoms: C10_10  and  O1_11 
REMARK    4  A    between atoms: C13_16  and  N1_17 
REMARK    5  A    between atoms: C26_32  and  O3_33 
ROOT
HETATM    1  C6  UNL     1      -4.374   4.187  13.040  1.00  0.00     0.066 C 
HETATM    2  C7  UNL     1      -3.347   4.831  13.588  1.00  0.00     0.022 C 
HETATM    3  C8  UNL     1      -2.338   5.492  12.739  1.00  0.00     0.009 C 
HETATM    4  C9  UNL     1      -1.058   5.773  13.496  1.00  0.00     0.023 C 
HETATM    5  C10 UNL     1      -2.065   4.409  11.660  1.00  0.00     0.161 C 
HETATM    6  C11 UNL     1      -3.319   4.717  10.836  1.00  0.00     0.172 C 
HETATM    7  O2  UNL     1      -4.369   4.231  11.661  1.00  0.00    -0.343 OA
HETATM    8  C12 UNL     1      -3.258   6.107  10.539  1.00  0.00     0.041 C 
HETATM    9  C13 UNL     1      -2.735   6.429   9.226  1.00  0.00     0.187 C 
HETATM   10  N2  UNL     1      -3.957   6.083   8.364  1.00  0.00    -0.394 N 
ATOM     11  H2  UNL     1      -3.954   5.308   7.701  1.00  0.00     0.155 HD
HETATM   12  C19 UNL     1      -5.063   6.894   8.548  1.00  0.00     0.108 C 
HETATM   13  C20 UNL     1      -4.787   8.284   8.065  1.00  0.00     0.027 C 
HETATM   14  C21 UNL     1      -4.538   9.221   9.207  1.00  0.00     0.003 C 
HETATM   15  C22 UNL     1      -3.832   8.612  10.372  1.00  0.00     0.013 C 
HETATM   16  C23 UNL     1      -4.296   7.186  10.735  1.00  0.00     0.002 C 
HETATM   17  C24 UNL     1      -4.129   7.092  12.180  1.00  0.00     0.020 C 
HETATM   18  C25 UNL     1      -2.761   6.606  11.858  1.00  0.00     0.017 C 
HETATM   19  C26 UNL     1      -5.539   6.997  10.011  1.00  0.00     0.150 C 
ENDROOT
BRANCH   9  20
HETATM   20  N1  UNL     1      -1.740   5.778   8.517  1.00  0.00    -0.387 N 
HETATM   21  C14 UNL     1      -1.926   4.925   7.420  1.00  0.00     0.124 C 
HETATM   22  C15 UNL     1      -0.593   5.166   6.692  1.00  0.00     0.007 C 
HETATM   23  C16 UNL     1       0.369   5.184   7.866  1.00  0.00     0.031 C 
HETATM   24  C18 UNL     1      -0.500   6.673   6.747  1.00  0.00     0.031 C 
HETATM   25  C17 UNL     1      -0.496   6.395   8.268  1.00  0.00     0.082 C 
ENDBRANCH   9  20
BRANCH   5  26
HETATM   26  O1  UNL     1      -0.859   4.454  11.169  1.00  0.00    -0.392 OA
ATOM     27  H1  UNL     1      -0.181   4.274  11.809  1.00  0.00     0.210 HD
ENDBRANCH   5  26
BRANCH  19  28
HETATM   28  O3  UNL     1      -6.367   5.980  10.354  1.00  0.00    -0.393 OA
ATOM     29  H3  UNL     1      -6.063   5.512  11.123  1.00  0.00     0.210 HD
ENDBRANCH  19  28
BRANCH   1  30
HETATM   30  C5  UNL     1      -5.382   3.518  13.845  1.00  0.00     0.036 C 
HETATM   31  C4  UNL     1      -5.318   3.651  15.153  1.00  0.00     0.002 C 
BRANCH  31  32
HETATM   32  C3  UNL     1      -6.275   3.027  16.057  1.00  0.00    -0.004 C 
HETATM   33  C2  UNL     1      -6.288   1.746  16.313  1.00  0.00    -0.031 C 
HETATM   34  C1  UNL     1      -7.317   1.220  17.257  1.00  0.00     0.036 C 
ENDBRANCH  31  32
ENDBRANCH   1  30
TORSDOF 5
ENDMDL
MODEL 5
REMARK VINA RESULT: -7.016546946      2.389      6.336
REMARK  5 active torsions:
REMARK  status: ('A' for Active; 'I' for Inactive)
REMARK    1  A    between atoms: C3_3  and  C4_4 
REMARK    2  A    between atoms: C5_5  and  C6_6 
REMARK    3  A    between atoms: C10_10  and  O1_11 
REMARK    4  A    between atoms: C13_16  and  N1_17 
REMARK    5  A    between atoms: C26_32  and  O3_33 
ROOT
HETATM    1  C6  UNL     1       0.520   7.488  12.233  1.00  0.00     0.066 C 
HETATM    2  C7  UNL     1       0.080   8.619  12.776  1.00  0.00     0.022 C 
HETATM    3  C8  UNL     1      -1.356   8.954  12.750  1.00  0.00     0.009 C 
HETATM    4  C9  UNL     1      -1.599  10.426  13.004  1.00  0.00     0.023 C 
HETATM    5  C10 UNL     1      -1.740   8.618  11.283  1.00  0.00     0.161 C 
HETATM    6  C11 UNL     1      -1.844   7.107  11.511  1.00  0.00     0.172 C 
HETATM    7  O2  UNL     1      -0.489   6.718  11.690  1.00  0.00    -0.343 OA
HETATM    8  C12 UNL     1      -2.760   6.938  12.586  1.00  0.00     0.041 C 
HETATM    9  C13 UNL     1      -4.118   6.623  12.187  1.00  0.00     0.187 C 
HETATM   10  N2  UNL     1      -3.948   5.143  11.820  1.00  0.00    -0.394 N 
ATOM     11  H2  UNL     1      -4.047   4.804  10.863  1.00  0.00     0.155 HD
HETATM   12  C19 UNL     1      -3.651   4.298  12.876  1.00  0.00     0.108 C 
HETATM   13  C20 UNL     1      -4.808   4.202  13.819  1.00  0.00     0.027 C 
HETATM   14  C21 UNL     1      -4.573   5.011  15.059  1.00  0.00     0.003 C 
HETATM   15  C22 UNL     1      -3.803   6.271  14.845  1.00  0.00     0.013 C 
HETATM   16  C23 UNL     1      -2.619   6.145  13.864  1.00  0.00     0.002 C 
HETATM   17  C24 UNL     1      -1.625   7.096  14.349  1.00  0.00     0.020 C 
HETATM   18  C25 UNL     1      -2.311   8.067  13.457  1.00  0.00     0.017 C 
HETATM   19  C26 UNL     1      -2.415   4.718  13.697  1.00  0.00     0.150 C 
ENDROOT
BRANCH   9  20
HETATM   20  N1  UNL     1      -4.812   7.075  11.079  1.00  0.00    -0.387 N 
HETATM   21  C14 UNL     1      -5.338   6.281  10.049  1.00  0.00     0.124 C 
HETATM   22  C15 UNL     1      -6.520   7.172   9.632  1.00  0.00     0.007 C 
HETATM   23  C16 UNL     1      -5.871   8.543   9.683  1.00  0.00     0.031 C 
HETATM   24  C18 UNL     1      -7.103   7.530  10.979  1.00  0.00     0.031 C 
HETATM   25  C17 UNL     1      -5.705   8.163  11.168  1.00  0.00     0.082 C 
ENDBRANCH   9  20
BRANCH   5  26
HETATM   26  O1  UNL     1      -2.722   9.340  10.823  1.00  0.00    -0.392 OA
ATOM     27  H1  UNL     1      -2.506  10.260  10.727  1.00  0.00     0.210 HD
ENDBRANCH   5  26
BRANCH  19  28
HETATM   28  O3  UNL     1      -1.259   4.265  13.154  1.00  0.00    -0.393 OA
ATOM     29  H3  UNL     1      -0.530   4.323  13.759  1.00  0.00     0.210 HD
ENDBRANCH  19  28
BRANCH   1  30
HETATM   30  C5  UNL     1       1.929   7.130  12.232  1.00  0.00     0.036 C 
HETATM   31  C4  UNL     1       2.243   5.854  12.286  1.00  0.00     0.002 C 
BRANCH  31  32
HETATM   32  C3  UNL     1       3.621   5.381  12.289  1.00  0.00    -0.004 C 
HETATM   33  C2  UNL     1       4.552   5.879  11.519  1.00  0.00    -0.031 C 
HETATM   34  C1  UNL     1       5.929   5.313  11.611  1.00  0.00     0.036 C 
ENDBRANCH  31  32
ENDBRANCH   1  30
TORSDOF 5
ENDMDL
