MODEL 1
REMARK VINA RESULT: -7.559005475      0.000      0.000
REMARK  6 active torsions:
REMARK  status: ('A' for Active; 'I' for Inactive)
REMARK    1  A    between atoms: C4_4  and  N1_5 
REMARK    2  A    between atoms: N2_10  and  C6_11 
REMARK    3  A    between atoms: C6_11  and  C7_12 
REMARK    4  A    between atoms: N3_15  and  C10_16 
REMARK    5  A    between atoms: C21_27  and  O1_28 
REMARK    6  A    between atoms: C22_30  and  O2_31 
ROOT
HETATM    1  C7  UNL     1      -7.305   8.569   7.966  1.00  0.00     0.017 C 
HETATM    2  C8  UNL     1      -6.543   7.289   7.470  1.00  0.00     0.036 C 
HETATM    3  C9  UNL     1      -5.518   6.912   8.460  1.00  0.00     0.273 C 
HETATM    4  N3  UNL     1      -5.699   7.373   9.786  1.00  0.00     0.095 N 
HETATM    5  C23 UNL     1      -6.977   7.777  10.207  1.00  0.00     0.273 C 
HETATM    6  C24 UNL     1      -8.036   7.945   9.136  1.00  0.00     0.036 C 
ENDROOT
BRANCH   4   7
HETATM    7  C10 UNL     1      -5.149   6.494  10.797  1.00  0.00     0.254 C 
HETATM    8  C11 UNL     1      -4.283   7.339  11.691  1.00  0.00     0.039 C 
HETATM    9  C12 UNL     1      -3.946   6.692  13.003  1.00  0.00     0.007 C 
HETATM   10  C13 UNL     1      -3.582   5.285  13.011  1.00  0.00    -0.003 C 
HETATM   11  C14 UNL     1      -2.746   5.003  14.270  1.00  0.00     0.006 C 
HETATM   12  C19 UNL     1      -2.707   4.737  11.955  1.00  0.00    -0.005 C 
HETATM   13  C15 UNL     1      -1.320   4.978  13.831  1.00  0.00     0.010 C 
HETATM   14  C16 UNL     1      -1.275   4.959  12.326  1.00  0.00    -0.038 C 
HETATM   15  C17 UNL     1      -0.342   3.889  11.827  1.00  0.00     0.015 C 
HETATM   16  C18 UNL     1      -0.698   6.261  11.865  1.00  0.00     0.015 C 
HETATM   17  C20 UNL     1      -2.912   3.210  12.042  1.00  0.00     0.019 C 
HETATM   18  C21 UNL     1      -3.013   5.169  10.567  1.00  0.00     0.158 C 
HETATM   19  C22 UNL     1      -4.474   5.283  10.258  1.00  0.00     0.181 C 
BRANCH  18  20
HETATM   20  O1  UNL     1      -2.497   4.178   9.697  1.00  0.00    -0.392 OA
ATOM     21  H1  UNL     1      -3.009   4.212   8.898  1.00  0.00     0.210 HD
ENDBRANCH  18  20
BRANCH  19  22
HETATM   22  O2  UNL     1      -5.180   4.123  10.646  1.00  0.00    -0.391 OA
ATOM     23  H2  UNL     1      -4.627   3.357  10.549  1.00  0.00     0.210 HD
ENDBRANCH  19  22
ENDBRANCH   4   7
BRANCH   1  24
HETATM   24  C6  UNL     1      -8.227   9.029   6.923  1.00  0.00     0.277 C 
BRANCH  24  25
HETATM   25  N2  UNL     1      -8.468  10.364   6.639  1.00  0.00     0.091 N 
HETATM   26  C5  UNL     1      -9.321  11.192   7.375  1.00  0.00     0.305 C 
HETATM   27  C4  UNL     1     -10.778  10.771   7.339  1.00  0.00     0.212 C 
HETATM   28  C3  UNL     1     -11.155  10.239   5.977  1.00  0.00     0.040 C 
HETATM   29  C2  UNL     1     -10.197  10.640   4.907  1.00  0.00     0.012 C 
HETATM   30  C1  UNL     1     -10.567  12.033   4.432  1.00  0.00     0.012 C 
HETATM   31  C25 UNL     1      -8.755  10.483   5.200  1.00  0.00     0.276 C 
BRANCH  27  32
HETATM   32  N1  UNL     1     -11.565  11.934   7.699  1.00  0.00    -0.073 N 
ATOM     33  H13 UNL     1     -11.202  12.779   7.258  1.00  0.00     0.274 HD
ATOM     34  H12 UNL     1     -12.486  11.909   7.261  1.00  0.00     0.274 HD
ATOM     35  H11 UNL     1     -11.637  12.044   8.710  1.00  0.00     0.274 HD
ENDBRANCH  27  32
ENDBRANCH  24  25
ENDBRANCH   1  24
TORSDOF 6
ENDMDL
MODEL 2
REMARK VINA RESULT: -7.290932629      1.004      1.246
REMARK  6 active torsions:
REMARK  status: ('A' for Active; 'I' for Inactive)
REMARK    1  A    between atoms: C4_4  and  N1_5 
REMARK    2  A    between atoms: N2_10  and  C6_11 
REMARK    3  A    between atoms: C6_11  and  C7_12 
REMARK    4  A    between atoms: N3_15  and  C10_16 
REMARK    5  A    between atoms: C21_27  and  O1_28 
REMARK    6  A    between atoms: C22_30  and  O2_31 
ROOT
HETATM    1  C7  UNL     1      -7.351   8.777   7.352  1.00  0.00     0.017 C 
HETATM    2  C8  UNL     1      -6.400   7.632   6.852  1.00  0.00     0.036 C 
HETATM    3  C9  UNL     1      -5.533   7.193   7.960  1.00  0.00     0.273 C 
HETATM    4  N3  UNL     1      -5.982   7.454   9.277  1.00  0.00     0.095 N 
HETATM    5  C23 UNL     1      -7.346   7.709   9.501  1.00  0.00     0.273 C 
HETATM    6  C24 UNL     1      -8.214   7.950   8.283  1.00  0.00     0.036 C 
ENDROOT
BRANCH   4   7
HETATM    7  C10 UNL     1      -5.538   6.484  10.255  1.00  0.00     0.254 C 
HETATM    8  C11 UNL     1      -5.718   7.113  11.611  1.00  0.00     0.039 C 
HETATM    9  C12 UNL     1      -5.679   6.134  12.747  1.00  0.00     0.007 C 
HETATM   10  C13 UNL     1      -4.674   5.085  12.729  1.00  0.00    -0.003 C 
HETATM   11  C14 UNL     1      -4.436   4.609  14.170  1.00  0.00     0.006 C 
HETATM   12  C19 UNL     1      -3.295   5.384  12.292  1.00  0.00    -0.005 C 
HETATM   13  C15 UNL     1      -3.184   5.275  14.633  1.00  0.00     0.010 C 
HETATM   14  C16 UNL     1      -2.509   5.915  13.449  1.00  0.00    -0.038 C 
HETATM   15  C17 UNL     1      -1.046   5.562  13.406  1.00  0.00     0.015 C 
HETATM   16  C18 UNL     1      -2.572   7.399  13.628  1.00  0.00     0.015 C 
HETATM   17  C20 UNL     1      -2.681   4.002  11.990  1.00  0.00     0.019 C 
HETATM   18  C21 UNL     1      -3.166   6.228  11.077  1.00  0.00     0.158 C 
HETATM   19  C22 UNL     1      -4.176   5.940  10.009  1.00  0.00     0.181 C 
BRANCH  18  20
HETATM   20  O1  UNL     1      -1.897   5.952  10.510  1.00  0.00    -0.392 OA
ATOM     21  H1  UNL     1      -1.697   5.043  10.699  1.00  0.00     0.210 HD
ENDBRANCH  18  20
BRANCH  19  22
HETATM   22  O2  UNL     1      -4.252   4.560   9.721  1.00  0.00    -0.391 OA
ATOM     23  H2  UNL     1      -4.375   4.066  10.523  1.00  0.00     0.210 HD
ENDBRANCH  19  22
ENDBRANCH   4   7
BRANCH   1  24
HETATM   24  C6  UNL     1      -8.116   9.312   6.222  1.00  0.00     0.277 C 
BRANCH  24  25
HETATM   25  N2  UNL     1      -8.491  10.641   6.103  1.00  0.00     0.091 N 
HETATM   26  C5  UNL     1      -9.292  11.326   7.023  1.00  0.00     0.305 C 
HETATM   27  C4  UNL     1     -10.705  10.786   7.138  1.00  0.00     0.212 C 
HETATM   28  C3  UNL     1     -11.228  10.344   5.792  1.00  0.00     0.040 C 
HETATM   29  C2  UNL     1     -10.459  10.916   4.649  1.00  0.00     0.012 C 
HETATM   30  C1  UNL     1     -10.993  12.309   4.365  1.00  0.00     0.012 C 
HETATM   31  C25 UNL     1      -8.983  10.859   4.733  1.00  0.00     0.276 C 
BRANCH  27  32
HETATM   32  N1  UNL     1     -11.517  11.842   7.709  1.00  0.00    -0.073 N 
ATOM     33  H13 UNL     1     -11.000  12.371   8.411  1.00  0.00     0.274 HD
ATOM     34  H12 UNL     1     -11.681  12.590   7.036  1.00  0.00     0.274 HD
ATOM     35  H11 UNL     1     -12.394  11.482   8.086  1.00  0.00     0.274 HD
ENDBRANCH  27  32
ENDBRANCH  24  25
ENDBRANCH   1  24
TORSDOF 6
ENDMDL
MODEL 3
REMARK VINA RESULT: -7.192871048      3.616      9.338
REMARK  6 active torsions:
REMARK  status: ('A' for Active; 'I' for Inactive)
REMARK    1  A    between atoms: C4_4  and  N1_5 
REMARK    2  A    between atoms: N2_10  and  C6_11 
REMARK    3  A    between atoms: C6_11  and  C7_12 
REMARK    4  A    between atoms: N3_15  and  C10_16 
REMARK    5  A    between atoms: C21_27  and  O1_28 
REMARK    6  A    between atoms: C22_30  and  O2_31 
ROOT
HETATM    1  C7  UNL     1      -4.646   3.745  13.252  1.00  0.00     0.017 C 
HETATM    2  C8  UNL     1      -3.898   3.656  11.874  1.00  0.00     0.036 C 
HETATM    3  C9  UNL     1      -4.471   4.640  10.938  1.00  0.00     0.273 C 
HETATM    4  N3  UNL     1      -5.156   5.744  11.499  1.00  0.00     0.095 N 
HETATM    5  C23 UNL     1      -4.919   6.093  12.839  1.00  0.00     0.273 C 
HETATM    6  C24 UNL     1      -4.139   5.106  13.684  1.00  0.00     0.036 C 
ENDROOT
BRANCH   4   7
HETATM    7  C10 UNL     1      -5.088   6.949  10.700  1.00  0.00     0.254 C 
HETATM    8  C11 UNL     1      -6.274   7.794  11.078  1.00  0.00     0.039 C 
HETATM    9  C12 UNL     1      -6.164   9.228  10.648  1.00  0.00     0.007 C 
HETATM   10  C13 UNL     1      -5.649   9.518   9.319  1.00  0.00    -0.003 C 
HETATM   11  C14 UNL     1      -6.158  10.903   8.890  1.00  0.00     0.006 C 
HETATM   12  C19 UNL     1      -6.058   8.690   8.167  1.00  0.00    -0.005 C 
HETATM   13  C15 UNL     1      -7.312  10.663   7.976  1.00  0.00     0.010 C 
HETATM   14  C16 UNL     1      -7.352   9.202   7.618  1.00  0.00    -0.038 C 
HETATM   15  C17 UNL     1      -7.502   9.013   6.131  1.00  0.00     0.015 C 
HETATM   16  C18 UNL     1      -8.578   8.608   8.237  1.00  0.00     0.015 C 
HETATM   17  C20 UNL     1      -5.009   9.004   7.080  1.00  0.00     0.019 C 
HETATM   18  C21 UNL     1      -6.071   7.222   8.392  1.00  0.00     0.158 C 
HETATM   19  C22 UNL     1      -4.946   6.712   9.239  1.00  0.00     0.181 C 
BRANCH  18  20
HETATM   20  O1  UNL     1      -5.929   6.604   7.126  1.00  0.00    -0.392 OA
ATOM     21  H1  UNL     1      -5.646   5.711   7.280  1.00  0.00     0.210 HD
ENDBRANCH  18  20
BRANCH  19  22
HETATM   22  O2  UNL     1      -3.696   7.193   8.790  1.00  0.00    -0.391 OA
ATOM     23  H2  UNL     1      -3.819   7.782   8.055  1.00  0.00     0.210 HD
ENDBRANCH  19  22
ENDBRANCH   4   7
BRANCH   1  24
HETATM   24  C6  UNL     1      -4.176   2.676  14.138  1.00  0.00     0.277 C 
BRANCH  24  25
HETATM   25  N2  UNL     1      -4.199   2.755  15.522  1.00  0.00     0.091 N 
HETATM   26  C5  UNL     1      -4.271   1.652  16.379  1.00  0.00     0.305 C 
HETATM   27  C4  UNL     1      -5.554   0.853  16.257  1.00  0.00     0.212 C 
HETATM   28  C3  UNL     1      -6.738   1.761  16.017  1.00  0.00     0.040 C 
HETATM   29  C2  UNL     1      -6.468   3.181  16.381  1.00  0.00     0.012 C 
HETATM   30  C1  UNL     1      -6.686   3.341  17.875  1.00  0.00     0.012 C 
HETATM   31  C25 UNL     1      -5.195   3.768  15.907  1.00  0.00     0.276 C 
BRANCH  27  32
HETATM   32  N1  UNL     1      -5.700   0.093  17.482  1.00  0.00    -0.073 N 
ATOM     33  H13 UNL     1      -5.377   0.625  18.290  1.00  0.00     0.274 HD
ATOM     34  H12 UNL     1      -6.681  -0.009  17.742  1.00  0.00     0.274 HD
ATOM     35  H11 UNL     1      -5.234  -0.813  17.424  1.00  0.00     0.274 HD
ENDBRANCH  27  32
ENDBRANCH  24  25
ENDBRANCH   1  24
TORSDOF 6
ENDMDL
MODEL 4
REMARK VINA RESULT: -7.186417887      1.162      1.543
REMARK  6 active torsions:
REMARK  status: ('A' for Active; 'I' for Inactive)
REMARK    1  A    between atoms: C4_4  and  N1_5 
REMARK    2  A    between atoms: N2_10  and  C6_11 
REMARK    3  A    between atoms: C6_11  and  C7_12 
REMARK    4  A    between atoms: N3_15  and  C10_16 
REMARK    5  A    between atoms: C21_27  and  O1_28 
REMARK    6  A    between atoms: C22_30  and  O2_31 
ROOT
HETATM    1  C7  UNL     1      -7.008   9.410   7.576  1.00  0.00     0.017 C 
HETATM    2  C8  UNL     1      -5.770   8.472   7.345  1.00  0.00     0.036 C 
HETATM    3  C9  UNL     1      -4.966   8.403   8.579  1.00  0.00     0.273 C 
HETATM    4  N3  UNL     1      -5.619   8.716   9.794  1.00  0.00     0.095 N 
HETATM    5  C23 UNL     1      -7.022   8.662   9.856  1.00  0.00     0.273 C 
HETATM    6  C24 UNL     1      -7.768   8.526   8.544  1.00  0.00     0.036 C 
ENDROOT
BRANCH   4   7
HETATM    7  C10 UNL     1      -5.090   8.017  10.946  1.00  0.00     0.254 C 
HETATM    8  C11 UNL     1      -3.596   8.194  10.921  1.00  0.00     0.039 C 
HETATM    9  C12 UNL     1      -2.922   7.877  12.223  1.00  0.00     0.007 C 
HETATM   10  C13 UNL     1      -3.349   6.698  12.959  1.00  0.00    -0.003 C 
HETATM   11  C14 UNL     1      -2.201   6.254  13.879  1.00  0.00     0.006 C 
HETATM   12  C19 UNL     1      -3.647   5.442  12.242  1.00  0.00    -0.005 C 
HETATM   13  C15 UNL     1      -1.528   5.113  13.192  1.00  0.00     0.010 C 
HETATM   14  C16 UNL     1      -2.381   4.673  12.033  1.00  0.00    -0.038 C 
HETATM   15  C17 UNL     1      -2.567   3.179  12.035  1.00  0.00     0.015 C 
HETATM   16  C18 UNL     1      -1.647   4.997  10.770  1.00  0.00     0.015 C 
HETATM   17  C20 UNL     1      -4.461   4.609  13.254  1.00  0.00     0.019 C 
HETATM   18  C21 UNL     1      -4.448   5.577  10.998  1.00  0.00     0.158 C 
HETATM   19  C22 UNL     1      -5.536   6.603  11.067  1.00  0.00     0.181 C 
BRANCH  18  20
HETATM   20  O1  UNL     1      -5.086   4.332  10.776  1.00  0.00    -0.392 OA
ATOM     21  H1  UNL     1      -5.678   4.448  10.042  1.00  0.00     0.210 HD
ENDBRANCH  18  20
BRANCH  19  22
HETATM   22  O2  UNL     1      -6.331   6.444  12.224  1.00  0.00    -0.391 OA
ATOM     23  H2  UNL     1      -6.328   5.535  12.499  1.00  0.00     0.210 HD
ENDBRANCH  19  22
ENDBRANCH   4   7
BRANCH   1  24
HETATM   24  C6  UNL     1      -7.731   9.593   6.315  1.00  0.00     0.277 C 
BRANCH  24  25
HETATM   25  N2  UNL     1      -8.330  10.784   5.934  1.00  0.00     0.091 N 
HETATM   26  C5  UNL     1      -8.751  11.780   6.821  1.00  0.00     0.305 C 
HETATM   27  C4  UNL     1      -9.865  11.348   7.756  1.00  0.00     0.212 C 
HETATM   28  C3  UNL     1     -10.842  10.437   7.051  1.00  0.00     0.040 C 
HETATM   29  C2  UNL     1     -10.750  10.519   5.564  1.00  0.00     0.012 C 
HETATM   30  C1  UNL     1     -11.572  11.708   5.102  1.00  0.00     0.012 C 
HETATM   31  C25 UNL     1      -9.397  10.473   4.969  1.00  0.00     0.276 C 
BRANCH  27  32
HETATM   32  N1  UNL     1     -10.508  12.555   8.236  1.00  0.00    -0.073 N 
ATOM     33  H13 UNL     1     -11.220  12.882   7.583  1.00  0.00     0.274 HD
ATOM     34  H12 UNL     1     -11.106  12.363   9.040  1.00  0.00     0.274 HD
ATOM     35  H11 UNL     1      -9.830  13.288   8.444  1.00  0.00     0.274 HD
ENDBRANCH  27  32
ENDBRANCH  24  25
ENDBRANCH   1  24
TORSDOF 6
ENDMDL
MODEL 5
REMARK VINA RESULT: -7.152165991      6.375      8.530
REMARK  6 active torsions:
REMARK  status: ('A' for Active; 'I' for Inactive)
REMARK    1  A    between atoms: C4_4  and  N1_5 
REMARK    2  A    between atoms: N2_10  and  C6_11 
REMARK    3  A    between atoms: C6_11  and  C7_12 
REMARK    4  A    between atoms: N3_15  and  C10_16 
REMARK    5  A    between atoms: C21_27  and  O1_28 
REMARK    6  A    between atoms: C22_30  and  O2_31 
ROOT
HETATM    1  C7  UNL     1      -0.886   9.256  13.640  1.00  0.00     0.017 C 
HETATM    2  C8  UNL     1      -1.940   9.296  12.476  1.00  0.00     0.036 C 
HETATM    3  C9  UNL     1      -2.541   7.960  12.310  1.00  0.00     0.273 C 
HETATM    4  N3  UNL     1      -2.484   7.082  13.418  1.00  0.00     0.095 N 
HETATM    5  C23 UNL     1      -2.270   7.609  14.704  1.00  0.00     0.273 C 
HETATM    6  C24 UNL     1      -1.848   9.062  14.794  1.00  0.00     0.036 C 
ENDROOT
BRANCH   4   7
HETATM    7  C10 UNL     1      -3.591   6.152  13.492  1.00  0.00     0.254 C 
HETATM    8  C11 UNL     1      -3.929   5.985  14.949  1.00  0.00     0.039 C 
HETATM    9  C12 UNL     1      -5.277   5.373  15.196  1.00  0.00     0.007 C 
HETATM   10  C13 UNL     1      -5.691   4.246  14.377  1.00  0.00    -0.003 C 
HETATM   11  C14 UNL     1      -6.756   3.447  15.145  1.00  0.00     0.006 C 
HETATM   12  C19 UNL     1      -4.725   3.183  14.033  1.00  0.00    -0.005 C 
HETATM   13  C15 UNL     1      -6.054   2.271  15.736  1.00  0.00     0.010 C 
HETATM   14  C16 UNL     1      -4.677   2.175  15.136  1.00  0.00    -0.038 C 
HETATM   15  C17 UNL     1      -4.387   0.773  14.670  1.00  0.00     0.015 C 
HETATM   16  C18 UNL     1      -3.682   2.467  16.215  1.00  0.00     0.015 C 
HETATM   17  C20 UNL     1      -5.375   2.446  12.843  1.00  0.00     0.019 C 
HETATM   18  C21 UNL     1      -3.374   3.641  13.615  1.00  0.00     0.158 C 
HETATM   19  C22 UNL     1      -3.370   4.874  12.765  1.00  0.00     0.181 C 
BRANCH  18  20
HETATM   20  O1  UNL     1      -2.810   2.609  12.826  1.00  0.00    -0.392 OA
ATOM     21  H1  UNL     1      -2.257   3.025  12.175  1.00  0.00     0.210 HD
ENDBRANCH  18  20
BRANCH  19  22
HETATM   22  O2  UNL     1      -4.277   4.767  11.688  1.00  0.00    -0.391 OA
ATOM     23  H2  UNL     1      -3.930   4.180  11.026  1.00  0.00     0.210 HD
ENDBRANCH  19  22
ENDBRANCH   4   7
BRANCH   1  24
HETATM   24  C6  UNL     1      -0.188  10.542  13.716  1.00  0.00     0.277 C 
BRANCH  24  25
HETATM   25  N2  UNL     1      -0.503  11.539  14.626  1.00  0.00     0.091 N 
HETATM   26  C5  UNL     1      -1.013  12.796  14.284  1.00  0.00     0.305 C 
HETATM   27  C4  UNL     1      -0.066  13.646  13.459  1.00  0.00     0.212 C 
HETATM   28  C3  UNL     1       1.364  13.456  13.908  1.00  0.00     0.040 C 
HETATM   29  C2  UNL     1       1.475  12.858  15.270  1.00  0.00     0.012 C 
HETATM   30  C1  UNL     1       1.333  13.971  16.292  1.00  0.00     0.012 C 
HETATM   31  C25 UNL     1       0.625  11.682  15.561  1.00  0.00     0.276 C 
BRANCH  27  32
HETATM   32  N1  UNL     1      -0.495  15.023  13.604  1.00  0.00    -0.073 N 
ATOM     33  H13 UNL     1      -1.417  15.170  13.193  1.00  0.00     0.274 HD
ATOM     34  H12 UNL     1      -0.718  15.242  14.575  1.00  0.00     0.274 HD
ATOM     35  H11 UNL     1       0.190  15.675  13.223  1.00  0.00     0.274 HD
ENDBRANCH  27  32
ENDBRANCH  24  25
ENDBRANCH   1  24
TORSDOF 6
ENDMDL
