MODEL 1
REMARK VINA RESULT: -8.144634659      0.000      0.000
REMARK  5 active torsions:
REMARK  status: ('A' for Active; 'I' for Inactive)
REMARK       I    between atoms: C1_2  and  N1_3 
REMARK    1  A    between atoms: C1_2  and  C18_25 
REMARK    2  A    between atoms: N1_3  and  N2_5 
REMARK       I    between atoms: N2_5  and  C2_7 
REMARK    3  A    between atoms: C2_7  and  C3_9 
REMARK    4  A    between atoms: C21_28  and  C22_29 
REMARK    5  A    between atoms: C22_29  and  O3_30 
ROOT
HETATM    1  C3  UNL     1      -3.426   6.946  11.372  1.00  0.00     0.084 C 
HETATM    2  C4  UNL     1      -3.080   8.411  11.448  1.00  0.00     0.015 C 
HETATM    3  C5  UNL     1      -3.799   9.092  10.279  1.00  0.00     0.006 C 
HETATM    4  C6  UNL     1      -4.355   7.962   9.518  1.00  0.00    -0.005 C 
HETATM    5  C7  UNL     1      -4.750   6.990  10.630  1.00  0.00     0.003 C 
HETATM    6  C8  UNL     1      -5.826   7.559  11.481  1.00  0.00     0.007 C 
HETATM    7  C9  UNL     1      -6.848   8.395  10.843  1.00  0.00     0.011 C 
HETATM    8  C10 UNL     1      -6.744   8.717   9.408  1.00  0.00    -0.028 C 
HETATM    9  C11 UNL     1      -6.753  10.237   9.170  1.00  0.00     0.083 C 
HETATM   10  S1  UNL     1      -7.917  10.701   7.869  1.00  0.00    -0.168 SA
HETATM   11  C12 UNL     1      -7.710   9.462   6.533  1.00  0.00     0.078 C 
HETATM   12  C13 UNL     1      -7.819   8.114   7.206  1.00  0.00    -0.004 C 
HETATM   13  C14 UNL     1      -6.724   7.175   6.779  1.00  0.00     0.006 C 
HETATM   14  C15 UNL     1      -5.894   6.882   8.008  1.00  0.00     0.006 C 
HETATM   15  C16 UNL     1      -5.546   8.194   8.691  1.00  0.00    -0.001 C 
HETATM   16  C17 UNL     1      -7.982   8.199   8.691  1.00  0.00     0.016 C 
ENDROOT
BRANCH   1  17
HETATM   17  C2  UNL     1      -3.492   6.292  12.675  1.00  0.00     0.240 C 
HETATM   18  N2  UNL     1      -3.980   4.967  12.772  1.00  0.00    -0.267 N 
ATOM     19  H2  UNL     1      -4.278   4.496  11.918  1.00  0.00     0.190 HD
HETATM   20  O2  UNL     1      -3.118   6.899  13.709  1.00  0.00    -0.271 OA
BRANCH  18  21
HETATM   21  N1  UNL     1      -4.072   4.265  13.994  1.00  0.00    -0.265 N 
HETATM   22  C1  UNL     1      -5.276   4.231  14.719  1.00  0.00     0.265 C 
HETATM   23  O1  UNL     1      -6.297   4.815  14.309  1.00  0.00    -0.269 OA
ATOM     24  H1  UNL     1      -3.253   3.777  14.357  1.00  0.00     0.190 HD
BRANCH  22  25
HETATM   25  C18 UNL     1      -5.361   3.491  16.006  1.00  0.00     0.215 C 
HETATM   26  C19 UNL     1      -6.735   3.600  16.615  1.00  0.00     0.044 C 
HETATM   27  C20 UNL     1      -6.910   2.288  17.345  1.00  0.00     0.037 C 
HETATM   28  C21 UNL     1      -5.603   1.600  17.040  1.00  0.00     0.146 C 
HETATM   29  O4  UNL     1      -5.197   2.125  15.820  1.00  0.00    -0.369 OA
BRANCH  28  30
HETATM   30  C22 UNL     1      -5.766   0.097  16.976  1.00  0.00     0.196 C 
BRANCH  30  31
HETATM   31  O3  UNL     1      -5.093  -0.379  15.858  1.00  0.00    -0.398 OA
ATOM     32  H3  UNL     1      -5.668  -0.317  15.104  1.00  0.00     0.209 HD
ENDBRANCH  30  31
ENDBRANCH  28  30
ENDBRANCH  22  25
ENDBRANCH  18  21
ENDBRANCH   1  17
TORSDOF 5
ENDMDL
MODEL 2
REMARK VINA RESULT: -7.809826217      1.540      2.036
REMARK  5 active torsions:
REMARK  status: ('A' for Active; 'I' for Inactive)
REMARK       I    between atoms: C1_2  and  N1_3 
REMARK    1  A    between atoms: C1_2  and  C18_25 
REMARK    2  A    between atoms: N1_3  and  N2_5 
REMARK       I    between atoms: N2_5  and  C2_7 
REMARK    3  A    between atoms: C2_7  and  C3_9 
REMARK    4  A    between atoms: C21_28  and  C22_29 
REMARK    5  A    between atoms: C22_29  and  O3_30 
ROOT
HETATM    1  C3  UNL     1      -5.518   6.520  10.260  1.00  0.00     0.084 C 
HETATM    2  C4  UNL     1      -4.149   7.018   9.870  1.00  0.00     0.015 C 
HETATM    3  C5  UNL     1      -4.357   8.028   8.737  1.00  0.00     0.006 C 
HETATM    4  C6  UNL     1      -5.792   7.909   8.435  1.00  0.00    -0.005 C 
HETATM    5  C7  UNL     1      -6.393   7.681   9.822  1.00  0.00     0.003 C 
HETATM    6  C8  UNL     1      -6.193   8.866  10.695  1.00  0.00     0.007 C 
HETATM    7  C9  UNL     1      -6.250  10.197  10.082  1.00  0.00     0.011 C 
HETATM    8  C10 UNL     1      -6.422  10.329   8.625  1.00  0.00    -0.028 C 
HETATM    9  C11 UNL     1      -5.293  11.166   7.998  1.00  0.00     0.083 C 
HETATM   10  S1  UNL     1      -5.940  12.437   6.890  1.00  0.00    -0.168 SA
HETATM   11  C12 UNL     1      -7.273  11.635   5.918  1.00  0.00     0.078 C 
HETATM   12  C13 UNL     1      -8.179  10.977   6.933  1.00  0.00    -0.004 C 
HETATM   13  C14 UNL     1      -8.524   9.562   6.554  1.00  0.00     0.006 C 
HETATM   14  C15 UNL     1      -7.931   8.667   7.618  1.00  0.00     0.006 C 
HETATM   15  C16 UNL     1      -6.480   9.062   7.841  1.00  0.00    -0.001 C 
HETATM   16  C17 UNL     1      -7.695  11.113   8.342  1.00  0.00     0.016 C 
ENDROOT
BRANCH   1  17
HETATM   17  C2  UNL     1      -5.636   6.180  11.675  1.00  0.00     0.240 C 
HETATM   18  N2  UNL     1      -4.577   5.506  12.326  1.00  0.00    -0.267 N 
ATOM     19  H2  UNL     1      -3.746   5.269  11.784  1.00  0.00     0.190 HD
HETATM   20  O2  UNL     1      -6.673   6.485  12.315  1.00  0.00    -0.271 OA
BRANCH  18  21
HETATM   21  N1  UNL     1      -4.614   5.145  13.691  1.00  0.00    -0.265 N 
HETATM   22  C1  UNL     1      -5.088   3.885  14.093  1.00  0.00     0.265 C 
HETATM   23  O1  UNL     1      -5.488   3.046  13.263  1.00  0.00    -0.269 OA
ATOM     24  H1  UNL     1      -4.293   5.810  14.396  1.00  0.00     0.190 HD
BRANCH  22  25
HETATM   25  C18 UNL     1      -5.125   3.517  15.534  1.00  0.00     0.215 C 
HETATM   26  C19 UNL     1      -6.382   4.016  16.198  1.00  0.00     0.044 C 
HETATM   27  C20 UNL     1      -6.661   2.981  17.264  1.00  0.00     0.037 C 
HETATM   28  C21 UNL     1      -5.519   2.019  17.051  1.00  0.00     0.146 C 
HETATM   29  O4  UNL     1      -5.191   2.142  15.707  1.00  0.00    -0.369 OA
BRANCH  28  30
HETATM   30  C22 UNL     1      -5.912   0.601  17.404  1.00  0.00     0.196 C 
BRANCH  30  31
HETATM   31  O3  UNL     1      -7.033   0.249  16.662  1.00  0.00    -0.398 OA
ATOM     32  H3  UNL     1      -6.996   0.692  15.822  1.00  0.00     0.209 HD
ENDBRANCH  30  31
ENDBRANCH  28  30
ENDBRANCH  22  25
ENDBRANCH  18  21
ENDBRANCH   1  17
TORSDOF 5
ENDMDL
MODEL 3
REMARK VINA RESULT: -7.792133791      2.345      3.798
REMARK  5 active torsions:
REMARK  status: ('A' for Active; 'I' for Inactive)
REMARK       I    between atoms: C1_2  and  N1_3 
REMARK    1  A    between atoms: C1_2  and  C18_25 
REMARK    2  A    between atoms: N1_3  and  N2_5 
REMARK       I    between atoms: N2_5  and  C2_7 
REMARK    3  A    between atoms: C2_7  and  C3_9 
REMARK    4  A    between atoms: C21_28  and  C22_29 
REMARK    5  A    between atoms: C22_29  and  O3_30 
ROOT
HETATM    1  C3  UNL     1      -6.845   7.016   8.653  1.00  0.00     0.084 C 
HETATM    2  C4  UNL     1      -5.801   7.322   7.609  1.00  0.00     0.015 C 
HETATM    3  C5  UNL     1      -6.400   8.393   6.691  1.00  0.00     0.006 C 
HETATM    4  C6  UNL     1      -7.792   8.498   7.155  1.00  0.00    -0.005 C 
HETATM    5  C7  UNL     1      -7.641   8.309   8.665  1.00  0.00     0.003 C 
HETATM    6  C8  UNL     1      -6.860   9.418   9.269  1.00  0.00     0.007 C 
HETATM    7  C9  UNL     1      -7.022  10.765   8.712  1.00  0.00     0.011 C 
HETATM    8  C10 UNL     1      -7.881  10.975   7.533  1.00  0.00    -0.028 C 
HETATM    9  C11 UNL     1      -7.111  11.660   6.390  1.00  0.00     0.083 C 
HETATM   10  S1  UNL     1      -8.034  13.053   5.704  1.00  0.00    -0.168 SA
HETATM   11  C12 UNL     1      -9.775  12.492   5.566  1.00  0.00     0.078 C 
HETATM   12  C13 UNL     1     -10.134  11.937   6.925  1.00  0.00    -0.004 C 
HETATM   13  C14 UNL     1     -10.824  10.604   6.830  1.00  0.00     0.006 C 
HETATM   14  C15 UNL     1      -9.915   9.592   7.490  1.00  0.00     0.006 C 
HETATM   15  C16 UNL     1      -8.509   9.761   6.938  1.00  0.00    -0.001 C 
HETATM   16  C17 UNL     1      -8.994  11.948   7.894  1.00  0.00     0.016 C 
ENDROOT
BRANCH   1  17
HETATM   17  C2  UNL     1      -6.285   6.646   9.949  1.00  0.00     0.240 C 
HETATM   18  N2  UNL     1      -5.009   6.040  10.015  1.00  0.00    -0.267 N 
ATOM     19  H2  UNL     1      -4.505   5.874   9.145  1.00  0.00     0.190 HD
HETATM   20  O2  UNL     1      -6.932   6.863  11.004  1.00  0.00    -0.271 OA
BRANCH  18  21
HETATM   21  N1  UNL     1      -4.398   5.655  11.230  1.00  0.00    -0.265 N 
HETATM   22  C1  UNL     1      -4.335   4.304  11.610  1.00  0.00     0.265 C 
HETATM   23  O1  UNL     1      -4.811   3.404  10.892  1.00  0.00    -0.269 OA
ATOM     24  H1  UNL     1      -3.999   6.369  11.840  1.00  0.00     0.190 HD
BRANCH  22  25
HETATM   25  C18 UNL     1      -3.692   3.911  12.892  1.00  0.00     0.215 C 
HETATM   26  C19 UNL     1      -3.838   4.988  13.935  1.00  0.00     0.044 C 
HETATM   27  C20 UNL     1      -3.906   4.222  15.237  1.00  0.00     0.037 C 
HETATM   28  C21 UNL     1      -3.799   2.799  14.751  1.00  0.00     0.146 C 
HETATM   29  O4  UNL     1      -4.325   2.817  13.465  1.00  0.00    -0.369 OA
BRANCH  28  30
HETATM   30  C22 UNL     1      -4.554   1.844  15.651  1.00  0.00     0.196 C 
BRANCH  30  31
HETATM   31  O3  UNL     1      -3.642   1.002  16.275  1.00  0.00    -0.398 OA
ATOM     32  H3  UNL     1      -2.777   1.391  16.220  1.00  0.00     0.209 HD
ENDBRANCH  30  31
ENDBRANCH  28  30
ENDBRANCH  22  25
ENDBRANCH  18  21
ENDBRANCH   1  17
TORSDOF 5
ENDMDL
MODEL 4
REMARK VINA RESULT: -7.742667160     12.079     13.728
REMARK  5 active torsions:
REMARK  status: ('A' for Active; 'I' for Inactive)
REMARK       I    between atoms: C1_2  and  N1_3 
REMARK    1  A    between atoms: C1_2  and  C18_25 
REMARK    2  A    between atoms: N1_3  and  N2_5 
REMARK       I    between atoms: N2_5  and  C2_7 
REMARK    3  A    between atoms: C2_7  and  C3_9 
REMARK    4  A    between atoms: C21_28  and  C22_29 
REMARK    5  A    between atoms: C22_29  and  O3_30 
ROOT
HETATM    1  C3  UNL     1       2.846   1.299   7.118  1.00  0.00     0.084 C 
HETATM    2  C4  UNL     1       3.319   1.953   5.845  1.00  0.00     0.015 C 
HETATM    3  C5  UNL     1       3.731   3.381   6.213  1.00  0.00     0.006 C 
HETATM    4  C6  UNL     1       3.305   3.507   7.615  1.00  0.00    -0.005 C 
HETATM    5  C7  UNL     1       3.592   2.109   8.163  1.00  0.00     0.003 C 
HETATM    6  C8  UNL     1       5.047   1.811   8.139  1.00  0.00     0.007 C 
HETATM    7  C9  UNL     1       5.984   2.907   8.403  1.00  0.00     0.011 C 
HETATM    8  C10 UNL     1       5.478   4.276   8.604  1.00  0.00    -0.028 C 
HETATM    9  C11 UNL     1       6.125   5.267   7.621  1.00  0.00     0.083 C 
HETATM   10  S1  UNL     1       6.724   6.749   8.463  1.00  0.00    -0.168 SA
HETATM   11  C12 UNL     1       5.420   7.214   9.666  1.00  0.00     0.078 C 
HETATM   12  C13 UNL     1       5.124   5.958  10.453  1.00  0.00    -0.004 C 
HETATM   13  C14 UNL     1       3.648   5.702  10.582  1.00  0.00     0.006 C 
HETATM   14  C15 UNL     1       3.361   4.411   9.851  1.00  0.00     0.006 C 
HETATM   15  C16 UNL     1       4.005   4.470   8.476  1.00  0.00    -0.001 C 
HETATM   16  C17 UNL     1       5.895   4.764   9.984  1.00  0.00     0.016 C 
ENDROOT
BRANCH   1  17
HETATM   17  C2  UNL     1       3.109  -0.136   7.173  1.00  0.00     0.240 C 
HETATM   18  N2  UNL     1       3.501  -0.822   5.999  1.00  0.00    -0.267 N 
ATOM     19  H2  UNL     1       3.590  -0.292   5.133  1.00  0.00     0.190 HD
HETATM   20  O2  UNL     1       2.989  -0.761   8.255  1.00  0.00    -0.271 OA
BRANCH  18  21
HETATM   21  N1  UNL     1       3.776  -2.208   5.971  1.00  0.00    -0.265 N 
HETATM   22  C1  UNL     1       4.498  -2.779   4.910  1.00  0.00     0.265 C 
HETATM   23  O1  UNL     1       4.919  -2.088   3.963  1.00  0.00    -0.269 OA
ATOM     24  H1  UNL     1       3.445  -2.802   6.731  1.00  0.00     0.190 HD
BRANCH  22  25
HETATM   25  C18 UNL     1       4.779  -4.240   4.889  1.00  0.00     0.215 C 
HETATM   26  C19 UNL     1       6.260  -4.515   4.845  1.00  0.00     0.044 C 
HETATM   27  C20 UNL     1       6.407  -5.817   5.600  1.00  0.00     0.037 C 
HETATM   28  C21 UNL     1       4.977  -6.101   5.984  1.00  0.00     0.146 C 
HETATM   29  O4  UNL     1       4.372  -4.854   6.065  1.00  0.00    -0.369 OA
BRANCH  28  30
HETATM   30  C22 UNL     1       4.891  -6.851   7.296  1.00  0.00     0.196 C 
BRANCH  30  31
HETATM   31  O3  UNL     1       6.091  -6.697   7.980  1.00  0.00    -0.398 OA
ATOM     32  H3  UNL     1       6.160  -5.797   8.278  1.00  0.00     0.209 HD
ENDBRANCH  30  31
ENDBRANCH  28  30
ENDBRANCH  22  25
ENDBRANCH  18  21
ENDBRANCH   1  17
TORSDOF 5
ENDMDL
MODEL 5
REMARK VINA RESULT: -7.617864179      4.276      5.119
REMARK  5 active torsions:
REMARK  status: ('A' for Active; 'I' for Inactive)
REMARK       I    between atoms: C1_2  and  N1_3 
REMARK    1  A    between atoms: C1_2  and  C18_25 
REMARK    2  A    between atoms: N1_3  and  N2_5 
REMARK       I    between atoms: N2_5  and  C2_7 
REMARK    3  A    between atoms: C2_7  and  C3_9 
REMARK    4  A    between atoms: C21_28  and  C22_29 
REMARK    5  A    between atoms: C22_29  and  O3_30 
ROOT
HETATM    1  C3  UNL     1       0.463   4.572  10.717  1.00  0.00     0.084 C 
HETATM    2  C4  UNL     1       0.919   5.997  10.905  1.00  0.00     0.015 C 
HETATM    3  C5  UNL     1       1.010   6.616   9.507  1.00  0.00     0.006 C 
HETATM    4  C6  UNL     1       0.777   5.470   8.613  1.00  0.00    -0.005 C 
HETATM    5  C7  UNL     1      -0.266   4.666   9.389  1.00  0.00     0.003 C 
HETATM    6  C8  UNL     1      -1.537   5.423   9.523  1.00  0.00     0.007 C 
HETATM    7  C9  UNL     1      -1.954   6.282   8.410  1.00  0.00     0.011 C 
HETATM    8  C10 UNL     1      -1.081   6.438   7.233  1.00  0.00    -0.028 C 
HETATM    9  C11 UNL     1      -0.755   7.917   6.965  1.00  0.00     0.083 C 
HETATM   10  S1  UNL     1      -1.003   8.351   5.229  1.00  0.00    -0.168 SA
HETATM   11  C12 UNL     1      -0.308   6.962   4.252  1.00  0.00     0.078 C 
HETATM   12  C13 UNL     1      -0.935   5.710   4.821  1.00  0.00    -0.004 C 
HETATM   13  C14 UNL     1       0.080   4.629   5.071  1.00  0.00     0.006 C 
HETATM   14  C15 UNL     1       0.107   4.390   6.564  1.00  0.00     0.006 C 
HETATM   15  C16 UNL     1       0.229   5.727   7.274  1.00  0.00    -0.001 C 
HETATM   16  C17 UNL     1      -1.828   5.969   5.993  1.00  0.00     0.016 C 
ENDROOT
BRANCH   1  17
HETATM   17  C2  UNL     1      -0.356   4.070  11.816  1.00  0.00     0.240 C 
HETATM   18  N2  UNL     1      -0.691   4.928  12.891  1.00  0.00    -0.267 N 
ATOM     19  H2  UNL     1      -0.346   5.887  12.872  1.00  0.00     0.190 HD
HETATM   20  O2  UNL     1      -0.765   2.883  11.810  1.00  0.00    -0.271 OA
BRANCH  18  21
HETATM   21  N1  UNL     1      -1.481   4.518  13.988  1.00  0.00    -0.265 N 
HETATM   22  C1  UNL     1      -2.880   4.637  13.955  1.00  0.00     0.265 C 
HETATM   23  O1  UNL     1      -3.470   5.103  12.962  1.00  0.00    -0.269 OA
ATOM     24  H1  UNL     1      -1.028   4.132  14.817  1.00  0.00     0.190 HD
BRANCH  22  25
HETATM   25  C18 UNL     1      -3.702   4.204  15.117  1.00  0.00     0.215 C 
HETATM   26  C19 UNL     1      -5.157   4.539  14.919  1.00  0.00     0.044 C 
HETATM   27  C20 UNL     1      -5.884   3.434  15.652  1.00  0.00     0.037 C 
HETATM   28  C21 UNL     1      -4.731   2.608  16.163  1.00  0.00     0.146 C 
HETATM   29  O4  UNL     1      -3.703   2.823  15.254  1.00  0.00    -0.369 OA
BRANCH  28  30
HETATM   30  C22 UNL     1      -5.096   1.142  16.259  1.00  0.00     0.196 C 
BRANCH  30  31
HETATM   31  O3  UNL     1      -3.927   0.394  16.329  1.00  0.00    -0.398 OA
ATOM     32  H3  UNL     1      -3.607   0.242  15.447  1.00  0.00     0.209 HD
ENDBRANCH  30  31
ENDBRANCH  28  30
ENDBRANCH  22  25
ENDBRANCH  18  21
ENDBRANCH   1  17
TORSDOF 5
ENDMDL
