MODEL 1
REMARK VINA RESULT: -6.631914337      0.000      0.000
REMARK  8 active torsions:
REMARK  status: ('A' for Active; 'I' for Inactive)
REMARK    1  A    between atoms: N1_1  and  C1_4 
REMARK    2  A    between atoms: C3_9  and  C4_10 
REMARK    3  A    between atoms: C5_13  and  N5_14 
REMARK    4  A    between atoms: N5_14  and  C6_16 
REMARK    5  A    between atoms: C6_16  and  C7_17 
REMARK    6  A    between atoms: C7_17  and  O2_18 
REMARK    7  A    between atoms: C7_17  and  N6_20 
REMARK    8  A    between atoms: C9_25  and  C10_26 
ROOT
HETATM    1  N5  UNL     1       3.821 -30.605  -7.740  1.00  0.00    -0.371 N 
ATOM      2  H5  UNL     1       4.134 -29.681  -8.037  1.00  0.00     0.161 HD
ENDROOT
BRANCH   1   3
HETATM    3  C5  UNL     1       3.733 -30.855  -6.474  1.00  0.00     0.136 A 
HETATM    4  C3  UNL     1       4.899 -30.935  -5.732  1.00  0.00     0.115 A 
HETATM    5  C2  UNL     1       4.869 -31.200  -4.373  1.00  0.00     0.150 A 
HETATM    6  N2  UNL     1       3.656 -31.379  -3.803  1.00  0.00    -0.178 N 
HETATM    7  N3  UNL     1       6.083 -31.277  -3.636  1.00  0.00    -0.081 NA
HETATM    8  C1  UNL     1       2.516 -31.305  -4.504  1.00  0.00     0.678 A 
ATOM      9  H2  UNL     1       3.607 -31.576  -2.804  1.00  0.00     0.185 HD
HETATM   10  N10 UNL     1       2.566 -31.044  -5.837  1.00  0.00    -0.176 N 
ATOM     11  H10 UNL     1       1.695 -30.991  -6.366  1.00  0.00     0.186 HD
BRANCH   4  12
HETATM   12  C4  UNL     1       6.197 -30.742  -6.358  1.00  0.00     0.272 C 
HETATM   13  N4  UNL     1       6.882 -31.823  -6.975  1.00  0.00    -0.057 NA
HETATM   14  O1  UNL     1       6.757 -29.629  -6.379  1.00  0.00    -0.271 OA
ENDBRANCH   4  12
BRANCH   8  15
HETATM   15  N1  UNL     1       1.393 -31.479  -3.936  1.00  0.00    -0.234 N 
ATOM     16  H12 UNL     1       1.310 -31.350  -2.927  1.00  0.00     0.174 HD
ATOM     17  H11 UNL     1       0.571 -31.744  -4.477  1.00  0.00     0.174 HD
ENDBRANCH   8  15
ENDBRANCH   1   3
BRANCH   1  18
HETATM   18  C6  UNL     1       3.492 -31.590  -8.752  1.00  0.00     0.174 C 
BRANCH  18  19
HETATM   19  C7  UNL     1       4.477 -31.490  -9.871  1.00  0.00     0.238 C 
BRANCH  19  20
HETATM   20  O2  UNL     1       5.516 -32.417  -9.620  1.00  0.00    -0.375 OA
ATOM     21  H2  UNL     1       5.755 -32.818 -10.447  1.00  0.00     0.212 HD
ENDBRANCH  19  20
BRANCH  19  22
HETATM   22  N6  UNL     1       3.884 -31.767 -11.162  1.00  0.00    -0.334 N 
HETATM   23  C8  UNL     1       4.396 -31.264 -12.243  1.00  0.00     0.178 A 
HETATM   24  N7  UNL     1       3.951 -31.428 -13.579  1.00  0.00    -0.326 N 
HETATM   25  N9  UNL     1       5.538 -30.430 -12.264  1.00  0.00    -0.356 N 
HETATM   26  C9  UNL     1       4.726 -30.765 -14.389  1.00  0.00     0.095 A 
ATOM     27  H7  UNL     1       3.145 -31.983 -13.864  1.00  0.00     0.169 HD
HETATM   28  C11 UNL     1       5.792 -30.080 -13.631  1.00  0.00     0.185 A 
ATOM     29  H9  UNL     1       6.082 -30.131 -11.454  1.00  0.00     0.162 HD
ATOM     30  H6  UNL     1       3.058 -32.362 -11.222  1.00  0.00     0.165 HD
BRANCH  26  31
HETATM   31  C10 UNL     1       4.601 -30.683 -15.841  1.00  0.00     0.279 C 
HETATM   32  N8  UNL     1       4.017 -29.560 -16.434  1.00  0.00    -0.056 NA
HETATM   33  O3  UNL     1       5.015 -31.617 -16.557  1.00  0.00    -0.270 OA
ENDBRANCH  26  31
ENDBRANCH  19  22
ENDBRANCH  18  19
ENDBRANCH   1  18
TORSDOF 8
ENDMDL
MODEL 2
REMARK VINA RESULT: -6.621697555      2.047      8.664
REMARK  8 active torsions:
REMARK  status: ('A' for Active; 'I' for Inactive)
REMARK    1  A    between atoms: N1_1  and  C1_4 
REMARK    2  A    between atoms: C3_9  and  C4_10 
REMARK    3  A    between atoms: C5_13  and  N5_14 
REMARK    4  A    between atoms: N5_14  and  C6_16 
REMARK    5  A    between atoms: C6_16  and  C7_17 
REMARK    6  A    between atoms: C7_17  and  O2_18 
REMARK    7  A    between atoms: C7_17  and  N6_20 
REMARK    8  A    between atoms: C9_25  and  C10_26 
ROOT
HETATM    1  N5  UNL     1       4.217 -30.987 -13.098  1.00  0.00    -0.371 N 
ATOM      2  H5  UNL     1       3.433 -30.710 -13.689  1.00  0.00     0.161 HD
ENDROOT
BRANCH   1   3
HETATM    3  C5  UNL     1       5.409 -30.608 -13.427  1.00  0.00     0.136 A 
HETATM    4  C3  UNL     1       5.729 -30.520 -14.771  1.00  0.00     0.115 A 
HETATM    5  C2  UNL     1       6.988 -30.121 -15.186  1.00  0.00     0.150 A 
HETATM    6  N2  UNL     1       7.891 -29.822 -14.225  1.00  0.00    -0.178 N 
HETATM    7  N3  UNL     1       7.288 -30.039 -16.573  1.00  0.00    -0.081 NA
HETATM    8  C1  UNL     1       7.601 -29.901 -12.919  1.00  0.00     0.678 A 
ATOM      9  H2  UNL     1       8.826 -29.527 -14.504  1.00  0.00     0.185 HD
HETATM   10  N10 UNL     1       6.360 -30.295 -12.531  1.00  0.00    -0.176 N 
ATOM     11  H10 UNL     1       6.146 -30.355 -11.536  1.00  0.00     0.186 HD
BRANCH   4  12
HETATM   12  C4  UNL     1       4.748 -30.845 -15.794  1.00  0.00     0.272 C 
HETATM   13  N4  UNL     1       3.919 -29.841 -16.361  1.00  0.00    -0.057 NA
HETATM   14  O1  UNL     1       4.596 -32.009 -16.213  1.00  0.00    -0.271 OA
ENDBRANCH   4  12
BRANCH   8  15
HETATM   15  N1  UNL     1       8.475 -29.613 -12.042  1.00  0.00    -0.234 N 
ATOM     16  H12 UNL     1       9.439 -29.435 -12.326  1.00  0.00     0.174 HD
ATOM     17  H11 UNL     1       8.224 -29.556 -11.055  1.00  0.00     0.174 HD
ENDBRANCH   8  15
ENDBRANCH   1   3
BRANCH   1  18
HETATM   18  C6  UNL     1       3.954 -31.791 -11.920  1.00  0.00     0.174 C 
BRANCH  18  19
HETATM   19  C7  UNL     1       2.997 -31.062 -11.033  1.00  0.00     0.238 C 
BRANCH  19  20
HETATM   20  O2  UNL     1       1.785 -30.898 -11.744  1.00  0.00    -0.375 OA
ATOM     21  H2  UNL     1       1.210 -30.354 -11.219  1.00  0.00     0.212 HD
ENDBRANCH  19  20
BRANCH  19  22
HETATM   22  N6  UNL     1       2.740 -31.764  -9.794  1.00  0.00    -0.334 N 
HETATM   23  C8  UNL     1       3.160 -31.281  -8.665  1.00  0.00     0.178 A 
HETATM   24  N7  UNL     1       2.999 -31.828  -7.367  1.00  0.00    -0.326 N 
HETATM   25  N9  UNL     1       3.879 -30.069  -8.541  1.00  0.00    -0.356 N 
HETATM   26  C9  UNL     1       3.560 -31.050  -6.486  1.00  0.00     0.095 A 
ATOM     27  H7  UNL     1       2.516 -32.700  -7.154  1.00  0.00     0.169 HD
HETATM   28  C11 UNL     1       4.161 -29.876  -7.149  1.00  0.00     0.185 A 
ATOM     29  H9  UNL     1       4.148 -29.446  -9.303  1.00  0.00     0.162 HD
ATOM     30  H6  UNL     1       2.226 -32.644  -9.809  1.00  0.00     0.165 HD
BRANCH  26  31
HETATM   31  C10 UNL     1       3.611 -31.265  -5.043  1.00  0.00     0.279 C 
HETATM   32  N8  UNL     1       4.750 -31.820  -4.454  1.00  0.00    -0.056 NA
HETATM   33  O3  UNL     1       2.635 -30.953  -4.331  1.00  0.00    -0.270 OA
ENDBRANCH  26  31
ENDBRANCH  19  22
ENDBRANCH  18  19
ENDBRANCH   1  18
TORSDOF 8
ENDMDL
MODEL 3
REMARK VINA RESULT: -6.614316121      2.362      8.583
REMARK  8 active torsions:
REMARK  status: ('A' for Active; 'I' for Inactive)
REMARK    1  A    between atoms: N1_1  and  C1_4 
REMARK    2  A    between atoms: C3_9  and  C4_10 
REMARK    3  A    between atoms: C5_13  and  N5_14 
REMARK    4  A    between atoms: N5_14  and  C6_16 
REMARK    5  A    between atoms: C6_16  and  C7_17 
REMARK    6  A    between atoms: C7_17  and  O2_18 
REMARK    7  A    between atoms: C7_17  and  N6_20 
REMARK    8  A    between atoms: C9_25  and  C10_26 
ROOT
HETATM    1  N5  UNL     1       4.380 -30.961 -13.782  1.00  0.00    -0.371 N 
ATOM      2  H5  UNL     1       3.634 -30.450 -14.255  1.00  0.00     0.161 HD
ENDROOT
BRANCH   1   3
HETATM    3  C5  UNL     1       5.603 -30.576 -13.952  1.00  0.00     0.136 A 
HETATM    4  C3  UNL     1       6.119 -30.558 -15.236  1.00  0.00     0.115 A 
HETATM    5  C2  UNL     1       7.421 -30.156 -15.483  1.00  0.00     0.150 A 
HETATM    6  N2  UNL     1       8.166 -29.785 -14.417  1.00  0.00    -0.178 N 
HETATM    7  N3  UNL     1       7.924 -30.146 -16.813  1.00  0.00    -0.081 NA
HETATM    8  C1  UNL     1       7.686 -29.796 -13.166  1.00  0.00     0.678 A 
ATOM      9  H2  UNL     1       9.129 -29.486 -14.572  1.00  0.00     0.185 HD
HETATM   10  N10 UNL     1       6.406 -30.194 -12.945  1.00  0.00    -0.176 N 
ATOM     11  H10 UNL     1       6.046 -30.202 -11.990  1.00  0.00     0.186 HD
BRANCH   4  12
HETATM   12  C4  UNL     1       5.306 -30.960 -16.373  1.00  0.00     0.272 C 
HETATM   13  N4  UNL     1       4.531 -30.011 -17.093  1.00  0.00    -0.057 NA
HETATM   14  O1  UNL     1       5.255 -32.144 -16.759  1.00  0.00    -0.271 OA
ENDBRANCH   4  12
BRANCH   8  15
HETATM   15  N1  UNL     1       8.416 -29.441 -12.188  1.00  0.00    -0.234 N 
ATOM     16  H12 UNL     1       8.904 -28.546 -12.218  1.00  0.00     0.174 HD
ATOM     17  H11 UNL     1       8.518 -30.042 -11.371  1.00  0.00     0.174 HD
ENDBRANCH   8  15
ENDBRANCH   1   3
BRANCH   1  18
HETATM   18  C6  UNL     1       4.030 -32.091 -12.943  1.00  0.00     0.174 C 
BRANCH  18  19
HETATM   19  C7  UNL     1       3.349 -31.593 -11.710  1.00  0.00     0.238 C 
BRANCH  19  20
HETATM   20  O2  UNL     1       2.196 -32.385 -11.501  1.00  0.00    -0.375 OA
ATOM     21  H2  UNL     1       2.424 -33.079 -10.893  1.00  0.00     0.212 HD
ENDBRANCH  19  20
BRANCH  19  22
HETATM   22  N6  UNL     1       4.199 -31.658 -10.540  1.00  0.00    -0.334 N 
HETATM   23  C8  UNL     1       3.997 -30.861  -9.535  1.00  0.00     0.178 A 
HETATM   24  N7  UNL     1       4.722 -30.786  -8.320  1.00  0.00    -0.326 N 
HETATM   25  N9  UNL     1       2.968 -29.892  -9.488  1.00  0.00    -0.356 N 
HETATM   26  C9  UNL     1       4.217 -29.859  -7.559  1.00  0.00     0.095 A 
ATOM     27  H7  UNL     1       5.521 -31.372  -8.077  1.00  0.00     0.169 HD
HETATM   28  C11 UNL     1       3.069 -29.217  -8.228  1.00  0.00     0.185 A 
ATOM     29  H9  UNL     1       2.279 -29.706 -10.219  1.00  0.00     0.162 HD
ATOM     30  H6  UNL     1       4.960 -32.335 -10.504  1.00  0.00     0.165 HD
BRANCH  26  31
HETATM   31  C10 UNL     1       4.682 -29.475  -6.229  1.00  0.00     0.279 C 
HETATM   32  N8  UNL     1       6.047 -29.306  -5.982  1.00  0.00    -0.056 NA
HETATM   33  O3  UNL     1       3.860 -29.299  -5.306  1.00  0.00    -0.270 OA
ENDBRANCH  26  31
ENDBRANCH  19  22
ENDBRANCH  18  19
ENDBRANCH   1  18
TORSDOF 8
ENDMDL
MODEL 4
REMARK VINA RESULT: -6.613338774      1.871      2.196
REMARK  8 active torsions:
REMARK  status: ('A' for Active; 'I' for Inactive)
REMARK    1  A    between atoms: N1_1  and  C1_4 
REMARK    2  A    between atoms: C3_9  and  C4_10 
REMARK    3  A    between atoms: C5_13  and  N5_14 
REMARK    4  A    between atoms: N5_14  and  C6_16 
REMARK    5  A    between atoms: C6_16  and  C7_17 
REMARK    6  A    between atoms: C7_17  and  O2_18 
REMARK    7  A    between atoms: C7_17  and  N6_20 
REMARK    8  A    between atoms: C9_25  and  C10_26 
ROOT
HETATM    1  N5  UNL     1       3.129 -32.386  -6.676  1.00  0.00    -0.371 N 
ATOM      2  H5  UNL     1       3.225 -33.390  -6.834  1.00  0.00     0.161 HD
ENDROOT
BRANCH   1   3
HETATM    3  C5  UNL     1       3.524 -31.893  -5.548  1.00  0.00     0.136 A 
HETATM    4  C3  UNL     1       4.312 -32.677  -4.722  1.00  0.00     0.115 A 
HETATM    5  C2  UNL     1       4.767 -32.205  -3.503  1.00  0.00     0.150 A 
HETATM    6  N2  UNL     1       4.408 -30.950  -3.152  1.00  0.00    -0.178 N 
HETATM    7  N3  UNL     1       5.575 -33.032  -2.676  1.00  0.00    -0.081 NA
HETATM    8  C1  UNL     1       3.646 -30.175  -3.936  1.00  0.00     0.678 A 
ATOM      9  H2  UNL     1       4.729 -30.579  -2.258  1.00  0.00     0.185 HD
HETATM   10  N10 UNL     1       3.210 -30.656  -5.130  1.00  0.00    -0.176 N 
ATOM     11  H10 UNL     1       2.629 -30.063  -5.722  1.00  0.00     0.186 HD
BRANCH   4  12
HETATM   12  C4  UNL     1       4.690 -34.026  -5.112  1.00  0.00     0.272 C 
HETATM   13  N4  UNL     1       3.871 -35.140  -4.788  1.00  0.00    -0.057 NA
HETATM   14  O1  UNL     1       5.740 -34.259  -5.742  1.00  0.00    -0.271 OA
ENDBRANCH   4  12
BRANCH   8  15
HETATM   15  N1  UNL     1       3.328 -28.999  -3.575  1.00  0.00    -0.234 N 
ATOM     16  H12 UNL     1       2.441 -28.838  -3.097  1.00  0.00     0.174 HD
ATOM     17  H11 UNL     1       3.950 -28.212  -3.756  1.00  0.00     0.174 HD
ENDBRANCH   8  15
ENDBRANCH   1   3
BRANCH   1  18
HETATM   18  C6  UNL     1       2.553 -31.567  -7.724  1.00  0.00     0.174 C 
BRANCH  18  19
HETATM   19  C7  UNL     1       3.574 -31.347  -8.792  1.00  0.00     0.238 C 
BRANCH  19  20
HETATM   20  O2  UNL     1       4.722 -32.103  -8.457  1.00  0.00    -0.375 OA
ATOM     21  H2  UNL     1       5.321 -31.532  -7.990  1.00  0.00     0.212 HD
ENDBRANCH  19  20
BRANCH  19  22
HETATM   22  N6  UNL     1       3.103 -31.741 -10.103  1.00  0.00    -0.334 N 
HETATM   23  C8  UNL     1       3.791 -31.448 -11.164  1.00  0.00     0.178 A 
HETATM   24  N7  UNL     1       3.485 -31.751 -12.515  1.00  0.00    -0.326 N 
HETATM   25  N9  UNL     1       5.019 -30.746 -11.143  1.00  0.00    -0.356 N 
HETATM   26  C9  UNL     1       4.420 -31.290 -13.295  1.00  0.00     0.095 A 
ATOM     27  H7  UNL     1       2.657 -32.256 -12.829  1.00  0.00     0.169 HD
HETATM   28  C11 UNL     1       5.466 -30.619 -12.499  1.00  0.00     0.185 A 
ATOM     29  H9  UNL     1       5.498 -30.394 -10.314  1.00  0.00     0.162 HD
ATOM     30  H6  UNL     1       2.225 -32.251 -10.194  1.00  0.00     0.165 HD
BRANCH  26  31
HETATM   31  C10 UNL     1       4.472 -31.399 -14.750  1.00  0.00     0.279 C 
HETATM   32  N8  UNL     1       4.138 -30.304 -15.550  1.00  0.00    -0.056 NA
HETATM   33  O3  UNL     1       4.814 -32.475 -15.284  1.00  0.00    -0.270 OA
ENDBRANCH  26  31
ENDBRANCH  19  22
ENDBRANCH  18  19
ENDBRANCH   1  18
TORSDOF 8
ENDMDL
MODEL 5
REMARK VINA RESULT: -6.496951747      3.120      5.143
REMARK  8 active torsions:
REMARK  status: ('A' for Active; 'I' for Inactive)
REMARK    1  A    between atoms: N1_1  and  C1_4 
REMARK    2  A    between atoms: C3_9  and  C4_10 
REMARK    3  A    between atoms: C5_13  and  N5_14 
REMARK    4  A    between atoms: N5_14  and  C6_16 
REMARK    5  A    between atoms: C6_16  and  C7_17 
REMARK    6  A    between atoms: C7_17  and  O2_18 
REMARK    7  A    between atoms: C7_17  and  N6_20 
REMARK    8  A    between atoms: C9_25  and  C10_26 
ROOT
HETATM    1  N5  UNL     1       4.225 -30.856  -3.330  1.00  0.00    -0.371 N 
ATOM      2  H5  UNL     1       3.479 -30.164  -3.395  1.00  0.00     0.161 HD
ENDROOT
BRANCH   1   3
HETATM    3  C5  UNL     1       5.215 -30.631  -2.529  1.00  0.00     0.136 A 
HETATM    4  C3  UNL     1       6.391 -30.123  -3.055  1.00  0.00     0.115 A 
HETATM    5  C2  UNL     1       7.485 -29.861  -2.249  1.00  0.00     0.150 A 
HETATM    6  N2  UNL     1       7.358 -30.123  -0.928  1.00  0.00    -0.178 N 
HETATM    7  N3  UNL     1       8.680 -29.339  -2.816  1.00  0.00    -0.081 NA
HETATM    8  C1  UNL     1       6.230 -30.615  -0.399  1.00  0.00     0.678 A 
ATOM      9  H2  UNL     1       8.151 -29.940  -0.312  1.00  0.00     0.185 HD
HETATM   10  N10 UNL     1       5.166 -30.865  -1.207  1.00  0.00    -0.176 N 
ATOM     11  H10 UNL     1       4.310 -31.241  -0.799  1.00  0.00     0.186 HD
BRANCH   4  12
HETATM   12  C4  UNL     1       6.514 -29.846  -4.477  1.00  0.00     0.272 C 
HETATM   13  N4  UNL     1       5.851 -28.738  -5.069  1.00  0.00    -0.057 NA
HETATM   14  O1  UNL     1       7.200 -30.565  -5.230  1.00  0.00    -0.271 OA
ENDBRANCH   4  12
BRANCH   8  15
HETATM   15  N1  UNL     1       6.146 -30.849   0.847  1.00  0.00    -0.234 N 
ATOM     16  H12 UNL     1       6.800 -30.406   1.492  1.00  0.00     0.174 HD
ATOM     17  H11 UNL     1       5.429 -31.476   1.212  1.00  0.00     0.174 HD
ENDBRANCH   8  15
ENDBRANCH   1   3
BRANCH   1  18
HETATM   18  C6  UNL     1       4.137 -32.056  -4.139  1.00  0.00     0.174 C 
BRANCH  18  19
HETATM   19  C7  UNL     1       2.708 -32.303  -4.496  1.00  0.00     0.238 C 
BRANCH  19  20
HETATM   20  O2  UNL     1       1.971 -31.142  -4.163  1.00  0.00    -0.375 OA
ATOM     21  H2  UNL     1       1.356 -30.975  -4.867  1.00  0.00     0.212 HD
ENDBRANCH  19  20
BRANCH  19  22
HETATM   22  N6  UNL     1       2.528 -32.603  -5.900  1.00  0.00    -0.334 N 
HETATM   23  C8  UNL     1       2.814 -31.717  -6.804  1.00  0.00     0.178 A 
HETATM   24  N7  UNL     1       2.701 -31.837  -8.212  1.00  0.00    -0.326 N 
HETATM   25  N9  UNL     1       3.310 -30.424  -6.516  1.00  0.00    -0.356 N 
HETATM   26  C9  UNL     1       3.084 -30.731  -8.783  1.00  0.00     0.095 A 
ATOM     27  H7  UNL     1       2.370 -32.666  -8.705  1.00  0.00     0.169 HD
HETATM   28  C11 UNL     1       3.501 -29.747  -7.765  1.00  0.00     0.185 A 
ATOM     29  H9  UNL     1       3.497 -30.042  -5.588  1.00  0.00     0.162 HD
ATOM     30  H6  UNL     1       2.174 -33.517  -6.181  1.00  0.00     0.165 HD
BRANCH  26  31
HETATM   31  C10 UNL     1       3.117 -30.458 -10.217  1.00  0.00     0.279 C 
HETATM   32  N8  UNL     1       4.296 -30.650 -10.943  1.00  0.00    -0.056 NA
HETATM   33  O3  UNL     1       2.090 -30.051 -10.799  1.00  0.00    -0.270 OA
ENDBRANCH  26  31
ENDBRANCH  19  22
ENDBRANCH  18  19
ENDBRANCH   1  18
TORSDOF 8
ENDMDL
