MODEL 1
REMARK VINA RESULT: -6.914598869      0.000      0.000
REMARK  6 active torsions:
REMARK  status: ('A' for Active; 'I' for Inactive)
REMARK    1  A    between atoms: C3_8  and  N3_9 
REMARK       I    between atoms: N3_9  and  C4_11 
REMARK    2  A    between atoms: C4_11  and  C5_13 
REMARK    3  A    between atoms: C5_13  and  N4_14 
REMARK    4  A    between atoms: C5_13  and  C6_18 
REMARK    5  A    between atoms: N8_27  and  C9_28 
REMARK    6  A    between atoms: C9_28  and  C10_29 
ROOT
HETATM    1  N1  UNL     1       0.756 -28.801  -9.221  1.00  0.00    -0.381 N 
ATOM      2  H11 UNL     1       0.168 -28.862 -10.052  1.00  0.00     0.157 HD
ATOM      3  H12 UNL     1       0.461 -28.188  -8.461  1.00  0.00     0.157 HD
HETATM    4  C1  UNL     1       1.865 -29.472  -9.096  1.00  0.00     0.169 A 
HETATM    5  N2  UNL     1       2.640 -29.392  -8.001  1.00  0.00    -0.332 N 
ATOM      6  H2  UNL     1       2.375 -28.789  -7.222  1.00  0.00     0.168 HD
HETATM    7  C2  UNL     1       3.786 -30.129  -7.947  1.00  0.00     0.123 A 
HETATM    8  C3  UNL     1       4.606 -30.063  -6.826  1.00  0.00     0.140 A 
HETATM    9  N6  UNL     1       5.743 -30.774  -6.737  1.00  0.00    -0.337 N 
ATOM     10  H6  UNL     1       6.338 -30.721  -5.911  1.00  0.00     0.168 HD
HETATM   11  C7  UNL     1       6.065 -31.561  -7.781  1.00  0.00     0.183 A 
HETATM   12  N7  UNL     1       5.297 -31.648  -8.880  1.00  0.00    -0.336 N 
ATOM     13  H7  UNL     1       5.583 -32.257  -9.646  1.00  0.00     0.168 HD
HETATM   14  C8  UNL     1       4.145 -30.935  -8.984  1.00  0.00     0.142 A 
HETATM   15  N8  UNL     1       3.389 -31.035 -10.093  1.00  0.00    -0.287 N 
HETATM   16  C11 UNL     1       2.264 -30.300 -10.123  1.00  0.00     0.293 A 
HETATM   17  O4  UNL     1       1.545 -30.376 -11.142  1.00  0.00    -0.264 OA
ENDROOT
BRANCH   8  18
HETATM   18  N3  UNL     1       4.215 -29.280  -5.872  1.00  0.00    -0.309 N 
HETATM   19  C4  UNL     1       3.979 -29.845  -4.598  1.00  0.00     0.263 C 
HETATM   20  O1  UNL     1       2.944 -30.530  -4.405  1.00  0.00    -0.270 OA
ATOM     21  H3  UNL     1       4.080 -28.283  -6.035  1.00  0.00     0.170 HD
BRANCH  19  22
HETATM   22  C5  UNL     1       4.923 -29.655  -3.466  1.00  0.00     0.363 C 
BRANCH  22  23
HETATM   23  N4  UNL     1       4.284 -28.998  -2.342  1.00  0.00    -0.058 N 
ATOM     24  H43 UNL     1       4.719 -28.098  -2.140  1.00  0.00     0.275 HD
ATOM     25  H42 UNL     1       3.349 -28.671  -2.584  1.00  0.00     0.275 HD
ATOM     26  H41 UNL     1       4.267 -29.598  -1.516  1.00  0.00     0.275 HD
ENDBRANCH  22  23
BRANCH  22  27
HETATM   27  C6  UNL     1       5.491 -30.945  -2.993  1.00  0.00     0.271 C 
HETATM   28  N5  UNL     1       5.471 -31.326  -1.623  1.00  0.00    -0.060 NA
HETATM   29  O2  UNL     1       6.022 -31.770  -3.793  1.00  0.00    -0.274 OA
ENDBRANCH  22  27
ENDBRANCH  19  22
ENDBRANCH   8  18
BRANCH  15  30
HETATM   30  C9  UNL     1       3.827 -31.900 -11.139  1.00  0.00     0.233 C 
BRANCH  30  31
HETATM   31  C10 UNL     1       4.518 -31.246 -12.237  1.00  0.00     0.249 C 
HETATM   32  N9  UNL     1       4.059 -31.422 -13.563  1.00  0.00    -0.061 NA
HETATM   33  O3  UNL     1       5.517 -30.525 -12.033  1.00  0.00    -0.275 OA
ENDBRANCH  30  31
ENDBRANCH  15  30
TORSDOF 6
ENDMDL
MODEL 2
REMARK VINA RESULT: -6.845048030      1.350      1.446
REMARK  6 active torsions:
REMARK  status: ('A' for Active; 'I' for Inactive)
REMARK    1  A    between atoms: C3_8  and  N3_9 
REMARK       I    between atoms: N3_9  and  C4_11 
REMARK    2  A    between atoms: C4_11  and  C5_13 
REMARK    3  A    between atoms: C5_13  and  N4_14 
REMARK    4  A    between atoms: C5_13  and  C6_18 
REMARK    5  A    between atoms: N8_27  and  C9_28 
REMARK    6  A    between atoms: C9_28  and  C10_29 
ROOT
HETATM    1  N1  UNL     1       0.746 -29.168  -9.391  1.00  0.00    -0.381 N 
ATOM      2  H11 UNL     1       0.360 -29.021 -10.324  1.00  0.00     0.157 HD
ATOM      3  H12 UNL     1       0.284 -28.721  -8.600  1.00  0.00     0.157 HD
HETATM    4  C1  UNL     1       1.800 -29.902  -9.175  1.00  0.00     0.169 A 
HETATM    5  N2  UNL     1       2.307 -30.097  -7.946  1.00  0.00    -0.332 N 
ATOM      6  H2  UNL     1       1.871 -29.664  -7.132  1.00  0.00     0.168 HD
HETATM    7  C2  UNL     1       3.414 -30.880  -7.804  1.00  0.00     0.123 A 
HETATM    8  C3  UNL     1       3.958 -31.096  -6.543  1.00  0.00     0.140 A 
HETATM    9  N6  UNL     1       5.048 -31.862  -6.365  1.00  0.00    -0.337 N 
ATOM     10  H6  UNL     1       5.442 -32.016  -5.437  1.00  0.00     0.168 HD
HETATM   11  C7  UNL     1       5.601 -32.419  -7.460  1.00  0.00     0.183 A 
HETATM   12  N7  UNL     1       5.102 -32.231  -8.692  1.00  0.00    -0.336 N 
ATOM     13  H7  UNL     1       5.555 -32.673  -9.491  1.00  0.00     0.168 HD
HETATM   14  C8  UNL     1       4.000 -31.459  -8.888  1.00  0.00     0.142 A 
HETATM   15  N8  UNL     1       3.515 -31.283 -10.131  1.00  0.00    -0.287 N 
HETATM   16  C11 UNL     1       2.423 -30.507 -10.246  1.00  0.00     0.293 A 
HETATM   17  O4  UNL     1       1.953 -30.327 -11.390  1.00  0.00    -0.264 OA
ENDROOT
BRANCH   8  18
HETATM   18  N3  UNL     1       3.359 -30.520  -5.551  1.00  0.00    -0.309 N 
HETATM   19  C4  UNL     1       3.996 -30.530  -4.289  1.00  0.00     0.263 C 
HETATM   20  O1  UNL     1       4.014 -31.588  -3.611  1.00  0.00    -0.270 OA
ATOM     21  H3  UNL     1       2.452 -30.072  -5.676  1.00  0.00     0.170 HD
BRANCH  19  22
HETATM   22  C5  UNL     1       4.652 -29.320  -3.730  1.00  0.00     0.363 C 
BRANCH  22  23
HETATM   23  N4  UNL     1       4.603 -29.308  -2.280  1.00  0.00    -0.058 N 
ATOM     24  H43 UNL     1       3.700 -29.633  -1.934  1.00  0.00     0.275 HD
ATOM     25  H42 UNL     1       5.197 -30.036  -1.882  1.00  0.00     0.275 HD
ATOM     26  H41 UNL     1       4.838 -28.389  -1.903  1.00  0.00     0.275 HD
ENDBRANCH  22  23
BRANCH  22  27
HETATM   27  C6  UNL     1       6.073 -29.212  -4.152  1.00  0.00     0.271 C 
HETATM   28  N5  UNL     1       7.140 -29.156  -3.213  1.00  0.00    -0.060 NA
HETATM   29  O2  UNL     1       6.402 -29.166  -5.373  1.00  0.00    -0.274 OA
ENDBRANCH  22  27
ENDBRANCH  19  22
ENDBRANCH   8  18
BRANCH  15  30
HETATM   30  C9  UNL     1       4.180 -31.920 -11.218  1.00  0.00     0.233 C 
BRANCH  30  31
HETATM   31  C10 UNL     1       5.307 -31.188 -11.773  1.00  0.00     0.249 C 
HETATM   32  N9  UNL     1       6.628 -31.583 -11.458  1.00  0.00    -0.061 NA
HETATM   33  O3  UNL     1       5.131 -30.211 -12.529  1.00  0.00    -0.275 OA
ENDBRANCH  30  31
ENDBRANCH  15  30
TORSDOF 6
ENDMDL
MODEL 3
REMARK VINA RESULT: -6.774801471      1.374      1.543
REMARK  6 active torsions:
REMARK  status: ('A' for Active; 'I' for Inactive)
REMARK    1  A    between atoms: C3_8  and  N3_9 
REMARK       I    between atoms: N3_9  and  C4_11 
REMARK    2  A    between atoms: C4_11  and  C5_13 
REMARK    3  A    between atoms: C5_13  and  N4_14 
REMARK    4  A    between atoms: C5_13  and  C6_18 
REMARK    5  A    between atoms: N8_27  and  C9_28 
REMARK    6  A    between atoms: C9_28  and  C10_29 
ROOT
HETATM    1  N1  UNL     1       0.431 -29.391  -8.727  1.00  0.00    -0.381 N 
ATOM      2  H11 UNL     1      -0.056 -29.172  -9.596  1.00  0.00     0.157 HD
ATOM      3  H12 UNL     1      -0.049 -29.217  -7.844  1.00  0.00     0.157 HD
HETATM    4  C1  UNL     1       1.637 -29.882  -8.704  1.00  0.00     0.169 A 
HETATM    5  N2  UNL     1       2.279 -30.171  -7.559  1.00  0.00    -0.332 N 
ATOM      6  H2  UNL     1       1.829 -30.010  -6.658  1.00  0.00     0.168 HD
HETATM    7  C2  UNL     1       3.541 -30.684  -7.621  1.00  0.00     0.123 A 
HETATM    8  C3  UNL     1       4.227 -30.991  -6.451  1.00  0.00     0.140 A 
HETATM    9  N6  UNL     1       5.472 -31.497  -6.473  1.00  0.00    -0.337 N 
ATOM     10  H6  UNL     1       5.968 -31.719  -5.610  1.00  0.00     0.168 HD
HETATM   11  C7  UNL     1       6.039 -31.699  -7.678  1.00  0.00     0.183 A 
HETATM   12  N7  UNL     1       5.406 -31.413  -8.827  1.00  0.00    -0.336 N 
ATOM     13  H7  UNL     1       5.875 -31.583  -9.715  1.00  0.00     0.168 HD
HETATM   14  C8  UNL     1       4.147 -30.901  -8.821  1.00  0.00     0.142 A 
HETATM   15  N8  UNL     1       3.528 -30.621  -9.984  1.00  0.00    -0.287 N 
HETATM   16  C11 UNL     1       2.285 -30.117  -9.897  1.00  0.00     0.293 A 
HETATM   17  O4  UNL     1       1.690 -29.849 -10.963  1.00  0.00    -0.264 OA
ENDROOT
BRANCH   8  18
HETATM   18  N3  UNL     1       3.603 -30.763  -5.341  1.00  0.00    -0.309 N 
HETATM   19  C4  UNL     1       4.301 -30.961  -4.128  1.00  0.00     0.263 C 
HETATM   20  O1  UNL     1       4.516 -32.129  -3.720  1.00  0.00    -0.270 OA
ATOM     21  H3  UNL     1       2.632 -30.450  -5.341  1.00  0.00     0.170 HD
BRANCH  19  22
HETATM   22  C5  UNL     1       4.795 -29.823  -3.310  1.00  0.00     0.363 C 
BRANCH  22  23
HETATM   23  N4  UNL     1       5.035 -30.218  -1.935  1.00  0.00    -0.058 N 
ATOM     24  H43 UNL     1       4.273 -30.792  -1.574  1.00  0.00     0.275 HD
ATOM     25  H42 UNL     1       5.791 -30.900  -1.870  1.00  0.00     0.275 HD
ATOM     26  H41 UNL     1       5.208 -29.411  -1.336  1.00  0.00     0.275 HD
ENDBRANCH  22  23
BRANCH  22  27
HETATM   27  C6  UNL     1       6.052 -29.248  -3.858  1.00  0.00     0.271 C 
HETATM   28  N5  UNL     1       7.266 -29.239  -3.118  1.00  0.00    -0.060 NA
HETATM   29  O2  UNL     1       6.100 -28.738  -5.015  1.00  0.00    -0.274 OA
ENDBRANCH  22  27
ENDBRANCH  19  22
ENDBRANCH   8  18
BRANCH  15  30
HETATM   30  C9  UNL     1       4.223 -30.875 -11.202  1.00  0.00     0.233 C 
BRANCH  30  31
HETATM   31  C10 UNL     1       3.697 -31.968 -12.002  1.00  0.00     0.249 C 
HETATM   32  N9  UNL     1       4.165 -32.165 -13.322  1.00  0.00    -0.061 NA
HETATM   33  O3  UNL     1       2.832 -32.744 -11.545  1.00  0.00    -0.275 OA
ENDBRANCH  30  31
ENDBRANCH  15  30
TORSDOF 6
ENDMDL
MODEL 4
REMARK VINA RESULT: -6.767393226      1.035      1.203
REMARK  6 active torsions:
REMARK  status: ('A' for Active; 'I' for Inactive)
REMARK    1  A    between atoms: C3_8  and  N3_9 
REMARK       I    between atoms: N3_9  and  C4_11 
REMARK    2  A    between atoms: C4_11  and  C5_13 
REMARK    3  A    between atoms: C5_13  and  N4_14 
REMARK    4  A    between atoms: C5_13  and  C6_18 
REMARK    5  A    between atoms: N8_27  and  C9_28 
REMARK    6  A    between atoms: C9_28  and  C10_29 
ROOT
HETATM    1  N1  UNL     1       0.906 -28.794  -8.991  1.00  0.00    -0.381 N 
ATOM      2  H11 UNL     1       0.241 -28.790  -9.764  1.00  0.00     0.157 HD
ATOM      3  H12 UNL     1       0.703 -28.221  -8.172  1.00  0.00     0.157 HD
HETATM    4  C1  UNL     1       2.001 -29.501  -9.012  1.00  0.00     0.169 A 
HETATM    5  N2  UNL     1       2.878 -29.507  -7.994  1.00  0.00    -0.332 N 
ATOM      6  H2  UNL     1       2.706 -28.946  -7.159  1.00  0.00     0.168 HD
HETATM    7  C2  UNL     1       4.000 -30.275  -8.093  1.00  0.00     0.123 A 
HETATM    8  C3  UNL     1       4.923 -30.298  -7.054  1.00  0.00     0.140 A 
HETATM    9  N6  UNL     1       6.041 -31.042  -7.116  1.00  0.00    -0.337 N 
ATOM     10  H6  UNL     1       6.713 -31.054  -6.350  1.00  0.00     0.168 HD
HETATM   11  C7  UNL     1       6.238 -31.773  -8.231  1.00  0.00     0.183 A 
HETATM   12  N7  UNL     1       5.368 -31.773  -9.253  1.00  0.00    -0.336 N 
ATOM     13  H7  UNL     1       5.561 -32.341 -10.077  1.00  0.00     0.168 HD
HETATM   14  C8  UNL     1       4.234 -31.025  -9.205  1.00  0.00     0.142 A 
HETATM   15  N8  UNL     1       3.373 -31.039 -10.241  1.00  0.00    -0.287 N 
HETATM   16  C11 UNL     1       2.274 -30.275 -10.119  1.00  0.00     0.293 A 
HETATM   17  O4  UNL     1       1.460 -30.271 -11.067  1.00  0.00    -0.264 OA
ENDROOT
BRANCH   8  18
HETATM   18  N3  UNL     1       4.649 -29.565  -6.023  1.00  0.00    -0.309 N 
HETATM   19  C4  UNL     1       4.128 -30.198  -4.872  1.00  0.00     0.263 C 
HETATM   20  O1  UNL     1       2.933 -30.585  -4.864  1.00  0.00    -0.270 OA
ATOM     21  H3  UNL     1       4.803 -28.557  -6.042  1.00  0.00     0.170 HD
BRANCH  19  22
HETATM   22  C5  UNL     1       4.953 -30.425  -3.657  1.00  0.00     0.363 C 
BRANCH  22  23
HETATM   23  N4  UNL     1       4.908 -31.811  -3.231  1.00  0.00    -0.058 N 
ATOM     24  H43 UNL     1       4.037 -32.022  -2.744  1.00  0.00     0.275 HD
ATOM     25  H42 UNL     1       4.802 -32.442  -4.026  1.00  0.00     0.275 HD
ATOM     26  H41 UNL     1       5.720 -32.057  -2.665  1.00  0.00     0.275 HD
ENDBRANCH  22  23
BRANCH  22  27
HETATM   27  C6  UNL     1       6.375 -30.048  -3.873  1.00  0.00     0.271 C 
HETATM   28  N5  UNL     1       7.335 -30.969  -4.378  1.00  0.00    -0.060 NA
HETATM   29  O2  UNL     1       6.801 -28.884  -3.617  1.00  0.00    -0.274 OA
ENDBRANCH  22  27
ENDBRANCH  19  22
ENDBRANCH   8  18
BRANCH  15  30
HETATM   30  C9  UNL     1       3.683 -31.849 -11.371  1.00  0.00     0.233 C 
BRANCH  30  31
HETATM   31  C10 UNL     1       4.367 -31.166 -12.457  1.00  0.00     0.249 C 
HETATM   32  N9  UNL     1       4.105 -31.534 -13.797  1.00  0.00    -0.061 NA
HETATM   33  O3  UNL     1       5.188 -30.254 -12.229  1.00  0.00    -0.275 OA
ENDBRANCH  30  31
ENDBRANCH  15  30
TORSDOF 6
ENDMDL
MODEL 5
REMARK VINA RESULT: -6.731538653      2.476      7.613
REMARK  6 active torsions:
REMARK  status: ('A' for Active; 'I' for Inactive)
REMARK    1  A    between atoms: C3_8  and  N3_9 
REMARK       I    between atoms: N3_9  and  C4_11 
REMARK    2  A    between atoms: C4_11  and  C5_13 
REMARK    3  A    between atoms: C5_13  and  N4_14 
REMARK    4  A    between atoms: C5_13  and  C6_18 
REMARK    5  A    between atoms: N8_27  and  C9_28 
REMARK    6  A    between atoms: C9_28  and  C10_29 
ROOT
HETATM    1  N1  UNL     1       0.537 -29.767 -10.716  1.00  0.00    -0.381 N 
ATOM      2  H11 UNL     1       0.019 -29.255 -10.001  1.00  0.00     0.157 HD
ATOM      3  H12 UNL     1       0.089 -29.927 -11.618  1.00  0.00     0.157 HD
HETATM    4  C1  UNL     1       1.741 -30.221 -10.518  1.00  0.00     0.169 A 
HETATM    5  N2  UNL     1       2.424 -30.895 -11.460  1.00  0.00    -0.332 N 
ATOM      6  H2  UNL     1       2.007 -31.073 -12.374  1.00  0.00     0.168 HD
HETATM    7  C2  UNL     1       3.681 -31.338 -11.175  1.00  0.00     0.123 A 
HETATM    8  C3  UNL     1       4.408 -32.038 -12.131  1.00  0.00     0.140 A 
HETATM    9  N6  UNL     1       5.650 -32.490 -11.886  1.00  0.00    -0.337 N 
ATOM     10  H6  UNL     1       6.176 -33.003 -12.593  1.00  0.00     0.168 HD
HETATM   11  C7  UNL     1       6.172 -32.239 -10.670  1.00  0.00     0.183 A 
HETATM   12  N7  UNL     1       5.499 -31.566  -9.723  1.00  0.00    -0.336 N 
ATOM     13  H7  UNL     1       5.936 -31.401  -8.817  1.00  0.00     0.168 HD
HETATM   14  C8  UNL     1       4.242 -31.104  -9.956  1.00  0.00     0.142 A 
HETATM   15  N8  UNL     1       3.583 -30.431  -8.994  1.00  0.00    -0.287 N 
HETATM   16  C11 UNL     1       2.345 -30.005  -9.298  1.00  0.00     0.293 A 
HETATM   17  O4  UNL     1       1.713 -29.378  -8.421  1.00  0.00    -0.264 OA
ENDROOT
BRANCH   8  18
HETATM   18  N3  UNL     1       3.824 -32.231 -13.270  1.00  0.00    -0.309 N 
HETATM   19  C4  UNL     1       4.416 -31.676 -14.427  1.00  0.00     0.263 C 
HETATM   20  O1  UNL     1       4.327 -30.441 -14.638  1.00  0.00    -0.270 OA
ATOM     21  H3  UNL     1       2.960 -32.769 -13.331  1.00  0.00     0.170 HD
BRANCH  19  22
HETATM   22  C5  UNL     1       5.147 -32.512 -15.415  1.00  0.00     0.363 C 
BRANCH  22  23
HETATM   23  N4  UNL     1       4.526 -32.458 -16.724  1.00  0.00    -0.058 N 
ATOM     24  H43 UNL     1       4.207 -33.379 -17.024  1.00  0.00     0.275 HD
ATOM     25  H42 UNL     1       3.625 -31.981 -16.689  1.00  0.00     0.275 HD
ATOM     26  H41 UNL     1       5.145 -32.035 -17.417  1.00  0.00     0.275 HD
ENDBRANCH  22  23
BRANCH  22  27
HETATM   27  C6  UNL     1       6.568 -32.094 -15.553  1.00  0.00     0.271 C 
HETATM   28  N5  UNL     1       7.451 -32.031 -14.440  1.00  0.00    -0.060 NA
HETATM   29  O2  UNL     1       7.060 -31.772 -16.673  1.00  0.00    -0.274 OA
ENDBRANCH  22  27
ENDBRANCH  19  22
ENDBRANCH   8  18
BRANCH  15  30
HETATM   30  C9  UNL     1       4.233 -30.223  -7.743  1.00  0.00     0.233 C 
BRANCH  30  31
HETATM   31  C10 UNL     1       3.980 -31.238  -6.734  1.00  0.00     0.249 C 
HETATM   32  N9  UNL     1       3.044 -30.988  -5.703  1.00  0.00    -0.061 NA
HETATM   33  O3  UNL     1       4.575 -32.335  -6.758  1.00  0.00    -0.275 OA
ENDBRANCH  30  31
ENDBRANCH  15  30
TORSDOF 6
ENDMDL
