MODEL 1
REMARK VINA RESULT: -5.981754908      0.000      0.000
REMARK  5 active torsions:
REMARK  status: ('A' for Active; 'I' for Inactive)
REMARK    1  A    between atoms: C3_3  and  O1_4 
REMARK    2  A    between atoms: O1_4  and  C4_5 
REMARK    3  A    between atoms: C16_18  and  O3_19 
REMARK    4  A    between atoms: C19_22  and  C21_24 
REMARK    5  A    between atoms: C21_24  and  O4_25 
ROOT
HETATM    1  C1  UNL     1       0.524 -27.139 -30.185  1.00  0.00     0.017 C 
HETATM    2  C2  UNL     1       1.796 -26.803 -30.108  1.00  0.00    -0.055 C 
HETATM    3  C3  UNL     1       2.497 -25.884 -30.998  1.00  0.00     0.161 C 
HETATM    4  C6  UNL     1       3.900 -25.725 -30.417  1.00  0.00     0.043 C 
HETATM    5  C7  UNL     1       3.882 -26.272 -29.020  1.00  0.00     0.008 C 
HETATM    6  C8  UNL     1       2.757 -27.279 -29.121  1.00  0.00     0.026 C 
HETATM    7  C9  UNL     1       3.847 -28.221 -29.655  1.00  0.00     0.006 C 
HETATM    8  C10 UNL     1       3.594 -29.642 -29.293  1.00  0.00     0.007 C 
HETATM    9  C11 UNL     1       4.814 -30.243 -28.656  1.00  0.00     0.010 C 
HETATM   10  C12 UNL     1       5.404 -29.441 -27.541  1.00  0.00    -0.034 C 
HETATM   11  C13 UNL     1       5.128 -30.177 -26.253  1.00  0.00     0.016 C 
HETATM   12  C14 UNL     1       4.788 -28.061 -27.412  1.00  0.00     0.023 C 
HETATM   13  C15 UNL     1       4.809 -27.465 -28.787  1.00  0.00    -0.005 C 
HETATM   14  C16 UNL     1       6.210 -27.257 -29.194  1.00  0.00     0.131 C 
HETATM   15  C18 UNL     1       7.096 -28.473 -29.069  1.00  0.00     0.044 C 
HETATM   16  C19 UNL     1       6.861 -29.274 -27.820  1.00  0.00    -0.013 C 
HETATM   17  C20 UNL     1       7.529 -28.625 -26.626  1.00  0.00     0.018 C 
ENDROOT
BRANCH   3  18
HETATM   18  O1  UNL     1       2.548 -26.329 -32.347  1.00  0.00    -0.312 OA
BRANCH  18  19
HETATM   19  C4  UNL     1       2.123 -25.586 -33.416  1.00  0.00     0.255 C 
HETATM   20  C5  UNL     1       0.807 -25.811 -34.086  1.00  0.00     0.126 C 
HETATM   21  O2  UNL     1       2.874 -24.687 -33.841  1.00  0.00    -0.266 OA
ENDBRANCH  18  19
ENDBRANCH   3  18
BRANCH  14  22
HETATM   22  O3  UNL     1       6.758 -26.244 -28.412  1.00  0.00    -0.390 OA
HETATM   23  C17 UNL     1       7.694 -25.436 -28.902  1.00  0.00     0.202 C 
ENDBRANCH  14  22
BRANCH  16  24
HETATM   24  C21 UNL     1       7.505 -30.648 -27.928  1.00  0.00     0.174 C 
BRANCH  24  25
HETATM   25  O4  UNL     1       8.335 -30.736 -29.019  1.00  0.00    -0.400 OA
ATOM     26  H4  UNL     1       8.114 -31.477 -29.570  1.00  0.00     0.209 HD
ENDBRANCH  24  25
ENDBRANCH  16  24
TORSDOF 5
ENDMDL
MODEL 2
REMARK VINA RESULT: -5.959362156      5.097      8.703
REMARK  5 active torsions:
REMARK  status: ('A' for Active; 'I' for Inactive)
REMARK    1  A    between atoms: C3_3  and  O1_4 
REMARK    2  A    between atoms: O1_4  and  C4_5 
REMARK    3  A    between atoms: C16_18  and  O3_19 
REMARK    4  A    between atoms: C19_22  and  C21_24 
REMARK    5  A    between atoms: C21_24  and  O4_25 
ROOT
HETATM    1  C1  UNL     1       3.170 -29.058 -27.599  1.00  0.00     0.017 C 
HETATM    2  C2  UNL     1       1.943 -29.380 -27.240  1.00  0.00    -0.055 C 
HETATM    3  C3  UNL     1       1.387 -30.729 -27.190  1.00  0.00     0.161 C 
HETATM    4  C6  UNL     1      -0.010 -30.585 -26.591  1.00  0.00     0.043 C 
HETATM    5  C7  UNL     1      -0.110 -29.216 -25.985  1.00  0.00     0.008 C 
HETATM    6  C8  UNL     1       0.895 -28.457 -26.823  1.00  0.00     0.026 C 
HETATM    7  C9  UNL     1      -0.274 -28.289 -27.805  1.00  0.00     0.006 C 
HETATM    8  C10 UNL     1      -0.201 -27.008 -28.560  1.00  0.00     0.007 C 
HETATM    9  C11 UNL     1      -1.506 -26.272 -28.465  1.00  0.00     0.010 C 
HETATM   10  C12 UNL     1      -2.044 -26.116 -27.079  1.00  0.00    -0.034 C 
HETATM   11  C13 UNL     1      -1.905 -24.664 -26.695  1.00  0.00     0.016 C 
HETATM   12  C14 UNL     1      -1.278 -26.928 -26.051  1.00  0.00     0.023 C 
HETATM   13  C15 UNL     1      -1.176 -28.315 -26.607  1.00  0.00    -0.005 C 
HETATM   14  C16 UNL     1      -2.528 -28.901 -26.676  1.00  0.00     0.131 C 
HETATM   15  C18 UNL     1      -3.552 -28.056 -27.394  1.00  0.00     0.044 C 
HETATM   16  C19 UNL     1      -3.460 -26.589 -27.082  1.00  0.00    -0.013 C 
HETATM   17  C20 UNL     1      -4.095 -26.279 -25.743  1.00  0.00     0.018 C 
ENDROOT
BRANCH   3  18
HETATM   18  O1  UNL     1       1.338 -31.369 -28.457  1.00  0.00    -0.312 OA
BRANCH  18  19
HETATM   19  C4  UNL     1       1.914 -32.583 -28.725  1.00  0.00     0.255 C 
HETATM   20  C5  UNL     1       3.302 -32.721 -29.258  1.00  0.00     0.126 C 
HETATM   21  O2  UNL     1       1.242 -33.611 -28.512  1.00  0.00    -0.266 OA
ENDBRANCH  18  19
ENDBRANCH   3  18
BRANCH  14  22
HETATM   22  O3  UNL     1      -2.986 -29.123 -25.380  1.00  0.00    -0.390 OA
HETATM   23  C17 UNL     1      -3.885 -30.070 -25.129  1.00  0.00     0.202 C 
ENDBRANCH  14  22
BRANCH  16  24
HETATM   24  C21 UNL     1      -4.253 -25.771 -28.089  1.00  0.00     0.174 C 
BRANCH  24  25
HETATM   25  O4  UNL     1      -5.028 -26.568 -28.895  1.00  0.00    -0.400 OA
ATOM     26  H4  UNL     1      -5.762 -26.090 -29.263  1.00  0.00     0.209 HD
ENDBRANCH  24  25
ENDBRANCH  16  24
TORSDOF 5
ENDMDL
MODEL 3
REMARK VINA RESULT: -5.858344150      1.497      1.937
REMARK  5 active torsions:
REMARK  status: ('A' for Active; 'I' for Inactive)
REMARK    1  A    between atoms: C3_3  and  O1_4 
REMARK    2  A    between atoms: O1_4  and  C4_5 
REMARK    3  A    between atoms: C16_18  and  O3_19 
REMARK    4  A    between atoms: C19_22  and  C21_24 
REMARK    5  A    between atoms: C21_24  and  O4_25 
ROOT
HETATM    1  C1  UNL     1       0.033 -26.256 -29.863  1.00  0.00     0.017 C 
HETATM    2  C2  UNL     1       1.313 -26.566 -29.923  1.00  0.00    -0.055 C 
HETATM    3  C3  UNL     1       2.243 -26.177 -30.978  1.00  0.00     0.161 C 
HETATM    4  C6  UNL     1       3.618 -26.661 -30.525  1.00  0.00     0.043 C 
HETATM    5  C7  UNL     1       3.523 -27.012 -29.069  1.00  0.00     0.008 C 
HETATM    6  C8  UNL     1       2.056 -27.359 -28.952  1.00  0.00     0.026 C 
HETATM    7  C9  UNL     1       2.500 -28.750 -29.429  1.00  0.00     0.006 C 
HETATM    8  C10 UNL     1       1.659 -29.839 -28.860  1.00  0.00     0.007 C 
HETATM    9  C11 UNL     1       2.525 -30.894 -28.236  1.00  0.00     0.010 C 
HETATM   10  C12 UNL     1       3.558 -30.383 -27.285  1.00  0.00    -0.034 C 
HETATM   11  C13 UNL     1       3.136 -30.782 -25.893  1.00  0.00     0.016 C 
HETATM   12  C14 UNL     1       3.682 -28.871 -27.301  1.00  0.00     0.023 C 
HETATM   13  C15 UNL     1       3.805 -28.478 -28.742  1.00  0.00    -0.005 C 
HETATM   14  C16 UNL     1       5.076 -29.004 -29.272  1.00  0.00     0.131 C 
HETATM   15  C18 UNL     1       5.297 -30.480 -29.047  1.00  0.00     0.044 C 
HETATM   16  C19 UNL     1       4.876 -30.960 -27.687  1.00  0.00    -0.013 C 
HETATM   17  C20 UNL     1       5.915 -30.611 -26.642  1.00  0.00     0.018 C 
ENDROOT
BRANCH   3  18
HETATM   18  O1  UNL     1       1.908 -26.705 -32.254  1.00  0.00    -0.312 OA
BRANCH  18  19
HETATM   19  C4  UNL     1       1.754 -25.944 -33.382  1.00  0.00     0.255 C 
HETATM   20  C5  UNL     1       0.481 -25.898 -34.160  1.00  0.00     0.126 C 
HETATM   21  O2  UNL     1       2.726 -25.266 -33.769  1.00  0.00    -0.266 OA
ENDBRANCH  18  19
ENDBRANCH   3  18
BRANCH  14  22
HETATM   22  O3  UNL     1       6.129 -28.315 -28.676  1.00  0.00    -0.390 OA
HETATM   23  C17 UNL     1       7.358 -28.381 -29.180  1.00  0.00     0.202 C 
ENDBRANCH  14  22
BRANCH  16  24
HETATM   24  C21 UNL     1       4.782 -32.478 -27.653  1.00  0.00     0.174 C 
BRANCH  24  25
HETATM   25  O4  UNL     1       5.292 -33.044 -28.795  1.00  0.00    -0.400 OA
ATOM     26  H4  UNL     1       4.757 -33.768 -29.099  1.00  0.00     0.209 HD
ENDBRANCH  24  25
ENDBRANCH  16  24
TORSDOF 5
ENDMDL
MODEL 4
REMARK VINA RESULT: -5.831039414      4.331      6.853
REMARK  5 active torsions:
REMARK  status: ('A' for Active; 'I' for Inactive)
REMARK    1  A    between atoms: C3_3  and  O1_4 
REMARK    2  A    between atoms: O1_4  and  C4_5 
REMARK    3  A    between atoms: C16_18  and  O3_19 
REMARK    4  A    between atoms: C19_22  and  C21_24 
REMARK    5  A    between atoms: C21_24  and  O4_25 
ROOT
HETATM    1  C1  UNL     1       3.621 -29.657 -29.289  1.00  0.00     0.017 C 
HETATM    2  C2  UNL     1       2.628 -28.793 -29.225  1.00  0.00    -0.055 C 
HETATM    3  C3  UNL     1       2.579 -27.489 -29.879  1.00  0.00     0.161 C 
HETATM    4  C6  UNL     1       1.181 -26.937 -29.611  1.00  0.00     0.043 C 
HETATM    5  C7  UNL     1       0.331 -28.067 -29.109  1.00  0.00     0.008 C 
HETATM    6  C8  UNL     1       1.381 -28.963 -28.490  1.00  0.00     0.026 C 
HETATM    7  C9  UNL     1       1.207 -28.064 -27.257  1.00  0.00     0.006 C 
HETATM    8  C10 UNL     1       1.425 -28.802 -25.982  1.00  0.00     0.007 C 
HETATM    9  C11 UNL     1       0.272 -28.578 -25.047  1.00  0.00     0.010 C 
HETATM   10  C12 UNL     1      -1.079 -28.806 -25.643  1.00  0.00    -0.034 C 
HETATM   11  C13 UNL     1      -1.637 -30.071 -25.039  1.00  0.00     0.016 C 
HETATM   12  C14 UNL     1      -1.038 -29.006 -27.146  1.00  0.00     0.023 C 
HETATM   13  C15 UNL     1      -0.215 -27.879 -27.694  1.00  0.00    -0.005 C 
HETATM   14  C16 UNL     1      -0.932 -26.611 -27.463  1.00  0.00     0.131 C 
HETATM   15  C18 UNL     1      -1.369 -26.378 -26.038  1.00  0.00     0.044 C 
HETATM   16  C19 UNL     1      -1.915 -27.602 -25.358  1.00  0.00    -0.013 C 
HETATM   17  C20 UNL     1      -3.342 -27.870 -25.787  1.00  0.00     0.018 C 
ENDROOT
BRANCH   3  18
HETATM   18  O1  UNL     1       3.581 -26.589 -29.425  1.00  0.00    -0.312 OA
BRANCH  18  19
HETATM   19  C4  UNL     1       3.997 -25.488 -30.126  1.00  0.00     0.255 C 
HETATM   20  C5  UNL     1       4.755 -24.367 -29.497  1.00  0.00     0.126 C 
HETATM   21  O2  UNL     1       3.723 -25.429 -31.341  1.00  0.00    -0.266 OA
ENDBRANCH  18  19
ENDBRANCH   3  18
BRANCH  14  22
HETATM   22  O3  UNL     1      -2.065 -26.584 -28.271  1.00  0.00    -0.390 OA
HETATM   23  C17 UNL     1      -2.680 -25.437 -28.542  1.00  0.00     0.202 C 
ENDBRANCH  14  22
BRANCH  16  24
HETATM   24  C21 UNL     1      -1.990 -27.397 -23.853  1.00  0.00     0.174 C 
BRANCH  24  25
HETATM   25  O4  UNL     1      -3.263 -27.078 -23.446  1.00  0.00    -0.400 OA
ATOM     26  H4  UNL     1      -3.701 -27.820 -23.046  1.00  0.00     0.209 HD
ENDBRANCH  24  25
ENDBRANCH  16  24
TORSDOF 5
ENDMDL
MODEL 5
REMARK VINA RESULT: -5.815936582      3.758      5.792
REMARK  5 active torsions:
REMARK  status: ('A' for Active; 'I' for Inactive)
REMARK    1  A    between atoms: C3_3  and  O1_4 
REMARK    2  A    between atoms: O1_4  and  C4_5 
REMARK    3  A    between atoms: C16_18  and  O3_19 
REMARK    4  A    between atoms: C19_22  and  C21_24 
REMARK    5  A    between atoms: C21_24  and  O4_25 
ROOT
HETATM    1  C1  UNL     1       4.802 -28.469 -30.318  1.00  0.00     0.017 C 
HETATM    2  C2  UNL     1       3.611 -28.037 -29.956  1.00  0.00    -0.055 C 
HETATM    3  C3  UNL     1       3.027 -26.742 -30.291  1.00  0.00     0.161 C 
HETATM    4  C6  UNL     1       1.597 -26.775 -29.759  1.00  0.00     0.043 C 
HETATM    5  C7  UNL     1       1.262 -28.202 -29.436  1.00  0.00     0.008 C 
HETATM    6  C8  UNL     1       2.637 -28.762 -29.149  1.00  0.00     0.026 C 
HETATM    7  C9  UNL     1       2.404 -28.213 -27.735  1.00  0.00     0.006 C 
HETATM    8  C10 UNL     1       3.071 -29.037 -26.689  1.00  0.00     0.007 C 
HETATM    9  C11 UNL     1       2.094 -29.402 -25.610  1.00  0.00     0.010 C 
HETATM   10  C12 UNL     1       0.806 -29.985 -26.095  1.00  0.00    -0.034 C 
HETATM   11  C13 UNL     1       0.803 -31.450 -25.735  1.00  0.00     0.016 C 
HETATM   12  C14 UNL     1       0.642 -29.891 -27.600  1.00  0.00     0.023 C 
HETATM   13  C15 UNL     1       0.944 -28.470 -27.965  1.00  0.00    -0.005 C 
HETATM   14  C16 UNL     1      -0.091 -27.598 -27.380  1.00  0.00     0.131 C 
HETATM   15  C18 UNL     1      -0.320 -27.787 -25.900  1.00  0.00     0.044 C 
HETATM   16  C19 UNL     1      -0.310 -29.223 -25.459  1.00  0.00    -0.013 C 
HETATM   17  C20 UNL     1      -1.626 -29.899 -25.782  1.00  0.00     0.018 C 
ENDROOT
BRANCH   3  18
HETATM   18  O1  UNL     1       3.747 -25.640 -29.756  1.00  0.00    -0.312 OA
BRANCH  18  19
HETATM   19  C4  UNL     1       4.083 -24.522 -30.473  1.00  0.00     0.255 C 
HETATM   20  C5  UNL     1       4.422 -23.219 -29.830  1.00  0.00     0.126 C 
HETATM   21  O2  UNL     1       4.102 -24.608 -31.717  1.00  0.00    -0.266 OA
ENDBRANCH  18  19
ENDBRANCH   3  18
BRANCH  14  22
HETATM   22  O3  UNL     1      -1.297 -27.832 -28.035  1.00  0.00    -0.390 OA
HETATM   23  C17 UNL     1      -2.335 -27.021 -27.860  1.00  0.00     0.202 C 
ENDBRANCH  14  22
BRANCH  16  24
HETATM   24  C21 UNL     1      -0.179 -29.325 -23.947  1.00  0.00     0.174 C 
BRANCH  24  25
HETATM   25  O4  UNL     1      -0.334 -28.103 -23.340  1.00  0.00    -0.400 OA
ATOM     26  H4  UNL     1       0.044 -28.093 -22.468  1.00  0.00     0.209 HD
ENDBRANCH  24  25
ENDBRANCH  16  24
TORSDOF 5
ENDMDL
