MODEL 1
REMARK VINA RESULT: -5.204659271      0.000      0.000
REMARK  5 active torsions:
REMARK  status: ('A' for Active; 'I' for Inactive)
REMARK    1  A    between atoms: C2_2  and  C4_4 
REMARK    2  A    between atoms: N1_14  and  C12_15 
REMARK    3  A    between atoms: C12_15  and  O1_16 
REMARK    4  A    between atoms: C12_15  and  C13_18 
REMARK    5  A    between atoms: C13_18  and  O2_21 
ROOT
HETATM    1  C4  UNL     1      -2.335 -26.869 -25.115  1.00  0.00     0.025 C 
HETATM    2  C5  UNL     1      -3.343 -27.615 -24.353  1.00  0.00     0.053 A 
HETATM    3  C6  UNL     1      -2.617 -28.965 -24.009  1.00  0.00     0.033 A 
HETATM    4  C7  UNL     1      -2.834 -29.824 -25.126  1.00  0.00    -0.076 C 
HETATM    5  C8  UNL     1      -3.689 -30.831 -24.994  1.00  0.00     0.015 C 
HETATM    6  C9  UNL     1      -2.191 -29.792 -26.462  1.00  0.00     0.058 C 
HETATM    7  C10 UNL     1      -1.217 -30.905 -26.574  1.00  0.00     0.098 C 
HETATM    8  S1  UNL     1       0.304 -30.411 -25.670  1.00  0.00    -0.095 SA
HETATM    9  S2  UNL     1       0.020 -28.316 -26.147  1.00  0.00    -0.071 SA
HETATM   10  C11 UNL     1      -1.599 -28.526 -26.915  1.00  0.00     0.173 C 
HETATM   11  N1  UNL     1      -2.411 -27.359 -26.482  1.00  0.00    -0.316 N 
HETATM   12  C16 UNL     1      -3.404 -28.236 -23.082  1.00  0.00    -0.030 A 
HETATM   13  C17 UNL     1      -2.699 -27.666 -21.856  1.00  0.00     0.016 C 
HETATM   14  C18 UNL     1      -4.751 -28.820 -22.650  1.00  0.00     0.016 C 
ENDROOT
BRANCH  11  15
HETATM   15  C12 UNL     1      -3.260 -26.888 -27.463  1.00  0.00     0.153 C 
BRANCH  15  16
HETATM   16  O1  UNL     1      -2.580 -26.401 -28.506  1.00  0.00    -0.347 OA
ATOM     17  H1  UNL     1      -2.187 -27.096 -29.020  1.00  0.00     0.219 HD
ENDBRANCH  15  16
BRANCH  15  18
HETATM   18  C13 UNL     1      -4.680 -26.773 -27.694  1.00  0.00     0.115 C 
HETATM   19  C14 UNL     1      -5.324 -25.663 -26.862  1.00  0.00     0.054 C 
HETATM   20  C15 UNL     1      -5.375 -28.052 -27.150  1.00  0.00     0.054 C 
BRANCH  18  21
HETATM   21  O2  UNL     1      -5.168 -26.621 -28.954  1.00  0.00    -0.382 OA
ATOM     22  H2  UNL     1      -6.062 -26.331 -29.096  1.00  0.00     0.211 HD
ENDBRANCH  18  21
ENDBRANCH  15  18
ENDBRANCH  11  15
BRANCH   1  23
HETATM   23  C2  UNL     1      -2.139 -25.453 -24.904  1.00  0.00    -0.048 C 
HETATM   24  C1  UNL     1      -1.191 -24.736 -25.431  1.00  0.00     0.020 C 
HETATM   25  C3  UNL     1      -3.126 -24.694 -24.050  1.00  0.00     0.049 C 
ENDBRANCH   1  23
TORSDOF 5
ENDMDL
MODEL 2
REMARK VINA RESULT: -5.159575857      2.785      4.857
REMARK  5 active torsions:
REMARK  status: ('A' for Active; 'I' for Inactive)
REMARK    1  A    between atoms: C2_2  and  C4_4 
REMARK    2  A    between atoms: N1_14  and  C12_15 
REMARK    3  A    between atoms: C12_15  and  O1_16 
REMARK    4  A    between atoms: C12_15  and  C13_18 
REMARK    5  A    between atoms: C13_18  and  O2_21 
ROOT
HETATM    1  C4  UNL     1      -4.405 -27.626 -25.591  1.00  0.00     0.025 C 
HETATM    2  C5  UNL     1      -3.239 -27.228 -24.793  1.00  0.00     0.053 A 
HETATM    3  C6  UNL     1      -3.869 -26.429 -23.597  1.00  0.00     0.033 A 
HETATM    4  C7  UNL     1      -4.009 -25.085 -24.052  1.00  0.00    -0.076 C 
HETATM    5  C8  UNL     1      -3.179 -24.165 -23.575  1.00  0.00     0.015 C 
HETATM    6  C9  UNL     1      -5.011 -24.520 -24.987  1.00  0.00     0.058 C 
HETATM    7  C10 UNL     1      -6.004 -23.720 -24.231  1.00  0.00     0.098 C 
HETATM    8  S1  UNL     1      -7.183 -24.889 -23.445  1.00  0.00    -0.095 SA
HETATM    9  S2  UNL     1      -6.996 -26.316 -25.065  1.00  0.00    -0.071 SA
HETATM   10  C11 UNL     1      -5.675 -25.436 -25.925  1.00  0.00     0.173 C 
HETATM   11  N1  UNL     1      -4.743 -26.481 -26.420  1.00  0.00    -0.316 N 
HETATM   12  C16 UNL     1      -2.828 -27.380 -23.447  1.00  0.00    -0.030 A 
HETATM   13  C17 UNL     1      -3.131 -28.632 -22.631  1.00  0.00     0.016 C 
HETATM   14  C18 UNL     1      -1.429 -26.879 -23.080  1.00  0.00     0.016 C 
ENDROOT
BRANCH  11  15
HETATM   15  C12 UNL     1      -4.203 -26.192 -27.657  1.00  0.00     0.153 C 
BRANCH  15  16
HETATM   16  O1  UNL     1      -5.085 -26.409 -28.638  1.00  0.00    -0.347 OA
ATOM     17  H1  UNL     1      -5.508 -27.254 -28.545  1.00  0.00     0.219 HD
ENDBRANCH  15  16
BRANCH  15  18
HETATM   18  C13 UNL     1      -2.955 -25.716 -28.203  1.00  0.00     0.115 C 
HETATM   19  C14 UNL     1      -1.867 -26.790 -28.210  1.00  0.00     0.054 C 
HETATM   20  C15 UNL     1      -2.370 -24.646 -27.240  1.00  0.00     0.054 C 
BRANCH  18  21
HETATM   21  O2  UNL     1      -2.911 -25.138 -29.434  1.00  0.00    -0.382 OA
ATOM     22  H2  UNL     1      -3.166 -24.230 -29.552  1.00  0.00     0.211 HD
ENDBRANCH  18  21
ENDBRANCH  15  18
ENDBRANCH  11  15
BRANCH   1  23
HETATM   23  C2  UNL     1      -4.494 -28.946 -26.173  1.00  0.00    -0.048 C 
HETATM   24  C1  UNL     1      -3.485 -29.671 -26.555  1.00  0.00     0.020 C 
HETATM   25  C3  UNL     1      -5.850 -29.595 -26.317  1.00  0.00     0.049 C 
ENDBRANCH   1  23
TORSDOF 5
ENDMDL
MODEL 3
REMARK VINA RESULT: -4.880295001      2.411      4.197
REMARK  5 active torsions:
REMARK  status: ('A' for Active; 'I' for Inactive)
REMARK    1  A    between atoms: C2_2  and  C4_4 
REMARK    2  A    between atoms: N1_14  and  C12_15 
REMARK    3  A    between atoms: C12_15  and  O1_16 
REMARK    4  A    between atoms: C12_15  and  C13_18 
REMARK    5  A    between atoms: C13_18  and  O2_21 
ROOT
HETATM    1  C4  UNL     1      -2.525 -28.613 -25.637  1.00  0.00     0.025 C 
HETATM    2  C5  UNL     1      -1.698 -27.659 -24.887  1.00  0.00     0.053 A 
HETATM    3  C6  UNL     1      -2.396 -27.596 -23.482  1.00  0.00     0.033 A 
HETATM    4  C7  UNL     1      -3.419 -26.610 -23.594  1.00  0.00    -0.076 C 
HETATM    5  C8  UNL     1      -3.237 -25.437 -23.000  1.00  0.00     0.015 C 
HETATM    6  C9  UNL     1      -4.736 -26.710 -24.268  1.00  0.00     0.058 C 
HETATM    7  C10 UNL     1      -5.810 -26.826 -23.252  1.00  0.00     0.098 C 
HETATM    8  S1  UNL     1      -5.824 -28.561 -22.648  1.00  0.00    -0.095 SA
HETATM    9  S2  UNL     1      -5.179 -29.334 -24.568  1.00  0.00    -0.071 SA
HETATM   10  C11 UNL     1      -4.898 -27.720 -25.324  1.00  0.00     0.173 C 
HETATM   11  N1  UNL     1      -3.663 -27.860 -26.138  1.00  0.00    -0.316 N 
HETATM   12  C16 UNL     1      -0.991 -27.671 -23.661  1.00  0.00    -0.030 A 
HETATM   13  C17 UNL     1      -0.280 -28.913 -23.134  1.00  0.00     0.016 C 
HETATM   14  C18 UNL     1      -0.145 -26.440 -23.326  1.00  0.00     0.016 C 
ENDROOT
BRANCH  11  15
HETATM   15  C12 UNL     1      -3.704 -27.149 -27.321  1.00  0.00     0.153 C 
BRANCH  15  16
HETATM   16  O1  UNL     1      -4.541 -27.709 -28.200  1.00  0.00    -0.347 OA
ATOM     17  H1  UNL     1      -4.811 -27.089 -28.866  1.00  0.00     0.219 HD
ENDBRANCH  15  16
BRANCH  15  18
HETATM   18  C13 UNL     1      -3.103 -25.965 -27.887  1.00  0.00     0.115 C 
HETATM   19  C14 UNL     1      -1.623 -26.157 -28.219  1.00  0.00     0.054 C 
HETATM   20  C15 UNL     1      -3.067 -24.859 -26.797  1.00  0.00     0.054 C 
BRANCH  18  21
HETATM   21  O2  UNL     1      -3.652 -25.362 -28.976  1.00  0.00    -0.382 OA
ATOM     22  H2  UNL     1      -3.362 -25.588 -29.852  1.00  0.00     0.211 HD
ENDBRANCH  18  21
ENDBRANCH  15  18
ENDBRANCH  11  15
BRANCH   1  23
HETATM   23  C2  UNL     1      -1.923 -29.604 -26.500  1.00  0.00    -0.048 C 
HETATM   24  C1  UNL     1      -2.468 -30.733 -26.845  1.00  0.00     0.020 C 
HETATM   25  C3  UNL     1      -0.575 -29.318 -27.117  1.00  0.00     0.049 C 
ENDBRANCH   1  23
TORSDOF 5
ENDMDL
MODEL 4
REMARK VINA RESULT: -4.864669231      2.281      3.531
REMARK  5 active torsions:
REMARK  status: ('A' for Active; 'I' for Inactive)
REMARK    1  A    between atoms: C2_2  and  C4_4 
REMARK    2  A    between atoms: N1_14  and  C12_15 
REMARK    3  A    between atoms: C12_15  and  O1_16 
REMARK    4  A    between atoms: C12_15  and  C13_18 
REMARK    5  A    between atoms: C13_18  and  O2_21 
ROOT
HETATM    1  C4  UNL     1      -2.484 -27.405 -24.944  1.00  0.00     0.025 C 
HETATM    2  C5  UNL     1      -3.211 -26.239 -24.430  1.00  0.00     0.053 A 
HETATM    3  C6  UNL     1      -4.585 -26.841 -23.963  1.00  0.00     0.033 A 
HETATM    4  C7  UNL     1      -5.423 -26.849 -25.115  1.00  0.00    -0.076 C 
HETATM    5  C8  UNL     1      -6.408 -25.961 -25.189  1.00  0.00     0.015 C 
HETATM    6  C9  UNL     1      -5.393 -27.764 -26.281  1.00  0.00     0.058 C 
HETATM    7  C10 UNL     1      -6.530 -28.712 -26.202  1.00  0.00     0.098 C 
HETATM    8  S1  UNL     1      -6.090 -30.015 -24.984  1.00  0.00    -0.095 SA
HETATM    9  S2  UNL     1      -3.982 -29.891 -25.472  1.00  0.00    -0.071 SA
HETATM   10  C11 UNL     1      -4.138 -28.470 -26.573  1.00  0.00     0.173 C 
HETATM   11  N1  UNL     1      -2.954 -27.613 -26.303  1.00  0.00    -0.316 N 
HETATM   12  C16 UNL     1      -3.846 -25.891 -23.213  1.00  0.00    -0.030 A 
HETATM   13  C17 UNL     1      -3.312 -26.330 -21.853  1.00  0.00     0.016 C 
HETATM   14  C18 UNL     1      -4.398 -24.469 -23.090  1.00  0.00     0.016 C 
ENDROOT
BRANCH  11  15
HETATM   15  C12 UNL     1      -2.448 -27.007 -27.435  1.00  0.00     0.153 C 
BRANCH  15  16
HETATM   16  O1  UNL     1      -1.632 -27.826 -28.106  1.00  0.00    -0.347 OA
ATOM     17  H1  UNL     1      -1.510 -27.537 -29.003  1.00  0.00     0.219 HD
ENDBRANCH  15  16
BRANCH  15  18
HETATM   18  C13 UNL     1      -2.548 -25.736 -28.112  1.00  0.00     0.115 C 
HETATM   19  C14 UNL     1      -1.345 -25.452 -29.014  1.00  0.00     0.054 C 
HETATM   20  C15 UNL     1      -2.453 -24.603 -27.053  1.00  0.00     0.054 C 
BRANCH  18  21
HETATM   21  O2  UNL     1      -3.646 -25.429 -28.853  1.00  0.00    -0.382 OA
ATOM     22  H2  UNL     1      -3.592 -24.800 -29.564  1.00  0.00     0.211 HD
ENDBRANCH  18  21
ENDBRANCH  15  18
ENDBRANCH  11  15
BRANCH   1  23
HETATM   23  C2  UNL     1      -1.076 -27.586 -24.669  1.00  0.00    -0.048 C 
HETATM   24  C1  UNL     1      -0.388 -28.657 -24.932  1.00  0.00     0.020 C 
HETATM   25  C3  UNL     1      -0.291 -26.440 -24.078  1.00  0.00     0.049 C 
ENDBRANCH   1  23
TORSDOF 5
ENDMDL
MODEL 5
REMARK VINA RESULT: -4.834240346      2.032      2.683
REMARK  5 active torsions:
REMARK  status: ('A' for Active; 'I' for Inactive)
REMARK    1  A    between atoms: C2_2  and  C4_4 
REMARK    2  A    between atoms: N1_14  and  C12_15 
REMARK    3  A    between atoms: C12_15  and  O1_16 
REMARK    4  A    between atoms: C12_15  and  C13_18 
REMARK    5  A    between atoms: C13_18  and  O2_21 
ROOT
HETATM    1  C4  UNL     1      -2.788 -26.857 -24.659  1.00  0.00     0.025 C 
HETATM    2  C5  UNL     1      -3.967 -26.175 -24.114  1.00  0.00     0.053 A 
HETATM    3  C6  UNL     1      -4.707 -27.306 -23.314  1.00  0.00     0.033 A 
HETATM    4  C7  UNL     1      -5.539 -27.977 -24.257  1.00  0.00    -0.076 C 
HETATM    5  C8  UNL     1      -6.849 -27.774 -24.204  1.00  0.00     0.015 C 
HETATM    6  C9  UNL     1      -5.154 -28.944 -25.313  1.00  0.00     0.058 C 
HETATM    7  C10 UNL     1      -5.557 -30.313 -24.908  1.00  0.00     0.098 C 
HETATM    8  S1  UNL     1      -4.321 -30.924 -23.694  1.00  0.00    -0.095 SA
HETATM    9  S2  UNL     1      -2.714 -29.807 -24.625  1.00  0.00    -0.071 SA
HETATM   10  C11 UNL     1      -3.766 -28.925 -25.796  1.00  0.00     0.173 C 
HETATM   11  N1  UNL     1      -3.231 -27.540 -25.864  1.00  0.00    -0.316 N 
HETATM   12  C16 UNL     1      -4.529 -25.986 -22.829  1.00  0.00    -0.030 A 
HETATM   13  C17 UNL     1      -3.676 -25.805 -21.578  1.00  0.00     0.016 C 
HETATM   14  C18 UNL     1      -5.755 -25.075 -22.725  1.00  0.00     0.016 C 
ENDROOT
BRANCH  11  15
HETATM   15  C12 UNL     1      -3.292 -26.991 -27.129  1.00  0.00     0.153 C 
BRANCH  15  16
HETATM   16  O1  UNL     1      -2.238 -27.350 -27.869  1.00  0.00    -0.347 OA
ATOM     17  H1  UNL     1      -2.364 -27.127 -28.783  1.00  0.00     0.219 HD
ENDBRANCH  15  16
BRANCH  15  18
HETATM   18  C13 UNL     1      -4.172 -26.138 -27.891  1.00  0.00     0.115 C 
HETATM   19  C14 UNL     1      -4.873 -25.090 -27.024  1.00  0.00     0.054 C 
HETATM   20  C15 UNL     1      -5.358 -26.993 -28.416  1.00  0.00     0.054 C 
BRANCH  18  21
HETATM   21  O2  UNL     1      -3.715 -25.468 -28.983  1.00  0.00    -0.382 OA
ATOM     22  H2  UNL     1      -3.288 -24.624 -28.891  1.00  0.00     0.211 HD
ENDBRANCH  18  21
ENDBRANCH  15  18
ENDBRANCH  11  15
BRANCH   1  23
HETATM   23  C2  UNL     1      -1.494 -26.213 -24.672  1.00  0.00    -0.048 C 
HETATM   24  C1  UNL     1      -0.364 -26.786 -24.381  1.00  0.00     0.020 C 
HETATM   25  C3  UNL     1      -1.396 -24.771 -25.107  1.00  0.00     0.049 C 
ENDBRANCH   1  23
TORSDOF 5
ENDMDL
