MODEL 1
REMARK VINA RESULT: -6.407466512      0.000      0.000
REMARK  3 active torsions:
REMARK  status: ('A' for Active; 'I' for Inactive)
REMARK    1  A    between atoms: C2_2  and  O1_3 
REMARK    2  A    between atoms: O1_3  and  C3_4 
REMARK    3  A    between atoms: C19_22  and  O4_23 
ROOT
HETATM    1  C3  UNL     1       3.015 -26.287 -30.043  1.00  0.00     0.132 C 
HETATM    2  C4  UNL     1       1.881 -27.016 -30.742  1.00  0.00     0.033 C 
HETATM    3  C5  UNL     1       1.285 -27.870 -29.653  1.00  0.00     0.008 C 
HETATM    4  C6  UNL     1       2.280 -27.907 -28.521  1.00  0.00     0.003 C 
HETATM    5  C7  UNL     1       2.324 -29.276 -27.962  1.00  0.00    -0.003 C 
HETATM    6  C8  UNL     1       2.802 -29.230 -26.549  1.00  0.00     0.006 C 
HETATM    7  C9  UNL     1       3.377 -30.578 -26.093  1.00  0.00     0.009 C 
HETATM    8  C10 UNL     1       2.681 -31.623 -26.894  1.00  0.00     0.031 C 
HETATM    9  C11 UNL     1       2.766 -33.010 -26.265  1.00  0.00     0.060 C 
HETATM   10  C12 UNL     1       2.015 -32.924 -24.941  1.00  0.00     0.018 C 
HETATM   11  C13 UNL     1       2.079 -33.921 -27.217  1.00  0.00     0.154 C 
HETATM   12  O2  UNL     1       2.004 -35.114 -27.018  1.00  0.00    -0.295 OA
HETATM   13  C14 UNL     1       1.484 -33.305 -28.427  1.00  0.00     0.247 C 
HETATM   14  O3  UNL     1       2.345 -32.469 -29.103  1.00  0.00    -0.372 OA
HETATM   15  C15 UNL     1       3.108 -31.632 -28.327  1.00  0.00     0.066 C 
HETATM   16  C16 UNL     1       4.543 -32.178 -28.384  1.00  0.00     0.047 C 
HETATM   17  C17 UNL     1       3.109 -30.223 -28.839  1.00  0.00     0.027 C 
HETATM   18  C18 UNL     1       4.482 -29.673 -29.099  1.00  0.00     0.040 C 
HETATM   19  C19 UNL     1       4.290 -28.407 -29.945  1.00  0.00     0.129 C 
HETATM   20  C20 UNL     1       3.534 -27.402 -29.123  1.00  0.00     0.012 C 
HETATM   21  C21 UNL     1       4.491 -26.766 -28.161  1.00  0.00     0.021 C 
ENDROOT
BRANCH   1  22
HETATM   22  O1  UNL     1       3.972 -25.837 -30.912  1.00  0.00    -0.385 OA
BRANCH  22  23
HETATM   23  C2  UNL     1       3.883 -24.502 -31.229  1.00  0.00     0.163 C 
HETATM   24  C1  UNL     1       4.294 -23.586 -30.096  1.00  0.00     0.033 C 
ENDBRANCH  22  23
ENDBRANCH   1  22
BRANCH  19  25
HETATM   25  O4  UNL     1       5.555 -27.924 -30.220  1.00  0.00    -0.395 OA
ATOM     26  H4  UNL     1       6.059 -28.658 -30.552  1.00  0.00     0.210 HD
ENDBRANCH  19  25
TORSDOF 3
ENDMDL
MODEL 2
REMARK VINA RESULT: -6.251524677      5.783      7.328
REMARK  3 active torsions:
REMARK  status: ('A' for Active; 'I' for Inactive)
REMARK    1  A    between atoms: C2_2  and  O1_3 
REMARK    2  A    between atoms: O1_3  and  C3_4 
REMARK    3  A    between atoms: C19_22  and  O4_23 
ROOT
HETATM    1  C3  UNL     1      -4.043 -24.622 -25.424  1.00  0.00     0.132 C 
HETATM    2  C4  UNL     1      -3.048 -24.673 -24.278  1.00  0.00     0.033 C 
HETATM    3  C5  UNL     1      -1.722 -24.862 -24.969  1.00  0.00     0.008 C 
HETATM    4  C6  UNL     1      -2.016 -25.288 -26.386  1.00  0.00     0.003 C 
HETATM    5  C7  UNL     1      -1.052 -26.336 -26.784  1.00  0.00    -0.003 C 
HETATM    6  C8  UNL     1      -0.914 -26.358 -28.270  1.00  0.00     0.006 C 
HETATM    7  C9  UNL     1      -0.387 -27.707 -28.778  1.00  0.00     0.009 C 
HETATM    8  C10 UNL     1       0.436 -28.278 -27.675  1.00  0.00     0.031 C 
HETATM    9  C11 UNL     1       1.406 -29.354 -28.152  1.00  0.00     0.060 C 
HETATM   10  C12 UNL     1       2.385 -28.659 -29.091  1.00  0.00     0.018 C 
HETATM   11  C13 UNL     1       2.089 -29.845 -26.927  1.00  0.00     0.154 C 
HETATM   12  O2  UNL     1       2.907 -30.737 -26.965  1.00  0.00    -0.295 OA
HETATM   13  C14 UNL     1       1.726 -29.189 -25.647  1.00  0.00     0.247 C 
HETATM   14  O3  UNL     1       0.368 -29.104 -25.434  1.00  0.00    -0.372 OA
HETATM   15  C15 UNL     1      -0.392 -28.743 -26.520  1.00  0.00     0.066 C 
HETATM   16  C16 UNL     1      -1.143 -30.008 -26.961  1.00  0.00     0.047 C 
HETATM   17  C17 UNL     1      -1.394 -27.680 -26.186  1.00  0.00     0.027 C 
HETATM   18  C18 UNL     1      -2.809 -28.053 -26.523  1.00  0.00     0.040 C 
HETATM   19  C19 UNL     1      -3.710 -27.047 -25.794  1.00  0.00     0.129 C 
HETATM   20  C20 UNL     1      -3.443 -25.681 -26.359  1.00  0.00     0.012 C 
HETATM   21  C21 UNL     1      -4.159 -25.565 -27.670  1.00  0.00     0.021 C 
ENDROOT
BRANCH   1  22
HETATM   22  O1  UNL     1      -5.318 -24.931 -25.033  1.00  0.00    -0.385 OA
BRANCH  22  23
HETATM   23  C2  UNL     1      -6.174 -23.858 -24.948  1.00  0.00     0.163 C 
HETATM   24  C1  UNL     1      -5.727 -22.667 -25.768  1.00  0.00     0.033 C 
ENDBRANCH  22  23
ENDBRANCH   1  22
BRANCH  19  25
HETATM   25  O4  UNL     1      -5.014 -27.416 -26.071  1.00  0.00    -0.395 OA
ATOM     26  H4  UNL     1      -5.251 -28.073 -25.426  1.00  0.00     0.210 HD
ENDBRANCH  19  25
TORSDOF 3
ENDMDL
MODEL 3
REMARK VINA RESULT: -6.098269514      4.700      7.221
REMARK  3 active torsions:
REMARK  status: ('A' for Active; 'I' for Inactive)
REMARK    1  A    between atoms: C2_2  and  O1_3 
REMARK    2  A    between atoms: O1_3  and  C3_4 
REMARK    3  A    between atoms: C19_22  and  O4_23 
ROOT
HETATM    1  C3  UNL     1      -3.292 -26.384 -25.340  1.00  0.00     0.132 C 
HETATM    2  C4  UNL     1      -2.051 -25.965 -24.570  1.00  0.00     0.033 C 
HETATM    3  C5  UNL     1      -1.128 -25.446 -25.642  1.00  0.00     0.008 C 
HETATM    4  C6  UNL     1      -1.674 -25.919 -26.967  1.00  0.00     0.003 C 
HETATM    5  C7  UNL     1      -0.547 -26.334 -27.831  1.00  0.00    -0.003 C 
HETATM    6  C8  UNL     1      -0.951 -26.240 -29.265  1.00  0.00     0.006 C 
HETATM    7  C9  UNL     1      -0.082 -27.130 -30.165  1.00  0.00     0.009 C 
HETATM    8  C10 UNL     1       1.240 -27.247 -29.489  1.00  0.00     0.031 C 
HETATM    9  C11 UNL     1       2.356 -27.680 -30.434  1.00  0.00     0.060 C 
HETATM   10  C12 UNL     1       2.504 -26.562 -31.460  1.00  0.00     0.018 C 
HETATM   11  C13 UNL     1       3.571 -27.800 -29.588  1.00  0.00     0.154 C 
HETATM   12  O2  UNL     1       4.633 -28.163 -30.043  1.00  0.00    -0.295 OA
HETATM   13  C14 UNL     1       3.427 -27.451 -28.153  1.00  0.00     0.247 C 
HETATM   14  O3  UNL     1       2.355 -28.061 -27.540  1.00  0.00    -0.372 OA
HETATM   15  C15 UNL     1       1.187 -28.096 -28.260  1.00  0.00     0.066 C 
HETATM   16  C16 UNL     1       0.997 -29.554 -28.707  1.00  0.00     0.047 C 
HETATM   17  C17 UNL     1       0.000 -27.686 -27.441  1.00  0.00     0.027 C 
HETATM   18  C18 UNL     1      -1.101 -28.706 -27.418  1.00  0.00     0.040 C 
HETATM   19  C19 UNL     1      -2.039 -28.306 -26.270  1.00  0.00     0.129 C 
HETATM   20  C20 UNL     1      -2.647 -26.973 -26.603  1.00  0.00     0.012 C 
HETATM   21  C21 UNL     1      -3.748 -27.192 -27.595  1.00  0.00     0.021 C 
ENDROOT
BRANCH   1  22
HETATM   22  O1  UNL     1      -4.051 -27.300 -24.663  1.00  0.00    -0.385 OA
BRANCH  22  23
HETATM   23  C2  UNL     1      -5.246 -26.818 -24.182  1.00  0.00     0.163 C 
HETATM   24  C1  UNL     1      -5.773 -25.631 -24.959  1.00  0.00     0.033 C 
ENDBRANCH  22  23
ENDBRANCH   1  22
BRANCH  19  25
HETATM   25  O4  UNL     1      -3.031 -29.268 -26.221  1.00  0.00    -0.395 OA
ATOM     26  H4  UNL     1      -3.803 -28.843 -25.865  1.00  0.00     0.210 HD
ENDBRANCH  19  25
TORSDOF 3
ENDMDL
MODEL 4
REMARK VINA RESULT: -5.917122538      2.148      3.074
REMARK  3 active torsions:
REMARK  status: ('A' for Active; 'I' for Inactive)
REMARK    1  A    between atoms: C2_2  and  O1_3 
REMARK    2  A    between atoms: O1_3  and  C3_4 
REMARK    3  A    between atoms: C19_22  and  O4_23 
ROOT
HETATM    1  C3  UNL     1       1.432 -26.110 -32.473  1.00  0.00     0.132 C 
HETATM    2  C4  UNL     1       0.895 -27.448 -32.950  1.00  0.00     0.033 C 
HETATM    3  C5  UNL     1       0.038 -27.916 -31.802  1.00  0.00     0.008 C 
HETATM    4  C6  UNL     1       0.400 -27.073 -30.605  1.00  0.00     0.003 C 
HETATM    5  C7  UNL     1       0.437 -27.934 -29.403  1.00  0.00    -0.003 C 
HETATM    6  C8  UNL     1       0.205 -27.107 -28.182  1.00  0.00     0.006 C 
HETATM    7  C9  UNL     1       0.748 -27.786 -26.917  1.00  0.00     0.009 C 
HETATM    8  C10 UNL     1       0.697 -29.253 -27.173  1.00  0.00     0.031 C 
HETATM    9  C11 UNL     1       0.742 -30.082 -25.894  1.00  0.00     0.060 C 
HETATM   10  C12 UNL     1      -0.529 -29.745 -25.123  1.00  0.00     0.018 C 
HETATM   11  C13 UNL     1       0.742 -31.500 -26.339  1.00  0.00     0.154 C 
HETATM   12  O2  UNL     1       0.806 -32.417 -25.550  1.00  0.00    -0.295 OA
HETATM   13  C14 UNL     1       0.658 -31.746 -27.799  1.00  0.00     0.247 C 
HETATM   14  O3  UNL     1       1.562 -31.013 -28.537  1.00  0.00    -0.372 OA
HETATM   15  C15 UNL     1       1.721 -29.701 -28.167  1.00  0.00     0.066 C 
HETATM   16  C16 UNL     1       3.099 -29.605 -27.494  1.00  0.00     0.047 C 
HETATM   17  C17 UNL     1       1.694 -28.770 -29.341  1.00  0.00     0.027 C 
HETATM   18  C18 UNL     1       2.907 -27.892 -29.447  1.00  0.00     0.040 C 
HETATM   19  C19 UNL     1       2.891 -27.296 -30.861  1.00  0.00     0.129 C 
HETATM   20  C20 UNL     1       1.674 -26.424 -30.989  1.00  0.00     0.012 C 
HETATM   21  C21 UNL     1       1.955 -25.120 -30.306  1.00  0.00     0.021 C 
ENDROOT
BRANCH   1  22
HETATM   22  O1  UNL     1       2.577 -25.737 -33.122  1.00  0.00    -0.385 OA
BRANCH  22  23
HETATM   23  C2  UNL     1       2.430 -24.684 -33.996  1.00  0.00     0.163 C 
HETATM   24  C1  UNL     1       1.110 -24.698 -34.736  1.00  0.00     0.033 C 
ENDBRANCH  22  23
ENDBRANCH   1  22
BRANCH  19  25
HETATM   25  O4  UNL     1       4.030 -26.520 -30.973  1.00  0.00    -0.395 OA
ATOM     26  H4  UNL     1       4.752 -27.056 -30.666  1.00  0.00     0.210 HD
ENDBRANCH  19  25
TORSDOF 3
ENDMDL
MODEL 5
REMARK VINA RESULT: -5.834277180      4.247      7.114
REMARK  3 active torsions:
REMARK  status: ('A' for Active; 'I' for Inactive)
REMARK    1  A    between atoms: C2_2  and  O1_3 
REMARK    2  A    between atoms: O1_3  and  C3_4 
REMARK    3  A    between atoms: C19_22  and  O4_23 
ROOT
HETATM    1  C3  UNL     1      -3.007 -27.178 -25.083  1.00  0.00     0.132 C 
HETATM    2  C4  UNL     1      -1.779 -26.810 -24.270  1.00  0.00     0.033 C 
HETATM    3  C5  UNL     1      -0.878 -26.140 -25.275  1.00  0.00     0.008 C 
HETATM    4  C6  UNL     1      -1.412 -26.475 -26.645  1.00  0.00     0.003 C 
HETATM    5  C7  UNL     1      -0.276 -26.749 -27.551  1.00  0.00    -0.003 C 
HETATM    6  C8  UNL     1      -0.687 -26.503 -28.965  1.00  0.00     0.006 C 
HETATM    7  C9  UNL     1       0.207 -27.253 -29.961  1.00  0.00     0.009 C 
HETATM    8  C10 UNL     1       1.536 -27.403 -29.303  1.00  0.00     0.031 C 
HETATM    9  C11 UNL     1       2.661 -27.686 -30.292  1.00  0.00     0.060 C 
HETATM   10  C12 UNL     1       2.768 -26.452 -31.181  1.00  0.00     0.018 C 
HETATM   11  C13 UNL     1       3.883 -27.862 -29.464  1.00  0.00     0.154 C 
HETATM   12  O2  UNL     1       4.955 -28.134 -29.958  1.00  0.00    -0.295 OA
HETATM   13  C14 UNL     1       3.733 -27.686 -28.000  1.00  0.00     0.247 C 
HETATM   14  O3  UNL     1       2.685 -28.399 -27.461  1.00  0.00    -0.372 OA
HETATM   15  C15 UNL     1       1.515 -28.390 -28.180  1.00  0.00     0.066 C 
HETATM   16  C16 UNL     1       1.373 -29.792 -28.793  1.00  0.00     0.047 C 
HETATM   17  C17 UNL     1       0.319 -28.118 -27.320  1.00  0.00     0.027 C 
HETATM   18  C18 UNL     1      -0.748 -29.170 -27.415  1.00  0.00     0.040 C 
HETATM   19  C19 UNL     1      -1.695 -28.937 -26.229  1.00  0.00     0.129 C 
HETATM   20  C20 UNL     1      -2.348 -27.596 -26.406  1.00  0.00     0.012 C 
HETATM   21  C21 UNL     1      -3.445 -27.735 -27.417  1.00  0.00     0.021 C 
ENDROOT
BRANCH   1  22
HETATM   22  O1  UNL     1      -3.734 -28.191 -24.517  1.00  0.00    -0.385 OA
BRANCH  22  23
HETATM   23  C2  UNL     1      -3.546 -28.351 -23.164  1.00  0.00     0.163 C 
HETATM   24  C1  UNL     1      -3.355 -29.794 -22.750  1.00  0.00     0.033 C 
ENDBRANCH  22  23
ENDBRANCH   1  22
BRANCH  19  25
HETATM   25  O4  UNL     1      -2.654 -29.931 -26.292  1.00  0.00    -0.395 OA
ATOM     26  H4  UNL     1      -2.422 -30.572 -25.630  1.00  0.00     0.210 HD
ENDBRANCH  19  25
TORSDOF 3
ENDMDL
