MODEL 1
REMARK VINA RESULT: -6.422268875      0.000      0.000
REMARK  7 active torsions:
REMARK  status: ('A' for Active; 'I' for Inactive)
REMARK    1  A    between atoms: N1_2  and  C3_4 
REMARK    2  A    between atoms: C3_4  and  N2_5 
REMARK    3  A    between atoms: N2_5  and  C4_7 
REMARK    4  A    between atoms: C6_9  and  C7_10 
REMARK    5  A    between atoms: C12_15  and  C13_16 
REMARK    6  A    between atoms: C17_20  and  O1_21 
REMARK    7  A    between atoms: O1_21  and  C18_22 
ROOT
HETATM    1  C4  UNL     1      57.549   7.067  35.680  1.00  0.00     0.064 A 
HETATM    2  C5  UNL     1      57.840   8.377  35.429  1.00  0.00     0.040 A 
HETATM    3  C6  UNL     1      58.622   8.777  34.383  1.00  0.00    -0.048 A 
HETATM    4  C11 UNL     1      59.116   7.790  33.564  1.00  0.00     0.018 A 
HETATM    5  C12 UNL     1      58.875   6.410  33.734  1.00  0.00    -0.014 A 
HETATM    6  C17 UNL     1      58.076   6.073  34.837  1.00  0.00     0.103 A 
ENDROOT
BRANCH   1   7
HETATM    7  N2  UNL     1      56.548   6.764  36.666  1.00  0.00    -0.363 N 
ATOM      8  H2  UNL     1      55.687   6.282  36.409  1.00  0.00     0.161 HD
BRANCH   7   9
HETATM    9  C3  UNL     1      56.800   7.167  38.042  1.00  0.00     0.394 C 
BRANCH   9  10
HETATM   10  N1  UNL     1      55.732   6.599  38.870  1.00  0.00     0.097 N 
HETATM   11  C1  UNL     1      56.302   5.486  39.627  1.00  0.00     0.311 C 
HETATM   12  C2  UNL     1      54.663   6.096  38.006  1.00  0.00     0.311 C 
ENDBRANCH   9  10
ENDBRANCH   7   9
ENDBRANCH   1   7
BRANCH   6  13
HETATM   13  O1  UNL     1      57.785   4.792  35.143  1.00  0.00    -0.339 OA
BRANCH  13  14
HETATM   14  C18 UNL     1      58.184   3.819  36.007  1.00  0.00     0.057 C 
HETATM   15  C19 UNL     1      58.857   2.569  35.567  1.00  0.00     0.045 C 
HETATM   16  C20 UNL     1      58.980   4.238  37.256  1.00  0.00     0.045 C 
HETATM   17  C21 UNL     1      56.845   3.301  36.698  1.00  0.00     0.045 C 
ENDBRANCH  13  14
ENDBRANCH   6  13
BRANCH   3  18
HETATM   18  C7  UNL     1      58.905  10.214  34.140  1.00  0.00    -0.024 C 
HETATM   19  C8  UNL     1      57.642  11.018  33.951  1.00  0.00     0.019 C 
HETATM   20  C9  UNL     1      59.790  10.801  35.211  1.00  0.00     0.019 C 
HETATM   21  C10 UNL     1      59.699  10.328  32.843  1.00  0.00     0.019 C 
ENDBRANCH   3  18
BRANCH   5  22
HETATM   22  C13 UNL     1      59.283   5.516  32.659  1.00  0.00    -0.021 C 
HETATM   23  C14 UNL     1      60.349   6.268  31.805  1.00  0.00     0.019 C 
HETATM   24  C15 UNL     1      59.935   4.221  32.906  1.00  0.00     0.019 C 
HETATM   25  C16 UNL     1      58.132   5.361  31.626  1.00  0.00     0.019 C 
ENDBRANCH   5  22
TORSDOF 7
ENDMDL
MODEL 2
REMARK VINA RESULT: -5.971078093      2.016      4.838
REMARK  7 active torsions:
REMARK  status: ('A' for Active; 'I' for Inactive)
REMARK    1  A    between atoms: N1_2  and  C3_4 
REMARK    2  A    between atoms: C3_4  and  N2_5 
REMARK    3  A    between atoms: N2_5  and  C4_7 
REMARK    4  A    between atoms: C6_9  and  C7_10 
REMARK    5  A    between atoms: C12_15  and  C13_16 
REMARK    6  A    between atoms: C17_20  and  O1_21 
REMARK    7  A    between atoms: O1_21  and  C18_22 
ROOT
HETATM    1  C4  UNL     1      58.412   6.262  33.635  1.00  0.00     0.064 A 
HETATM    2  C5  UNL     1      58.758   7.571  33.467  1.00  0.00     0.040 A 
HETATM    3  C6  UNL     1      58.469   8.539  34.387  1.00  0.00    -0.048 A 
HETATM    4  C11 UNL     1      57.803   8.140  35.521  1.00  0.00     0.018 A 
HETATM    5  C12 UNL     1      57.402   6.815  35.791  1.00  0.00    -0.014 A 
HETATM    6  C17 UNL     1      57.720   5.877  34.797  1.00  0.00     0.103 A 
ENDROOT
BRANCH   1   7
HETATM    7  N2  UNL     1      58.947   5.289  32.722  1.00  0.00    -0.363 N 
ATOM      8  H2  UNL     1      59.686   4.649  33.012  1.00  0.00     0.161 HD
BRANCH   7   9
HETATM    9  C3  UNL     1      58.404   5.245  31.373  1.00  0.00     0.394 C 
BRANCH   9  10
HETATM   10  N1  UNL     1      59.449   4.711  30.494  1.00  0.00     0.097 N 
HETATM   11  C1  UNL     1      60.642   5.537  30.672  1.00  0.00     0.311 C 
HETATM   12  C2  UNL     1      59.005   4.801  29.102  1.00  0.00     0.311 C 
ENDBRANCH   9  10
ENDBRANCH   7   9
ENDBRANCH   1   7
BRANCH   6  13
HETATM   13  O1  UNL     1      57.373   4.579  34.903  1.00  0.00    -0.339 OA
BRANCH  13  14
HETATM   14  C18 UNL     1      57.881   3.407  35.373  1.00  0.00     0.057 C 
HETATM   15  C19 UNL     1      59.297   3.247  35.792  1.00  0.00     0.045 C 
HETATM   16  C20 UNL     1      57.093   2.659  36.463  1.00  0.00     0.045 C 
HETATM   17  C21 UNL     1      57.728   2.374  34.169  1.00  0.00     0.045 C 
ENDBRANCH  13  14
ENDBRANCH   6  13
BRANCH   3  18
HETATM   18  C7  UNL     1      58.874   9.951  34.170  1.00  0.00    -0.024 C 
HETATM   19  C8  UNL     1      57.684  10.863  33.994  1.00  0.00     0.019 C 
HETATM   20  C9  UNL     1      59.802  10.442  35.252  1.00  0.00     0.019 C 
HETATM   21  C10 UNL     1      59.679  10.021  32.877  1.00  0.00     0.019 C 
ENDBRANCH   3  18
BRANCH   5  22
HETATM   22  C13 UNL     1      56.908   6.520  37.129  1.00  0.00    -0.021 C 
HETATM   23  C14 UNL     1      56.704   7.880  37.863  1.00  0.00     0.019 C 
HETATM   24  C15 UNL     1      55.628   5.837  37.372  1.00  0.00     0.019 C 
HETATM   25  C16 UNL     1      58.037   5.886  37.989  1.00  0.00     0.019 C 
ENDBRANCH   5  22
TORSDOF 7
ENDMDL
MODEL 3
REMARK VINA RESULT: -5.819843414      3.789      6.392
REMARK  7 active torsions:
REMARK  status: ('A' for Active; 'I' for Inactive)
REMARK    1  A    between atoms: N1_2  and  C3_4 
REMARK    2  A    between atoms: C3_4  and  N2_5 
REMARK    3  A    between atoms: N2_5  and  C4_7 
REMARK    4  A    between atoms: C6_9  and  C7_10 
REMARK    5  A    between atoms: C12_15  and  C13_16 
REMARK    6  A    between atoms: C17_20  and  O1_21 
REMARK    7  A    between atoms: O1_21  and  C18_22 
ROOT
HETATM    1  C4  UNL     1      61.348   8.835  32.254  1.00  0.00     0.064 A 
HETATM    2  C5  UNL     1      60.592   9.680  33.014  1.00  0.00     0.040 A 
HETATM    3  C6  UNL     1      59.420   9.299  33.604  1.00  0.00    -0.048 A 
HETATM    4  C11 UNL     1      59.018   8.000  33.405  1.00  0.00     0.018 A 
HETATM    5  C12 UNL     1      59.725   7.049  32.640  1.00  0.00    -0.014 A 
HETATM    6  C17 UNL     1      60.911   7.514  32.053  1.00  0.00     0.103 A 
ENDROOT
BRANCH   1   7
HETATM    7  N2  UNL     1      62.663   9.261  31.860  1.00  0.00    -0.363 N 
ATOM      8  H2  UNL     1      62.908   9.367  30.876  1.00  0.00     0.161 HD
BRANCH   7   9
HETATM    9  C3  UNL     1      63.636   9.535  32.908  1.00  0.00     0.394 C 
BRANCH   9  10
HETATM   10  N1  UNL     1      64.830   8.734  32.621  1.00  0.00     0.097 N 
HETATM   11  C1  UNL     1      64.984   8.672  31.168  1.00  0.00     0.311 C 
HETATM   12  C2  UNL     1      64.642   7.379  33.143  1.00  0.00     0.311 C 
ENDBRANCH   9  10
ENDBRANCH   7   9
ENDBRANCH   1   7
BRANCH   6  13
HETATM   13  O1  UNL     1      61.677   6.728  31.270  1.00  0.00    -0.339 OA
BRANCH  13  14
HETATM   14  C18 UNL     1      61.841   6.426  29.953  1.00  0.00     0.057 C 
HETATM   15  C19 UNL     1      60.909   5.548  29.199  1.00  0.00     0.045 C 
HETATM   16  C20 UNL     1      62.126   7.579  28.974  1.00  0.00     0.045 C 
HETATM   17  C21 UNL     1      63.232   5.651  29.874  1.00  0.00     0.045 C 
ENDBRANCH  13  14
ENDBRANCH   6  13
BRANCH   3  18
HETATM   18  C7  UNL     1      58.632  10.247  34.433  1.00  0.00    -0.024 C 
HETATM   19  C8  UNL     1      59.486  11.360  34.990  1.00  0.00     0.019 C 
HETATM   20  C9  UNL     1      57.432  10.778  33.691  1.00  0.00     0.019 C 
HETATM   21  C10 UNL     1      58.072   9.480  35.626  1.00  0.00     0.019 C 
ENDBRANCH   3  18
BRANCH   5  22
HETATM   22  C13 UNL     1      59.284   5.662  32.711  1.00  0.00    -0.021 C 
HETATM   23  C14 UNL     1      58.376   5.396  31.472  1.00  0.00     0.019 C 
HETATM   24  C15 UNL     1      60.218   4.528  32.666  1.00  0.00     0.019 C 
HETATM   25  C16 UNL     1      58.263   5.484  33.870  1.00  0.00     0.019 C 
ENDBRANCH   5  22
TORSDOF 7
ENDMDL
MODEL 4
REMARK VINA RESULT: -5.747171939      3.779      6.715
REMARK  7 active torsions:
REMARK  status: ('A' for Active; 'I' for Inactive)
REMARK    1  A    between atoms: N1_2  and  C3_4 
REMARK    2  A    between atoms: C3_4  and  N2_5 
REMARK    3  A    between atoms: N2_5  and  C4_7 
REMARK    4  A    between atoms: C6_9  and  C7_10 
REMARK    5  A    between atoms: C12_15  and  C13_16 
REMARK    6  A    between atoms: C17_20  and  O1_21 
REMARK    7  A    between atoms: O1_21  and  C18_22 
ROOT
HETATM    1  C4  UNL     1      61.578   8.450  32.602  1.00  0.00     0.064 A 
HETATM    2  C5  UNL     1      60.815   9.328  33.316  1.00  0.00     0.040 A 
HETATM    3  C6  UNL     1      59.516   9.076  33.657  1.00  0.00    -0.048 A 
HETATM    4  C11 UNL     1      58.989   7.874  33.250  1.00  0.00     0.018 A 
HETATM    5  C12 UNL     1      59.691   6.899  32.511  1.00  0.00    -0.014 A 
HETATM    6  C17 UNL     1      61.015   7.231  32.185  1.00  0.00     0.103 A 
ENDROOT
BRANCH   1   7
HETATM    7  N2  UNL     1      62.987   8.707  32.482  1.00  0.00    -0.363 N 
ATOM      8  H2  UNL     1      63.674   8.034  32.820  1.00  0.00     0.161 HD
BRANCH   7   9
HETATM    9  C3  UNL     1      63.404   9.957  31.864  1.00  0.00     0.394 C 
BRANCH   9  10
HETATM   10  N1  UNL     1      64.187   9.621  30.671  1.00  0.00     0.097 N 
HETATM   11  C1  UNL     1      65.596   9.851  30.987  1.00  0.00     0.311 C 
HETATM   12  C2  UNL     1      63.792  10.497  29.568  1.00  0.00     0.311 C 
ENDBRANCH   9  10
ENDBRANCH   7   9
ENDBRANCH   1   7
BRANCH   6  13
HETATM   13  O1  UNL     1      61.799   6.411  31.457  1.00  0.00    -0.339 OA
BRANCH  13  14
HETATM   14  C18 UNL     1      62.103   6.158  30.154  1.00  0.00     0.057 C 
HETATM   15  C19 UNL     1      61.679   4.922  29.447  1.00  0.00     0.045 C 
HETATM   16  C20 UNL     1      61.854   7.271  29.121  1.00  0.00     0.045 C 
HETATM   17  C21 UNL     1      63.695   6.092  30.104  1.00  0.00     0.045 C 
ENDBRANCH  13  14
ENDBRANCH   6  13
BRANCH   3  18
HETATM   18  C7  UNL     1      58.724  10.055  34.444  1.00  0.00    -0.024 C 
HETATM   19  C8  UNL     1      59.587  11.151  35.021  1.00  0.00     0.019 C 
HETATM   20  C9  UNL     1      57.568  10.610  33.651  1.00  0.00     0.019 C 
HETATM   21  C10 UNL     1      58.097   9.319  35.623  1.00  0.00     0.019 C 
ENDBRANCH   3  18
BRANCH   5  22
HETATM   22  C13 UNL     1      59.066   5.593  32.352  1.00  0.00    -0.021 C 
HETATM   23  C14 UNL     1      57.830   5.548  33.302  1.00  0.00     0.019 C 
HETATM   24  C15 UNL     1      58.497   5.133  31.076  1.00  0.00     0.019 C 
HETATM   25  C16 UNL     1      59.963   4.490  32.980  1.00  0.00     0.019 C 
ENDBRANCH   5  22
TORSDOF 7
ENDMDL
MODEL 5
REMARK VINA RESULT: -5.681150564      2.357      4.198
REMARK  7 active torsions:
REMARK  status: ('A' for Active; 'I' for Inactive)
REMARK    1  A    between atoms: N1_2  and  C3_4 
REMARK    2  A    between atoms: C3_4  and  N2_5 
REMARK    3  A    between atoms: N2_5  and  C4_7 
REMARK    4  A    between atoms: C6_9  and  C7_10 
REMARK    5  A    between atoms: C12_15  and  C13_16 
REMARK    6  A    between atoms: C17_20  and  O1_21 
REMARK    7  A    between atoms: O1_21  and  C18_22 
ROOT
HETATM    1  C4  UNL     1      59.501   8.282  33.557  1.00  0.00     0.064 A 
HETATM    2  C5  UNL     1      60.596   8.843  32.968  1.00  0.00     0.040 A 
HETATM    3  C6  UNL     1      61.412   8.159  32.113  1.00  0.00    -0.048 A 
HETATM    4  C11 UNL     1      61.082   6.850  31.854  1.00  0.00     0.018 A 
HETATM    5  C12 UNL     1      59.973   6.177  32.409  1.00  0.00    -0.014 A 
HETATM    6  C17 UNL     1      59.188   6.938  33.288  1.00  0.00     0.103 A 
ENDROOT
BRANCH   1   7
HETATM    7  N2  UNL     1      58.588   9.140  34.263  1.00  0.00    -0.363 N 
ATOM      8  H2  UNL     1      57.597   8.910  34.330  1.00  0.00     0.161 HD
BRANCH   7   9
HETATM    9  C3  UNL     1      59.121  10.345  34.880  1.00  0.00     0.394 C 
BRANCH   9  10
HETATM   10  N1  UNL     1      58.511  11.494  34.204  1.00  0.00     0.097 N 
HETATM   11  C1  UNL     1      59.078  12.707  34.792  1.00  0.00     0.311 C 
HETATM   12  C2  UNL     1      57.065  11.479  34.432  1.00  0.00     0.311 C 
ENDBRANCH   9  10
ENDBRANCH   7   9
ENDBRANCH   1   7
BRANCH   6  13
HETATM   13  O1  UNL     1      58.115   6.420  33.918  1.00  0.00    -0.339 OA
BRANCH  13  14
HETATM   14  C18 UNL     1      57.801   5.798  35.087  1.00  0.00     0.057 C 
HETATM   15  C19 UNL     1      58.727   4.867  35.783  1.00  0.00     0.045 C 
HETATM   16  C20 UNL     1      57.214   6.647  36.227  1.00  0.00     0.045 C 
HETATM   17  C21 UNL     1      56.538   4.886  34.748  1.00  0.00     0.045 C 
ENDBRANCH  13  14
ENDBRANCH   6  13
BRANCH   3  18
HETATM   18  C7  UNL     1      62.589   8.810  31.484  1.00  0.00    -0.024 C 
HETATM   19  C8  UNL     1      62.360   9.110  30.023  1.00  0.00     0.019 C 
HETATM   20  C9  UNL     1      63.025  10.036  32.247  1.00  0.00     0.019 C 
HETATM   21  C10 UNL     1      63.764   7.842  31.559  1.00  0.00     0.019 C 
ENDBRANCH   3  18
BRANCH   5  22
HETATM   22  C13 UNL     1      59.636   4.869  31.864  1.00  0.00    -0.021 C 
HETATM   23  C14 UNL     1      60.754   4.483  30.849  1.00  0.00     0.019 C 
HETATM   24  C15 UNL     1      59.538   3.661  32.698  1.00  0.00     0.019 C 
HETATM   25  C16 UNL     1      58.406   4.983  30.921  1.00  0.00     0.019 C 
ENDBRANCH   5  22
TORSDOF 7
ENDMDL
