MODEL 1
REMARK VINA RESULT: -7.832515148      0.000      0.000
REMARK  5 active torsions:
REMARK  status: ('A' for Active; 'I' for Inactive)
REMARK    1  A    between atoms: O1_1  and  C1_3 
REMARK    2  A    between atoms: C1_3  and  C2_4 
REMARK    3  A    between atoms: C4_6  and  C5_7 
REMARK    4  A    between atoms: C11_13  and  O2_14 
REMARK    5  A    between atoms: C13_18  and  C14_19 
ROOT
HETATM    1  C2  UNL     1      58.700   6.546  33.957  1.00  0.00    -0.004 A 
HETATM    2  C3  UNL     1      58.287   5.497  34.787  1.00  0.00     0.022 A 
HETATM    3  C4  UNL     1      57.588   5.682  35.945  1.00  0.00    -0.017 A 
HETATM    4  C11 UNL     1      57.306   7.020  36.260  1.00  0.00     0.108 A 
HETATM    5  C12 UNL     1      57.712   8.062  35.457  1.00  0.00     0.138 A 
HETATM    6  O3  UNL     1      57.588   9.380  35.533  1.00  0.00    -0.292 OA
HETATM    7  C13 UNL     1      58.159   9.972  34.526  1.00  0.00     0.129 A 
HETATM    8  N1  UNL     1      58.685   9.004  33.731  1.00  0.00    -0.337 N 
ATOM      9  H1  UNL     1      59.194   9.149  32.859  1.00  0.00     0.168 HD
HETATM   10  C20 UNL     1      58.411   7.815  34.306  1.00  0.00     0.079 A 
ENDROOT
BRANCH   3  11
HETATM   11  C5  UNL     1      57.426   4.607  36.927  1.00  0.00     0.021 C 
HETATM   12  C6  UNL     1      57.595   3.205  36.379  1.00  0.00     0.009 C 
HETATM   13  C7  UNL     1      57.811   2.262  37.572  1.00  0.00     0.001 C 
HETATM   14  C8  UNL     1      59.274   2.313  37.983  1.00  0.00     0.000 C 
HETATM   15  C9  UNL     1      59.702   3.729  37.724  1.00  0.00     0.001 C 
HETATM   16  C10 UNL     1      58.593   4.752  37.946  1.00  0.00     0.009 C 
ENDBRANCH   3  11
BRANCH   4  17
HETATM   17  O2  UNL     1      56.586   7.264  37.389  1.00  0.00    -0.357 OA
ATOM     18  H2  UNL     1      56.988   7.804  38.059  1.00  0.00     0.217 HD
ENDBRANCH   4  17
BRANCH   1  19
HETATM   19  C1  UNL     1      59.507   6.304  32.734  1.00  0.00     0.205 C 
BRANCH  19  20
HETATM   20  O1  UNL     1      60.656   7.123  33.016  1.00  0.00    -0.396 OA
ATOM     21  H1  UNL     1      60.911   6.773  33.862  1.00  0.00     0.209 HD
ENDBRANCH  19  20
ENDBRANCH   1  19
BRANCH   7  22
HETATM   22  C14 UNL     1      58.298  11.424  34.196  1.00  0.00     0.061 C 
HETATM   23  C15 UNL     1      56.957  12.069  34.447  1.00  0.00     0.013 C 
HETATM   24  C16 UNL     1      57.079  13.448  35.036  1.00  0.00     0.001 C 
HETATM   25  C17 UNL     1      58.254  14.163  34.404  1.00  0.00     0.000 C 
HETATM   26  C18 UNL     1      59.542  13.500  34.772  1.00  0.00     0.001 C 
HETATM   27  C19 UNL     1      59.391  12.013  35.015  1.00  0.00     0.013 C 
ENDBRANCH   7  22
TORSDOF 5
ENDMDL
MODEL 2
REMARK VINA RESULT: -7.562604371      1.419      2.840
REMARK  5 active torsions:
REMARK  status: ('A' for Active; 'I' for Inactive)
REMARK    1  A    between atoms: O1_1  and  C1_3 
REMARK    2  A    between atoms: C1_3  and  C2_4 
REMARK    3  A    between atoms: C4_6  and  C5_7 
REMARK    4  A    between atoms: C11_13  and  O2_14 
REMARK    5  A    between atoms: C13_18  and  C14_19 
ROOT
HETATM    1  C2  UNL     1      57.356   7.104  36.632  1.00  0.00    -0.004 A 
HETATM    2  C3  UNL     1      57.437   5.751  36.280  1.00  0.00     0.022 A 
HETATM    3  C4  UNL     1      57.839   5.314  35.050  1.00  0.00    -0.017 A 
HETATM    4  C11 UNL     1      58.167   6.328  34.139  1.00  0.00     0.108 A 
HETATM    5  C12 UNL     1      58.085   7.662  34.469  1.00  0.00     0.138 A 
HETATM    6  O3  UNL     1      58.320   8.786  33.805  1.00  0.00    -0.292 OA
HETATM    7  C13 UNL     1      58.084   9.833  34.541  1.00  0.00     0.129 A 
HETATM    8  N1  UNL     1      57.679   9.389  35.759  1.00  0.00    -0.337 N 
ATOM      9  H1  UNL     1      57.423   9.970  36.558  1.00  0.00     0.168 HD
HETATM   10  C20 UNL     1      57.676   8.041  35.719  1.00  0.00     0.079 A 
ENDROOT
BRANCH   3  11
HETATM   11  C5  UNL     1      57.638   3.926  34.623  1.00  0.00     0.021 C 
HETATM   12  C6  UNL     1      58.764   2.976  34.973  1.00  0.00     0.009 C 
HETATM   13  C7  UNL     1      58.223   1.545  34.841  1.00  0.00     0.001 C 
HETATM   14  C8  UNL     1      57.476   1.180  36.114  1.00  0.00     0.000 C 
HETATM   15  C9  UNL     1      56.842   2.462  36.574  1.00  0.00     0.001 C 
HETATM   16  C10 UNL     1      56.425   3.381  35.430  1.00  0.00     0.009 C 
ENDBRANCH   3  11
BRANCH   4  17
HETATM   17  O2  UNL     1      58.602   5.951  32.906  1.00  0.00    -0.357 OA
ATOM     18  H2  UNL     1      58.945   6.628  32.334  1.00  0.00     0.217 HD
ENDBRANCH   4  17
BRANCH   1  19
HETATM   19  C1  UNL     1      56.861   7.537  37.964  1.00  0.00     0.205 C 
BRANCH  19  20
HETATM   20  O1  UNL     1      55.463   7.225  37.834  1.00  0.00    -0.396 OA
ATOM     21  H1  UNL     1      55.340   6.673  38.597  1.00  0.00     0.209 HD
ENDBRANCH  19  20
ENDBRANCH   1  19
BRANCH   7  22
HETATM   22  C14 UNL     1      58.181  11.292  34.225  1.00  0.00     0.061 C 
HETATM   23  C15 UNL     1      56.841  11.908  34.542  1.00  0.00     0.013 C 
HETATM   24  C16 UNL     1      56.963  13.281  35.143  1.00  0.00     0.001 C 
HETATM   25  C17 UNL     1      58.096  14.026  34.470  1.00  0.00     0.000 C 
HETATM   26  C18 UNL     1      59.411  13.383  34.772  1.00  0.00     0.001 C 
HETATM   27  C19 UNL     1      59.298  11.891  35.002  1.00  0.00     0.013 C 
ENDBRANCH   7  22
TORSDOF 5
ENDMDL
MODEL 3
REMARK VINA RESULT: -7.457803519      2.895      4.884
REMARK  5 active torsions:
REMARK  status: ('A' for Active; 'I' for Inactive)
REMARK    1  A    between atoms: O1_1  and  C1_3 
REMARK    2  A    between atoms: C1_3  and  C2_4 
REMARK    3  A    between atoms: C4_6  and  C5_7 
REMARK    4  A    between atoms: C11_13  and  O2_14 
REMARK    5  A    between atoms: C13_18  and  C14_19 
ROOT
HETATM    1  C2  UNL     1      58.847   8.132  33.936  1.00  0.00    -0.004 A 
HETATM    2  C3  UNL     1      59.988   7.541  33.379  1.00  0.00     0.022 A 
HETATM    3  C4  UNL     1      60.988   8.250  32.778  1.00  0.00    -0.017 A 
HETATM    4  C11 UNL     1      60.794   9.639  32.749  1.00  0.00     0.108 A 
HETATM    5  C12 UNL     1      59.674  10.233  33.286  1.00  0.00     0.138 A 
HETATM    6  O3  UNL     1      59.256  11.489  33.375  1.00  0.00    -0.292 OA
HETATM    7  C13 UNL     1      58.101  11.566  33.968  1.00  0.00     0.129 A 
HETATM    8  N1  UNL     1      57.730  10.302  34.301  1.00  0.00    -0.337 N 
ATOM      9  H1  UNL     1      56.872  10.032  34.782  1.00  0.00     0.168 HD
HETATM   10  C20 UNL     1      58.703   9.470  33.878  1.00  0.00     0.079 A 
ENDROOT
BRANCH   3  11
HETATM   11  C5  UNL     1      62.011   7.595  31.958  1.00  0.00     0.021 C 
HETATM   12  C6  UNL     1      63.169   7.000  32.731  1.00  0.00     0.009 C 
HETATM   13  C7  UNL     1      63.896   6.021  31.797  1.00  0.00     0.001 C 
HETATM   14  C8  UNL     1      63.163   4.690  31.807  1.00  0.00     0.000 C 
HETATM   15  C9  UNL     1      61.712   5.047  31.966  1.00  0.00     0.001 C 
HETATM   16  C10 UNL     1      61.331   6.363  31.295  1.00  0.00     0.009 C 
ENDBRANCH   3  11
BRANCH   4  17
HETATM   17  O2  UNL     1      61.772  10.400  32.187  1.00  0.00    -0.357 OA
ATOM     18  H2  UNL     1      61.526  10.976  31.472  1.00  0.00     0.217 HD
ENDBRANCH   4  17
BRANCH   1  19
HETATM   19  C1  UNL     1      57.757   7.318  34.533  1.00  0.00     0.205 C 
BRANCH  19  20
HETATM   20  O1  UNL     1      57.633   7.954  35.818  1.00  0.00    -0.396 OA
ATOM     21  H1  UNL     1      57.435   7.201  36.362  1.00  0.00     0.209 HD
ENDBRANCH  19  20
ENDBRANCH   1  19
BRANCH   7  22
HETATM   22  C14 UNL     1      57.235  12.747  34.272  1.00  0.00     0.061 C 
HETATM   23  C15 UNL     1      56.054  12.244  35.066  1.00  0.00     0.013 C 
HETATM   24  C16 UNL     1      55.632  13.202  36.145  1.00  0.00     0.001 C 
HETATM   25  C17 UNL     1      55.763  14.622  35.637  1.00  0.00     0.000 C 
HETATM   26  C18 UNL     1      57.196  14.969  35.389  1.00  0.00     0.001 C 
HETATM   27  C19 UNL     1      58.033  13.770  34.998  1.00  0.00     0.013 C 
ENDBRANCH   7  22
TORSDOF 5
ENDMDL
MODEL 4
REMARK VINA RESULT: -7.375263089      3.235      5.777
REMARK  5 active torsions:
REMARK  status: ('A' for Active; 'I' for Inactive)
REMARK    1  A    between atoms: O1_1  and  C1_3 
REMARK    2  A    between atoms: C1_3  and  C2_4 
REMARK    3  A    between atoms: C4_6  and  C5_7 
REMARK    4  A    between atoms: C11_13  and  O2_14 
REMARK    5  A    between atoms: C13_18  and  C14_19 
ROOT
HETATM    1  C2  UNL     1      59.596   7.765  33.001  1.00  0.00    -0.004 A 
HETATM    2  C3  UNL     1      60.697   7.275  32.287  1.00  0.00     0.022 A 
HETATM    3  C4  UNL     1      61.780   8.037  31.955  1.00  0.00    -0.017 A 
HETATM    4  C11 UNL     1      61.718   9.372  32.380  1.00  0.00     0.108 A 
HETATM    5  C12 UNL     1      60.639   9.869  33.076  1.00  0.00     0.138 A 
HETATM    6  O3  UNL     1      60.337  11.063  33.568  1.00  0.00    -0.292 OA
HETATM    7  C13 UNL     1      59.173  11.060  34.148  1.00  0.00     0.129 A 
HETATM    8  N1  UNL     1      58.674   9.801  34.047  1.00  0.00    -0.337 N 
ATOM      9  H1  UNL     1      57.777   9.476  34.410  1.00  0.00     0.168 HD
HETATM   10  C20 UNL     1      59.580   9.057  33.381  1.00  0.00     0.079 A 
ENDROOT
BRANCH   3  11
HETATM   11  C5  UNL     1      62.768   7.583  30.972  1.00  0.00     0.021 C 
HETATM   12  C6  UNL     1      62.970   6.083  30.909  1.00  0.00     0.009 C 
HETATM   13  C7  UNL     1      63.688   5.767  29.588  1.00  0.00     0.001 C 
HETATM   14  C8  UNL     1      62.661   5.710  28.468  1.00  0.00     0.000 C 
HETATM   15  C9  UNL     1      61.627   6.736  28.836  1.00  0.00     0.001 C 
HETATM   16  C10 UNL     1      62.201   7.944  29.569  1.00  0.00     0.009 C 
ENDBRANCH   3  11
BRANCH   4  17
HETATM   17  O2  UNL     1      62.784  10.172  32.103  1.00  0.00    -0.357 OA
ATOM     18  H2  UNL     1      62.788  10.627  31.269  1.00  0.00     0.217 HD
ENDBRANCH   4  17
BRANCH   1  19
HETATM   19  C1  UNL     1      58.413   6.916  33.293  1.00  0.00     0.205 C 
BRANCH  19  20
HETATM   20  O1  UNL     1      58.305   7.104  34.716  1.00  0.00    -0.396 OA
ATOM     21  H1  UNL     1      58.397   6.207  35.014  1.00  0.00     0.209 HD
ENDBRANCH  19  20
ENDBRANCH   1  19
BRANCH   7  22
HETATM   22  C14 UNL     1      58.411  12.160  34.816  1.00  0.00     0.061 C 
HETATM   23  C15 UNL     1      59.286  13.389  34.789  1.00  0.00     0.013 C 
HETATM   24  C16 UNL     1      58.503  14.651  34.550  1.00  0.00     0.001 C 
HETATM   25  C17 UNL     1      57.183  14.571  35.286  1.00  0.00     0.000 C 
HETATM   26  C18 UNL     1      56.316  13.497  34.711  1.00  0.00     0.001 C 
HETATM   27  C19 UNL     1      57.112  12.353  34.119  1.00  0.00     0.013 C 
ENDBRANCH   7  22
TORSDOF 5
ENDMDL
MODEL 5
REMARK VINA RESULT: -7.290780036      3.454      5.195
REMARK  5 active torsions:
REMARK  status: ('A' for Active; 'I' for Inactive)
REMARK    1  A    between atoms: O1_1  and  C1_3 
REMARK    2  A    between atoms: C1_3  and  C2_4 
REMARK    3  A    between atoms: C4_6  and  C5_7 
REMARK    4  A    between atoms: C11_13  and  O2_14 
REMARK    5  A    between atoms: C13_18  and  C14_19 
ROOT
HETATM    1  C2  UNL     1      59.788   7.815  33.178  1.00  0.00    -0.004 A 
HETATM    2  C3  UNL     1      60.999   7.227  32.794  1.00  0.00     0.022 A 
HETATM    3  C4  UNL     1      62.209   7.851  32.901  1.00  0.00    -0.017 A 
HETATM    4  C11 UNL     1      62.160   9.150  33.428  1.00  0.00     0.108 A 
HETATM    5  C12 UNL     1      60.976   9.744  33.803  1.00  0.00     0.138 A 
HETATM    6  O3  UNL     1      60.665  10.932  34.304  1.00  0.00    -0.292 OA
HETATM    7  C13 UNL     1      59.383  11.051  34.488  1.00  0.00     0.129 A 
HETATM    8  N1  UNL     1      58.807   9.884  34.101  1.00  0.00    -0.337 N 
ATOM      9  H1  UNL     1      57.811   9.663  34.129  1.00  0.00     0.168 HD
HETATM   10  C20 UNL     1      59.793   9.068  33.673  1.00  0.00     0.079 A 
ENDROOT
BRANCH   3  11
HETATM   11  C5  UNL     1      63.404   7.333  32.231  1.00  0.00     0.021 C 
HETATM   12  C6  UNL     1      64.476   6.793  33.155  1.00  0.00     0.009 C 
HETATM   13  C7  UNL     1      65.428   5.935  32.310  1.00  0.00     0.001 C 
HETATM   14  C8  UNL     1      64.828   4.548  32.142  1.00  0.00     0.000 C 
HETATM   15  C9  UNL     1      63.344   4.772  32.077  1.00  0.00     0.001 C 
HETATM   16  C10 UNL     1      62.955   6.089  31.412  1.00  0.00     0.009 C 
ENDBRANCH   3  11
BRANCH   4  17
HETATM   17  O2  UNL     1      63.340   9.811  33.585  1.00  0.00    -0.357 OA
ATOM     18  H2  UNL     1      63.855   9.614  34.359  1.00  0.00     0.217 HD
ENDBRANCH   4  17
BRANCH   1  19
HETATM   19  C1  UNL     1      58.488   7.121  32.993  1.00  0.00     0.205 C 
BRANCH  19  20
HETATM   20  O1  UNL     1      58.096   6.936  34.366  1.00  0.00    -0.396 OA
ATOM     21  H1  UNL     1      57.831   6.024  34.346  1.00  0.00     0.209 HD
ENDBRANCH  19  20
ENDBRANCH   1  19
BRANCH   7  22
HETATM   22  C14 UNL     1      58.572  12.198  35.002  1.00  0.00     0.061 C 
HETATM   23  C15 UNL     1      59.401  13.447  34.822  1.00  0.00     0.013 C 
HETATM   24  C16 UNL     1      58.575  14.636  34.415  1.00  0.00     0.001 C 
HETATM   25  C17 UNL     1      57.249  14.601  35.145  1.00  0.00     0.000 C 
HETATM   26  C18 UNL     1      56.430  13.429  34.708  1.00  0.00     0.001 C 
HETATM   27  C19 UNL     1      57.275  12.249  34.276  1.00  0.00     0.013 C 
ENDBRANCH   7  22
TORSDOF 5
ENDMDL
