MODEL 1
REMARK VINA RESULT: -5.587969438      0.000      0.000
REMARK  3 active torsions:
REMARK  status: ('A' for Active; 'I' for Inactive)
REMARK    1  A    between atoms: C4_4  and  O1_5 
REMARK    2  A    between atoms: C5_7  and  C7_9 
REMARK    3  A    between atoms: C11_13  and  O2_14 
ROOT
HETATM    1  C1  UNL     1     -40.835   5.670  45.500  1.00  0.00     0.012 C 
HETATM    2  C2  UNL     1     -39.931   6.781  45.959  1.00  0.00     0.013 C 
HETATM    3  C3  UNL     1     -38.512   6.344  46.088  1.00  0.00     0.039 C 
HETATM    4  C4  UNL     1     -37.518   7.483  45.990  1.00  0.00     0.127 C 
HETATM    5  C5  UNL     1     -37.629   8.242  44.709  1.00  0.00    -0.013 C 
HETATM    6  C6  UNL     1     -37.838   9.733  44.936  1.00  0.00     0.018 C 
HETATM    7  C10 UNL     1     -38.848   7.733  43.971  1.00  0.00     0.044 C 
HETATM    8  C11 UNL     1     -40.014   7.899  44.955  1.00  0.00     0.122 C 
ENDROOT
BRANCH   5   9
HETATM    9  C7  UNL     1     -36.418   8.038  43.828  1.00  0.00    -0.012 C 
HETATM   10  C8  UNL     1     -36.803   7.134  42.666  1.00  0.00     0.010 C 
HETATM   11  C9  UNL     1     -35.901   9.317  43.251  1.00  0.00     0.010 C 
ENDBRANCH   5   9
BRANCH   4  12
HETATM   12  O1  UNL     1     -36.252   6.921  46.190  1.00  0.00    -0.395 OA
ATOM     13  H1  UNL     1     -36.393   6.088  46.626  1.00  0.00     0.210 HD
ENDBRANCH   4  12
BRANCH   8  14
HETATM   14  O2  UNL     1     -41.231   7.940  44.285  1.00  0.00    -0.395 OA
ATOM     15  H2  UNL     1     -41.588   7.076  44.113  1.00  0.00     0.210 HD
ENDBRANCH   8  14
TORSDOF 3
ENDMDL
MODEL 2
REMARK VINA RESULT: -5.457139046      8.933     10.725
REMARK  3 active torsions:
REMARK  status: ('A' for Active; 'I' for Inactive)
REMARK    1  A    between atoms: C4_4  and  O1_5 
REMARK    2  A    between atoms: C5_7  and  C7_9 
REMARK    3  A    between atoms: C11_13  and  O2_14 
ROOT
HETATM    1  C1  UNL     1     -36.412  13.118  50.026  1.00  0.00     0.012 C 
HETATM    2  C2  UNL     1     -37.159  14.325  50.526  1.00  0.00     0.013 C 
HETATM    3  C3  UNL     1     -38.608  14.283  50.176  1.00  0.00     0.039 C 
HETATM    4  C4  UNL     1     -39.474  15.123  51.091  1.00  0.00     0.127 C 
HETATM    5  C5  UNL     1     -39.358  14.728  52.526  1.00  0.00    -0.013 C 
HETATM    6  C6  UNL     1     -38.973  15.899  53.419  1.00  0.00     0.018 C 
HETATM    7  C10 UNL     1     -38.250  13.704  52.638  1.00  0.00     0.044 C 
HETATM    8  C11 UNL     1     -37.015  14.378  52.023  1.00  0.00     0.122 C 
ENDROOT
BRANCH   5   9
HETATM    9  C7  UNL     1     -40.636  14.106  53.043  1.00  0.00    -0.012 C 
HETATM   10  C8  UNL     1     -40.322  12.718  53.583  1.00  0.00     0.010 C 
HETATM   11  C9  UNL     1     -41.253  14.894  54.154  1.00  0.00     0.010 C 
ENDBRANCH   5   9
BRANCH   4  12
HETATM   12  O1  UNL     1     -40.780  15.027  50.596  1.00  0.00    -0.395 OA
ATOM     13  H1  UNL     1     -41.202  14.330  51.085  1.00  0.00     0.210 HD
ENDBRANCH   4  12
BRANCH   8  14
HETATM   14  O2  UNL     1     -35.844  13.785  52.478  1.00  0.00    -0.395 OA
ATOM     15  H2  UNL     1     -35.486  13.153  51.866  1.00  0.00     0.210 HD
ENDBRANCH   8  14
TORSDOF 3
ENDMDL
MODEL 3
REMARK VINA RESULT: -5.394857990      1.792      3.889
REMARK  3 active torsions:
REMARK  status: ('A' for Active; 'I' for Inactive)
REMARK    1  A    between atoms: C4_4  and  O1_5 
REMARK    2  A    between atoms: C5_7  and  C7_9 
REMARK    3  A    between atoms: C11_13  and  O2_14 
ROOT
HETATM    1  C1  UNL     1     -34.783   6.868  46.116  1.00  0.00     0.012 C 
HETATM    2  C2  UNL     1     -35.564   7.915  45.369  1.00  0.00     0.013 C 
HETATM    3  C3  UNL     1     -36.022   7.438  44.032  1.00  0.00     0.039 C 
HETATM    4  C4  UNL     1     -37.229   8.185  43.506  1.00  0.00     0.127 C 
HETATM    5  C5  UNL     1     -38.404   8.112  44.424  1.00  0.00    -0.013 C 
HETATM    6  C6  UNL     1     -38.931   9.489  44.801  1.00  0.00     0.018 C 
HETATM    7  C10 UNL     1     -37.952   7.446  45.706  1.00  0.00     0.044 C 
HETATM    8  C11 UNL     1     -36.764   8.285  46.197  1.00  0.00     0.122 C 
ENDROOT
BRANCH   5   9
HETATM    9  C7  UNL     1     -39.529   7.293  43.833  1.00  0.00    -0.012 C 
HETATM   10  C8  UNL     1     -40.018   6.303  44.880  1.00  0.00     0.010 C 
HETATM   11  C9  UNL     1     -40.699   8.129  43.423  1.00  0.00     0.010 C 
ENDBRANCH   5   9
BRANCH   4  12
HETATM   12  O1  UNL     1     -37.491   7.666  42.233  1.00  0.00    -0.395 OA
ATOM     13  H1  UNL     1     -36.845   8.046  41.649  1.00  0.00     0.210 HD
ENDBRANCH   4  12
BRANCH   8  14
HETATM   14  O2  UNL     1     -36.559   8.109  47.561  1.00  0.00    -0.395 OA
ATOM     15  H2  UNL     1     -37.307   7.725  48.002  1.00  0.00     0.210 HD
ENDBRANCH   8  14
TORSDOF 3
ENDMDL
MODEL 4
REMARK VINA RESULT: -5.350012293      9.680     11.390
REMARK  3 active torsions:
REMARK  status: ('A' for Active; 'I' for Inactive)
REMARK    1  A    between atoms: C4_4  and  O1_5 
REMARK    2  A    between atoms: C5_7  and  C7_9 
REMARK    3  A    between atoms: C11_13  and  O2_14 
ROOT
HETATM    1  C1  UNL     1     -37.307  13.687  50.402  1.00  0.00     0.012 C 
HETATM    2  C2  UNL     1     -38.044  14.824  51.057  1.00  0.00     0.013 C 
HETATM    3  C3  UNL     1     -39.511  14.778  50.795  1.00  0.00     0.039 C 
HETATM    4  C4  UNL     1     -40.333  15.510  51.835  1.00  0.00     0.127 C 
HETATM    5  C5  UNL     1     -40.117  14.990  53.218  1.00  0.00    -0.013 C 
HETATM    6  C6  UNL     1     -39.699  16.084  54.189  1.00  0.00     0.018 C 
HETATM    7  C10 UNL     1     -38.985  13.988  53.166  1.00  0.00     0.044 C 
HETATM    8  C11 UNL     1     -37.806  14.745  52.541  1.00  0.00     0.122 C 
ENDROOT
BRANCH   5   9
HETATM    9  C7  UNL     1     -41.348  14.293  53.753  1.00  0.00    -0.012 C 
HETATM   10  C8  UNL     1     -41.066  12.800  53.840  1.00  0.00     0.010 C 
HETATM   11  C9  UNL     1     -41.727  14.761  55.122  1.00  0.00     0.010 C 
ENDBRANCH   5   9
BRANCH   4  12
HETATM   12  O1  UNL     1     -41.666  15.427  51.415  1.00  0.00    -0.395 OA
ATOM     13  H1  UNL     1     -42.199  15.656  52.168  1.00  0.00     0.210 HD
ENDBRANCH   4  12
BRANCH   8  14
HETATM   14  O2  UNL     1     -36.596  14.142  52.866  1.00  0.00    -0.395 OA
ATOM     15  H2  UNL     1     -36.127  14.599  53.554  1.00  0.00     0.210 HD
ENDBRANCH   8  14
TORSDOF 3
ENDMDL
MODEL 5
REMARK VINA RESULT: -5.334397720      3.578      5.726
REMARK  3 active torsions:
REMARK  status: ('A' for Active; 'I' for Inactive)
REMARK    1  A    between atoms: C4_4  and  O1_5 
REMARK    2  A    between atoms: C5_7  and  C7_9 
REMARK    3  A    between atoms: C11_13  and  O2_14 
ROOT
HETATM    1  C1  UNL     1     -37.019  13.857  41.879  1.00  0.00     0.012 C 
HETATM    2  C2  UNL     1     -36.361  13.450  43.170  1.00  0.00     0.013 C 
HETATM    3  C3  UNL     1     -37.350  13.181  44.253  1.00  0.00     0.039 C 
HETATM    4  C4  UNL     1     -36.823  12.264  45.337  1.00  0.00     0.127 C 
HETATM    5  C5  UNL     1     -36.376  10.940  44.812  1.00  0.00    -0.013 C 
HETATM    6  C6  UNL     1     -34.938  10.620  45.197  1.00  0.00     0.018 C 
HETATM    7  C10 UNL     1     -36.426  10.998  43.301  1.00  0.00     0.044 C 
HETATM    8  C11 UNL     1     -35.558  12.204  42.915  1.00  0.00     0.122 C 
ENDROOT
BRANCH   5   9
HETATM    9  C7  UNL     1     -37.277   9.818  45.276  1.00  0.00    -0.012 C 
HETATM   10  C8  UNL     1     -37.756   9.038  44.060  1.00  0.00     0.010 C 
HETATM   11  C9  UNL     1     -36.579   8.854  46.182  1.00  0.00     0.010 C 
ENDBRANCH   5   9
BRANCH   4  12
HETATM   12  O1  UNL     1     -37.838  12.163  46.296  1.00  0.00    -0.395 OA
ATOM     13  H1  UNL     1     -38.641  11.986  45.820  1.00  0.00     0.210 HD
ENDBRANCH   4  12
BRANCH   8  14
HETATM   14  O2  UNL     1     -35.116  12.101  41.601  1.00  0.00    -0.395 OA
ATOM     15  H2  UNL     1     -35.807  11.862  40.995  1.00  0.00     0.210 HD
ENDBRANCH   8  14
TORSDOF 3
ENDMDL
