MODEL 1
REMARK VINA RESULT: -6.733668023      0.000      0.000
REMARK  6 active torsions:
REMARK  status: ('A' for Active; 'I' for Inactive)
REMARK    1  A    between atoms: C2_2  and  O1_5 
REMARK    2  A    between atoms: O1_5  and  C5_6 
REMARK       I    between atoms: C5_6  and  N1_8 
REMARK    3  A    between atoms: C8_12  and  C9_13 
REMARK    4  A    between atoms: C9_13  and  C10_14 
REMARK       I    between atoms: C10_14  and  N2_16 
REMARK    5  A    between atoms: N2_16  and  C11_18 
REMARK    6  A    between atoms: C11_18  and  C12_19 
ROOT
HETATM    1  C5  UNL     1      -5.199   2.732  14.513  1.00  0.00     0.363 C 
HETATM    2  O2  UNL     1      -4.870   1.612  14.017  1.00  0.00    -0.238 OA
HETATM    3  N1  UNL     1      -4.407   3.899  14.351  1.00  0.00    -0.326 N 
HETATM    4  C6  UNL     1      -4.820   5.131  14.928  1.00  0.00     0.138 C 
HETATM    5  C7  UNL     1      -3.845   6.260  14.748  1.00  0.00     0.094 C 
HETATM    6  S1  UNL     1      -3.272   6.382  13.019  1.00  0.00    -0.161 SA
HETATM    7  C8  UNL     1      -3.287   4.681  12.371  1.00  0.00     0.074 C 
HETATM    8  C15 UNL     1      -3.185   3.777  13.587  1.00  0.00     0.143 C 
ENDROOT
BRANCH   7   9
HETATM    9  C9  UNL     1      -2.111   4.419  11.467  1.00  0.00     0.119 C 
BRANCH   9  10
HETATM   10  C10 UNL     1      -1.660   3.026  11.493  1.00  0.00     0.218 C 
HETATM   11  O3  UNL     1      -0.506   2.689  11.860  1.00  0.00    -0.274 OA
HETATM   12  N2  UNL     1      -2.550   2.000  11.091  1.00  0.00    -0.361 N 
ATOM     13  H2  UNL     1      -3.486   2.264  10.785  1.00  0.00     0.162 HD
BRANCH  12  14
HETATM   14  C11 UNL     1      -2.197   0.596  11.090  1.00  0.00     0.127 C 
BRANCH  14  15
HETATM   15  C12 UNL     1      -3.364  -0.198  10.567  1.00  0.00     0.003 A 
HETATM   16  C13 UNL     1      -4.754   0.184  10.959  1.00  0.00     0.007 A 
HETATM   17  C14 UNL     1      -4.108  -0.941  11.659  1.00  0.00     0.007 A 
ENDBRANCH  14  15
ENDBRANCH  12  14
ENDBRANCH   9  10
ENDBRANCH   7   9
BRANCH   1  18
HETATM   18  O1  UNL     1      -6.396   2.735  15.231  1.00  0.00    -0.294 OA
BRANCH  18  19
HETATM   19  C2  UNL     1      -6.448   2.330  16.604  1.00  0.00     0.061 C 
HETATM   20  C1  UNL     1      -5.124   1.869  17.118  1.00  0.00     0.046 C 
HETATM   21  C3  UNL     1      -7.447   1.205  16.707  1.00  0.00     0.046 C 
HETATM   22  C4  UNL     1      -6.948   3.518  17.389  1.00  0.00     0.046 C 
ENDBRANCH  18  19
ENDBRANCH   1  18
TORSDOF 6
ENDMDL
MODEL 2
REMARK VINA RESULT: -6.707183460      2.775      4.216
REMARK  6 active torsions:
REMARK  status: ('A' for Active; 'I' for Inactive)
REMARK    1  A    between atoms: C2_2  and  O1_5 
REMARK    2  A    between atoms: O1_5  and  C5_6 
REMARK       I    between atoms: C5_6  and  N1_8 
REMARK    3  A    between atoms: C8_12  and  C9_13 
REMARK    4  A    between atoms: C9_13  and  C10_14 
REMARK       I    between atoms: C10_14  and  N2_16 
REMARK    5  A    between atoms: N2_16  and  C11_18 
REMARK    6  A    between atoms: C11_18  and  C12_19 
ROOT
HETATM    1  C5  UNL     1      -4.610   1.329  15.430  1.00  0.00     0.363 C 
HETATM    2  O2  UNL     1      -5.153   0.344  14.844  1.00  0.00    -0.238 OA
HETATM    3  N1  UNL     1      -3.766   2.247  14.753  1.00  0.00    -0.326 N 
HETATM    4  C6  UNL     1      -3.180   3.335  15.457  1.00  0.00     0.138 C 
HETATM    5  C7  UNL     1      -2.245   4.176  14.635  1.00  0.00     0.094 C 
HETATM    6  S1  UNL     1      -2.981   4.619  13.024  1.00  0.00    -0.161 SA
HETATM    7  C8  UNL     1      -4.068   3.229  12.577  1.00  0.00     0.074 C 
HETATM    8  C15 UNL     1      -3.536   2.029  13.342  1.00  0.00     0.143 C 
ENDROOT
BRANCH   7   9
HETATM    9  C9  UNL     1      -4.014   2.931  11.102  1.00  0.00     0.119 C 
BRANCH   9  10
HETATM   10  C10 UNL     1      -4.128   4.127  10.265  1.00  0.00     0.218 C 
HETATM   11  O3  UNL     1      -3.566   4.235   9.147  1.00  0.00    -0.274 OA
HETATM   12  N2  UNL     1      -4.902   5.222  10.722  1.00  0.00    -0.361 N 
ATOM     13  H2  UNL     1      -5.357   5.148  11.632  1.00  0.00     0.162 HD
BRANCH  12  14
HETATM   14  C11 UNL     1      -5.080   6.443   9.963  1.00  0.00     0.127 C 
BRANCH  14  15
HETATM   15  C12 UNL     1      -5.611   7.512  10.880  1.00  0.00     0.003 A 
HETATM   16  C13 UNL     1      -7.079   7.597  11.145  1.00  0.00     0.007 A 
HETATM   17  C14 UNL     1      -6.484   8.522  10.162  1.00  0.00     0.007 A 
ENDBRANCH  14  15
ENDBRANCH  12  14
ENDBRANCH   9  10
ENDBRANCH   7   9
BRANCH   1  18
HETATM   18  O1  UNL     1      -4.899   1.443  16.791  1.00  0.00    -0.294 OA
BRANCH  18  19
HETATM   19  C2  UNL     1      -6.175   1.903  17.251  1.00  0.00     0.061 C 
HETATM   20  C1  UNL     1      -6.634   3.132  16.539  1.00  0.00     0.046 C 
HETATM   21  C3  UNL     1      -6.048   2.194  18.725  1.00  0.00     0.046 C 
HETATM   22  C4  UNL     1      -7.146   0.767  17.046  1.00  0.00     0.046 C 
ENDBRANCH  18  19
ENDBRANCH   1  18
TORSDOF 6
ENDMDL
MODEL 3
REMARK VINA RESULT: -6.666816250      2.246      5.571
REMARK  6 active torsions:
REMARK  status: ('A' for Active; 'I' for Inactive)
REMARK    1  A    between atoms: C2_2  and  O1_5 
REMARK    2  A    between atoms: O1_5  and  C5_6 
REMARK       I    between atoms: C5_6  and  N1_8 
REMARK    3  A    between atoms: C8_12  and  C9_13 
REMARK    4  A    between atoms: C9_13  and  C10_14 
REMARK       I    between atoms: C10_14  and  N2_16 
REMARK    5  A    between atoms: N2_16  and  C11_18 
REMARK    6  A    between atoms: C11_18  and  C12_19 
ROOT
HETATM    1  C5  UNL     1      -1.725   4.811  13.536  1.00  0.00     0.363 C 
HETATM    2  O2  UNL     1      -1.392   4.209  14.601  1.00  0.00    -0.238 OA
HETATM    3  N1  UNL     1      -2.300   4.135  12.428  1.00  0.00    -0.326 N 
HETATM    4  C6  UNL     1      -2.655   4.857  11.256  1.00  0.00     0.138 C 
HETATM    5  C7  UNL     1      -3.174   4.003  10.133  1.00  0.00     0.094 C 
HETATM    6  S1  UNL     1      -4.442   2.826  10.717  1.00  0.00    -0.161 SA
HETATM    7  C8  UNL     1      -3.992   2.426  12.435  1.00  0.00     0.074 C 
HETATM    8  C15 UNL     1      -2.504   2.708  12.547  1.00  0.00     0.143 C 
ENDROOT
BRANCH   7   9
HETATM    9  C9  UNL     1      -4.238   0.973  12.751  1.00  0.00     0.119 C 
BRANCH   9  10
HETATM   10  C10 UNL     1      -4.467   0.722  14.176  1.00  0.00     0.218 C 
HETATM   11  O3  UNL     1      -4.729  -0.418  14.635  1.00  0.00    -0.274 OA
HETATM   12  N2  UNL     1      -4.395   1.800  15.092  1.00  0.00    -0.361 N 
ATOM     13  H2  UNL     1      -4.189   2.731  14.729  1.00  0.00     0.162 HD
BRANCH  12  14
HETATM   14  C11 UNL     1      -4.600   1.649  16.517  1.00  0.00     0.127 C 
BRANCH  14  15
HETATM   15  C12 UNL     1      -5.955   2.197  16.875  1.00  0.00     0.003 A 
HETATM   16  C13 UNL     1      -6.436   2.117  18.287  1.00  0.00     0.007 A 
HETATM   17  C14 UNL     1      -6.928   1.122  17.317  1.00  0.00     0.007 A 
ENDBRANCH  14  15
ENDBRANCH  12  14
ENDBRANCH   9  10
ENDBRANCH   7   9
BRANCH   1  18
HETATM   18  O1  UNL     1      -1.482   6.186  13.530  1.00  0.00    -0.294 OA
BRANCH  18  19
HETATM   19  C2  UNL     1      -2.458   7.122  14.001  1.00  0.00     0.061 C 
HETATM   20  C1  UNL     1      -3.654   6.455  14.596  1.00  0.00     0.046 C 
HETATM   21  C3  UNL     1      -2.885   7.964  12.825  1.00  0.00     0.046 C 
HETATM   22  C4  UNL     1      -1.766   7.995  15.019  1.00  0.00     0.046 C 
ENDBRANCH  18  19
ENDBRANCH   1  18
TORSDOF 6
ENDMDL
MODEL 4
REMARK VINA RESULT: -6.665819316      3.861      6.490
REMARK  6 active torsions:
REMARK  status: ('A' for Active; 'I' for Inactive)
REMARK    1  A    between atoms: C2_2  and  O1_5 
REMARK    2  A    between atoms: O1_5  and  C5_6 
REMARK       I    between atoms: C5_6  and  N1_8 
REMARK    3  A    between atoms: C8_12  and  C9_13 
REMARK    4  A    between atoms: C9_13  and  C10_14 
REMARK       I    between atoms: C10_14  and  N2_16 
REMARK    5  A    between atoms: N2_16  and  C11_18 
REMARK    6  A    between atoms: C11_18  and  C12_19 
ROOT
HETATM    1  C5  UNL     1      -6.061   6.482  10.675  1.00  0.00     0.363 C 
HETATM    2  O2  UNL     1      -6.828   6.869  11.608  1.00  0.00    -0.238 OA
HETATM    3  N1  UNL     1      -4.685   6.206  10.885  1.00  0.00    -0.326 N 
HETATM    4  C6  UNL     1      -3.868   5.775   9.804  1.00  0.00     0.138 C 
HETATM    5  C7  UNL     1      -2.416   5.602  10.153  1.00  0.00     0.094 C 
HETATM    6  S1  UNL     1      -2.205   4.648  11.695  1.00  0.00    -0.161 SA
HETATM    7  C8  UNL     1      -3.659   5.038  12.720  1.00  0.00     0.074 C 
HETATM    8  C15 UNL     1      -4.164   6.381  12.223  1.00  0.00     0.143 C 
ENDROOT
BRANCH   7   9
HETATM    9  C9  UNL     1      -3.295   5.163  14.177  1.00  0.00     0.119 C 
BRANCH   9  10
HETATM   10  C10 UNL     1      -3.492   3.923  14.931  1.00  0.00     0.218 C 
HETATM   11  O3  UNL     1      -2.539   3.230  15.368  1.00  0.00    -0.274 OA
HETATM   12  N2  UNL     1      -4.809   3.468  15.187  1.00  0.00    -0.361 N 
ATOM     13  H2  UNL     1      -5.590   4.019  14.832  1.00  0.00     0.162 HD
BRANCH  12  14
HETATM   14  C11 UNL     1      -5.103   2.260  15.929  1.00  0.00     0.127 C 
BRANCH  14  15
HETATM   15  C12 UNL     1      -6.312   2.501  16.792  1.00  0.00     0.003 A 
HETATM   16  C13 UNL     1      -6.329   2.001  18.199  1.00  0.00     0.007 A 
HETATM   17  C14 UNL     1      -7.035   1.222  17.166  1.00  0.00     0.007 A 
ENDBRANCH  14  15
ENDBRANCH  12  14
ENDBRANCH   9  10
ENDBRANCH   7   9
BRANCH   1  18
HETATM   18  O1  UNL     1      -6.668   6.347   9.425  1.00  0.00    -0.294 OA
BRANCH  18  19
HETATM   19  C2  UNL     1      -6.958   7.485   8.605  1.00  0.00     0.061 C 
HETATM   20  C1  UNL     1      -6.406   8.754   9.166  1.00  0.00     0.046 C 
HETATM   21  C3  UNL     1      -8.457   7.595   8.494  1.00  0.00     0.046 C 
HETATM   22  C4  UNL     1      -6.374   7.199   7.243  1.00  0.00     0.046 C 
ENDBRANCH  18  19
ENDBRANCH   1  18
TORSDOF 6
ENDMDL
MODEL 5
REMARK VINA RESULT: -6.655087678      2.801      6.009
REMARK  6 active torsions:
REMARK  status: ('A' for Active; 'I' for Inactive)
REMARK    1  A    between atoms: C2_2  and  O1_5 
REMARK    2  A    between atoms: O1_5  and  C5_6 
REMARK       I    between atoms: C5_6  and  N1_8 
REMARK    3  A    between atoms: C8_12  and  C9_13 
REMARK    4  A    between atoms: C9_13  and  C10_14 
REMARK       I    between atoms: C10_14  and  N2_16 
REMARK    5  A    between atoms: N2_16  and  C11_18 
REMARK    6  A    between atoms: C11_18  and  C12_19 
ROOT
HETATM    1  C5  UNL     1      -2.997   5.516  13.641  1.00  0.00     0.363 C 
HETATM    2  O2  UNL     1      -2.482   5.294  14.778  1.00  0.00    -0.238 OA
HETATM    3  N1  UNL     1      -3.298   4.474  12.725  1.00  0.00    -0.326 N 
HETATM    4  C6  UNL     1      -3.876   4.777  11.462  1.00  0.00     0.138 C 
HETATM    5  C7  UNL     1      -4.062   3.588  10.562  1.00  0.00     0.094 C 
HETATM    6  S1  UNL     1      -4.847   2.195  11.445  1.00  0.00    -0.161 SA
HETATM    7  C8  UNL     1      -4.293   2.331  13.174  1.00  0.00     0.074 C 
HETATM    8  C15 UNL     1      -2.996   3.119  13.129  1.00  0.00     0.143 C 
ENDROOT
BRANCH   7   9
HETATM    9  C9  UNL     1      -4.022   0.979  13.780  1.00  0.00     0.119 C 
BRANCH   9  10
HETATM   10  C10 UNL     1      -4.170   0.956  15.236  1.00  0.00     0.218 C 
HETATM   11  O3  UNL     1      -3.242   1.274  16.022  1.00  0.00    -0.274 OA
HETATM   12  N2  UNL     1      -5.407   0.561  15.803  1.00  0.00    -0.361 N 
ATOM     13  H2  UNL     1      -6.165   0.296  15.174  1.00  0.00     0.162 HD
BRANCH  12  14
HETATM   14  C11 UNL     1      -5.651   0.515  17.229  1.00  0.00     0.127 C 
BRANCH  14  15
HETATM   15  C12 UNL     1      -6.799   1.430  17.556  1.00  0.00     0.003 A 
HETATM   16  C13 UNL     1      -6.760   2.856  17.110  1.00  0.00     0.007 A 
HETATM   17  C14 UNL     1      -6.412   2.545  18.509  1.00  0.00     0.007 A 
ENDBRANCH  14  15
ENDBRANCH  12  14
ENDBRANCH   9  10
ENDBRANCH   7   9
BRANCH   1  18
HETATM   18  O1  UNL     1      -3.246   6.859  13.354  1.00  0.00    -0.294 OA
BRANCH  18  19
HETATM   19  C2  UNL     1      -2.188   7.765  13.023  1.00  0.00     0.061 C 
HETATM   20  C1  UNL     1      -0.923   7.061  12.658  1.00  0.00     0.046 C 
HETATM   21  C3  UNL     1      -1.946   8.641  14.226  1.00  0.00     0.046 C 
HETATM   22  C4  UNL     1      -2.684   8.612  11.877  1.00  0.00     0.046 C 
ENDBRANCH  18  19
ENDBRANCH   1  18
TORSDOF 6
ENDMDL
