MODEL 1
REMARK VINA RESULT: -6.963214885      0.000      0.000
REMARK  5 active torsions:
REMARK  status: ('A' for Active; 'I' for Inactive)
REMARK    1  A    between atoms: C7_9  and  C8_10 
REMARK    2  A    between atoms: C8_10  and  N3_11 
REMARK       I    between atoms: N3_11  and  C9_13 
REMARK    3  A    between atoms: C9_13  and  O2_15 
REMARK    4  A    between atoms: O2_15  and  C10_16 
REMARK    5  A    between atoms: C10_16  and  C11_17 
ROOT
HETATM    1  N3  UNL     1      -3.621   1.416  13.231  1.00  0.00    -0.336 N 
ATOM      2  H3  UNL     1      -3.505   2.125  13.954  1.00  0.00     0.164 HD
HETATM    3  C9  UNL     1      -4.238   0.165  13.548  1.00  0.00     0.360 C 
HETATM    4  O1  UNL     1      -4.385  -0.721  12.658  1.00  0.00    -0.239 OA
ENDROOT
BRANCH   1   5
HETATM    5  C8  UNL     1      -3.161   1.673  11.883  1.00  0.00     0.133 C 
BRANCH   5   6
HETATM    6  C7  UNL     1      -3.435   3.096  11.472  1.00  0.00     0.065 C 
HETATM    7  C6  UNL     1      -2.192   3.779  10.947  1.00  0.00     0.231 C 
HETATM    8  N1  UNL     1      -1.133   3.814  11.908  1.00  0.00     0.091 N 
HETATM    9  C5  UNL     1      -2.573   5.154  10.441  1.00  0.00     0.066 C 
HETATM   10  C1  UNL     1       0.122   3.587  11.214  1.00  0.00     0.310 C 
HETATM   11  C2  UNL     1      -1.014   5.048  12.625  1.00  0.00     0.302 C 
HETATM   12  C3  UNL     1      -2.243   5.514  13.304  1.00  0.00     0.302 C 
HETATM   13  N2  UNL     1      -3.470   5.209  12.646  1.00  0.00     0.090 N 
HETATM   14  C4  UNL     1      -3.588   5.791  11.334  1.00  0.00     0.274 C 
HETATM   15  C17 UNL     1      -3.869   3.845  12.717  1.00  0.00     0.280 C 
ENDBRANCH   5   6
ENDBRANCH   1   5
BRANCH   3  16
HETATM   16  O2  UNL     1      -4.691  -0.127  14.808  1.00  0.00    -0.304 OA
BRANCH  16  17
HETATM   17  C10 UNL     1      -4.786   0.826  15.849  1.00  0.00     0.185 C 
BRANCH  17  18
HETATM   18  C11 UNL     1      -6.191   1.387  15.895  1.00  0.00     0.010 C 
HETATM   19  C12 UNL     1      -6.145   2.865  15.676  1.00  0.00     0.007 C 
HETATM   20  C13 UNL     1      -6.850   3.557  16.828  1.00  0.00     0.000 C 
HETATM   21  C14 UNL     1      -6.162   3.124  18.101  1.00  0.00     0.000 C 
HETATM   22  C15 UNL     1      -6.561   1.687  18.357  1.00  0.00     0.000 C 
HETATM   23  C16 UNL     1      -6.947   0.961  17.105  1.00  0.00     0.007 C 
ENDBRANCH  17  18
ENDBRANCH  16  17
ENDBRANCH   3  16
TORSDOF 5
ENDMDL
MODEL 2
REMARK VINA RESULT: -6.831736440      0.765      2.070
REMARK  5 active torsions:
REMARK  status: ('A' for Active; 'I' for Inactive)
REMARK    1  A    between atoms: C7_9  and  C8_10 
REMARK    2  A    between atoms: C8_10  and  N3_11 
REMARK       I    between atoms: N3_11  and  C9_13 
REMARK    3  A    between atoms: C9_13  and  O2_15 
REMARK    4  A    between atoms: O2_15  and  C10_16 
REMARK    5  A    between atoms: C10_16  and  C11_17 
ROOT
HETATM    1  N3  UNL     1      -3.635   1.532  13.217  1.00  0.00    -0.336 N 
ATOM      2  H3  UNL     1      -3.492   2.197  13.976  1.00  0.00     0.164 HD
HETATM    3  C9  UNL     1      -4.256   0.270  13.478  1.00  0.00     0.360 C 
HETATM    4  O1  UNL     1      -4.436  -0.562  12.543  1.00  0.00    -0.239 OA
ENDROOT
BRANCH   1   5
HETATM    5  C8  UNL     1      -3.211   1.863  11.874  1.00  0.00     0.133 C 
BRANCH   5   6
HETATM    6  C7  UNL     1      -2.081   2.859  11.885  1.00  0.00     0.065 C 
HETATM    7  C6  UNL     1      -2.441   4.109  12.659  1.00  0.00     0.231 C 
HETATM    8  N1  UNL     1      -3.588   4.778  12.127  1.00  0.00     0.091 N 
HETATM    9  C5  UNL     1      -1.220   5.001  12.731  1.00  0.00     0.066 C 
HETATM   10  C1  UNL     1      -4.380   5.279  13.236  1.00  0.00     0.310 C 
HETATM   11  C2  UNL     1      -3.292   5.885  11.270  1.00  0.00     0.302 C 
HETATM   12  C3  UNL     1      -2.385   5.593  10.138  1.00  0.00     0.302 C 
HETATM   13  N2  UNL     1      -1.375   4.619  10.385  1.00  0.00     0.090 N 
HETATM   14  C4  UNL     1      -0.465   4.980  11.441  1.00  0.00     0.274 C 
HETATM   15  C17 UNL     1      -1.838   3.275  10.447  1.00  0.00     0.280 C 
ENDBRANCH   5   6
ENDBRANCH   1   5
BRANCH   3  16
HETATM   16  O2  UNL     1      -4.675  -0.091  14.732  1.00  0.00    -0.304 OA
BRANCH  16  17
HETATM   17  C10 UNL     1      -4.778   0.812  15.816  1.00  0.00     0.185 C 
BRANCH  17  18
HETATM   18  C11 UNL     1      -6.190   1.350  15.895  1.00  0.00     0.010 C 
HETATM   19  C12 UNL     1      -6.174   2.828  15.676  1.00  0.00     0.007 C 
HETATM   20  C13 UNL     1      -6.863   3.509  16.844  1.00  0.00     0.000 C 
HETATM   21  C14 UNL     1      -6.138   3.087  18.100  1.00  0.00     0.000 C 
HETATM   22  C15 UNL     1      -6.508   1.644  18.365  1.00  0.00     0.000 C 
HETATM   23  C16 UNL     1      -6.911   0.911  17.122  1.00  0.00     0.007 C 
ENDBRANCH  17  18
ENDBRANCH  16  17
ENDBRANCH   3  16
TORSDOF 5
ENDMDL
MODEL 3
REMARK VINA RESULT: -6.808331885      1.123      2.354
REMARK  5 active torsions:
REMARK  status: ('A' for Active; 'I' for Inactive)
REMARK    1  A    between atoms: C7_9  and  C8_10 
REMARK    2  A    between atoms: C8_10  and  N3_11 
REMARK       I    between atoms: N3_11  and  C9_13 
REMARK    3  A    between atoms: C9_13  and  O2_15 
REMARK    4  A    between atoms: O2_15  and  C10_16 
REMARK    5  A    between atoms: C10_16  and  C11_17 
ROOT
HETATM    1  N3  UNL     1      -3.781   1.575  13.187  1.00  0.00    -0.336 N 
ATOM      2  H3  UNL     1      -3.726   2.288  13.914  1.00  0.00     0.164 HD
HETATM    3  C9  UNL     1      -4.271   0.269  13.501  1.00  0.00     0.360 C 
HETATM    4  O1  UNL     1      -4.341  -0.621  12.606  1.00  0.00    -0.239 OA
ENDROOT
BRANCH   1   5
HETATM    5  C8  UNL     1      -3.362   1.885  11.837  1.00  0.00     0.133 C 
BRANCH   5   6
HETATM    6  C7  UNL     1      -2.082   2.678  11.827  1.00  0.00     0.065 C 
HETATM    7  C6  UNL     1      -2.322   4.128  11.471  1.00  0.00     0.231 C 
HETATM    8  N1  UNL     1      -2.928   4.289  10.185  1.00  0.00     0.091 N 
HETATM    9  C5  UNL     1      -1.016   4.882  11.604  1.00  0.00     0.066 C 
HETATM   10  C1  UNL     1      -3.895   5.369  10.267  1.00  0.00     0.310 C 
HETATM   11  C2  UNL     1      -2.016   4.604   9.128  1.00  0.00     0.302 C 
HETATM   12  C3  UNL     1      -0.877   3.673   8.967  1.00  0.00     0.302 C 
HETATM   13  N2  UNL     1      -0.374   3.094  10.168  1.00  0.00     0.090 N 
HETATM   14  C4  UNL     1       0.130   4.057  11.112  1.00  0.00     0.274 C 
HETATM   15  C17 UNL     1      -1.200   2.089  10.744  1.00  0.00     0.280 C 
ENDBRANCH   5   6
ENDBRANCH   1   5
BRANCH   3  16
HETATM   16  O2  UNL     1      -4.679  -0.074  14.763  1.00  0.00    -0.304 OA
BRANCH  16  17
HETATM   17  C10 UNL     1      -4.780   0.846  15.833  1.00  0.00     0.185 C 
BRANCH  17  18
HETATM   18  C11 UNL     1      -6.199   1.365  15.924  1.00  0.00     0.010 C 
HETATM   19  C12 UNL     1      -6.206   2.841  15.690  1.00  0.00     0.007 C 
HETATM   20  C13 UNL     1      -6.892   3.522  16.860  1.00  0.00     0.000 C 
HETATM   21  C14 UNL     1      -6.147   3.123  18.112  1.00  0.00     0.000 C 
HETATM   22  C15 UNL     1      -6.493   1.677  18.394  1.00  0.00     0.000 C 
HETATM   23  C16 UNL     1      -6.899   0.927  17.162  1.00  0.00     0.007 C 
ENDBRANCH  17  18
ENDBRANCH  16  17
ENDBRANCH   3  16
TORSDOF 5
ENDMDL
MODEL 4
REMARK VINA RESULT: -6.714032445      1.632      2.915
REMARK  5 active torsions:
REMARK  status: ('A' for Active; 'I' for Inactive)
REMARK    1  A    between atoms: C7_9  and  C8_10 
REMARK    2  A    between atoms: C8_10  and  N3_11 
REMARK       I    between atoms: N3_11  and  C9_13 
REMARK    3  A    between atoms: C9_13  and  O2_15 
REMARK    4  A    between atoms: O2_15  and  C10_16 
REMARK    5  A    between atoms: C10_16  and  C11_17 
ROOT
HETATM    1  N3  UNL     1      -2.695   1.575  12.299  1.00  0.00    -0.336 N 
ATOM      2  H3  UNL     1      -2.171   1.819  13.139  1.00  0.00     0.164 HD
HETATM    3  C9  UNL     1      -4.058   1.153  12.403  1.00  0.00     0.360 C 
HETATM    4  O1  UNL     1      -4.715   0.847  11.368  1.00  0.00    -0.239 OA
ENDROOT
BRANCH   1   5
HETATM    5  C8  UNL     1      -2.061   1.654  11.001  1.00  0.00     0.133 C 
BRANCH   5   6
HETATM    6  C7  UNL     1      -1.299   2.943  10.840  1.00  0.00     0.065 C 
HETATM    7  C6  UNL     1      -2.164   4.148  11.139  1.00  0.00     0.231 C 
HETATM    8  N1  UNL     1      -3.313   4.228  10.291  1.00  0.00     0.091 N 
HETATM    9  C5  UNL     1      -1.301   5.390  11.078  1.00  0.00     0.066 C 
HETATM   10  C1  UNL     1      -4.436   4.694  11.085  1.00  0.00     0.310 C 
HETATM   11  C2  UNL     1      -3.175   5.114   9.175  1.00  0.00     0.302 C 
HETATM   12  C3  UNL     1      -2.001   4.871   8.308  1.00  0.00     0.302 C 
HETATM   13  N2  UNL     1      -0.830   4.396   8.966  1.00  0.00     0.090 N 
HETATM   14  C4  UNL     1      -0.313   5.301   9.959  1.00  0.00     0.274 C 
HETATM   15  C17 UNL     1      -0.883   3.037   9.385  1.00  0.00     0.280 C 
ENDBRANCH   5   6
ENDBRANCH   1   5
BRANCH   3  16
HETATM   16  O2  UNL     1      -4.704   1.062  13.608  1.00  0.00    -0.304 OA
BRANCH  16  17
HETATM   17  C10 UNL     1      -5.123   2.184  14.362  1.00  0.00     0.185 C 
BRANCH  17  18
HETATM   18  C11 UNL     1      -4.801   1.962  15.823  1.00  0.00     0.010 C 
HETATM   19  C12 UNL     1      -4.978   0.516  16.159  1.00  0.00     0.007 C 
HETATM   20  C13 UNL     1      -5.934   0.394  17.331  1.00  0.00     0.000 C 
HETATM   21  C14 UNL     1      -7.222   1.073  16.931  1.00  0.00     0.000 C 
HETATM   22  C15 UNL     1      -6.963   2.564  16.941  1.00  0.00     0.000 C 
HETATM   23  C16 UNL     1      -5.519   2.902  16.727  1.00  0.00     0.007 C 
ENDBRANCH  17  18
ENDBRANCH  16  17
ENDBRANCH   3  16
TORSDOF 5
ENDMDL
MODEL 5
REMARK VINA RESULT: -6.643727491      1.320      1.911
REMARK  5 active torsions:
REMARK  status: ('A' for Active; 'I' for Inactive)
REMARK    1  A    between atoms: C7_9  and  C8_10 
REMARK    2  A    between atoms: C8_10  and  N3_11 
REMARK       I    between atoms: N3_11  and  C9_13 
REMARK    3  A    between atoms: C9_13  and  O2_15 
REMARK    4  A    between atoms: O2_15  and  C10_16 
REMARK    5  A    between atoms: C10_16  and  C11_17 
ROOT
HETATM    1  N3  UNL     1      -2.923   1.778  12.510  1.00  0.00    -0.336 N 
ATOM      2  H3  UNL     1      -2.714   2.594  13.084  1.00  0.00     0.164 HD
HETATM    3  C9  UNL     1      -3.979   0.889  12.885  1.00  0.00     0.360 C 
HETATM    4  O1  UNL     1      -4.244  -0.125  12.180  1.00  0.00    -0.239 OA
ENDROOT
BRANCH   1   5
HETATM    5  C8  UNL     1      -2.150   1.517  11.314  1.00  0.00     0.133 C 
BRANCH   5   6
HETATM    6  C7  UNL     1      -2.361   2.591  10.279  1.00  0.00     0.065 C 
HETATM    7  C6  UNL     1      -1.071   3.302   9.936  1.00  0.00     0.231 C 
HETATM    8  N1  UNL     1      -0.463   3.924  11.073  1.00  0.00     0.091 N 
HETATM    9  C5  UNL     1      -1.340   4.274   8.808  1.00  0.00     0.066 C 
HETATM   10  C1  UNL     1       0.975   3.754  10.972  1.00  0.00     0.310 C 
HETATM   11  C2  UNL     1      -0.726   5.326  11.201  1.00  0.00     0.302 C 
HETATM   12  C3  UNL     1      -2.154   5.712  11.195  1.00  0.00     0.302 C 
HETATM   13  N2  UNL     1      -3.010   4.918  10.378  1.00  0.00     0.090 N 
HETATM   14  C4  UNL     1      -2.666   4.941   8.980  1.00  0.00     0.274 C 
HETATM   15  C17 UNL     1      -3.294   3.620  10.887  1.00  0.00     0.280 C 
ENDBRANCH   5   6
ENDBRANCH   1   5
BRANCH   3  16
HETATM   16  O2  UNL     1      -4.739   1.092  14.007  1.00  0.00    -0.304 OA
BRANCH  16  17
HETATM   17  C10 UNL     1      -5.238   2.356  14.400  1.00  0.00     0.185 C 
BRANCH  17  18
HETATM   18  C11 UNL     1      -5.078   2.523  15.895  1.00  0.00     0.010 C 
HETATM   19  C12 UNL     1      -4.656   1.222  16.499  1.00  0.00     0.007 C 
HETATM   20  C13 UNL     1      -5.629   0.852  17.603  1.00  0.00     0.000 C 
HETATM   21  C14 UNL     1      -7.007   0.801  16.987  1.00  0.00     0.000 C 
HETATM   22  C15 UNL     1      -7.428   2.229  16.717  1.00  0.00     0.000 C 
HETATM   23  C16 UNL     1      -6.262   3.153  16.540  1.00  0.00     0.007 C 
ENDBRANCH  17  18
ENDBRANCH  16  17
ENDBRANCH   3  16
TORSDOF 5
ENDMDL
