MODEL 1
REMARK VINA RESULT: -6.463134008      0.000      0.000
REMARK  6 active torsions:
REMARK  status: ('A' for Active; 'I' for Inactive)
REMARK    1  A    between atoms: C2_2  and  C4_4 
REMARK    2  A    between atoms: C4_4  and  C5_5 
REMARK    3  A    between atoms: C5_5  and  O1_6 
REMARK    4  A    between atoms: N1_10  and  C8_11 
REMARK    5  A    between atoms: C8_11  and  N2_13 
REMARK    6  A    between atoms: N2_13  and  C9_15 
ROOT
HETATM    1  C5  UNL     1      -4.533   1.145  15.572  1.00  0.00     0.064 C 
HETATM    2  C6  UNL     1      -4.928   2.629  15.711  1.00  0.00     0.058 C 
HETATM    3  C7  UNL     1      -5.572   3.039  14.434  1.00  0.00     0.128 C 
HETATM    4  N1  UNL     1      -4.596   2.999  13.382  1.00  0.00    -0.358 N 
HETATM    5  C13 UNL     1      -3.797   1.802  13.269  1.00  0.00     0.128 C 
HETATM    6  C14 UNL     1      -4.423   0.703  14.159  1.00  0.00     0.058 C 
ENDROOT
BRANCH   4   7
HETATM    7  C8  UNL     1      -4.439   4.086  12.508  1.00  0.00     0.170 C 
HETATM    8  S1  UNL     1      -4.115   3.775  10.924  1.00  0.00    -0.041 SA
BRANCH   7   9
HETATM    9  N2  UNL     1      -4.541   5.443  12.906  1.00  0.00    -0.359 N 
ATOM     10  H2  UNL     1      -5.367   5.983  12.645  1.00  0.00     0.162 HD
BRANCH   9  11
HETATM   11  C9  UNL     1      -3.504   6.066  13.669  1.00  0.00     0.021 C 
HETATM   12  C10 UNL     1      -2.307   5.185  13.881  1.00  0.00     0.037 C 
HETATM   13  C11 UNL     1      -3.998   6.474  15.050  1.00  0.00     0.037 C 
HETATM   14  C12 UNL     1      -3.059   7.320  12.959  1.00  0.00     0.037 C 
ENDBRANCH   9  11
ENDBRANCH   7   9
ENDBRANCH   4   7
BRANCH   1  15
HETATM   15  C4  UNL     1      -5.595   0.373  16.318  1.00  0.00     0.070 C 
BRANCH  15  16
HETATM   16  C2  UNL     1      -6.446   1.218  17.191  1.00  0.00    -0.090 C 
HETATM   17  C1  UNL     1      -7.738   1.367  16.855  1.00  0.00     0.014 C 
HETATM   18  C3  UNL     1      -5.983   1.904  18.416  1.00  0.00     0.042 C 
ENDBRANCH  15  16
ENDBRANCH   1  15
BRANCH   1  19
HETATM   19  O1  UNL     1      -3.352   0.984  16.314  1.00  0.00    -0.389 OA
ATOM     20  H1  UNL     1      -3.208   1.814  16.753  1.00  0.00     0.210 HD
ENDBRANCH   1  19
TORSDOF 6
ENDMDL
MODEL 2
REMARK VINA RESULT: -6.410974265      1.650      1.813
REMARK  6 active torsions:
REMARK  status: ('A' for Active; 'I' for Inactive)
REMARK    1  A    between atoms: C2_2  and  C4_4 
REMARK    2  A    between atoms: C4_4  and  C5_5 
REMARK    3  A    between atoms: C5_5  and  O1_6 
REMARK    4  A    between atoms: N1_10  and  C8_11 
REMARK    5  A    between atoms: C8_11  and  N2_13 
REMARK    6  A    between atoms: N2_13  and  C9_15 
ROOT
HETATM    1  C5  UNL     1      -4.255   1.624  15.806  1.00  0.00     0.064 C 
HETATM    2  C6  UNL     1      -3.161   2.710  15.848  1.00  0.00     0.058 C 
HETATM    3  C7  UNL     1      -3.602   3.820  14.962  1.00  0.00     0.128 C 
HETATM    4  N1  UNL     1      -3.628   3.355  13.604  1.00  0.00    -0.358 N 
HETATM    5  C13 UNL     1      -4.304   2.105  13.348  1.00  0.00     0.128 C 
HETATM    6  C14 UNL     1      -5.120   1.718  14.603  1.00  0.00     0.058 C 
ENDROOT
BRANCH   4   7
HETATM    7  C8  UNL     1      -3.018   4.096  12.580  1.00  0.00     0.170 C 
HETATM    8  S1  UNL     1      -1.383   3.992  12.408  1.00  0.00    -0.041 SA
BRANCH   7   9
HETATM    9  N2  UNL     1      -3.724   4.934  11.681  1.00  0.00    -0.359 N 
ATOM     10  H2  UNL     1      -3.849   4.640  10.712  1.00  0.00     0.162 HD
BRANCH   9  11
HETATM   11  C9  UNL     1      -4.263   6.187  12.113  1.00  0.00     0.021 C 
HETATM   12  C10 UNL     1      -3.351   6.944  13.034  1.00  0.00     0.037 C 
HETATM   13  C11 UNL     1      -5.579   6.000  12.854  1.00  0.00     0.037 C 
HETATM   14  C12 UNL     1      -4.543   7.042  10.903  1.00  0.00     0.037 C 
ENDBRANCH   9  11
ENDBRANCH   7   9
ENDBRANCH   4   7
BRANCH   1  15
HETATM   15  C4  UNL     1      -5.046   1.800  17.080  1.00  0.00     0.070 C 
BRANCH  15  16
HETATM   16  C2  UNL     1      -6.454   2.209  16.859  1.00  0.00    -0.090 C 
HETATM   17  C1  UNL     1      -7.396   1.252  16.867  1.00  0.00     0.014 C 
HETATM   18  C3  UNL     1      -6.905   3.600  16.640  1.00  0.00     0.042 C 
ENDBRANCH  15  16
ENDBRANCH   1  15
BRANCH   1  19
HETATM   19  O1  UNL     1      -3.589   0.394  15.936  1.00  0.00    -0.389 OA
ATOM     20  H1  UNL     1      -4.261  -0.273  15.851  1.00  0.00     0.210 HD
ENDBRANCH   1  19
TORSDOF 6
ENDMDL
MODEL 3
REMARK VINA RESULT: -6.373116385      1.375      1.767
REMARK  6 active torsions:
REMARK  status: ('A' for Active; 'I' for Inactive)
REMARK    1  A    between atoms: C2_2  and  C4_4 
REMARK    2  A    between atoms: C4_4  and  C5_5 
REMARK    3  A    between atoms: C5_5  and  O1_6 
REMARK    4  A    between atoms: N1_10  and  C8_11 
REMARK    5  A    between atoms: C8_11  and  N2_13 
REMARK    6  A    between atoms: N2_13  and  C9_15 
ROOT
HETATM    1  C5  UNL     1      -4.289   1.589  15.837  1.00  0.00     0.064 C 
HETATM    2  C6  UNL     1      -3.242   2.721  15.875  1.00  0.00     0.058 C 
HETATM    3  C7  UNL     1      -3.733   3.811  14.989  1.00  0.00     0.128 C 
HETATM    4  N1  UNL     1      -3.744   3.343  13.632  1.00  0.00    -0.358 N 
HETATM    5  C13 UNL     1      -4.367   2.065  13.379  1.00  0.00     0.128 C 
HETATM    6  C14 UNL     1      -5.161   1.645  14.637  1.00  0.00     0.058 C 
ENDROOT
BRANCH   4   7
HETATM    7  C8  UNL     1      -3.168   4.108  12.605  1.00  0.00     0.170 C 
HETATM    8  S1  UNL     1      -3.685   3.860  11.062  1.00  0.00    -0.041 SA
BRANCH   7   9
HETATM    9  N2  UNL     1      -2.164   5.086  12.816  1.00  0.00    -0.359 N 
ATOM     10  H2  UNL     1      -1.193   4.793  12.932  1.00  0.00     0.162 HD
BRANCH   9  11
HETATM   11  C9  UNL     1      -2.490   6.478  12.867  1.00  0.00     0.021 C 
HETATM   12  C10 UNL     1      -3.963   6.750  12.762  1.00  0.00     0.037 C 
HETATM   13  C11 UNL     1      -1.820   7.248  11.737  1.00  0.00     0.037 C 
HETATM   14  C12 UNL     1      -1.986   7.052  14.167  1.00  0.00     0.037 C 
ENDBRANCH   9  11
ENDBRANCH   7   9
ENDBRANCH   4   7
BRANCH   1  15
HETATM   15  C4  UNL     1      -5.082   1.732  17.114  1.00  0.00     0.070 C 
BRANCH  15  16
HETATM   16  C2  UNL     1      -6.491   2.142  16.900  1.00  0.00    -0.090 C 
HETATM   17  C1  UNL     1      -7.429   1.181  16.879  1.00  0.00     0.014 C 
HETATM   18  C3  UNL     1      -6.948   3.536  16.719  1.00  0.00     0.042 C 
ENDBRANCH  15  16
ENDBRANCH   1  15
BRANCH   1  19
HETATM   19  O1  UNL     1      -3.570   0.388  15.966  1.00  0.00    -0.389 OA
ATOM     20  H1  UNL     1      -2.767   0.514  15.474  1.00  0.00     0.210 HD
ENDBRANCH   1  19
TORSDOF 6
ENDMDL
MODEL 4
REMARK VINA RESULT: -6.323724804      1.230      1.321
REMARK  6 active torsions:
REMARK  status: ('A' for Active; 'I' for Inactive)
REMARK    1  A    between atoms: C2_2  and  C4_4 
REMARK    2  A    between atoms: C4_4  and  C5_5 
REMARK    3  A    between atoms: C5_5  and  O1_6 
REMARK    4  A    between atoms: N1_10  and  C8_11 
REMARK    5  A    between atoms: C8_11  and  N2_13 
REMARK    6  A    between atoms: N2_13  and  C9_15 
ROOT
HETATM    1  C5  UNL     1      -4.360   1.709  15.820  1.00  0.00     0.064 C 
HETATM    2  C6  UNL     1      -3.561   3.028  15.806  1.00  0.00     0.058 C 
HETATM    3  C7  UNL     1      -4.301   3.987  14.942  1.00  0.00     0.128 C 
HETATM    4  N1  UNL     1      -4.279   3.510  13.588  1.00  0.00    -0.358 N 
HETATM    5  C13 UNL     1      -4.644   2.131  13.367  1.00  0.00     0.128 C 
HETATM    6  C14 UNL     1      -5.280   1.575  14.663  1.00  0.00     0.058 C 
ENDROOT
BRANCH   4   7
HETATM    7  C8  UNL     1      -3.917   4.363  12.534  1.00  0.00     0.170 C 
HETATM    8  S1  UNL     1      -3.897   3.752  11.005  1.00  0.00    -0.041 SA
BRANCH   7   9
HETATM    9  N2  UNL     1      -3.562   5.726  12.704  1.00  0.00    -0.359 N 
ATOM     10  H2  UNL     1      -4.289   6.442  12.674  1.00  0.00     0.162 HD
BRANCH   9  11
HETATM   11  C9  UNL     1      -2.201   6.111  12.919  1.00  0.00     0.021 C 
HETATM   12  C10 UNL     1      -1.263   4.945  13.036  1.00  0.00     0.037 C 
HETATM   13  C11 UNL     1      -2.050   6.927  14.195  1.00  0.00     0.037 C 
HETATM   14  C12 UNL     1      -1.751   6.979  11.771  1.00  0.00     0.037 C 
ENDBRANCH   9  11
ENDBRANCH   7   9
ENDBRANCH   4   7
BRANCH   1  15
HETATM   15  C4  UNL     1      -5.108   1.705  17.133  1.00  0.00     0.070 C 
BRANCH  15  16
HETATM   16  C2  UNL     1      -6.538   2.076  17.008  1.00  0.00    -0.090 C 
HETATM   17  C1  UNL     1      -7.443   1.085  16.958  1.00  0.00     0.014 C 
HETATM   18  C3  UNL     1      -7.049   3.462  16.946  1.00  0.00     0.042 C 
ENDBRANCH  15  16
ENDBRANCH   1  15
BRANCH   1  19
HETATM   19  O1  UNL     1      -3.411   0.678  15.919  1.00  0.00    -0.389 OA
ATOM     20  H1  UNL     1      -2.971   0.652  15.077  1.00  0.00     0.210 HD
ENDBRANCH   1  19
TORSDOF 6
ENDMDL
MODEL 5
REMARK VINA RESULT: -6.282400432      1.390      1.610
REMARK  6 active torsions:
REMARK  status: ('A' for Active; 'I' for Inactive)
REMARK    1  A    between atoms: C2_2  and  C4_4 
REMARK    2  A    between atoms: C4_4  and  C5_5 
REMARK    3  A    between atoms: C5_5  and  O1_6 
REMARK    4  A    between atoms: N1_10  and  C8_11 
REMARK    5  A    between atoms: C8_11  and  N2_13 
REMARK    6  A    between atoms: N2_13  and  C9_15 
ROOT
HETATM    1  C5  UNL     1      -4.282   1.591  15.834  1.00  0.00     0.064 C 
HETATM    2  C6  UNL     1      -3.212   2.699  15.911  1.00  0.00     0.058 C 
HETATM    3  C7  UNL     1      -3.674   3.824  15.054  1.00  0.00     0.128 C 
HETATM    4  N1  UNL     1      -3.685   3.395  13.684  1.00  0.00    -0.358 N 
HETATM    5  C13 UNL     1      -4.333   2.139  13.390  1.00  0.00     0.128 C 
HETATM    6  C14 UNL     1      -5.145   1.699  14.631  1.00  0.00     0.058 C 
ENDROOT
BRANCH   4   7
HETATM    7  C8  UNL     1      -3.087   4.178  12.683  1.00  0.00     0.170 C 
HETATM    8  S1  UNL     1      -3.539   3.926  11.120  1.00  0.00    -0.041 SA
BRANCH   7   9
HETATM    9  N2  UNL     1      -2.112   5.175  12.936  1.00  0.00    -0.359 N 
ATOM     10  H2  UNL     1      -1.141   4.902  13.090  1.00  0.00     0.162 HD
BRANCH   9  11
HETATM   11  C9  UNL     1      -2.470   6.560  12.980  1.00  0.00     0.021 C 
HETATM   12  C10 UNL     1      -1.786   7.386  11.929  1.00  0.00     0.037 C 
HETATM   13  C11 UNL     1      -2.121   7.182  14.324  1.00  0.00     0.037 C 
HETATM   14  C12 UNL     1      -3.961   6.686  12.797  1.00  0.00     0.037 C 
ENDBRANCH   9  11
ENDBRANCH   7   9
ENDBRANCH   4   7
BRANCH   1  15
HETATM   15  C4  UNL     1      -5.082   1.713  17.109  1.00  0.00     0.070 C 
BRANCH  15  16
HETATM   16  C2  UNL     1      -6.487   2.134  16.897  1.00  0.00    -0.090 C 
HETATM   17  C1  UNL     1      -7.433   1.181  16.876  1.00  0.00     0.014 C 
HETATM   18  C3  UNL     1      -6.933   3.533  16.715  1.00  0.00     0.042 C 
ENDBRANCH  15  16
ENDBRANCH   1  15
BRANCH   1  19
HETATM   19  O1  UNL     1      -3.590   0.372  15.933  1.00  0.00    -0.389 OA
ATOM     20  H1  UNL     1      -2.925   0.397  15.255  1.00  0.00     0.210 HD
ENDBRANCH   1  19
TORSDOF 6
ENDMDL
