MODEL 1
REMARK VINA RESULT: -7.653849914      0.000      0.000
REMARK  7 active torsions:
REMARK  status: ('A' for Active; 'I' for Inactive)
REMARK    1  A    between atoms: C4_4  and  S1_5 
REMARK    2  A    between atoms: S1_5  and  S2_6 
REMARK    3  A    between atoms: S2_6  and  C5_7 
REMARK    4  A    between atoms: C5_7  and  N1_9 
REMARK    5  A    between atoms: C11_16  and  O2_17 
REMARK    6  A    between atoms: C12_20  and  O4_21 
REMARK    7  A    between atoms: C19_30  and  O6_31 
ROOT
HETATM    1  C1  UNL     1       5.220  -5.165 -15.527  1.00  0.00     0.040 C 
HETATM    2  C2  UNL     1       4.622  -4.509 -14.332  1.00  0.00     0.122 C 
HETATM    3  C3  UNL     1       5.563  -3.734 -13.464  1.00  0.00     0.048 C 
HETATM    4  C4  UNL     1       6.999  -3.928 -13.661  1.00  0.00     0.072 C 
HETATM    5  C8  UNL     1       7.627  -5.243 -13.488  1.00  0.00     0.071 C 
HETATM    6  C9  UNL     1       9.128  -5.096 -13.151  1.00  0.00     0.019 C 
HETATM    7  C10 UNL     1       7.107  -6.206 -12.544  1.00  0.00     0.186 C 
HETATM    8  O1  UNL     1       6.688  -7.315 -12.939  1.00  0.00    -0.292 OA
HETATM    9  C11 UNL     1       6.980  -6.083 -11.066  1.00  0.00     0.331 C 
HETATM   10  O3  UNL     1       5.632  -6.185 -10.754  1.00  0.00    -0.325 OA
HETATM   11  C12 UNL     1       5.312  -7.317 -10.025  1.00  0.00     0.261 C 
HETATM   12  C13 UNL     1       3.809  -7.350  -9.882  1.00  0.00     0.069 C 
HETATM   13  C14 UNL     1       3.111  -8.157 -10.913  1.00  0.00    -0.037 C 
HETATM   14  C15 UNL     1       1.784  -8.634 -10.311  1.00  0.00     0.015 C 
HETATM   15  C16 UNL     1       3.906  -9.431 -11.177  1.00  0.00     0.015 C 
HETATM   16  C17 UNL     1       2.865  -7.503 -12.223  1.00  0.00     0.092 C 
HETATM   17  C18 UNL     1       2.274  -6.158 -12.176  1.00  0.00     0.181 C 
HETATM   18  O5  UNL     1       1.533  -5.830 -11.285  1.00  0.00    -0.293 OA
HETATM   19  C19 UNL     1       2.648  -5.218 -13.302  1.00  0.00     0.328 C 
HETATM   20  O7  UNL     1       3.952  -5.450 -13.594  1.00  0.00    -0.349 OA
ENDROOT
BRANCH   4  21
HETATM   21  S1  UNL     1       7.898  -2.720 -12.632  1.00  0.00    -0.084 SA
BRANCH  21  22
HETATM   22  S2  UNL     1       6.748  -1.974 -11.049  1.00  0.00    -0.028 SA
BRANCH  22  23
HETATM   23  C5  UNL     1       7.731  -1.389  -9.717  1.00  0.00     0.146 C 
HETATM   24  S3  UNL     1       9.348  -1.578  -9.762  1.00  0.00    -0.052 SA
BRANCH  23  25
HETATM   25  N1  UNL     1       7.139  -0.738  -8.613  1.00  0.00    -0.375 N 
HETATM   26  C6  UNL     1       7.974  -0.358  -7.498  1.00  0.00     0.150 C 
HETATM   27  C7  UNL     1       5.716  -0.475  -8.638  1.00  0.00     0.150 C 
ENDBRANCH  23  25
ENDBRANCH  22  23
ENDBRANCH  21  22
ENDBRANCH   4  21
BRANCH   9  28
HETATM   28  O2  UNL     1       7.521  -4.969 -10.507  1.00  0.00    -0.365 OA
ATOM     29  H2  UNL     1       7.354  -4.841  -9.580  1.00  0.00     0.213 HD
ENDBRANCH   9  28
BRANCH  19  30
HETATM   30  O6  UNL     1       2.310  -3.917 -13.014  1.00  0.00    -0.365 OA
ATOM     31  H6  UNL     1       2.545  -3.681 -12.125  1.00  0.00     0.213 HD
ENDBRANCH  19  30
BRANCH  11  32
HETATM   32  O4  UNL     1       5.827  -7.254  -8.718  1.00  0.00    -0.371 OA
ATOM     33  H4  UNL     1       5.354  -6.625  -8.186  1.00  0.00     0.212 HD
ENDBRANCH  11  32
TORSDOF 7
ENDMDL
MODEL 2
REMARK VINA RESULT: -7.353407608      2.752      4.522
REMARK  7 active torsions:
REMARK  status: ('A' for Active; 'I' for Inactive)
REMARK    1  A    between atoms: C4_4  and  S1_5 
REMARK    2  A    between atoms: S1_5  and  S2_6 
REMARK    3  A    between atoms: S2_6  and  C5_7 
REMARK    4  A    between atoms: C5_7  and  N1_9 
REMARK    5  A    between atoms: C11_16  and  O2_17 
REMARK    6  A    between atoms: C12_20  and  O4_21 
REMARK    7  A    between atoms: C19_30  and  O6_31 
ROOT
HETATM    1  C1  UNL     1       6.873  -5.850 -11.050  1.00  0.00     0.040 C 
HETATM    2  C2  UNL     1       6.307  -6.644 -12.175  1.00  0.00     0.122 C 
HETATM    3  C3  UNL     1       5.934  -5.877 -13.404  1.00  0.00     0.048 C 
HETATM    4  C4  UNL     1       5.857  -4.420 -13.308  1.00  0.00     0.072 C 
HETATM    5  C8  UNL     1       4.924  -3.759 -12.387  1.00  0.00     0.071 C 
HETATM    6  C9  UNL     1       4.589  -2.331 -12.873  1.00  0.00     0.019 C 
HETATM    7  C10 UNL     1       3.657  -4.361 -12.041  1.00  0.00     0.186 C 
HETATM    8  O1  UNL     1       3.405  -4.664 -10.855  1.00  0.00    -0.292 OA
HETATM    9  C11 UNL     1       2.517  -4.705 -12.934  1.00  0.00     0.331 C 
HETATM   10  O3  UNL     1       2.327  -6.077 -12.857  1.00  0.00    -0.325 OA
HETATM   11  C12 UNL     1       1.124  -6.443 -12.278  1.00  0.00     0.261 C 
HETATM   12  C13 UNL     1       1.126  -7.947 -12.147  1.00  0.00     0.069 C 
HETATM   13  C14 UNL     1       1.593  -8.449 -10.831  1.00  0.00    -0.037 C 
HETATM   14  C15 UNL     1       0.952  -9.824 -10.605  1.00  0.00     0.015 C 
HETATM   15  C16 UNL     1       1.028  -7.564  -9.726  1.00  0.00     0.015 C 
HETATM   16  C17 UNL     1       3.061  -8.537 -10.629  1.00  0.00     0.092 C 
HETATM   17  C18 UNL     1       3.825  -9.194 -11.700  1.00  0.00     0.181 C 
HETATM   18  O5  UNL     1       3.341 -10.070 -12.369  1.00  0.00    -0.293 OA
HETATM   19  C19 UNL     1       5.243  -8.709 -11.910  1.00  0.00     0.328 C 
HETATM   20  O7  UNL     1       5.235  -7.366 -11.716  1.00  0.00    -0.349 OA
ENDROOT
BRANCH   4  21
HETATM   21  S1  UNL     1       5.596  -3.738 -14.979  1.00  0.00    -0.084 SA
BRANCH  21  22
HETATM   22  S2  UNL     1       7.226  -2.619 -15.672  1.00  0.00    -0.028 SA
BRANCH  22  23
HETATM   23  C5  UNL     1       8.680  -2.890 -14.727  1.00  0.00     0.146 C 
HETATM   24  S3  UNL     1       9.570  -4.231 -14.978  1.00  0.00    -0.052 SA
BRANCH  23  25
HETATM   25  N1  UNL     1       9.100  -1.949 -13.761  1.00  0.00    -0.375 N 
HETATM   26  C6  UNL     1      10.317  -1.207 -13.995  1.00  0.00     0.150 C 
HETATM   27  C7  UNL     1       8.297  -1.762 -12.572  1.00  0.00     0.150 C 
ENDBRANCH  23  25
ENDBRANCH  22  23
ENDBRANCH  21  22
ENDBRANCH   4  21
BRANCH   9  28
HETATM   28  O2  UNL     1       2.625  -4.305 -14.228  1.00  0.00    -0.365 OA
ATOM     29  H2  UNL     1       2.212  -4.864 -14.876  1.00  0.00     0.213 HD
ENDBRANCH   9  28
BRANCH  19  30
HETATM   30  O6  UNL     1       5.761  -9.147 -13.105  1.00  0.00    -0.365 OA
ATOM     31  H6  UNL     1       5.350  -8.718 -13.846  1.00  0.00     0.213 HD
ENDBRANCH  19  30
BRANCH  11  32
HETATM   32  O4  UNL     1       0.033  -6.124 -13.105  1.00  0.00    -0.371 OA
ATOM     33  H4  UNL     1       0.230  -6.282 -14.021  1.00  0.00     0.212 HD
ENDBRANCH  11  32
TORSDOF 7
ENDMDL
MODEL 3
REMARK VINA RESULT: -7.345150209      3.478      5.957
REMARK  7 active torsions:
REMARK  status: ('A' for Active; 'I' for Inactive)
REMARK    1  A    between atoms: C4_4  and  S1_5 
REMARK    2  A    between atoms: S1_5  and  S2_6 
REMARK    3  A    between atoms: S2_6  and  C5_7 
REMARK    4  A    between atoms: C5_7  and  N1_9 
REMARK    5  A    between atoms: C11_16  and  O2_17 
REMARK    6  A    between atoms: C12_20  and  O4_21 
REMARK    7  A    between atoms: C19_30  and  O6_31 
ROOT
HETATM    1  C1  UNL     1       6.880  -5.849 -11.052  1.00  0.00     0.040 C 
HETATM    2  C2  UNL     1       6.313  -6.644 -12.176  1.00  0.00     0.122 C 
HETATM    3  C3  UNL     1       5.940  -5.878 -13.406  1.00  0.00     0.048 C 
HETATM    4  C4  UNL     1       5.862  -4.421 -13.312  1.00  0.00     0.072 C 
HETATM    5  C8  UNL     1       4.930  -3.760 -12.390  1.00  0.00     0.071 C 
HETATM    6  C9  UNL     1       4.595  -2.332 -12.878  1.00  0.00     0.019 C 
HETATM    7  C10 UNL     1       3.663  -4.361 -12.043  1.00  0.00     0.186 C 
HETATM    8  O1  UNL     1       3.412  -4.663 -10.857  1.00  0.00    -0.292 OA
HETATM    9  C11 UNL     1       2.522  -4.706 -12.935  1.00  0.00     0.331 C 
HETATM   10  O3  UNL     1       2.332  -6.078 -12.857  1.00  0.00    -0.325 OA
HETATM   11  C12 UNL     1       1.130  -6.443 -12.277  1.00  0.00     0.261 C 
HETATM   12  C13 UNL     1       1.132  -7.947 -12.145  1.00  0.00     0.069 C 
HETATM   13  C14 UNL     1       1.600  -8.448 -10.829  1.00  0.00    -0.037 C 
HETATM   14  C15 UNL     1       0.959  -9.823 -10.601  1.00  0.00     0.015 C 
HETATM   15  C16 UNL     1       1.036  -7.561  -9.724  1.00  0.00     0.015 C 
HETATM   16  C17 UNL     1       3.068  -8.536 -10.628  1.00  0.00     0.092 C 
HETATM   17  C18 UNL     1       3.832  -9.193 -11.698  1.00  0.00     0.181 C 
HETATM   18  O5  UNL     1       3.347 -10.070 -12.366  1.00  0.00    -0.293 OA
HETATM   19  C19 UNL     1       5.250  -8.709 -11.909  1.00  0.00     0.328 C 
HETATM   20  O7  UNL     1       5.242  -7.366 -11.716  1.00  0.00    -0.349 OA
ENDROOT
BRANCH   4  21
HETATM   21  S1  UNL     1       5.600  -3.740 -14.983  1.00  0.00    -0.084 SA
BRANCH  21  22
HETATM   22  S2  UNL     1       6.056  -5.105 -16.505  1.00  0.00    -0.028 SA
BRANCH  22  23
HETATM   23  C5  UNL     1       5.713  -4.470 -18.106  1.00  0.00     0.146 C 
HETATM   24  S3  UNL     1       6.901  -3.762 -18.967  1.00  0.00    -0.052 SA
BRANCH  23  25
HETATM   25  N1  UNL     1       4.422  -4.581 -18.666  1.00  0.00    -0.375 N 
HETATM   26  C6  UNL     1       4.154  -3.943 -19.933  1.00  0.00     0.150 C 
HETATM   27  C7  UNL     1       3.412  -5.331 -17.950  1.00  0.00     0.150 C 
ENDBRANCH  23  25
ENDBRANCH  22  23
ENDBRANCH  21  22
ENDBRANCH   4  21
BRANCH   9  28
HETATM   28  O2  UNL     1       2.630  -4.307 -14.230  1.00  0.00    -0.365 OA
ATOM     29  H2  UNL     1       3.095  -4.896 -14.813  1.00  0.00     0.213 HD
ENDBRANCH   9  28
BRANCH  19  30
HETATM   30  O6  UNL     1       5.767  -9.148 -13.105  1.00  0.00    -0.365 OA
ATOM     31  H6  UNL     1       5.307  -8.773 -13.847  1.00  0.00     0.213 HD
ENDBRANCH  19  30
BRANCH  11  32
HETATM   32  O4  UNL     1       0.038  -6.125 -13.103  1.00  0.00    -0.371 OA
ATOM     33  H4  UNL     1      -0.378  -5.314 -12.835  1.00  0.00     0.212 HD
ENDBRANCH  11  32
TORSDOF 7
ENDMDL
MODEL 4
REMARK VINA RESULT: -7.328830182      3.116      4.815
REMARK  7 active torsions:
REMARK  status: ('A' for Active; 'I' for Inactive)
REMARK    1  A    between atoms: C4_4  and  S1_5 
REMARK    2  A    between atoms: S1_5  and  S2_6 
REMARK    3  A    between atoms: S2_6  and  C5_7 
REMARK    4  A    between atoms: C5_7  and  N1_9 
REMARK    5  A    between atoms: C11_16  and  O2_17 
REMARK    6  A    between atoms: C12_20  and  O4_21 
REMARK    7  A    between atoms: C19_30  and  O6_31 
ROOT
HETATM    1  C1  UNL     1       6.788  -6.169 -11.292  1.00  0.00     0.040 C 
HETATM    2  C2  UNL     1       6.138  -7.000 -12.342  1.00  0.00     0.122 C 
HETATM    3  C3  UNL     1       5.710  -6.282 -13.583  1.00  0.00     0.048 C 
HETATM    4  C4  UNL     1       5.671  -4.821 -13.553  1.00  0.00     0.072 C 
HETATM    5  C8  UNL     1       4.810  -4.095 -12.612  1.00  0.00     0.071 C 
HETATM    6  C9  UNL     1       4.478  -2.683 -13.146  1.00  0.00     0.019 C 
HETATM    7  C10 UNL     1       3.552  -4.648 -12.164  1.00  0.00     0.186 C 
HETATM    8  O1  UNL     1       3.365  -4.889 -10.952  1.00  0.00    -0.292 OA
HETATM    9  C11 UNL     1       2.353  -5.005 -12.971  1.00  0.00     0.331 C 
HETATM   10  O3  UNL     1       2.138  -6.366 -12.817  1.00  0.00    -0.325 OA
HETATM   11  C12 UNL     1       0.964  -6.675 -12.152  1.00  0.00     0.261 C 
HETATM   12  C13 UNL     1       0.940  -8.170 -11.949  1.00  0.00     0.069 C 
HETATM   13  C14 UNL     1       1.474  -8.622 -10.640  1.00  0.00    -0.037 C 
HETATM   14  C15 UNL     1       0.818  -9.969 -10.311  1.00  0.00     0.015 C 
HETATM   15  C16 UNL     1       0.996  -7.672  -9.548  1.00  0.00     0.015 C 
HETATM   16  C17 UNL     1       2.949  -8.737 -10.521  1.00  0.00     0.092 C 
HETATM   17  C18 UNL     1       3.633  -9.462 -11.601  1.00  0.00     0.181 C 
HETATM   18  O5  UNL     1       3.091 -10.356 -12.198  1.00  0.00    -0.293 OA
HETATM   19  C19 UNL     1       5.047  -9.023 -11.917  1.00  0.00     0.328 C 
HETATM   20  O7  UNL     1       5.080  -7.673 -11.787  1.00  0.00    -0.349 OA
ENDROOT
BRANCH   4  21
HETATM   21  S1  UNL     1       5.326  -4.211 -15.237  1.00  0.00    -0.084 SA
BRANCH  21  22
HETATM   22  S2  UNL     1       7.042  -3.539 -16.233  1.00  0.00    -0.028 SA
BRANCH  22  23
HETATM   23  C5  UNL     1       7.468  -1.891 -15.805  1.00  0.00     0.146 C 
HETATM   24  S3  UNL     1       6.744  -0.645 -16.562  1.00  0.00    -0.052 SA
BRANCH  23  25
HETATM   25  N1  UNL     1       8.421  -1.631 -14.795  1.00  0.00    -0.375 N 
HETATM   26  C6  UNL     1       9.726  -1.147 -15.177  1.00  0.00     0.150 C 
HETATM   27  C7  UNL     1       8.055  -1.860 -13.414  1.00  0.00     0.150 C 
ENDBRANCH  23  25
ENDBRANCH  22  23
ENDBRANCH  21  22
ENDBRANCH   4  21
BRANCH   9  28
HETATM   28  O2  UNL     1       2.393  -4.669 -14.287  1.00  0.00    -0.365 OA
ATOM     29  H2  UNL     1       1.901  -5.226 -14.878  1.00  0.00     0.213 HD
ENDBRANCH   9  28
BRANCH  19  30
HETATM   30  O6  UNL     1       5.482  -9.530 -13.118  1.00  0.00    -0.365 OA
ATOM     31  H6  UNL     1       5.078 -10.366 -13.316  1.00  0.00     0.213 HD
ENDBRANCH  19  30
BRANCH  11  32
HETATM   32  O4  UNL     1      -0.167  -6.367 -12.928  1.00  0.00    -0.371 OA
ATOM     33  H4  UNL     1      -0.317  -7.021 -13.601  1.00  0.00     0.212 HD
ENDBRANCH  11  32
TORSDOF 7
ENDMDL
MODEL 5
REMARK VINA RESULT: -7.272322501      4.082      7.364
REMARK  7 active torsions:
REMARK  status: ('A' for Active; 'I' for Inactive)
REMARK    1  A    between atoms: C4_4  and  S1_5 
REMARK    2  A    between atoms: S1_5  and  S2_6 
REMARK    3  A    between atoms: S2_6  and  C5_7 
REMARK    4  A    between atoms: C5_7  and  N1_9 
REMARK    5  A    between atoms: C11_16  and  O2_17 
REMARK    6  A    between atoms: C12_20  and  O4_21 
REMARK    7  A    between atoms: C19_30  and  O6_31 
ROOT
HETATM    1  C1  UNL     1       6.535  -8.017 -14.086  1.00  0.00     0.040 C 
HETATM    2  C2  UNL     1       6.684  -7.486 -12.703  1.00  0.00     0.122 C 
HETATM    3  C3  UNL     1       5.435  -7.419 -11.882  1.00  0.00     0.048 C 
HETATM    4  C4  UNL     1       4.153  -7.574 -12.567  1.00  0.00     0.072 C 
HETATM    5  C8  UNL     1       3.731  -6.647 -13.625  1.00  0.00     0.071 C 
HETATM    6  C9  UNL     1       2.191  -6.625 -13.754  1.00  0.00     0.019 C 
HETATM    7  C10 UNL     1       4.142  -5.261 -13.617  1.00  0.00     0.186 C 
HETATM    8  O1  UNL     1       4.828  -4.802 -14.555  1.00  0.00    -0.292 OA
HETATM    9  C11 UNL     1       3.860  -4.213 -12.599  1.00  0.00     0.331 C 
HETATM   10  O3  UNL     1       5.078  -3.788 -12.090  1.00  0.00    -0.325 OA
HETATM   11  C12 UNL     1       5.384  -2.474 -12.396  1.00  0.00     0.261 C 
HETATM   12  C13 UNL     1       6.781  -2.207 -11.893  1.00  0.00     0.069 C 
HETATM   13  C14 UNL     1       7.848  -2.399 -12.907  1.00  0.00    -0.037 C 
HETATM   14  C15 UNL     1       9.034  -1.512 -12.508  1.00  0.00     0.015 C 
HETATM   15  C16 UNL     1       7.373  -1.843 -14.245  1.00  0.00     0.015 C 
HETATM   16  C17 UNL     1       8.312  -3.789 -13.138  1.00  0.00     0.092 C 
HETATM   17  C18 UNL     1       8.636  -4.573 -11.938  1.00  0.00     0.181 C 
HETATM   18  O5  UNL     1       9.056  -4.046 -10.940  1.00  0.00    -0.293 OA
HETATM   19  C19 UNL     1       8.415  -6.067 -12.028  1.00  0.00     0.328 C 
HETATM   20  O7  UNL     1       7.288  -6.257 -12.760  1.00  0.00    -0.349 OA
ENDROOT
BRANCH   4  21
HETATM   21  S1  UNL     1       2.828  -7.662 -11.316  1.00  0.00    -0.084 SA
BRANCH  21  22
HETATM   22  S2  UNL     1       1.813  -9.494 -11.326  1.00  0.00    -0.028 SA
BRANCH  22  23
HETATM   23  C5  UNL     1       0.074  -9.302 -11.177  1.00  0.00     0.146 C 
HETATM   24  S3  UNL     1      -0.796 -10.411 -10.361  1.00  0.00    -0.052 SA
BRANCH  23  25
HETATM   25  N1  UNL     1      -0.580  -8.184 -11.740  1.00  0.00    -0.375 N 
HETATM   26  C6  UNL     1      -0.729  -6.990 -10.943  1.00  0.00     0.150 C 
HETATM   27  C7  UNL     1      -1.077  -8.276 -13.096  1.00  0.00     0.150 C 
ENDBRANCH  23  25
ENDBRANCH  22  23
ENDBRANCH  21  22
ENDBRANCH   4  21
BRANCH   9  28
HETATM   28  O2  UNL     1       3.014  -4.564 -11.594  1.00  0.00    -0.365 OA
ATOM     29  H2  UNL     1       2.970  -3.968 -10.856  1.00  0.00     0.213 HD
ENDBRANCH   9  28
BRANCH  19  30
HETATM   30  O6  UNL     1       8.444  -6.664 -10.790  1.00  0.00    -0.365 OA
ATOM     31  H6  UNL     1       9.315  -6.969 -10.566  1.00  0.00     0.213 HD
ENDBRANCH  19  30
BRANCH  11  32
HETATM   32  O4  UNL     1       4.544  -1.575 -11.714  1.00  0.00    -0.371 OA
ATOM     33  H4  UNL     1       4.190  -0.915 -12.299  1.00  0.00     0.212 HD
ENDBRANCH  11  32
TORSDOF 7
ENDMDL
