MODEL 1
REMARK VINA RESULT: -7.502664275      0.000      0.000
REMARK  4 active torsions:
REMARK  status: ('A' for Active; 'I' for Inactive)
REMARK    1  A    between atoms: C4_4  and  C6_6 
REMARK    2  A    between atoms: C13_17  and  O5_18 
REMARK    3  A    between atoms: C20_27  and  N1_28 
REMARK    4  A    between atoms: N1_28  and  O7_30 
ROOT
HETATM    1  C1  UNL     1      -0.876  -7.960 -13.799  1.00  0.00     0.013 C 
HETATM    2  C2  UNL     1       0.387  -7.584 -12.975  1.00  0.00     0.020 C 
HETATM    3  C3  UNL     1       0.343  -8.578 -11.849  1.00  0.00     0.032 C 
HETATM    4  C4  UNL     1       1.308  -8.326 -10.670  1.00  0.00     0.075 C 
HETATM    5  C5  UNL     1       1.554  -9.648 -10.000  1.00  0.00     0.032 C 
HETATM    6  C7  UNL     1       2.511  -7.659 -11.247  1.00  0.00     0.006 C 
HETATM    7  C8  UNL     1       3.115  -8.610 -12.183  1.00  0.00     0.135 C 
HETATM    8  O3  UNL     1       3.866  -9.521 -11.476  1.00  0.00    -0.274 OA
HETATM    9  C9  UNL     1       4.875  -8.881 -10.696  1.00  0.00     0.277 C 
HETATM   10  O4  UNL     1       5.740  -9.675 -10.170  1.00  0.00    -0.264 OA
HETATM   11  C10 UNL     1       4.915  -7.407 -10.507  1.00  0.00     0.075 C 
HETATM   12  C11 UNL     1       5.324  -7.342  -8.984  1.00  0.00     0.031 C 
HETATM   13  C12 UNL     1       5.946  -6.630 -11.156  1.00  0.00     0.059 C 
HETATM   14  C13 UNL     1       6.402  -6.681 -12.537  1.00  0.00     0.153 C 
HETATM   15  C14 UNL     1       5.679  -5.824 -13.590  1.00  0.00     0.083 C 
HETATM   16  C15 UNL     1       6.547  -4.561 -13.773  1.00  0.00     0.048 C 
HETATM   17  C16 UNL     1       5.935  -6.579 -14.917  1.00  0.00     0.048 C 
HETATM   18  O6  UNL     1       4.466  -5.549 -13.476  1.00  0.00    -0.342 OA
HETATM   19  C17 UNL     1       3.253  -5.662 -13.917  1.00  0.00     0.167 C 
HETATM   20  C18 UNL     1       3.231  -5.034 -15.342  1.00  0.00     0.079 C 
HETATM   21  C19 UNL     1       2.609  -4.625 -12.930  1.00  0.00     0.127 C 
HETATM   22  C20 UNL     1       3.244  -4.544 -11.620  1.00  0.00     0.037 C 
HETATM   23  C21 UNL     1       3.368  -5.397 -10.492  1.00  0.00     0.036 C 
HETATM   24  C22 UNL     1       3.470  -6.861 -10.457  1.00  0.00    -0.028 C 
HETATM   25  O8  UNL     1       2.421  -6.620 -14.014  1.00  0.00    -0.342 OA
HETATM   26  C23 UNL     1       1.589  -7.555 -13.864  1.00  0.00     0.205 C 
HETATM   27  C24 UNL     1       2.276  -8.837 -13.334  1.00  0.00     0.212 C 
HETATM   28  O9  UNL     1       2.100  -9.871 -13.855  1.00  0.00    -0.287 OA
ENDROOT
BRANCH   4  29
HETATM   29  C6  UNL     1       0.567  -7.478  -9.700  1.00  0.00     0.186 C 
HETATM   30  O1  UNL     1      -0.339  -6.696 -10.082  1.00  0.00    -0.647 OA
HETATM   31  O2  UNL     1       0.822  -7.491  -8.331  1.00  0.00    -0.647 OA
ENDBRANCH   4  29
BRANCH  22  32
HETATM   32  N1  UNL     1       3.846  -3.371 -11.419  1.00  0.00    -0.273 N 
ATOM     33  H1  UNL     1       4.628  -3.342 -10.764  1.00  0.00     0.193 HD
BRANCH  32  34
HETATM   34  O7  UNL     1       3.488  -2.225 -12.024  1.00  0.00    -0.290 OA
ATOM     35  H7  UNL     1       3.686  -1.359 -11.686  1.00  0.00     0.244 HD
ENDBRANCH  32  34
ENDBRANCH  22  32
BRANCH  14  36
HETATM   36  O5  UNL     1       7.777  -6.436 -12.719  1.00  0.00    -0.393 OA
ATOM     37  H5  UNL     1       7.993  -5.558 -13.009  1.00  0.00     0.210 HD
ENDBRANCH  14  36
TORSDOF 4
ENDMDL
MODEL 2
REMARK VINA RESULT: -7.447178385      2.126      5.393
REMARK  4 active torsions:
REMARK  status: ('A' for Active; 'I' for Inactive)
REMARK    1  A    between atoms: C4_4  and  C6_6 
REMARK    2  A    between atoms: C13_17  and  O5_18 
REMARK    3  A    between atoms: C20_27  and  N1_28 
REMARK    4  A    between atoms: N1_28  and  O7_30 
ROOT
HETATM    1  C1  UNL     1       7.956  -3.853 -13.904  1.00  0.00     0.013 C 
HETATM    2  C2  UNL     1       6.893  -4.742 -13.200  1.00  0.00     0.020 C 
HETATM    3  C3  UNL     1       5.603  -4.167 -13.715  1.00  0.00     0.032 C 
HETATM    4  C4  UNL     1       4.312  -4.634 -13.009  1.00  0.00     0.075 C 
HETATM    5  C5  UNL     1       3.180  -4.465 -13.984  1.00  0.00     0.032 C 
HETATM    6  C7  UNL     1       4.565  -6.031 -12.549  1.00  0.00     0.006 C 
HETATM    7  C8  UNL     1       4.790  -6.839 -13.750  1.00  0.00     0.135 C 
HETATM    8  O3  UNL     1       3.574  -7.163 -14.308  1.00  0.00    -0.274 OA
HETATM    9  C9  UNL     1       2.740  -7.863 -13.385  1.00  0.00     0.277 C 
HETATM   10  O4  UNL     1       1.675  -8.373 -13.894  1.00  0.00    -0.264 OA
HETATM   11  C10 UNL     1       3.082  -7.986 -11.943  1.00  0.00     0.075 C 
HETATM   12  C11 UNL     1       1.650  -7.792 -11.309  1.00  0.00     0.031 C 
HETATM   13  C12 UNL     1       3.504  -9.263 -11.414  1.00  0.00     0.059 C 
HETATM   14  C13 UNL     1       4.481 -10.201 -11.947  1.00  0.00     0.153 C 
HETATM   15  C14 UNL     1       5.961 -10.028 -11.565  1.00  0.00     0.083 C 
HETATM   16  C15 UNL     1       6.221 -11.030 -10.421  1.00  0.00     0.048 C 
HETATM   17  C16 UNL     1       6.723 -10.685 -12.741  1.00  0.00     0.048 C 
HETATM   18  O6  UNL     1       6.435  -8.899 -11.319  1.00  0.00    -0.342 OA
HETATM   19  C17 UNL     1       7.246  -7.939 -11.636  1.00  0.00     0.167 C 
HETATM   20  C18 UNL     1       8.687  -8.527 -11.573  1.00  0.00     0.079 C 
HETATM   21  C19 UNL     1       7.025  -7.084 -10.338  1.00  0.00     0.127 C 
HETATM   22  C20 UNL     1       5.691  -7.180  -9.758  1.00  0.00     0.037 C 
HETATM   23  C21 UNL     1       4.383  -6.774 -10.134  1.00  0.00     0.036 C 
HETATM   24  C22 UNL     1       3.798  -6.698 -11.479  1.00  0.00    -0.028 C 
HETATM   25  O8  UNL     1       7.318  -7.109 -12.597  1.00  0.00    -0.342 OA
HETATM   26  C23 UNL     1       7.187  -6.186 -13.447  1.00  0.00     0.205 C 
HETATM   27  C24 UNL     1       6.017  -6.480 -14.417  1.00  0.00     0.212 C 
HETATM   28  O9  UNL     1       6.165  -6.404 -15.576  1.00  0.00    -0.287 OA
ENDROOT
BRANCH   4  29
HETATM   29  C6  UNL     1       4.075  -3.676 -11.898  1.00  0.00     0.186 C 
HETATM   30  O1  UNL     1       2.967  -3.099 -11.764  1.00  0.00    -0.647 OA
HETATM   31  O2  UNL     1       5.044  -3.359 -10.950  1.00  0.00    -0.647 OA
ENDBRANCH   4  29
BRANCH  22  32
HETATM   32  N1  UNL     1       5.696  -7.783  -8.568  1.00  0.00    -0.273 N 
ATOM     33  H1  UNL     1       5.204  -8.673  -8.482  1.00  0.00     0.193 HD
BRANCH  32  34
HETATM   34  O7  UNL     1       6.308  -7.292  -7.476  1.00  0.00    -0.290 OA
ATOM     35  H7  UNL     1       7.036  -7.717  -7.037  1.00  0.00     0.244 HD
ENDBRANCH  32  34
ENDBRANCH  22  32
BRANCH  14  36
HETATM   36  O5  UNL     1       4.183 -11.560 -11.728  1.00  0.00    -0.393 OA
ATOM     37  H5  UNL     1       4.545 -11.926 -10.930  1.00  0.00     0.210 HD
ENDBRANCH  14  36
TORSDOF 4
ENDMDL
MODEL 3
REMARK VINA RESULT: -7.232654365      2.990      7.322
REMARK  4 active torsions:
REMARK  status: ('A' for Active; 'I' for Inactive)
REMARK    1  A    between atoms: C4_4  and  C6_6 
REMARK    2  A    between atoms: C13_17  and  O5_18 
REMARK    3  A    between atoms: C20_27  and  N1_28 
REMARK    4  A    between atoms: N1_28  and  O7_30 
ROOT
HETATM    1  C1  UNL     1      10.328  -5.269 -11.925  1.00  0.00     0.013 C 
HETATM    2  C2  UNL     1       9.124  -4.732 -12.747  1.00  0.00     0.020 C 
HETATM    3  C3  UNL     1       9.779  -4.292 -14.027  1.00  0.00     0.032 C 
HETATM    4  C4  UNL     1       8.915  -3.447 -14.987  1.00  0.00     0.075 C 
HETATM    5  C5  UNL     1       9.475  -3.625 -16.370  1.00  0.00     0.032 C 
HETATM    6  C7  UNL     1       7.506  -3.902 -14.797  1.00  0.00     0.006 C 
HETATM    7  C8  UNL     1       7.457  -5.310 -15.199  1.00  0.00     0.135 C 
HETATM    8  O3  UNL     1       7.374  -5.382 -16.571  1.00  0.00    -0.274 OA
HETATM    9  C9  UNL     1       6.235  -4.681 -17.069  1.00  0.00     0.277 C 
HETATM   10  O4  UNL     1       5.981  -4.873 -18.315  1.00  0.00    -0.264 OA
HETATM   11  C10 UNL     1       5.411  -3.795 -16.206  1.00  0.00     0.075 C 
HETATM   12  C11 UNL     1       5.135  -2.615 -17.217  1.00  0.00     0.031 C 
HETATM   13  C12 UNL     1       4.082  -4.209 -15.817  1.00  0.00     0.059 C 
HETATM   14  C13 UNL     1       3.635  -5.491 -15.295  1.00  0.00     0.153 C 
HETATM   15  C14 UNL     1       3.701  -5.739 -13.778  1.00  0.00     0.083 C 
HETATM   16  C15 UNL     1       2.275  -5.482 -13.247  1.00  0.00     0.048 C 
HETATM   17  C16 UNL     1       3.809  -7.279 -13.662  1.00  0.00     0.048 C 
HETATM   18  O6  UNL     1       4.572  -5.189 -13.072  1.00  0.00    -0.342 OA
HETATM   19  C17 UNL     1       5.618  -5.292 -12.313  1.00  0.00     0.167 C 
HETATM   20  C18 UNL     1       5.197  -6.144 -11.079  1.00  0.00     0.079 C 
HETATM   21  C19 UNL     1       5.656  -3.789 -11.861  1.00  0.00     0.127 C 
HETATM   22  C20 UNL     1       5.170  -2.835 -12.851  1.00  0.00     0.037 C 
HETATM   23  C21 UNL     1       5.608  -2.367 -14.118  1.00  0.00     0.036 C 
HETATM   24  C22 UNL     1       6.323  -3.101 -15.170  1.00  0.00    -0.028 C 
HETATM   25  O8  UNL     1       6.828  -5.636 -12.499  1.00  0.00    -0.342 OA
HETATM   26  C23 UNL     1       8.044  -5.764 -12.809  1.00  0.00     0.205 C 
HETATM   27  C24 UNL     1       8.204  -6.152 -14.299  1.00  0.00     0.212 C 
HETATM   28  O9  UNL     1       8.880  -7.055 -14.614  1.00  0.00    -0.287 OA
ENDROOT
BRANCH   4  29
HETATM   29  C6  UNL     1       9.136  -2.027 -14.606  1.00  0.00     0.186 C 
HETATM   30  O1  UNL     1       9.505  -1.179 -15.457  1.00  0.00    -0.647 OA
HETATM   31  O2  UNL     1       8.957  -1.552 -13.310  1.00  0.00    -0.647 OA
ENDBRANCH   4  29
BRANCH  22  32
HETATM   32  N1  UNL     1       4.041  -2.237 -12.470  1.00  0.00    -0.273 N 
ATOM     33  H1  UNL     1       3.787  -1.361 -12.925  1.00  0.00     0.193 HD
BRANCH  32  34
HETATM   34  O7  UNL     1       3.216  -2.718 -11.522  1.00  0.00    -0.290 OA
ATOM     35  H7  UNL     1       2.324  -2.418 -11.390  1.00  0.00     0.244 HD
ENDBRANCH  32  34
ENDBRANCH  22  32
BRANCH  14  36
HETATM   36  O5  UNL     1       2.341  -5.879 -15.693  1.00  0.00    -0.393 OA
ATOM     37  H5  UNL     1       1.757  -6.116 -14.982  1.00  0.00     0.210 HD
ENDBRANCH  14  36
TORSDOF 4
ENDMDL
MODEL 4
REMARK VINA RESULT: -7.127180809      2.520      5.177
REMARK  4 active torsions:
REMARK  status: ('A' for Active; 'I' for Inactive)
REMARK    1  A    between atoms: C4_4  and  C6_6 
REMARK    2  A    between atoms: C13_17  and  O5_18 
REMARK    3  A    between atoms: C20_27  and  N1_28 
REMARK    4  A    between atoms: N1_28  and  O7_30 
ROOT
HETATM    1  C1  UNL     1       1.303  -9.197 -10.775  1.00  0.00     0.013 C 
HETATM    2  C2  UNL     1       2.593  -8.607 -11.408  1.00  0.00     0.020 C 
HETATM    3  C3  UNL     1       2.155  -7.224 -11.803  1.00  0.00     0.032 C 
HETATM    4  C4  UNL     1       3.113  -6.433 -12.718  1.00  0.00     0.075 C 
HETATM    5  C5  UNL     1       2.834  -4.972 -12.505  1.00  0.00     0.032 C 
HETATM    6  C7  UNL     1       4.493  -6.884 -12.373  1.00  0.00     0.006 C 
HETATM    7  C8  UNL     1       4.725  -6.511 -10.976  1.00  0.00     0.135 C 
HETATM    8  O3  UNL     1       5.065  -5.178 -10.918  1.00  0.00    -0.274 OA
HETATM    9  C9  UNL     1       6.219  -4.894 -11.708  1.00  0.00     0.277 C 
HETATM   10  O4  UNL     1       6.714  -3.718 -11.543  1.00  0.00    -0.264 OA
HETATM   11  C10 UNL     1       6.799  -5.886 -12.651  1.00  0.00     0.075 C 
HETATM   12  C11 UNL     1       7.164  -4.933 -13.854  1.00  0.00     0.031 C 
HETATM   13  C12 UNL     1       8.060  -6.518 -12.339  1.00  0.00     0.059 C 
HETATM   14  C13 UNL     1       8.501  -7.125 -11.093  1.00  0.00     0.153 C 
HETATM   15  C14 UNL     1       8.175  -8.606 -10.832  1.00  0.00     0.083 C 
HETATM   16  C15 UNL     1       9.454  -9.389 -11.197  1.00  0.00     0.048 C 
HETATM   17  C16 UNL     1       8.167  -8.714  -9.288  1.00  0.00     0.048 C 
HETATM   18  O6  UNL     1       7.148  -9.133 -11.308  1.00  0.00    -0.342 OA
HETATM   19  C17 UNL     1       5.991  -9.687 -11.121  1.00  0.00     0.167 C 
HETATM   20  C18 UNL     1       6.241 -10.985 -10.297  1.00  0.00     0.079 C 
HETATM   21  C19 UNL     1       5.753 -10.110 -12.614  1.00  0.00     0.127 C 
HETATM   22  C20 UNL     1       6.339  -9.219 -13.608  1.00  0.00     0.037 C 
HETATM   23  C21 UNL     1       6.108  -7.888 -14.047  1.00  0.00     0.036 C 
HETATM   24  C22 UNL     1       5.659  -6.729 -13.265  1.00  0.00    -0.028 C 
HETATM   25  O8  UNL     1       4.866  -9.284 -10.684  1.00  0.00    -0.342 OA
HETATM   26  C23 UNL     1       3.743  -8.756 -10.464  1.00  0.00     0.205 C 
HETATM   27  C24 UNL     1       3.891  -7.265 -10.073  1.00  0.00     0.212 C 
HETATM   28  O9  UNL     1       3.357  -6.839  -9.121  1.00  0.00    -0.287 OA
ENDROOT
BRANCH   4  29
HETATM   29  C6  UNL     1       2.715  -6.753 -14.114  1.00  0.00     0.186 C 
HETATM   30  O1  UNL     1       3.031  -5.997 -15.067  1.00  0.00    -0.647 OA
HETATM   31  O2  UNL     1       1.981  -7.886 -14.453  1.00  0.00    -0.647 OA
ENDBRANCH   4  29
BRANCH  22  32
HETATM   32  N1  UNL     1       7.328  -9.797 -14.290  1.00  0.00    -0.273 N 
ATOM     33  H1  UNL     1       8.230  -9.904 -13.825  1.00  0.00     0.193 HD
BRANCH  32  34
HETATM   34  O7  UNL     1       7.212 -10.249 -15.551  1.00  0.00    -0.290 OA
ATOM     35  H7  UNL     1       7.719  -9.920 -16.284  1.00  0.00     0.244 HD
ENDBRANCH  32  34
ENDBRANCH  22  32
BRANCH  14  36
HETATM   36  O5  UNL     1       9.872  -6.977 -10.810  1.00  0.00    -0.393 OA
ATOM     37  H5  UNL     1      10.195  -7.515 -10.096  1.00  0.00     0.210 HD
ENDBRANCH  14  36
TORSDOF 4
ENDMDL
MODEL 5
REMARK VINA RESULT: -7.120065308      2.078      5.359
REMARK  4 active torsions:
REMARK  status: ('A' for Active; 'I' for Inactive)
REMARK    1  A    between atoms: C4_4  and  C6_6 
REMARK    2  A    between atoms: C13_17  and  O5_18 
REMARK    3  A    between atoms: C20_27  and  N1_28 
REMARK    4  A    between atoms: N1_28  and  O7_30 
ROOT
HETATM    1  C1  UNL     1       6.862  -5.028 -15.011  1.00  0.00     0.013 C 
HETATM    2  C2  UNL     1       6.055  -5.576 -13.803  1.00  0.00     0.020 C 
HETATM    3  C3  UNL     1       5.084  -4.461 -13.532  1.00  0.00     0.032 C 
HETATM    4  C4  UNL     1       4.291  -4.544 -12.210  1.00  0.00     0.075 C 
HETATM    5  C5  UNL     1       3.025  -3.756 -12.395  1.00  0.00     0.032 C 
HETATM    6  C7  UNL     1       4.112  -5.996 -11.918  1.00  0.00     0.006 C 
HETATM    7  C8  UNL     1       3.309  -6.553 -13.009  1.00  0.00     0.135 C 
HETATM    8  O3  UNL     1       1.982  -6.266 -12.782  1.00  0.00    -0.274 OA
HETATM    9  C9  UNL     1       1.539  -6.778 -11.526  1.00  0.00     0.277 C 
HETATM   10  O4  UNL     1       0.267  -6.727 -11.336  1.00  0.00    -0.264 OA
HETATM   11  C10 UNL     1       2.482  -7.327 -10.516  1.00  0.00     0.075 C 
HETATM   12  C11 UNL     1       1.834  -6.746  -9.200  1.00  0.00     0.031 C 
HETATM   13  C12 UNL     1       2.514  -8.749 -10.265  1.00  0.00     0.059 C 
HETATM   14  C13 UNL     1       2.556  -9.849 -11.216  1.00  0.00     0.153 C 
HETATM   15  C14 UNL     1       3.922 -10.335 -11.731  1.00  0.00     0.083 C 
HETATM   16  C15 UNL     1       4.271 -11.580 -10.889  1.00  0.00     0.048 C 
HETATM   17  C16 UNL     1       3.594 -10.964 -13.107  1.00  0.00     0.048 C 
HETATM   18  O6  UNL     1       4.888  -9.550 -11.833  1.00  0.00    -0.342 OA
HETATM   19  C17 UNL     1       5.740  -8.924 -12.583  1.00  0.00     0.167 C 
HETATM   20  C18 UNL     1       6.583 -10.012 -13.312  1.00  0.00     0.079 C 
HETATM   21  C19 UNL     1       6.615  -8.348 -11.414  1.00  0.00     0.127 C 
HETATM   22  C20 UNL     1       5.887  -8.053 -10.187  1.00  0.00     0.037 C 
HETATM   23  C21 UNL     1       4.902  -7.113  -9.785  1.00  0.00     0.036 C 
HETATM   24  C22 UNL     1       3.808  -6.536 -10.577  1.00  0.00    -0.028 C 
HETATM   25  O8  UNL     1       5.656  -7.998 -13.451  1.00  0.00    -0.342 OA
HETATM   26  C23 UNL     1       5.520  -6.936 -14.118  1.00  0.00     0.205 C 
HETATM   27  C24 UNL     1       4.027  -6.551 -14.259  1.00  0.00     0.212 C 
HETATM   28  O9  UNL     1       3.572  -6.291 -15.306  1.00  0.00    -0.287 OA
ENDROOT
BRANCH   4  29
HETATM   29  C6  UNL     1       5.104  -3.829 -11.191  1.00  0.00     0.186 C 
HETATM   30  O1  UNL     1       4.648  -2.830 -10.582  1.00  0.00    -0.647 OA
HETATM   31  O2  UNL     1       6.400  -4.209 -10.851  1.00  0.00    -0.647 OA
ENDBRANCH   4  29
BRANCH  22  32
HETATM   32  N1  UNL     1       6.243  -8.853  -9.180  1.00  0.00    -0.273 N 
ATOM     33  H1  UNL     1       6.062  -8.532  -8.229  1.00  0.00     0.193 HD
BRANCH  32  34
HETATM   34  O7  UNL     1       6.825 -10.055  -9.341  1.00  0.00    -0.290 OA
ATOM     35  H7  UNL     1       6.926 -10.695  -8.646  1.00  0.00     0.244 HD
ENDBRANCH  32  34
ENDBRANCH  22  32
BRANCH  14  36
HETATM   36  O5  UNL     1       1.861 -11.008 -10.818  1.00  0.00    -0.393 OA
ATOM     37  H5  UNL     1       0.991 -11.101 -11.190  1.00  0.00     0.210 HD
ENDBRANCH  14  36
TORSDOF 4
ENDMDL
