MODEL 1
REMARK VINA RESULT: -7.717679494      0.000      0.000
REMARK  5 active torsions:
REMARK  status: ('A' for Active; 'I' for Inactive)
REMARK    1  A    between atoms: C2_2  and  O2_4 
REMARK    2  A    between atoms: O2_4  and  C3_5 
REMARK    3  A    between atoms: C13_18  and  O6_19 
REMARK    4  A    between atoms: C15_22  and  O7_23 
REMARK    5  A    between atoms: C21_31  and  O9_33 
ROOT
HETATM    1  C3  UNL     1       5.294  -4.323 -12.043  1.00  0.00     0.236 C 
HETATM    2  C4  UNL     1       4.114  -3.418 -11.644  1.00  0.00     0.086 C 
HETATM    3  O3  UNL     1       5.836  -3.845 -13.171  1.00  0.00    -0.254 OA
HETATM    4  C5  UNL     1       5.930  -3.269 -14.318  1.00  0.00     0.410 C 
HETATM    5  O4  UNL     1       5.643  -2.069 -14.666  1.00  0.00    -0.229 OA
HETATM    6  O5  UNL     1       6.408  -3.970 -15.432  1.00  0.00    -0.283 OA
HETATM    7  C6  UNL     1       7.433  -4.964 -15.395  1.00  0.00     0.083 C 
HETATM    8  C7  UNL     1       8.717  -4.084 -15.492  1.00  0.00     0.051 C 
HETATM    9  C8  UNL     1       7.435  -5.744 -16.627  1.00  0.00     0.051 C 
HETATM   10  C9  UNL     1       7.415  -5.615 -14.054  1.00  0.00     0.007 C 
HETATM   11  C10 UNL     1       6.887  -6.620 -13.484  1.00  0.00    -0.015 C 
HETATM   12  C11 UNL     1       6.882  -7.245 -12.128  1.00  0.00     0.009 C 
HETATM   13  C12 UNL     1       8.053  -7.191 -11.255  1.00  0.00     0.023 C 
HETATM   14  C13 UNL     1       6.739  -8.791 -12.313  1.00  0.00     0.133 C 
HETATM   15  C14 UNL     1       6.461  -9.410 -10.983  1.00  0.00     0.064 C 
HETATM   16  C15 UNL     1       5.793  -8.645  -9.937  1.00  0.00     0.121 C 
HETATM   17  C16 UNL     1       5.599  -7.168 -10.092  1.00  0.00     0.043 C 
HETATM   18  C17 UNL     1       5.548  -6.856 -11.547  1.00  0.00     0.071 C 
HETATM   19  C18 UNL     1       4.772  -5.728 -12.039  1.00  0.00     0.228 C 
HETATM   20  O8  UNL     1       3.629  -5.723 -11.190  1.00  0.00    -0.342 OA
HETATM   21  C19 UNL     1       2.534  -5.894 -11.898  1.00  0.00     0.157 C 
HETATM   22  C20 UNL     1       1.485  -6.902 -11.548  1.00  0.00     0.072 C 
HETATM   23  C21 UNL     1       0.809  -7.022 -12.934  1.00  0.00     0.059 C 
HETATM   24  C22 UNL     1       0.430  -8.442 -13.210  1.00  0.00     0.046 C 
HETATM   25  C23 UNL     1       1.870  -6.520 -13.942  1.00  0.00     0.072 C 
HETATM   26  C24 UNL     1       3.090  -6.686 -13.097  1.00  0.00     0.157 C 
HETATM   27  O10 UNL     1       4.211  -6.020 -13.322  1.00  0.00    -0.342 OA
ENDROOT
BRANCH   1  28
HETATM   28  O2  UNL     1       6.251  -4.282 -11.001  1.00  0.00    -0.278 OA
BRANCH  28  29
HETATM   29  C2  UNL     1       7.327  -3.462 -10.886  1.00  0.00     0.257 C 
HETATM   30  C1  UNL     1       7.161  -2.015 -10.513  1.00  0.00     0.126 C 
HETATM   31  O1  UNL     1       8.468  -3.909 -11.091  1.00  0.00    -0.266 OA
ENDBRANCH  28  29
ENDBRANCH   1  28
BRANCH  14  32
HETATM   32  O6  UNL     1       5.792  -9.081 -13.281  1.00  0.00    -0.394 OA
ATOM     33  H6  UNL     1       5.615  -8.316 -13.816  1.00  0.00     0.210 HD
ENDBRANCH  14  32
BRANCH  16  34
HETATM   34  O7  UNL     1       6.462  -8.865  -8.703  1.00  0.00    -0.395 OA
ATOM     35  H7  UNL     1       5.851  -9.243  -8.082  1.00  0.00     0.210 HD
ENDBRANCH  16  34
BRANCH  23  36
HETATM   36  O9  UNL     1      -0.283  -6.168 -12.965  1.00  0.00    -0.390 OA
ATOM     37  H9  UNL     1      -0.358  -5.746 -12.117  1.00  0.00     0.210 HD
ENDBRANCH  23  36
TORSDOF 5
ENDMDL
MODEL 2
REMARK VINA RESULT: -7.006994971      2.145      5.596
REMARK  5 active torsions:
REMARK  status: ('A' for Active; 'I' for Inactive)
REMARK    1  A    between atoms: C2_2  and  O2_4 
REMARK    2  A    between atoms: O2_4  and  C3_5 
REMARK    3  A    between atoms: C13_18  and  O6_19 
REMARK    4  A    between atoms: C15_22  and  O7_23 
REMARK    5  A    between atoms: C21_31  and  O9_33 
ROOT
HETATM    1  C3  UNL     1       5.130  -9.214 -12.417  1.00  0.00     0.236 C 
HETATM    2  C4  UNL     1       4.311 -10.435 -12.872  1.00  0.00     0.086 C 
HETATM    3  O3  UNL     1       5.841  -9.557 -11.335  1.00  0.00    -0.254 OA
HETATM    4  C5  UNL     1       6.164 -10.144 -10.235  1.00  0.00     0.410 C 
HETATM    5  O4  UNL     1       6.310 -11.391  -9.978  1.00  0.00    -0.229 OA
HETATM    6  O5  UNL     1       6.417  -9.400  -9.076  1.00  0.00    -0.283 OA
HETATM    7  C6  UNL     1       7.045  -8.118  -9.048  1.00  0.00     0.083 C 
HETATM    8  C7  UNL     1       8.553  -8.516  -9.031  1.00  0.00     0.051 C 
HETATM    9  C8  UNL     1       6.828  -7.470  -7.759  1.00  0.00     0.051 C 
HETATM   10  C9  UNL     1       6.762  -7.422 -10.335  1.00  0.00     0.007 C 
HETATM   11  C10 UNL     1       5.907  -6.618 -10.821  1.00  0.00    -0.015 C 
HETATM   12  C11 UNL     1       5.644  -5.941 -12.125  1.00  0.00     0.009 C 
HETATM   13  C12 UNL     1       6.733  -5.535 -13.011  1.00  0.00     0.023 C 
HETATM   14  C13 UNL     1       4.996  -4.550 -11.821  1.00  0.00     0.133 C 
HETATM   15  C14 UNL     1       4.478  -3.972 -13.097  1.00  0.00     0.064 C 
HETATM   16  C15 UNL     1       4.071  -4.845 -14.191  1.00  0.00     0.121 C 
HETATM   17  C16 UNL     1       4.390  -6.307 -14.147  1.00  0.00     0.043 C 
HETATM   18  C17 UNL     1       4.499  -6.717 -12.720  1.00  0.00     0.071 C 
HETATM   19  C18 UNL     1       4.166  -8.072 -12.308  1.00  0.00     0.228 C 
HETATM   20  O8  UNL     1       3.062  -8.405 -13.144  1.00  0.00    -0.342 OA
HETATM   21  C19 UNL     1       1.999  -8.663 -12.414  1.00  0.00     0.157 C 
HETATM   22  C20 UNL     1       0.660  -8.049 -12.675  1.00  0.00     0.072 C 
HETATM   23  C21 UNL     1       0.033  -8.260 -11.277  1.00  0.00     0.059 C 
HETATM   24  C22 UNL     1      -0.792  -7.074 -10.890  1.00  0.00     0.046 C 
HETATM   25  C23 UNL     1       1.236  -8.441 -10.321  1.00  0.00     0.072 C 
HETATM   26  C24 UNL     1       2.298  -7.815 -11.164  1.00  0.00     0.157 C 
HETATM   27  O10 UNL     1       3.585  -8.076 -11.001  1.00  0.00    -0.342 OA
ENDROOT
BRANCH   1  28
HETATM   28  O2  UNL     1       6.007  -8.857 -13.468  1.00  0.00    -0.278 OA
BRANCH  28  29
HETATM   29  C2  UNL     1       7.239  -9.362 -13.738  1.00  0.00     0.257 C 
HETATM   30  C1  UNL     1       8.484  -8.636 -13.310  1.00  0.00     0.126 C 
HETATM   31  O1  UNL     1       7.344 -10.440 -14.348  1.00  0.00    -0.266 OA
ENDBRANCH  28  29
ENDBRANCH   1  28
BRANCH  14  32
HETATM   32  O6  UNL     1       4.041  -4.665 -10.824  1.00  0.00    -0.394 OA
ATOM     33  H6  UNL     1       4.419  -4.472  -9.974  1.00  0.00     0.210 HD
ENDBRANCH  14  32
BRANCH  16  34
HETATM   34  O7  UNL     1       4.583  -4.328 -15.412  1.00  0.00    -0.395 OA
ATOM     35  H7  UNL     1       5.348  -4.831 -15.664  1.00  0.00     0.210 HD
ENDBRANCH  16  34
BRANCH  23  36
HETATM   36  O9  UNL     1      -0.706  -9.432 -11.300  1.00  0.00    -0.390 OA
ATOM     37  H9  UNL     1      -0.352  -9.998 -11.976  1.00  0.00     0.210 HD
ENDBRANCH  23  36
TORSDOF 5
ENDMDL
MODEL 3
REMARK VINA RESULT: -6.862053536      1.177      1.297
REMARK  5 active torsions:
REMARK  status: ('A' for Active; 'I' for Inactive)
REMARK    1  A    between atoms: C2_2  and  O2_4 
REMARK    2  A    between atoms: O2_4  and  C3_5 
REMARK    3  A    between atoms: C13_18  and  O6_19 
REMARK    4  A    between atoms: C15_22  and  O7_23 
REMARK    5  A    between atoms: C21_31  and  O9_33 
ROOT
HETATM    1  C3  UNL     1       5.603  -3.934 -13.404  1.00  0.00     0.236 C 
HETATM    2  C4  UNL     1       4.431  -2.976 -13.123  1.00  0.00     0.086 C 
HETATM    3  O3  UNL     1       6.013  -3.750 -14.665  1.00  0.00    -0.254 OA
HETATM    4  C5  UNL     1       5.971  -3.482 -15.924  1.00  0.00     0.410 C 
HETATM    5  O4  UNL     1       5.601  -2.415 -16.530  1.00  0.00    -0.229 OA
HETATM    6  O5  UNL     1       6.368  -4.436 -16.870  1.00  0.00    -0.283 OA
HETATM    7  C6  UNL     1       7.431  -5.372 -16.691  1.00  0.00     0.083 C 
HETATM    8  C7  UNL     1       8.662  -4.525 -17.141  1.00  0.00     0.051 C 
HETATM    9  C8  UNL     1       7.346  -6.439 -17.682  1.00  0.00     0.051 C 
HETATM   10  C9  UNL     1       7.570  -5.661 -15.236  1.00  0.00     0.007 C 
HETATM   11  C10 UNL     1       7.143  -6.496 -14.381  1.00  0.00    -0.015 C 
HETATM   12  C11 UNL     1       7.296  -6.756 -12.918  1.00  0.00     0.009 C 
HETATM   13  C12 UNL     1       8.543  -6.464 -12.214  1.00  0.00     0.023 C 
HETATM   14  C13 UNL     1       7.201  -8.301 -12.693  1.00  0.00     0.133 C 
HETATM   15  C14 UNL     1       7.079  -8.566 -11.228  1.00  0.00     0.064 C 
HETATM   16  C15 UNL     1       6.485  -7.571 -10.344  1.00  0.00     0.121 C 
HETATM   17  C16 UNL     1       6.215  -6.185 -10.844  1.00  0.00     0.043 C 
HETATM   18  C17 UNL     1       6.010  -6.254 -12.317  1.00  0.00     0.071 C 
HETATM   19  C18 UNL     1       5.143  -5.300 -12.992  1.00  0.00     0.228 C 
HETATM   20  O8  UNL     1       4.089  -5.097 -12.057  1.00  0.00    -0.342 OA
HETATM   21  C19 UNL     1       2.939  -5.460 -12.580  1.00  0.00     0.157 C 
HETATM   22  C20 UNL     1       1.971  -6.362 -11.881  1.00  0.00     0.072 C 
HETATM   23  C21 UNL     1       1.169  -6.840 -13.115  1.00  0.00     0.059 C 
HETATM   24  C22 UNL     1       0.825  -8.289 -12.984  1.00  0.00     0.046 C 
HETATM   25  C23 UNL     1       2.105  -6.595 -14.321  1.00  0.00     0.072 C 
HETATM   26  C24 UNL     1       3.408  -6.521 -13.594  1.00  0.00     0.157 C 
HETATM   27  O10 UNL     1       4.473  -5.916 -14.095  1.00  0.00    -0.342 OA
ENDROOT
BRANCH   1  28
HETATM   28  O2  UNL     1       6.654  -3.615 -12.511  1.00  0.00    -0.278 OA
BRANCH  28  29
HETATM   29  C2  UNL     1       7.035  -2.387 -12.073  1.00  0.00     0.257 C 
HETATM   30  C1  UNL     1       6.752  -1.946 -10.664  1.00  0.00     0.126 C 
HETATM   31  O1  UNL     1       7.627  -1.613 -12.844  1.00  0.00    -0.266 OA
ENDBRANCH  28  29
ENDBRANCH   1  28
BRANCH  14  32
HETATM   32  O6  UNL     1       6.177  -8.842 -13.453  1.00  0.00    -0.394 OA
ATOM     33  H6  UNL     1       6.329  -8.689 -14.378  1.00  0.00     0.210 HD
ENDBRANCH  14  32
BRANCH  16  34
HETATM   34  O7  UNL     1       7.279  -7.460  -9.172  1.00  0.00    -0.395 OA
ATOM     35  H7  UNL     1       7.111  -6.618  -8.763  1.00  0.00     0.210 HD
ENDBRANCH  16  34
BRANCH  23  36
HETATM   36  O9  UNL     1       0.045  -6.040 -13.244  1.00  0.00    -0.390 OA
ATOM     37  H9  UNL     1      -0.450  -6.337 -13.998  1.00  0.00     0.210 HD
ENDBRANCH  23  36
TORSDOF 5
ENDMDL
MODEL 4
REMARK VINA RESULT: -6.716887837      1.756      1.901
REMARK  5 active torsions:
REMARK  status: ('A' for Active; 'I' for Inactive)
REMARK    1  A    between atoms: C2_2  and  O2_4 
REMARK    2  A    between atoms: O2_4  and  C3_5 
REMARK    3  A    between atoms: C13_18  and  O6_19 
REMARK    4  A    between atoms: C15_22  and  O7_23 
REMARK    5  A    between atoms: C21_31  and  O9_33 
ROOT
HETATM    1  C3  UNL     1       5.146  -5.017 -12.085  1.00  0.00     0.236 C 
HETATM    2  C4  UNL     1       3.786  -4.691 -11.440  1.00  0.00     0.086 C 
HETATM    3  O3  UNL     1       5.169  -4.496 -13.318  1.00  0.00    -0.254 OA
HETATM    4  C5  UNL     1       4.756  -4.090 -14.469  1.00  0.00     0.410 C 
HETATM    5  O4  UNL     1       3.883  -3.200 -14.765  1.00  0.00    -0.229 OA
HETATM    6  O5  UNL     1       5.275  -4.640 -15.648  1.00  0.00    -0.283 OA
HETATM    7  C6  UNL     1       6.628  -5.058 -15.830  1.00  0.00     0.083 C 
HETATM    8  C7  UNL     1       7.309  -3.718 -16.245  1.00  0.00     0.051 C 
HETATM    9  C8  UNL     1       6.747  -5.905 -17.011  1.00  0.00     0.051 C 
HETATM   10  C9  UNL     1       7.179  -5.471 -14.508  1.00  0.00     0.007 C 
HETATM   11  C10 UNL     1       7.302  -6.524 -13.809  1.00  0.00    -0.015 C 
HETATM   12  C11 UNL     1       7.856  -6.906 -12.475  1.00  0.00     0.009 C 
HETATM   13  C12 UNL     1       9.015  -6.224 -11.903  1.00  0.00     0.023 C 
HETATM   14  C13 UNL     1       8.414  -8.363 -12.588  1.00  0.00     0.133 C 
HETATM   15  C14 UNL     1       8.724  -8.866 -11.217  1.00  0.00     0.064 C 
HETATM   16  C15 UNL     1       7.999  -8.353 -10.060  1.00  0.00     0.121 C 
HETATM   17  C16 UNL     1       7.115  -7.152 -10.198  1.00  0.00     0.043 C 
HETATM   18  C17 UNL     1       6.639  -7.084 -11.607  1.00  0.00     0.071 C 
HETATM   19  C18 UNL     1       5.348  -6.494 -11.928  1.00  0.00     0.228 C 
HETATM   20  O8  UNL     1       4.527  -6.891 -10.835  1.00  0.00    -0.342 OA
HETATM   21  C19 UNL     1       3.520  -7.622 -11.262  1.00  0.00     0.157 C 
HETATM   22  C20 UNL     1       3.151  -8.939 -10.654  1.00  0.00     0.072 C 
HETATM   23  C21 UNL     1       2.349  -9.523 -11.841  1.00  0.00     0.059 C 
HETATM   24  C22 UNL     1       2.626 -10.985 -11.988  1.00  0.00     0.046 C 
HETATM   25  C23 UNL     1       2.833  -8.734 -13.079  1.00  0.00     0.072 C 
HETATM   26  C24 UNL     1       4.131  -8.228 -12.541  1.00  0.00     0.157 C 
HETATM   27  O10 UNL     1       4.745  -7.166 -13.037  1.00  0.00    -0.342 OA
ENDROOT
BRANCH   1  28
HETATM   28  O2  UNL     1       6.159  -4.421 -11.298  1.00  0.00    -0.278 OA
BRANCH  28  29
HETATM   29  C2  UNL     1       6.551  -3.120 -11.283  1.00  0.00     0.257 C 
HETATM   30  C1  UNL     1       7.678  -2.641 -12.156  1.00  0.00     0.126 C 
HETATM   31  O1  UNL     1       5.973  -2.310 -10.539  1.00  0.00    -0.266 OA
ENDBRANCH  28  29
ENDBRANCH   1  28
BRANCH  14  32
HETATM   32  O6  UNL     1       7.539  -9.166 -13.301  1.00  0.00    -0.394 OA
ATOM     33  H6  UNL     1       7.988  -9.931 -13.641  1.00  0.00     0.210 HD
ENDBRANCH  14  32
BRANCH  16  34
HETATM   34  O7  UNL     1       8.922  -8.091  -9.013  1.00  0.00    -0.395 OA
ATOM     35  H7  UNL     1       8.506  -8.275  -8.180  1.00  0.00     0.210 HD
ENDBRANCH  16  34
BRANCH  23  36
HETATM   36  O9  UNL     1       1.004  -9.259 -11.633  1.00  0.00    -0.390 OA
ATOM     37  H9  UNL     1       0.631  -8.942 -12.447  1.00  0.00     0.210 HD
ENDBRANCH  23  36
TORSDOF 5
ENDMDL
MODEL 5
REMARK VINA RESULT: -6.663579369      1.931      5.397
REMARK  5 active torsions:
REMARK  status: ('A' for Active; 'I' for Inactive)
REMARK    1  A    between atoms: C2_2  and  O2_4 
REMARK    2  A    between atoms: O2_4  and  C3_5 
REMARK    3  A    between atoms: C13_18  and  O6_19 
REMARK    4  A    between atoms: C15_22  and  O7_23 
REMARK    5  A    between atoms: C21_31  and  O9_33 
ROOT
HETATM    1  C3  UNL     1       5.333  -6.699 -13.617  1.00  0.00     0.236 C 
HETATM    2  C4  UNL     1       6.377  -7.519 -14.397  1.00  0.00     0.086 C 
HETATM    3  O3  UNL     1       5.710  -5.414 -13.621  1.00  0.00    -0.254 OA
HETATM    4  C5  UNL     1       6.474  -4.377 -13.629  1.00  0.00     0.410 C 
HETATM    5  O4  UNL     1       7.359  -4.010 -14.480  1.00  0.00    -0.229 OA
HETATM    6  O5  UNL     1       6.412  -3.437 -12.592  1.00  0.00    -0.283 OA
HETATM    7  C6  UNL     1       5.220  -3.056 -11.904  1.00  0.00     0.083 C 
HETATM    8  C7  UNL     1       4.667  -1.941 -12.846  1.00  0.00     0.051 C 
HETATM    9  C8  UNL     1       5.545  -2.355 -10.667  1.00  0.00     0.051 C 
HETATM   10  C9  UNL     1       4.269  -4.202 -11.931  1.00  0.00     0.007 C 
HETATM   11  C10 UNL     1       3.957  -5.205 -11.216  1.00  0.00    -0.015 C 
HETATM   12  C11 UNL     1       2.998  -6.349 -11.274  1.00  0.00     0.009 C 
HETATM   13  C12 UNL     1       1.687  -6.217 -11.906  1.00  0.00     0.023 C 
HETATM   14  C13 UNL     1       2.573  -6.691  -9.808  1.00  0.00     0.133 C 
HETATM   15  C14 UNL     1       1.834  -7.990  -9.815  1.00  0.00     0.064 C 
HETATM   16  C15 UNL     1       2.100  -8.986 -10.846  1.00  0.00     0.121 C 
HETATM   17  C16 UNL     1       2.928  -8.629 -12.042  1.00  0.00     0.043 C 
HETATM   18  C17 UNL     1       3.853  -7.528 -11.655  1.00  0.00     0.071 C 
HETATM   19  C18 UNL     1       5.150  -7.387 -12.299  1.00  0.00     0.228 C 
HETATM   20  O8  UNL     1       5.565  -8.735 -12.495  1.00  0.00    -0.342 OA
HETATM   21  C19 UNL     1       6.686  -8.967 -11.847  1.00  0.00     0.157 C 
HETATM   22  C20 UNL     1       6.879 -10.145 -10.945  1.00  0.00     0.072 C 
HETATM   23  C21 UNL     1       8.061  -9.602 -10.107  1.00  0.00     0.059 C 
HETATM   24  C22 UNL     1       7.911 -10.000  -8.674  1.00  0.00     0.046 C 
HETATM   25  C23 UNL     1       7.997  -8.066 -10.271  1.00  0.00     0.072 C 
HETATM   26  C24 UNL     1       6.573  -7.938 -10.706  1.00  0.00     0.157 C 
HETATM   27  O10 UNL     1       6.122  -6.889 -11.375  1.00  0.00    -0.342 OA
ENDROOT
BRANCH   1  28
HETATM   28  O2  UNL     1       4.089  -6.831 -14.278  1.00  0.00    -0.278 OA
BRANCH  28  29
HETATM   29  C2  UNL     1       3.468  -5.928 -15.080  1.00  0.00     0.257 C 
HETATM   30  C1  UNL     1       4.137  -5.407 -16.322  1.00  0.00     0.126 C 
HETATM   31  O1  UNL     1       2.330  -5.523 -14.789  1.00  0.00    -0.266 OA
ENDBRANCH  28  29
ENDBRANCH   1  28
BRANCH  14  32
HETATM   32  O6  UNL     1       3.670  -6.669  -8.964  1.00  0.00    -0.394 OA
ATOM     33  H6  UNL     1       3.409  -6.430  -8.082  1.00  0.00     0.210 HD
ENDBRANCH  14  32
BRANCH  16  34
HETATM   34  O7  UNL     1       0.865  -9.507 -11.316  1.00  0.00    -0.395 OA
ATOM     35  H7  UNL     1       1.031 -10.075 -12.059  1.00  0.00     0.210 HD
ENDBRANCH  16  34
BRANCH  23  36
HETATM   36  O9  UNL     1       9.243 -10.067 -10.663  1.00  0.00    -0.390 OA
ATOM     37  H9  UNL     1       9.822 -10.333  -9.959  1.00  0.00     0.210 HD
ENDBRANCH  23  36
TORSDOF 5
ENDMDL
