MODEL 1
REMARK VINA RESULT: -7.978109542      0.000      0.000
REMARK  8 active torsions:
REMARK  status: ('A' for Active; 'I' for Inactive)
REMARK    1  A    between atoms: C2_2  and  O2_4 
REMARK    2  A    between atoms: O2_4  and  C3_5 
REMARK    3  A    between atoms: C5_7  and  C7_9 
REMARK    4  A    between atoms: C12_16  and  C13_17 
REMARK    5  A    between atoms: C13_17  and  O5_20 
REMARK    6  A    between atoms: C16_22  and  C21_28 
REMARK    7  A    between atoms: C21_28  and  O7_29 
REMARK    8  A    between atoms: C22_33  and  O8_34 
ROOT
HETATM    1  C7  UNL     1       4.725  -4.076 -12.417  1.00  0.00     0.103 A 
HETATM    2  C8  UNL     1       4.611  -2.646 -12.621  1.00  0.00     0.043 C 
HETATM    3  C9  UNL     1       5.957  -2.015 -12.188  1.00  0.00     0.022 C 
HETATM    4  C10 UNL     1       7.021  -2.643 -13.046  1.00  0.00     0.117 C 
HETATM    5  C11 UNL     1       6.206  -2.285 -14.463  1.00  0.00     0.272 C 
HETATM    6  O3  UNL     1       6.236  -1.183 -14.636  1.00  0.00    -0.264 OA
HETATM    7  O4  UNL     1       5.651  -3.368 -15.161  1.00  0.00    -0.279 OA
HETATM    8  C12 UNL     1       5.682  -4.682 -15.577  1.00  0.00     0.097 C 
HETATM    9  C16 UNL     1       5.358  -5.891 -14.766  1.00  0.00     0.002 C 
HETATM   10  C17 UNL     1       6.757  -6.425 -14.163  1.00  0.00     0.068 C 
HETATM   11  C18 UNL     1       7.378  -4.950 -14.127  1.00  0.00    -0.016 C 
HETATM   12  C19 UNL     1       6.817  -4.097 -13.275  1.00  0.00    -0.038 C 
HETATM   13  C20 UNL     1       6.028  -4.637 -12.060  1.00  0.00     0.188 A 
HETATM   14  O6  UNL     1       5.294  -4.118 -11.152  1.00  0.00    -0.363 OA
ENDROOT
BRANCH   8  15
HETATM   15  C13 UNL     1       5.093  -4.645 -17.001  1.00  0.00     0.100 C 
HETATM   16  C14 UNL     1       6.131  -4.509 -18.085  1.00  0.00     0.053 C 
HETATM   17  C15 UNL     1       3.986  -3.729 -17.246  1.00  0.00     0.053 C 
BRANCH  15  18
HETATM   18  O5  UNL     1       4.573  -5.962 -17.270  1.00  0.00    -0.384 OA
ATOM     19  H5  UNL     1       4.106  -5.909 -18.096  1.00  0.00     0.211 HD
ENDBRANCH  15  18
ENDBRANCH   8  15
BRANCH   9  20
HETATM   20  C21 UNL     1       4.191  -5.991 -13.918  1.00  0.00     0.153 C 
HETATM   21  C5  UNL     1       3.505  -5.014 -13.112  1.00  0.00     0.038 C 
HETATM   22  C4  UNL     1       3.083  -5.200 -11.719  1.00  0.00     0.052 C 
HETATM   23  C6  UNL     1       2.195  -4.603 -13.827  1.00  0.00     0.023 C 
HETATM   24  C3  UNL     1       2.201  -6.221 -11.176  1.00  0.00     0.172 C 
HETATM   25  C22 UNL     1       3.038  -7.102 -10.182  1.00  0.00     0.220 C 
HETATM   26  S2  UNL     1       4.678  -7.212 -11.003  1.00  0.00    -0.060 SA
HETATM   27  S1  UNL     1       4.224  -7.589 -13.030  1.00  0.00    -0.051 SA
BRANCH  24  28
HETATM   28  O2  UNL     1       1.614  -7.132 -12.038  1.00  0.00    -0.313 OA
BRANCH  28  29
HETATM   29  C2  UNL     1       0.255  -7.344 -12.147  1.00  0.00     0.255 C 
HETATM   30  C1  UNL     1      -0.305  -7.969 -13.376  1.00  0.00     0.126 C 
HETATM   31  O1  UNL     1      -0.461  -6.989 -11.176  1.00  0.00    -0.266 OA
ENDBRANCH  28  29
ENDBRANCH  24  28
BRANCH  25  32
HETATM   32  O8  UNL     1       3.067  -6.437  -8.999  1.00  0.00    -0.382 OA
ATOM     33  H8  UNL     1       3.599  -6.955  -8.406  1.00  0.00     0.211 HD
ENDBRANCH  25  32
BRANCH  20  34
HETATM   34  O7  UNL     1       3.225  -6.352 -14.961  1.00  0.00    -0.373 OA
ATOM     35  H7  UNL     1       3.725  -6.332 -15.768  1.00  0.00     0.212 HD
ENDBRANCH  20  34
ENDBRANCH   9  20
TORSDOF 8
ENDMDL
MODEL 2
REMARK VINA RESULT: -7.391664633      1.928      4.254
REMARK  8 active torsions:
REMARK  status: ('A' for Active; 'I' for Inactive)
REMARK    1  A    between atoms: C2_2  and  O2_4 
REMARK    2  A    between atoms: O2_4  and  C3_5 
REMARK    3  A    between atoms: C5_7  and  C7_9 
REMARK    4  A    between atoms: C12_16  and  C13_17 
REMARK    5  A    between atoms: C13_17  and  O5_20 
REMARK    6  A    between atoms: C16_22  and  C21_28 
REMARK    7  A    between atoms: C21_28  and  O7_29 
REMARK    8  A    between atoms: C22_33  and  O8_34 
ROOT
HETATM    1  C7  UNL     1       5.108  -5.334 -14.658  1.00  0.00     0.103 A 
HETATM    2  C8  UNL     1       6.215  -5.500 -15.578  1.00  0.00     0.043 C 
HETATM    3  C9  UNL     1       6.036  -4.449 -16.701  1.00  0.00     0.022 C 
HETATM    4  C10 UNL     1       6.032  -3.102 -16.032  1.00  0.00     0.117 C 
HETATM    5  C11 UNL     1       7.465  -3.406 -15.224  1.00  0.00     0.272 C 
HETATM    6  O3  UNL     1       8.305  -3.419 -15.957  1.00  0.00    -0.264 OA
HETATM    7  O4  UNL     1       7.378  -3.585 -13.834  1.00  0.00    -0.279 OA
HETATM    8  C12 UNL     1       6.814  -3.293 -12.610  1.00  0.00     0.097 C 
HETATM    9  C16 UNL     1       5.500  -3.766 -12.089  1.00  0.00     0.002 C 
HETATM   10  C17 UNL     1       4.424  -2.619 -12.454  1.00  0.00     0.068 C 
HETATM   11  C18 UNL     1       5.235  -2.186 -13.763  1.00  0.00    -0.016 C 
HETATM   12  C19 UNL     1       5.288  -3.081 -14.746  1.00  0.00    -0.038 C 
HETATM   13  C20 UNL     1       4.213  -4.189 -14.830  1.00  0.00     0.188 A 
HETATM   14  O6  UNL     1       4.043  -5.235 -15.542  1.00  0.00    -0.363 OA
ENDROOT
BRANCH   8  15
HETATM   15  C13 UNL     1       7.996  -3.355 -11.623  1.00  0.00     0.100 C 
HETATM   16  C14 UNL     1       8.660  -2.022 -11.385  1.00  0.00     0.053 C 
HETATM   17  C15 UNL     1       9.002  -4.386 -11.843  1.00  0.00     0.053 C 
BRANCH  15  18
HETATM   18  O5  UNL     1       7.437  -3.629 -10.323  1.00  0.00    -0.384 OA
ATOM     19  H5  UNL     1       6.572  -3.236 -10.308  1.00  0.00     0.211 HD
ENDBRANCH  15  18
ENDBRANCH   8  15
BRANCH   9  20
HETATM   20  C21 UNL     1       5.058  -5.140 -12.175  1.00  0.00     0.153 C 
HETATM   21  C5  UNL     1       5.311  -6.169 -13.151  1.00  0.00     0.038 C 
HETATM   22  C4  UNL     1       4.297  -7.036 -13.761  1.00  0.00     0.052 C 
HETATM   23  C6  UNL     1       6.331  -7.177 -12.565  1.00  0.00     0.023 C 
HETATM   24  C3  UNL     1       3.367  -7.937 -13.097  1.00  0.00     0.172 C 
HETATM   25  C22 UNL     1       1.911  -7.418 -13.375  1.00  0.00     0.220 C 
HETATM   26  S2  UNL     1       2.102  -5.592 -13.311  1.00  0.00    -0.060 SA
HETATM   27  S1  UNL     1       3.319  -5.251 -11.619  1.00  0.00    -0.051 SA
BRANCH  24  28
HETATM   28  O2  UNL     1       3.430  -8.077 -11.721  1.00  0.00    -0.313 OA
BRANCH  28  29
HETATM   29  C2  UNL     1       2.656  -8.952 -10.987  1.00  0.00     0.255 C 
HETATM   30  C1  UNL     1       2.578 -10.385 -11.378  1.00  0.00     0.126 C 
HETATM   31  O1  UNL     1       2.040  -8.481  -9.997  1.00  0.00    -0.266 OA
ENDBRANCH  28  29
ENDBRANCH  24  28
BRANCH  25  32
HETATM   32  O8  UNL     1       1.556  -7.883 -14.600  1.00  0.00    -0.382 OA
ATOM     33  H8  UNL     1       1.099  -8.704 -14.459  1.00  0.00     0.211 HD
ENDBRANCH  25  32
BRANCH  20  34
HETATM   34  O7  UNL     1       5.699  -5.627 -10.949  1.00  0.00    -0.373 OA
ATOM     35  H7  UNL     1       5.818  -4.850 -10.416  1.00  0.00     0.212 HD
ENDBRANCH  20  34
ENDBRANCH   9  20
TORSDOF 8
ENDMDL
MODEL 3
REMARK VINA RESULT: -7.359424620      1.143      1.359
REMARK  8 active torsions:
REMARK  status: ('A' for Active; 'I' for Inactive)
REMARK    1  A    between atoms: C2_2  and  O2_4 
REMARK    2  A    between atoms: O2_4  and  C3_5 
REMARK    3  A    between atoms: C5_7  and  C7_9 
REMARK    4  A    between atoms: C12_16  and  C13_17 
REMARK    5  A    between atoms: C13_17  and  O5_20 
REMARK    6  A    between atoms: C16_22  and  C21_28 
REMARK    7  A    between atoms: C21_28  and  O7_29 
REMARK    8  A    between atoms: C22_33  and  O8_34 
ROOT
HETATM    1  C7  UNL     1       4.380  -4.137 -12.297  1.00  0.00     0.103 A 
HETATM    2  C8  UNL     1       4.165  -2.818 -12.858  1.00  0.00     0.043 C 
HETATM    3  C9  UNL     1       5.124  -1.849 -12.123  1.00  0.00     0.022 C 
HETATM    4  C10 UNL     1       6.518  -2.362 -12.359  1.00  0.00     0.117 C 
HETATM    5  C11 UNL     1       6.303  -2.425 -14.017  1.00  0.00     0.272 C 
HETATM    6  O3  UNL     1       6.251  -1.386 -14.420  1.00  0.00    -0.264 OA
HETATM    7  O4  UNL     1       6.229  -3.701 -14.595  1.00  0.00    -0.279 OA
HETATM    8  C12 UNL     1       6.603  -5.027 -14.650  1.00  0.00     0.097 C 
HETATM    9  C16 UNL     1       6.146  -6.129 -13.755  1.00  0.00     0.002 C 
HETATM   10  C17 UNL     1       7.242  -6.242 -12.574  1.00  0.00     0.068 C 
HETATM   11  C18 UNL     1       7.589  -4.682 -12.661  1.00  0.00    -0.016 C 
HETATM   12  C19 UNL     1       6.622  -3.843 -12.298  1.00  0.00    -0.038 C 
HETATM   13  C20 UNL     1       5.491  -4.336 -11.366  1.00  0.00     0.188 A 
HETATM   14  O6  UNL     1       4.391  -3.849 -10.940  1.00  0.00    -0.363 OA
ENDROOT
BRANCH   8  15
HETATM   15  C13 UNL     1       6.639  -5.351 -16.156  1.00  0.00     0.100 C 
HETATM   16  C14 UNL     1       7.909  -4.915 -16.842  1.00  0.00     0.053 C 
HETATM   17  C15 UNL     1       5.480  -4.968 -16.953  1.00  0.00     0.053 C 
BRANCH  15  18
HETATM   18  O5  UNL     1       6.733  -6.784 -16.271  1.00  0.00    -0.384 OA
ATOM     19  H5  UNL     1       6.299  -7.023 -17.082  1.00  0.00     0.211 HD
ENDBRANCH  15  18
ENDBRANCH   8  15
BRANCH   9  20
HETATM   20  C21 UNL     1       4.762  -6.340 -13.395  1.00  0.00     0.153 C 
HETATM   21  C5  UNL     1       3.702  -5.417 -13.076  1.00  0.00     0.038 C 
HETATM   22  C4  UNL     1       2.794  -5.522 -11.929  1.00  0.00     0.052 C 
HETATM   23  C6  UNL     1       2.738  -5.324 -14.284  1.00  0.00     0.023 C 
HETATM   24  C3  UNL     1       1.900  -6.618 -11.588  1.00  0.00     0.172 C 
HETATM   25  C22 UNL     1       2.380  -7.224 -10.221  1.00  0.00     0.220 C 
HETATM   26  S2  UNL     1       4.211  -7.132 -10.346  1.00  0.00    -0.060 SA
HETATM   27  S1  UNL     1       4.637  -7.801 -12.302  1.00  0.00    -0.051 SA
BRANCH  24  28
HETATM   28  O2  UNL     1       1.812  -7.706 -12.439  1.00  0.00    -0.313 OA
BRANCH  28  29
HETATM   29  C2  UNL     1       0.800  -7.904 -13.356  1.00  0.00     0.255 C 
HETATM   30  C1  UNL     1      -0.608  -7.595 -12.988  1.00  0.00     0.126 C 
HETATM   31  O1  UNL     1       1.128  -8.348 -14.486  1.00  0.00    -0.266 OA
ENDBRANCH  28  29
ENDBRANCH  24  28
BRANCH  25  32
HETATM   32  O8  UNL     1       1.864  -6.439  -9.241  1.00  0.00    -0.382 OA
ATOM     33  H8  UNL     1       1.382  -5.743  -9.673  1.00  0.00     0.211 HD
ENDBRANCH  25  32
BRANCH  20  34
HETATM   34  O7  UNL     1       4.332  -6.977 -14.645  1.00  0.00    -0.373 OA
ATOM     35  H7  UNL     1       4.806  -7.801 -14.668  1.00  0.00     0.212 HD
ENDBRANCH  20  34
ENDBRANCH   9  20
TORSDOF 8
ENDMDL
MODEL 4
REMARK VINA RESULT: -7.332466559      2.174      4.383
REMARK  8 active torsions:
REMARK  status: ('A' for Active; 'I' for Inactive)
REMARK    1  A    between atoms: C2_2  and  O2_4 
REMARK    2  A    between atoms: O2_4  and  C3_5 
REMARK    3  A    between atoms: C5_7  and  C7_9 
REMARK    4  A    between atoms: C12_16  and  C13_17 
REMARK    5  A    between atoms: C13_17  and  O5_20 
REMARK    6  A    between atoms: C16_22  and  C21_28 
REMARK    7  A    between atoms: C21_28  and  O7_29 
REMARK    8  A    between atoms: C22_33  and  O8_34 
ROOT
HETATM    1  C7  UNL     1       2.288  -6.295 -13.593  1.00  0.00     0.103 A 
HETATM    2  C8  UNL     1       2.997  -6.828 -14.738  1.00  0.00     0.043 C 
HETATM    3  C9  UNL     1       3.143  -5.674 -15.761  1.00  0.00     0.022 C 
HETATM    4  C10 UNL     1       3.901  -4.577 -15.065  1.00  0.00     0.117 C 
HETATM    5  C11 UNL     1       5.134  -5.609 -14.601  1.00  0.00     0.272 C 
HETATM    6  O3  UNL     1       5.720  -5.909 -15.501  1.00  0.00    -0.264 OA
HETATM    7  O4  UNL     1       5.222  -5.909 -13.233  1.00  0.00    -0.279 OA
HETATM    8  C12 UNL     1       5.095  -5.556 -11.907  1.00  0.00     0.097 C 
HETATM    9  C16 UNL     1       3.831  -5.437 -11.124  1.00  0.00     0.002 C 
HETATM   10  C17 UNL     1       3.387  -3.887 -11.207  1.00  0.00     0.068 C 
HETATM   11  C18 UNL     1       4.057  -3.706 -12.649  1.00  0.00    -0.016 C 
HETATM   12  C19 UNL     1       3.501  -4.387 -13.647  1.00  0.00    -0.038 C 
HETATM   13  C20 UNL     1       2.032  -4.856 -13.527  1.00  0.00     0.188 A 
HETATM   14  O6  UNL     1       1.260  -5.603 -14.217  1.00  0.00    -0.363 OA
ENDROOT
BRANCH   8  15
HETATM   15  C13 UNL     1       6.259  -6.282 -11.206  1.00  0.00     0.100 C 
HETATM   16  C14 UNL     1       7.242  -6.917 -12.156  1.00  0.00     0.053 C 
HETATM   17  C15 UNL     1       5.922  -7.213 -10.136  1.00  0.00     0.053 C 
BRANCH  15  18
HETATM   18  O5  UNL     1       7.075  -5.265 -10.592  1.00  0.00    -0.384 OA
ATOM     19  H5  UNL     1       7.962  -5.602 -10.570  1.00  0.00     0.211 HD
ENDBRANCH  15  18
ENDBRANCH   8  15
BRANCH   9  20
HETATM   20  C21 UNL     1       2.780  -6.430 -11.154  1.00  0.00     0.153 C 
HETATM   21  C5  UNL     1       2.083  -7.120 -10.099  1.00  0.00     0.038 C 
HETATM   22  C4  UNL     1       1.837  -8.565 -10.041  1.00  0.00     0.052 C 
HETATM   23  C6  UNL     1       0.666  -6.513  -9.953  1.00  0.00     0.023 C 
HETATM   24  C3  UNL     1       1.134  -9.396 -11.007  1.00  0.00     0.172 C 
HETATM   25  C22 UNL     1       2.165 -10.424 -11.597  1.00  0.00     0.220 C 
HETATM   26  S2  UNL     1       3.709  -9.436 -11.726  1.00  0.00    -0.060 SA
HETATM   27  S1  UNL     1       3.084  -7.589 -12.535  1.00  0.00    -0.051 SA
BRANCH  24  28
HETATM   28  O2  UNL     1       0.561  -8.802 -12.118  1.00  0.00    -0.313 OA
BRANCH  28  29
HETATM   29  C2  UNL     1      -0.797  -8.664 -12.319  1.00  0.00     0.255 C 
HETATM   30  C1  UNL     1      -1.340  -7.400 -12.886  1.00  0.00     0.126 C 
HETATM   31  O1  UNL     1      -1.526  -9.639 -12.004  1.00  0.00    -0.266 OA
ENDBRANCH  28  29
ENDBRANCH  24  28
BRANCH  25  32
HETATM   32  O8  UNL     1       2.249 -11.448 -10.710  1.00  0.00    -0.382 OA
ATOM     33  H8  UNL     1       2.097 -11.078  -9.848  1.00  0.00     0.211 HD
ENDBRANCH  25  32
BRANCH  20  34
HETATM   34  O7  UNL     1       1.753  -5.604 -11.797  1.00  0.00    -0.373 OA
ATOM     35  H7  UNL     1       1.756  -5.882 -12.706  1.00  0.00     0.212 HD
ENDBRANCH  20  34
ENDBRANCH   9  20
TORSDOF 8
ENDMDL
MODEL 5
REMARK VINA RESULT: -7.291897889      2.760      6.721
REMARK  8 active torsions:
REMARK  status: ('A' for Active; 'I' for Inactive)
REMARK    1  A    between atoms: C2_2  and  O2_4 
REMARK    2  A    between atoms: O2_4  and  C3_5 
REMARK    3  A    between atoms: C5_7  and  C7_9 
REMARK    4  A    between atoms: C12_16  and  C13_17 
REMARK    5  A    between atoms: C13_17  and  O5_20 
REMARK    6  A    between atoms: C16_22  and  C21_28 
REMARK    7  A    between atoms: C21_28  and  O7_29 
REMARK    8  A    between atoms: C22_33  and  O8_34 
ROOT
HETATM    1  C7  UNL     1       2.751  -6.724 -10.856  1.00  0.00     0.103 A 
HETATM    2  C8  UNL     1       2.394  -7.085  -9.499  1.00  0.00     0.043 C 
HETATM    3  C9  UNL     1       0.869  -6.861  -9.355  1.00  0.00     0.022 C 
HETATM    4  C10 UNL     1       0.207  -7.736 -10.384  1.00  0.00     0.117 C 
HETATM    5  C11 UNL     1       1.028  -9.101  -9.872  1.00  0.00     0.272 C 
HETATM    6  O3  UNL     1       0.645  -9.406  -8.870  1.00  0.00    -0.264 OA
HETATM    7  O4  UNL     1       2.007  -9.609 -10.740  1.00  0.00    -0.279 OA
HETATM    8  C12 UNL     1       2.484  -9.866 -12.008  1.00  0.00     0.097 C 
HETATM    9  C16 UNL     1       3.093  -8.890 -12.956  1.00  0.00     0.002 C 
HETATM   10  C17 UNL     1       1.895  -8.364 -13.902  1.00  0.00     0.068 C 
HETATM   11  C18 UNL     1       0.808  -8.563 -12.745  1.00  0.00    -0.016 C 
HETATM   12  C19 UNL     1       0.925  -7.769 -11.684  1.00  0.00    -0.038 C 
HETATM   13  C20 UNL     1       1.685  -6.428 -11.812  1.00  0.00     0.188 A 
HETATM   14  O6  UNL     1       2.071  -5.524 -10.999  1.00  0.00    -0.363 OA
ENDROOT
BRANCH   8  15
HETATM   15  C13 UNL     1       3.205 -11.221 -11.876  1.00  0.00     0.100 C 
HETATM   16  C14 UNL     1       4.464 -11.163 -11.049  1.00  0.00     0.053 C 
HETATM   17  C15 UNL     1       3.442 -11.977 -13.099  1.00  0.00     0.053 C 
BRANCH  15  18
HETATM   18  O5  UNL     1       2.367 -12.061 -11.057  1.00  0.00    -0.384 OA
ATOM     19  H5  UNL     1       2.885 -12.310 -10.301  1.00  0.00     0.211 HD
ENDBRANCH  15  18
ENDBRANCH   8  15
BRANCH   9  20
HETATM   20  C21 UNL     1       4.102  -7.929 -12.569  1.00  0.00     0.153 C 
HETATM   21  C5  UNL     1       4.350  -7.248 -11.323  1.00  0.00     0.038 C 
HETATM   22  C4  UNL     1       4.599  -5.811 -11.170  1.00  0.00     0.052 C 
HETATM   23  C6  UNL     1       5.577  -7.895 -10.634  1.00  0.00     0.023 C 
HETATM   24  C3  UNL     1       5.649  -5.010 -11.781  1.00  0.00     0.172 C 
HETATM   25  C22 UNL     1       4.965  -3.959 -12.726  1.00  0.00     0.220 C 
HETATM   26  S2  UNL     1       3.565  -4.902 -13.452  1.00  0.00    -0.060 SA
HETATM   27  S1  UNL     1       4.400  -6.775 -13.956  1.00  0.00    -0.051 SA
BRANCH  24  28
HETATM   28  O2  UNL     1       6.593  -5.633 -12.579  1.00  0.00    -0.313 OA
BRANCH  28  29
HETATM   29  C2  UNL     1       7.906  -5.851 -12.215  1.00  0.00     0.255 C 
HETATM   30  C1  UNL     1       8.625  -7.057 -12.708  1.00  0.00     0.126 C 
HETATM   31  O1  UNL     1       8.443  -4.996 -11.465  1.00  0.00    -0.266 OA
ENDBRANCH  28  29
ENDBRANCH  24  28
BRANCH  25  32
HETATM   32  O8  UNL     1       4.572  -2.924 -11.941  1.00  0.00    -0.382 OA
ATOM     33  H8  UNL     1       5.310  -2.329 -11.881  1.00  0.00     0.211 HD
ENDBRANCH  25  32
BRANCH  20  34
HETATM   34  O7  UNL     1       5.273  -8.790 -12.759  1.00  0.00    -0.373 OA
ATOM     35  H7  UNL     1       5.610  -8.933 -11.882  1.00  0.00     0.212 HD
ENDBRANCH  20  34
ENDBRANCH   9  20
TORSDOF 8
ENDMDL
