MODEL 1
REMARK VINA RESULT: -7.220511662      0.000      0.000
REMARK  2 active torsions:
REMARK  status: ('A' for Active; 'I' for Inactive)
REMARK    1  A    between atoms: C7_9  and  C8_10 
REMARK       I    between atoms: C8_10  and  N2_12 
REMARK    2  A    between atoms: N2_12  and  C9_14 
ROOT
HETATM    1  C1  UNL     1      -1.936   4.287   9.289  1.00  0.00     0.314 C 
HETATM    2  N1  UNL     1      -2.256   3.807  10.589  1.00  0.00     0.117 N 
HETATM    3  C2  UNL     1      -3.145   2.679  10.605  1.00  0.00     0.228 C 
HETATM    4  C3  UNL     1      -2.439   1.386  10.262  1.00  0.00     0.036 C 
HETATM    5  C4  UNL     1      -1.197   1.187  11.102  1.00  0.00     0.007 C 
HETATM    6  C5  UNL     1      -0.314   2.403  11.040  1.00  0.00     0.064 C 
HETATM    7  C6  UNL     1      -1.134   3.609  11.457  1.00  0.00     0.359 C 
HETATM    8  O1  UNL     1      -1.592   3.381  12.734  1.00  0.00    -0.342 OA
HETATM    9  C7  UNL     1      -2.954   3.525  12.878  1.00  0.00     0.218 C 
HETATM   10  C15 UNL     1      -3.759   2.611  11.997  1.00  0.00     0.077 C 
ENDROOT
BRANCH   9  11
HETATM   11  C8  UNL     1      -3.297   3.185  14.298  1.00  0.00     0.247 C 
HETATM   12  O2  UNL     1      -2.462   3.285  15.224  1.00  0.00    -0.271 OA
HETATM   13  N2  UNL     1      -4.624   2.738  14.560  1.00  0.00    -0.354 N 
ATOM     14  H2  UNL     1      -5.301   2.660  13.801  1.00  0.00     0.162 HD
BRANCH  13  15
HETATM   15  C9  UNL     1      -5.002   2.399  15.910  1.00  0.00     0.084 C 
HETATM   16  C10 UNL     1      -5.060   0.885  16.044  1.00  0.00     0.025 C 
HETATM   17  C11 UNL     1      -5.863   0.440  17.229  1.00  0.00     0.002 C 
HETATM   18  C12 UNL     1      -5.961   1.593  18.197  1.00  0.00     0.000 C 
HETATM   19  C13 UNL     1      -6.858   2.659  17.568  1.00  0.00     0.002 C 
HETATM   20  C14 UNL     1      -6.326   3.038  16.209  1.00  0.00     0.025 C 
ENDBRANCH  13  15
ENDBRANCH   9  11
TORSDOF 2
ENDMDL
MODEL 2
REMARK VINA RESULT: -7.040712994      1.639      2.574
REMARK  2 active torsions:
REMARK  status: ('A' for Active; 'I' for Inactive)
REMARK    1  A    between atoms: C7_9  and  C8_10 
REMARK       I    between atoms: C8_10  and  N2_12 
REMARK    2  A    between atoms: N2_12  and  C9_14 
ROOT
HETATM    1  C1  UNL     1      -0.962   4.089   8.474  1.00  0.00     0.314 C 
HETATM    2  N1  UNL     1      -1.781   3.716   9.576  1.00  0.00     0.117 N 
HETATM    3  C2  UNL     1      -1.198   2.730  10.443  1.00  0.00     0.228 C 
HETATM    4  C3  UNL     1      -0.158   3.321  11.369  1.00  0.00     0.036 C 
HETATM    5  C4  UNL     1      -0.687   4.532  12.104  1.00  0.00     0.007 C 
HETATM    6  C5  UNL     1      -1.281   5.520  11.137  1.00  0.00     0.064 C 
HETATM    7  C6  UNL     1      -2.338   4.807  10.317  1.00  0.00     0.359 C 
HETATM    8  O1  UNL     1      -3.285   4.319  11.188  1.00  0.00    -0.342 OA
HETATM    9  C7  UNL     1      -3.543   2.975  11.042  1.00  0.00     0.218 C 
HETATM   10  C15 UNL     1      -2.336   2.100  11.235  1.00  0.00     0.077 C 
ENDROOT
BRANCH   9  11
HETATM   11  C8  UNL     1      -4.540   2.590  12.095  1.00  0.00     0.247 C 
HETATM   12  O2  UNL     1      -5.614   2.016  11.813  1.00  0.00    -0.271 OA
HETATM   13  N2  UNL     1      -4.217   2.905  13.447  1.00  0.00    -0.354 N 
ATOM     14  H2  UNL     1      -3.338   3.373  13.670  1.00  0.00     0.162 HD
BRANCH  13  15
HETATM   15  C9  UNL     1      -5.144   2.556  14.495  1.00  0.00     0.084 C 
HETATM   16  C10 UNL     1      -5.941   3.791  14.885  1.00  0.00     0.025 C 
HETATM   17  C11 UNL     1      -6.583   3.662  16.233  1.00  0.00     0.002 C 
HETATM   18  C12 UNL     1      -6.661   2.197  16.584  1.00  0.00     0.000 C 
HETATM   19  C13 UNL     1      -5.240   1.699  16.844  1.00  0.00     0.002 C 
HETATM   20  C14 UNL     1      -4.366   2.003  15.652  1.00  0.00     0.025 C 
ENDBRANCH  13  15
ENDBRANCH   9  11
TORSDOF 2
ENDMDL
MODEL 3
REMARK VINA RESULT: -6.993793191      1.391      1.977
REMARK  2 active torsions:
REMARK  status: ('A' for Active; 'I' for Inactive)
REMARK    1  A    between atoms: C7_9  and  C8_10 
REMARK       I    between atoms: C8_10  and  N2_12 
REMARK    2  A    between atoms: N2_12  and  C9_14 
ROOT
HETATM    1  C1  UNL     1      -0.415   5.969  10.732  1.00  0.00     0.314 C 
HETATM    2  N1  UNL     1      -1.421   5.103  11.244  1.00  0.00     0.117 N 
HETATM    3  C2  UNL     1      -2.308   4.569  10.248  1.00  0.00     0.228 C 
HETATM    4  C3  UNL     1      -1.680   3.437   9.465  1.00  0.00     0.036 C 
HETATM    5  C4  UNL     1      -1.094   2.383  10.378  1.00  0.00     0.007 C 
HETATM    6  C5  UNL     1      -0.178   3.011  11.392  1.00  0.00     0.064 C 
HETATM    7  C6  UNL     1      -0.951   4.084  12.134  1.00  0.00     0.359 C 
HETATM    8  O1  UNL     1      -2.033   3.481  12.734  1.00  0.00    -0.342 OA
HETATM    9  C7  UNL     1      -3.241   4.072  12.440  1.00  0.00     0.218 C 
HETATM   10  C15 UNL     1      -3.563   4.099  10.972  1.00  0.00     0.077 C 
ENDROOT
BRANCH   9  11
HETATM   11  C8  UNL     1      -4.313   3.267  13.113  1.00  0.00     0.247 C 
HETATM   12  O2  UNL     1      -5.274   2.781  12.478  1.00  0.00    -0.271 OA
HETATM   13  N2  UNL     1      -4.197   3.073  14.520  1.00  0.00    -0.354 N 
ATOM     14  H2  UNL     1      -3.410   3.472  15.031  1.00  0.00     0.162 HD
BRANCH  13  15
HETATM   15  C9  UNL     1      -5.203   2.306  15.213  1.00  0.00     0.084 C 
HETATM   16  C10 UNL     1      -6.196   3.259  15.859  1.00  0.00     0.025 C 
HETATM   17  C11 UNL     1      -6.991   2.611  16.953  1.00  0.00     0.002 C 
HETATM   18  C12 UNL     1      -6.927   1.115  16.764  1.00  0.00     0.000 C 
HETATM   19  C13 UNL     1      -5.501   0.662  17.075  1.00  0.00     0.002 C 
HETATM   20  C14 UNL     1      -4.523   1.434  16.226  1.00  0.00     0.025 C 
ENDBRANCH  13  15
ENDBRANCH   9  11
TORSDOF 2
ENDMDL
MODEL 4
REMARK VINA RESULT: -6.965029371      1.609      2.682
REMARK  2 active torsions:
REMARK  status: ('A' for Active; 'I' for Inactive)
REMARK    1  A    between atoms: C7_9  and  C8_10 
REMARK       I    between atoms: C8_10  and  N2_12 
REMARK    2  A    between atoms: N2_12  and  C9_14 
ROOT
HETATM    1  C1  UNL     1      -0.070   4.067  10.398  1.00  0.00     0.314 C 
HETATM    2  N1  UNL     1      -1.212   3.660  11.142  1.00  0.00     0.117 N 
HETATM    3  C2  UNL     1      -1.541   4.519  12.245  1.00  0.00     0.228 C 
HETATM    4  C3  UNL     1      -2.236   5.786  11.800  1.00  0.00     0.036 C 
HETATM    5  C4  UNL     1      -3.412   5.491  10.895  1.00  0.00     0.007 C 
HETATM    6  C5  UNL     1      -2.997   4.589   9.765  1.00  0.00     0.064 C 
HETATM    7  C6  UNL     1      -2.367   3.342  10.357  1.00  0.00     0.359 C 
HETATM    8  O1  UNL     1      -3.306   2.743  11.165  1.00  0.00    -0.342 OA
HETATM    9  C7  UNL     1      -2.867   2.489  12.445  1.00  0.00     0.218 C 
HETATM   10  C15 UNL     1      -2.425   3.717  13.191  1.00  0.00     0.077 C 
ENDROOT
BRANCH   9  11
HETATM   11  C8  UNL     1      -4.015   1.898  13.207  1.00  0.00     0.247 C 
HETATM   12  O2  UNL     1      -4.738   0.998  12.726  1.00  0.00    -0.271 OA
HETATM   13  N2  UNL     1      -4.258   2.404  14.517  1.00  0.00    -0.354 N 
ATOM     14  H2  UNL     1      -3.665   3.137  14.904  1.00  0.00     0.162 HD
BRANCH  13  15
HETATM   15  C9  UNL     1      -5.352   1.867  15.290  1.00  0.00     0.084 C 
HETATM   16  C10 UNL     1      -6.173   3.017  15.852  1.00  0.00     0.025 C 
HETATM   17  C11 UNL     1      -7.030   2.603  17.011  1.00  0.00     0.002 C 
HETATM   18  C12 UNL     1      -7.198   1.104  16.965  1.00  0.00     0.000 C 
HETATM   19  C13 UNL     1      -5.849   0.469  17.304  1.00  0.00     0.002 C 
HETATM   20  C14 UNL     1      -4.787   1.000  16.375  1.00  0.00     0.025 C 
ENDBRANCH  13  15
ENDBRANCH   9  11
TORSDOF 2
ENDMDL
MODEL 5
REMARK VINA RESULT: -6.874474299      1.931      3.107
REMARK  2 active torsions:
REMARK  status: ('A' for Active; 'I' for Inactive)
REMARK    1  A    between atoms: C7_9  and  C8_10 
REMARK       I    between atoms: C8_10  and  N2_12 
REMARK    2  A    between atoms: N2_12  and  C9_14 
ROOT
HETATM    1  C1  UNL     1      -0.032   5.339  11.243  1.00  0.00     0.314 C 
HETATM    2  N1  UNL     1      -1.162   4.771  11.893  1.00  0.00     0.117 N 
HETATM    3  C2  UNL     1      -1.345   5.201  13.252  1.00  0.00     0.228 C 
HETATM    4  C3  UNL     1      -1.945   6.586  13.341  1.00  0.00     0.036 C 
HETATM    5  C4  UNL     1      -3.193   6.710  12.496  1.00  0.00     0.007 C 
HETATM    6  C5  UNL     1      -2.930   6.244  11.090  1.00  0.00     0.064 C 
HETATM    7  C6  UNL     1      -2.385   4.830  11.151  1.00  0.00     0.359 C 
HETATM    8  O1  UNL     1      -3.327   4.046  11.776  1.00  0.00    -0.342 OA
HETATM    9  C7  UNL     1      -2.839   3.324  12.843  1.00  0.00     0.218 C 
HETATM   10  C15 UNL     1      -2.243   4.174  13.930  1.00  0.00     0.077 C 
ENDROOT
BRANCH   9  11
HETATM   11  C8  UNL     1      -3.991   2.578  13.447  1.00  0.00     0.247 C 
HETATM   12  O2  UNL     1      -4.711   1.810  12.772  1.00  0.00    -0.271 OA
HETATM   13  N2  UNL     1      -4.240   2.776  14.836  1.00  0.00    -0.354 N 
ATOM     14  H2  UNL     1      -3.649   3.402  15.382  1.00  0.00     0.162 HD
BRANCH  13  15
HETATM   15  C9  UNL     1      -5.337   2.080  15.463  1.00  0.00     0.084 C 
HETATM   16  C10 UNL     1      -6.291   3.098  16.067  1.00  0.00     0.025 C 
HETATM   17  C11 UNL     1      -7.191   2.502  17.108  1.00  0.00     0.002 C 
HETATM   18  C12 UNL     1      -7.228   1.008  16.903  1.00  0.00     0.000 C 
HETATM   19  C13 UNL     1      -5.859   0.446  17.286  1.00  0.00     0.002 C 
HETATM   20  C14 UNL     1      -4.781   1.151  16.501  1.00  0.00     0.025 C 
ENDBRANCH  13  15
ENDBRANCH   9  11
TORSDOF 2
ENDMDL
