MODEL 1
REMARK VINA RESULT: -6.233362273      0.000      0.000
REMARK  3 active torsions:
REMARK  status: ('A' for Active; 'I' for Inactive)
REMARK    1  A    between atoms: C2_2  and  C3_3 
REMARK    2  A    between atoms: C6_7  and  O1_9 
REMARK    3  A    between atoms: C8_11  and  C9_12 
ROOT
HETATM    1  C3  UNL     1      -2.732   5.272  14.169  1.00  0.00     0.117 C 
HETATM    2  C4  UNL     1      -2.340   4.501  12.953  1.00  0.00     0.083 C 
HETATM    3  N1  UNL     1      -2.797   3.189  12.857  1.00  0.00    -0.381 N 
HETATM    4  C5  UNL     1      -3.306   2.740  11.621  1.00  0.00     0.160 C 
HETATM    5  C6  UNL     1      -3.847   1.355  11.905  1.00  0.00     0.076 C 
HETATM    6  C7  UNL     1      -5.026   1.142  10.959  1.00  0.00     0.048 C 
HETATM    7  C8  UNL     1      -4.287   1.477  13.335  1.00  0.00     0.046 C 
HETATM    8  C11 UNL     1      -3.490   2.610  13.937  1.00  0.00     0.113 C 
HETATM    9  C12 UNL     1      -4.280   3.523  14.794  1.00  0.00     0.103 C 
HETATM   10  C13 UNL     1      -5.765   3.551  14.437  1.00  0.00     0.028 C 
HETATM   11  C14 UNL     1      -6.168   4.838  15.180  1.00  0.00     0.021 C 
HETATM   12  C15 UNL     1      -5.045   5.723  14.671  1.00  0.00     0.118 C 
HETATM   13  N2  UNL     1      -3.921   4.875  14.803  1.00  0.00    -0.397 N 
ENDROOT
BRANCH   5  14
HETATM   14  O1  UNL     1      -2.893   0.398  11.682  1.00  0.00    -0.388 OA
ATOM     15  H1  UNL     1      -2.639  -0.027  12.493  1.00  0.00     0.210 HD
ENDBRANCH   5  14
BRANCH   7  16
HETATM   16  C9  UNL     1      -4.168   0.199  14.110  1.00  0.00     0.005 C 
HETATM   17  C10 UNL     1      -4.407   0.322  15.565  1.00  0.00     0.005 C 
ENDBRANCH   7  16
BRANCH   1  18
HETATM   18  C2  UNL     1      -2.837   6.752  13.794  1.00  0.00     0.026 C 
HETATM   19  C1  UNL     1      -1.916   7.600  14.647  1.00  0.00     0.007 C 
ENDBRANCH   1  18
TORSDOF 3
ENDMDL
MODEL 2
REMARK VINA RESULT: -6.120723171      2.253      4.918
REMARK  3 active torsions:
REMARK  status: ('A' for Active; 'I' for Inactive)
REMARK    1  A    between atoms: C2_2  and  C3_3 
REMARK    2  A    between atoms: C6_7  and  O1_9 
REMARK    3  A    between atoms: C8_11  and  C9_12 
ROOT
HETATM    1  C3  UNL     1      -4.435   1.166  12.057  1.00  0.00     0.117 C 
HETATM    2  C4  UNL     1      -3.416   1.723  11.122  1.00  0.00     0.083 C 
HETATM    3  N1  UNL     1      -3.101   3.074  11.255  1.00  0.00    -0.381 N 
HETATM    4  C5  UNL     1      -1.745   3.459  11.198  1.00  0.00     0.160 C 
HETATM    5  C6  UNL     1      -1.749   4.937  11.528  1.00  0.00     0.076 C 
HETATM    6  C7  UNL     1      -0.428   5.232  12.233  1.00  0.00     0.048 C 
HETATM    7  C8  UNL     1      -2.921   5.047  12.459  1.00  0.00     0.046 C 
HETATM    8  C11 UNL     1      -3.824   3.873  12.160  1.00  0.00     0.113 C 
HETATM    9  C12 UNL     1      -4.370   3.201  13.361  1.00  0.00     0.103 C 
HETATM   10  C13 UNL     1      -3.493   3.376  14.600  1.00  0.00     0.028 C 
HETATM   11  C14 UNL     1      -4.092   2.262  15.478  1.00  0.00     0.021 C 
HETATM   12  C15 UNL     1      -4.072   1.156  14.440  1.00  0.00     0.118 C 
HETATM   13  N2  UNL     1      -4.570   1.819  13.295  1.00  0.00    -0.397 N 
ENDROOT
BRANCH   5  14
HETATM   14  O1  UNL     1      -1.851   5.695  10.393  1.00  0.00    -0.388 OA
ATOM     15  H1  UNL     1      -1.881   6.622  10.602  1.00  0.00     0.210 HD
ENDBRANCH   5  14
BRANCH   7  16
HETATM   16  C9  UNL     1      -3.628   6.367  12.379  1.00  0.00     0.005 C 
HETATM   17  C10 UNL     1      -4.926   6.343  11.667  1.00  0.00     0.005 C 
ENDBRANCH   7  16
BRANCH   1  18
HETATM   18  C2  UNL     1      -4.114  -0.309  12.305  1.00  0.00     0.026 C 
HETATM   19  C1  UNL     1      -3.299  -0.891  11.169  1.00  0.00     0.007 C 
ENDBRANCH   1  18
TORSDOF 3
ENDMDL
MODEL 3
REMARK VINA RESULT: -6.020580333      1.921      4.833
REMARK  3 active torsions:
REMARK  status: ('A' for Active; 'I' for Inactive)
REMARK    1  A    between atoms: C2_2  and  C3_3 
REMARK    2  A    between atoms: C6_7  and  O1_9 
REMARK    3  A    between atoms: C8_11  and  C9_12 
ROOT
HETATM    1  C3  UNL     1      -4.539   0.912  12.184  1.00  0.00     0.117 C 
HETATM    2  C4  UNL     1      -3.726   1.999  11.565  1.00  0.00     0.083 C 
HETATM    3  N1  UNL     1      -3.665   3.214  12.245  1.00  0.00    -0.381 N 
HETATM    4  C5  UNL     1      -2.418   3.862  12.357  1.00  0.00     0.160 C 
HETATM    5  C6  UNL     1      -2.677   5.044  13.268  1.00  0.00     0.076 C 
HETATM    6  C7  UNL     1      -1.383   5.297  14.036  1.00  0.00     0.048 C 
HETATM    7  C8  UNL     1      -3.767   4.521  14.157  1.00  0.00     0.046 C 
HETATM    8  C11 UNL     1      -4.450   3.409  13.397  1.00  0.00     0.113 C 
HETATM    9  C12 UNL     1      -4.756   2.211  14.212  1.00  0.00     0.103 C 
HETATM   10  C13 UNL     1      -3.829   2.048  15.416  1.00  0.00     0.028 C 
HETATM   11  C14 UNL     1      -4.129   0.576  15.753  1.00  0.00     0.021 C 
HETATM   12  C15 UNL     1      -3.984   0.015  14.350  1.00  0.00     0.118 C 
HETATM   13  N2  UNL     1      -4.693   0.965  13.580  1.00  0.00    -0.397 N 
ENDROOT
BRANCH   5  14
HETATM   14  O1  UNL     1      -3.016   6.158  12.547  1.00  0.00    -0.388 OA
ATOM     15  H1  UNL     1      -3.931   6.136  12.293  1.00  0.00     0.210 HD
ENDBRANCH   5  14
BRANCH   7  16
HETATM   16  C9  UNL     1      -4.718   5.582  14.627  1.00  0.00     0.005 C 
HETATM   17  C10 UNL     1      -6.016   5.083  15.132  1.00  0.00     0.005 C 
ENDBRANCH   7  16
BRANCH   1  18
HETATM   18  C2  UNL     1      -3.922  -0.434  11.801  1.00  0.00     0.026 C 
HETATM   19  C1  UNL     1      -3.234  -0.360  10.454  1.00  0.00     0.007 C 
ENDBRANCH   1  18
TORSDOF 3
ENDMDL
MODEL 4
REMARK VINA RESULT: -5.969397044      2.491      5.234
REMARK  3 active torsions:
REMARK  status: ('A' for Active; 'I' for Inactive)
REMARK    1  A    between atoms: C2_2  and  C3_3 
REMARK    2  A    between atoms: C6_7  and  O1_9 
REMARK    3  A    between atoms: C8_11  and  C9_12 
ROOT
HETATM    1  C3  UNL     1      -4.152   0.241  11.453  1.00  0.00     0.117 C 
HETATM    2  C4  UNL     1      -2.944   0.549  10.634  1.00  0.00     0.083 C 
HETATM    3  N1  UNL     1      -2.558   1.885  10.549  1.00  0.00    -0.381 N 
HETATM    4  C5  UNL     1      -1.189   2.201  10.673  1.00  0.00     0.160 C 
HETATM    5  C6  UNL     1      -1.141   3.715  10.691  1.00  0.00     0.076 C 
HETATM    6  C7  UNL     1       0.052   4.105  11.559  1.00  0.00     0.048 C 
HETATM    7  C8  UNL     1      -2.448   4.062  11.342  1.00  0.00     0.046 C 
HETATM    8  C11 UNL     1      -3.368   2.884  11.121  1.00  0.00     0.113 C 
HETATM    9  C12 UNL     1      -4.167   2.502  12.307  1.00  0.00     0.103 C 
HETATM   10  C13 UNL     1      -3.514   2.904  13.629  1.00  0.00     0.028 C 
HETATM   11  C14 UNL     1      -4.340   2.024  14.584  1.00  0.00     0.021 C 
HETATM   12  C15 UNL     1      -4.219   0.723  13.813  1.00  0.00     0.118 C 
HETATM   13  N2  UNL     1      -4.455   1.146  12.485  1.00  0.00    -0.397 N 
ENDROOT
BRANCH   5  14
HETATM   14  O1  UNL     1      -0.983   4.218   9.428  1.00  0.00    -0.388 OA
ATOM     15  H1  UNL     1      -0.733   5.135   9.453  1.00  0.00     0.210 HD
ENDBRANCH   5  14
BRANCH   7  16
HETATM   16  C9  UNL     1      -3.030   5.359  10.865  1.00  0.00     0.005 C 
HETATM   17  C10 UNL     1      -3.455   6.289  11.935  1.00  0.00     0.005 C 
ENDBRANCH   7  16
BRANCH   1  18
HETATM   18  C2  UNL     1      -3.990  -1.159  12.049  1.00  0.00     0.026 C 
HETATM   19  C1  UNL     1      -2.934  -1.953  11.308  1.00  0.00     0.007 C 
ENDBRANCH   1  18
TORSDOF 3
ENDMDL
MODEL 5
REMARK VINA RESULT: -5.959166946      1.890      4.311
REMARK  3 active torsions:
REMARK  status: ('A' for Active; 'I' for Inactive)
REMARK    1  A    between atoms: C2_2  and  C3_3 
REMARK    2  A    between atoms: C6_7  and  O1_9 
REMARK    3  A    between atoms: C8_11  and  C9_12 
ROOT
HETATM    1  C3  UNL     1      -4.969   1.933  15.647  1.00  0.00     0.117 C 
HETATM    2  C4  UNL     1      -3.487   2.085  15.572  1.00  0.00     0.083 C 
HETATM    3  N1  UNL     1      -2.979   2.847  14.522  1.00  0.00    -0.381 N 
HETATM    4  C5  UNL     1      -1.946   3.769  14.796  1.00  0.00     0.160 C 
HETATM    5  C6  UNL     1      -1.745   4.520  13.496  1.00  0.00     0.076 C 
HETATM    6  C7  UNL     1      -1.296   5.929  13.871  1.00  0.00     0.048 C 
HETATM    7  C8  UNL     1      -3.126   4.506  12.909  1.00  0.00     0.046 C 
HETATM    8  C11 UNL     1      -3.847   3.331  13.525  1.00  0.00     0.113 C 
HETATM    9  C12 UNL     1      -5.242   3.615  13.931  1.00  0.00     0.103 C 
HETATM   10  C13 UNL     1      -5.493   5.091  14.236  1.00  0.00     0.028 C 
HETATM   11  C14 UNL     1      -6.825   4.958  14.995  1.00  0.00     0.021 C 
HETATM   12  C15 UNL     1      -6.409   3.844  15.937  1.00  0.00     0.118 C 
HETATM   13  N2  UNL     1      -5.733   2.959  15.065  1.00  0.00    -0.397 N 
ENDROOT
BRANCH   5  14
HETATM   14  O1  UNL     1      -0.790   3.918  12.721  1.00  0.00    -0.388 OA
ATOM     15  H1  UNL     1      -1.180   3.293  12.121  1.00  0.00     0.210 HD
ENDBRANCH   5  14
BRANCH   7  16
HETATM   16  C9  UNL     1      -3.139   4.482  11.409  1.00  0.00     0.005 C 
HETATM   17  C10 UNL     1      -3.656   3.234  10.805  1.00  0.00     0.005 C 
ENDBRANCH   7  16
BRANCH   1  18
HETATM   18  C2  UNL     1      -5.370   1.786  17.116  1.00  0.00     0.026 C 
HETATM   19  C1  UNL     1      -5.969   0.422  17.388  1.00  0.00     0.007 C 
ENDBRANCH   1  18
TORSDOF 3
ENDMDL
