MODEL 1
REMARK VINA RESULT: -6.590963554      0.000      0.000
REMARK  3 active torsions:
REMARK  status: ('A' for Active; 'I' for Inactive)
REMARK    1  A    between atoms: C7_8  and  O1_9 
REMARK    2  A    between atoms: O1_9  and  C8_10 
REMARK    3  A    between atoms: C8_10  and  C9_12 
ROOT
HETATM    1  O1  UNL     1      -4.129   1.796  13.993  1.00  0.00    -0.314 OA
ENDROOT
BRANCH   1   2
HETATM    2  C7  UNL     1      -4.397   2.589  15.162  1.00  0.00     0.136 C 
HETATM    3  C6  UNL     1      -5.721   3.266  15.063  1.00  0.00     0.068 C 
HETATM    4  C5  UNL     1      -6.706   2.866  16.113  1.00  0.00     0.225 C 
HETATM    5  N1  UNL     1      -6.656   1.396  16.168  1.00  0.00     0.093 N 
HETATM    6  C4  UNL     1      -6.283   3.336  17.485  1.00  0.00     0.038 C 
HETATM    7  C1  UNL     1      -7.790   0.876  16.899  1.00  0.00     0.310 C 
HETATM    8  C2  UNL     1      -5.472   1.203  16.967  1.00  0.00     0.225 C 
HETATM    9  C3  UNL     1      -5.796   2.080  18.181  1.00  0.00     0.038 C 
HETATM   10  C14 UNL     1      -4.221   1.710  16.348  1.00  0.00     0.068 C 
ENDBRANCH   1   2
BRANCH   1  11
HETATM   11  C8  UNL     1      -3.355   2.291  12.952  1.00  0.00     0.295 C 
HETATM   12  O2  UNL     1      -2.420   3.061  13.293  1.00  0.00    -0.262 OA
BRANCH  11  13
HETATM   13  C9  UNL     1      -3.582   1.962  11.534  1.00  0.00     0.208 C 
HETATM   14  C10 UNL     1      -3.778   3.196  10.680  1.00  0.00     0.057 C 
HETATM   15  C11 UNL     1      -2.476   1.126  10.935  1.00  0.00     0.051 C 
HETATM   16  C12 UNL     1      -3.202  -0.109  10.399  1.00  0.00     0.030 C 
HETATM   17  C13 UNL     1      -4.422  -0.193  11.287  1.00  0.00     0.234 C 
HETATM   18  N2  UNL     1      -4.793   1.180  11.441  1.00  0.00    -0.057 N 
ATOM     19  H22 UNL     1      -5.423   1.332  12.228  1.00  0.00     0.278 HD
ATOM     20  H21 UNL     1      -5.417   1.505  10.702  1.00  0.00     0.278 HD
ENDBRANCH  11  13
ENDBRANCH   1  11
TORSDOF 3
ENDMDL
MODEL 2
REMARK VINA RESULT: -6.528977401      2.419      3.312
REMARK  3 active torsions:
REMARK  status: ('A' for Active; 'I' for Inactive)
REMARK    1  A    between atoms: C7_8  and  O1_9 
REMARK    2  A    between atoms: O1_9  and  C8_10 
REMARK    3  A    between atoms: C8_10  and  C9_12 
ROOT
HETATM    1  O1  UNL     1      -3.213   1.459  14.155  1.00  0.00    -0.314 OA
ENDROOT
BRANCH   1   2
HETATM    2  C7  UNL     1      -3.803   2.480  14.977  1.00  0.00     0.136 C 
HETATM    3  C6  UNL     1      -2.978   3.721  14.969  1.00  0.00     0.068 C 
HETATM    4  C5  UNL     1      -3.667   4.924  14.411  1.00  0.00     0.225 C 
HETATM    5  N1  UNL     1      -4.299   4.476  13.159  1.00  0.00     0.093 N 
HETATM    6  C4  UNL     1      -4.803   5.380  15.295  1.00  0.00     0.038 C 
HETATM    7  C1  UNL     1      -4.710   5.611  12.362  1.00  0.00     0.310 C 
HETATM    8  C2  UNL     1      -5.480   3.832  13.676  1.00  0.00     0.225 C 
HETATM    9  C3  UNL     1      -6.054   4.946  14.558  1.00  0.00     0.038 C 
HETATM   10  C14 UNL     1      -5.212   2.651  14.536  1.00  0.00     0.068 C 
ENDBRANCH   1   2
BRANCH   1  11
HETATM   11  C8  UNL     1      -4.001   0.529  13.489  1.00  0.00     0.295 C 
HETATM   12  O2  UNL     1      -4.715  -0.199  14.225  1.00  0.00    -0.262 OA
BRANCH  11  13
HETATM   13  C9  UNL     1      -4.025   0.374  12.025  1.00  0.00     0.208 C 
HETATM   14  C10 UNL     1      -5.088   1.231  11.372  1.00  0.00     0.057 C 
HETATM   15  C11 UNL     1      -2.694   0.670  11.374  1.00  0.00     0.051 C 
HETATM   16  C12 UNL     1      -2.378  -0.607  10.595  1.00  0.00     0.030 C 
HETATM   17  C13 UNL     1      -3.124  -1.669  11.371  1.00  0.00     0.234 C 
HETATM   18  N2  UNL     1      -4.340  -1.003  11.721  1.00  0.00    -0.057 N 
ATOM     19  H22 UNL     1      -4.841  -1.469  12.478  1.00  0.00     0.278 HD
ATOM     20  H21 UNL     1      -5.061  -1.094  11.005  1.00  0.00     0.278 HD
ENDBRANCH  11  13
ENDBRANCH   1  11
TORSDOF 3
ENDMDL
MODEL 3
REMARK VINA RESULT: -6.475640156      2.274      6.416
REMARK  3 active torsions:
REMARK  status: ('A' for Active; 'I' for Inactive)
REMARK    1  A    between atoms: C7_8  and  O1_9 
REMARK    2  A    between atoms: O1_9  and  C8_10 
REMARK    3  A    between atoms: C8_10  and  C9_12 
ROOT
HETATM    1  O1  UNL     1      -2.705   1.622  12.847  1.00  0.00    -0.314 OA
ENDROOT
BRANCH   1   2
HETATM    2  C7  UNL     1      -2.812   2.145  11.513  1.00  0.00     0.136 C 
HETATM    3  C6  UNL     1      -3.020   3.621  11.528  1.00  0.00     0.068 C 
HETATM    4  C5  UNL     1      -1.936   4.411  10.871  1.00  0.00     0.225 C 
HETATM    5  N1  UNL     1      -0.672   3.861  11.388  1.00  0.00     0.093 N 
HETATM    6  C4  UNL     1      -1.897   4.176   9.379  1.00  0.00     0.038 C 
HETATM    7  C1  UNL     1       0.430   4.749  11.089  1.00  0.00     0.310 C 
HETATM    8  C2  UNL     1      -0.542   2.683  10.568  1.00  0.00     0.225 C 
HETATM    9  C3  UNL     1      -0.686   3.289   9.168  1.00  0.00     0.038 C 
HETATM   10  C14 UNL     1      -1.623   1.681  10.753  1.00  0.00     0.068 C 
ENDBRANCH   1   2
BRANCH   1  11
HETATM   11  C8  UNL     1      -3.833   1.421  13.633  1.00  0.00     0.295 C 
HETATM   12  O2  UNL     1      -4.625   0.533  13.222  1.00  0.00    -0.262 OA
BRANCH  11  13
HETATM   13  C9  UNL     1      -4.117   2.173  14.865  1.00  0.00     0.208 C 
HETATM   14  C10 UNL     1      -3.100   3.264  15.124  1.00  0.00     0.057 C 
HETATM   15  C11 UNL     1      -5.499   2.782  14.884  1.00  0.00     0.051 C 
HETATM   16  C12 UNL     1      -6.128   2.222  16.160  1.00  0.00     0.030 C 
HETATM   17  C13 UNL     1      -5.390   0.917  16.354  1.00  0.00     0.234 C 
HETATM   18  N2  UNL     1      -4.052   1.255  15.980  1.00  0.00    -0.057 N 
ATOM     19  H22 UNL     1      -3.478   0.436  15.783  1.00  0.00     0.278 HD
ATOM     20  H21 UNL     1      -3.505   1.621  16.760  1.00  0.00     0.278 HD
ENDBRANCH  11  13
ENDBRANCH   1  11
TORSDOF 3
ENDMDL
MODEL 4
REMARK VINA RESULT: -6.362696142      2.414      6.466
REMARK  3 active torsions:
REMARK  status: ('A' for Active; 'I' for Inactive)
REMARK    1  A    between atoms: C7_8  and  O1_9 
REMARK    2  A    between atoms: O1_9  and  C8_10 
REMARK    3  A    between atoms: C8_10  and  C9_12 
ROOT
HETATM    1  O1  UNL     1      -2.602   1.600  12.605  1.00  0.00    -0.314 OA
ENDROOT
BRANCH   1   2
HETATM    2  C7  UNL     1      -2.623   2.065  11.245  1.00  0.00     0.136 C 
HETATM    3  C6  UNL     1      -3.025   3.499  11.172  1.00  0.00     0.068 C 
HETATM    4  C5  UNL     1      -1.986   4.410  10.604  1.00  0.00     0.225 C 
HETATM    5  N1  UNL     1      -0.729   4.052  11.281  1.00  0.00     0.093 N 
HETATM    6  C4  UNL     1      -1.745   4.139   9.138  1.00  0.00     0.038 C 
HETATM    7  C1  UNL     1       0.273   5.074  11.067  1.00  0.00     0.310 C 
HETATM    8  C2  UNL     1      -0.351   2.880  10.533  1.00  0.00     0.225 C 
HETATM    9  C3  UNL     1      -0.411   3.420   9.100  1.00  0.00     0.038 C 
HETATM   10  C14 UNL     1      -1.303   1.745  10.642  1.00  0.00     0.068 C 
ENDBRANCH   1   2
BRANCH   1  11
HETATM   11  C8  UNL     1      -3.768   1.527  13.357  1.00  0.00     0.295 C 
HETATM   12  O2  UNL     1      -4.623   0.701  12.948  1.00  0.00    -0.262 OA
BRANCH  11  13
HETATM   13  C9  UNL     1      -4.021   2.344  14.555  1.00  0.00     0.208 C 
HETATM   14  C10 UNL     1      -3.924   1.541  15.833  1.00  0.00     0.057 C 
HETATM   15  C11 UNL     1      -3.106   3.541  14.662  1.00  0.00     0.051 C 
HETATM   16  C12 UNL     1      -4.066   4.728  14.760  1.00  0.00     0.030 C 
HETATM   17  C13 UNL     1      -5.300   4.221  14.048  1.00  0.00     0.234 C 
HETATM   18  N2  UNL     1      -5.370   2.858  14.474  1.00  0.00    -0.057 N 
ATOM     19  H22 UNL     1      -5.973   2.290  13.880  1.00  0.00     0.278 HD
ATOM     20  H21 UNL     1      -5.889   2.743  15.345  1.00  0.00     0.278 HD
ENDBRANCH  11  13
ENDBRANCH   1  11
TORSDOF 3
ENDMDL
MODEL 5
REMARK VINA RESULT: -6.360458750      2.340      3.518
REMARK  3 active torsions:
REMARK  status: ('A' for Active; 'I' for Inactive)
REMARK    1  A    between atoms: C7_8  and  O1_9 
REMARK    2  A    between atoms: O1_9  and  C8_10 
REMARK    3  A    between atoms: C8_10  and  C9_12 
ROOT
HETATM    1  O1  UNL     1      -3.223   1.435  14.363  1.00  0.00    -0.314 OA
ENDROOT
BRANCH   1   2
HETATM    2  C7  UNL     1      -3.860   2.470  15.131  1.00  0.00     0.136 C 
HETATM    3  C6  UNL     1      -3.041   3.715  15.141  1.00  0.00     0.068 C 
HETATM    4  C5  UNL     1      -3.703   4.903  14.521  1.00  0.00     0.225 C 
HETATM    5  N1  UNL     1      -4.265   4.425  13.247  1.00  0.00     0.093 N 
HETATM    6  C4  UNL     1      -4.887   5.371  15.334  1.00  0.00     0.038 C 
HETATM    7  C1  UNL     1      -4.636   5.542  12.406  1.00  0.00     0.310 C 
HETATM    8  C2  UNL     1      -5.469   3.786  13.713  1.00  0.00     0.225 C 
HETATM    9  C3  UNL     1      -6.095   4.916  14.539  1.00  0.00     0.038 C 
HETATM   10  C14 UNL     1      -5.243   2.625  14.611  1.00  0.00     0.068 C 
ENDBRANCH   1   2
BRANCH   1  11
HETATM   11  C8  UNL     1      -3.969   0.512  13.642  1.00  0.00     0.295 C 
HETATM   12  O2  UNL     1      -4.732  -0.217  14.327  1.00  0.00    -0.262 OA
BRANCH  11  13
HETATM   13  C9  UNL     1      -3.900   0.366  12.179  1.00  0.00     0.208 C 
HETATM   14  C10 UNL     1      -4.027  -1.075  11.736  1.00  0.00     0.057 C 
HETATM   15  C11 UNL     1      -4.933   1.193  11.450  1.00  0.00     0.051 C 
HETATM   16  C12 UNL     1      -4.105   2.053  10.495  1.00  0.00     0.030 C 
HETATM   17  C13 UNL     1      -2.772   2.150  11.200  1.00  0.00     0.234 C 
HETATM   18  N2  UNL     1      -2.606   0.836  11.739  1.00  0.00    -0.057 N 
ATOM     19  H22 UNL     1      -1.901   0.798  12.475  1.00  0.00     0.278 HD
ATOM     20  H21 UNL     1      -2.155   0.195  11.086  1.00  0.00     0.278 HD
ENDBRANCH  11  13
ENDBRANCH   1  11
TORSDOF 3
ENDMDL
