MODEL 1
REMARK VINA RESULT: -6.292311081      0.000      0.000
REMARK  3 active torsions:
REMARK  status: ('A' for Active; 'I' for Inactive)
REMARK    1  A    between atoms: C2_2  and  N1_4 
REMARK    2  A    between atoms: N1_4  and  C5_6 
REMARK    3  A    between atoms: C8_9  and  O1_10 
ROOT
HETATM    1  C5  UNL     1      -4.004   2.143  13.464  1.00  0.00     0.112 C 
HETATM    2  C6  UNL     1      -4.089   0.660  13.783  1.00  0.00     0.032 C 
HETATM    3  C7  UNL     1      -4.998   0.438  14.987  1.00  0.00     0.073 C 
HETATM    4  C8  UNL     1      -4.600   1.469  16.007  1.00  0.00     0.259 C 
HETATM    5  C9  UNL     1      -5.178   1.194  17.368  1.00  0.00     0.073 C 
HETATM    6  C10 UNL     1      -6.374   2.098  17.455  1.00  0.00     0.035 C 
HETATM    7  C11 UNL     1      -6.457   2.720  16.072  1.00  0.00     0.277 C 
HETATM    8  N2  UNL     1      -5.086   2.746  15.569  1.00  0.00     0.129 N 
HETATM    9  C12 UNL     1      -5.069   2.942  14.150  1.00  0.00     0.245 C 
HETATM   10  C13 UNL     1      -4.742   4.413  13.919  1.00  0.00     0.045 C 
ENDROOT
BRANCH   1  11
HETATM   11  N1  UNL     1      -3.857   2.422  12.078  1.00  0.00    -0.407 N 
HETATM   12  C4  UNL     1      -4.781   1.833  11.186  1.00  0.00     0.144 C 
BRANCH  11  13
HETATM   13  C2  UNL     1      -2.528   2.556  11.606  1.00  0.00     0.071 C 
HETATM   14  C1  UNL     1      -2.377   3.724  10.637  1.00  0.00     0.031 C 
HETATM   15  C3  UNL     1      -1.932   1.352  10.955  1.00  0.00     0.031 C 
ENDBRANCH  11  13
ENDBRANCH   1  11
BRANCH   4  16
HETATM   16  O1  UNL     1      -3.208   1.527  16.185  1.00  0.00    -0.363 OA
ATOM     17  H1  UNL     1      -2.779   2.012  15.490  1.00  0.00     0.212 HD
ENDBRANCH   4  16
TORSDOF 3
ENDMDL
MODEL 2
REMARK VINA RESULT: -6.167716904      1.096      1.328
REMARK  3 active torsions:
REMARK  status: ('A' for Active; 'I' for Inactive)
REMARK    1  A    between atoms: C2_2  and  N1_4 
REMARK    2  A    between atoms: N1_4  and  C5_6 
REMARK    3  A    between atoms: C8_9  and  O1_10 
ROOT
HETATM    1  C5  UNL     1      -3.842   2.999  13.585  1.00  0.00     0.112 C 
HETATM    2  C6  UNL     1      -3.764   1.488  13.450  1.00  0.00     0.032 C 
HETATM    3  C7  UNL     1      -4.705   0.826  14.452  1.00  0.00     0.073 C 
HETATM    4  C8  UNL     1      -4.490   1.539  15.759  1.00  0.00     0.259 C 
HETATM    5  C9  UNL     1      -5.104   0.814  16.924  1.00  0.00     0.073 C 
HETATM    6  C10 UNL     1      -6.403   1.527  17.166  1.00  0.00     0.035 C 
HETATM    7  C11 UNL     1      -6.485   2.524  16.022  1.00  0.00     0.277 C 
HETATM    8  N2  UNL     1      -5.101   2.834  15.671  1.00  0.00     0.129 N 
HETATM    9  C12 UNL     1      -5.031   3.447  14.378  1.00  0.00     0.245 C 
HETATM   10  C13 UNL     1      -4.871   4.945  14.615  1.00  0.00     0.045 C 
ENDROOT
BRANCH   1  11
HETATM   11  N1  UNL     1      -3.654   3.693  12.359  1.00  0.00    -0.407 N 
HETATM   12  C4  UNL     1      -4.352   3.224  11.224  1.00  0.00     0.144 C 
BRANCH  11  13
HETATM   13  C2  UNL     1      -2.356   4.211  12.128  1.00  0.00     0.071 C 
HETATM   14  C1  UNL     1      -1.525   3.301  11.230  1.00  0.00     0.031 C 
HETATM   15  C3  UNL     1      -1.538   4.515  13.339  1.00  0.00     0.031 C 
ENDBRANCH  11  13
ENDBRANCH   1  11
BRANCH   4  16
HETATM   16  O1  UNL     1      -3.127   1.678  16.067  1.00  0.00    -0.363 OA
ATOM     17  H1  UNL     1      -2.821   0.995  16.651  1.00  0.00     0.212 HD
ENDBRANCH   4  16
TORSDOF 3
ENDMDL
MODEL 3
REMARK VINA RESULT: -6.120192052      2.674      4.877
REMARK  3 active torsions:
REMARK  status: ('A' for Active; 'I' for Inactive)
REMARK    1  A    between atoms: C2_2  and  N1_4 
REMARK    2  A    between atoms: N1_4  and  C5_6 
REMARK    3  A    between atoms: C8_9  and  O1_10 
ROOT
HETATM    1  C5  UNL     1      -3.636   3.574  12.767  1.00  0.00     0.112 C 
HETATM    2  C6  UNL     1      -4.664   2.708  13.475  1.00  0.00     0.032 C 
HETATM    3  C7  UNL     1      -4.641   1.296  12.900  1.00  0.00     0.073 C 
HETATM    4  C8  UNL     1      -4.603   1.455  11.404  1.00  0.00     0.259 C 
HETATM    5  C9  UNL     1      -4.891   0.173  10.675  1.00  0.00     0.073 C 
HETATM    6  C10 UNL     1      -3.537  -0.351  10.289  1.00  0.00     0.035 C 
HETATM    7  C11 UNL     1      -2.573   0.618  10.955  1.00  0.00     0.277 C 
HETATM    8  N2  UNL     1      -3.287   1.890  11.032  1.00  0.00     0.129 N 
HETATM    9  C12 UNL     1      -2.655   2.770  11.971  1.00  0.00     0.245 C 
HETATM   10  C13 UNL     1      -1.828   3.756  11.153  1.00  0.00     0.045 C 
ENDROOT
BRANCH   1  11
HETATM   11  N1  UNL     1      -3.049   4.563  13.601  1.00  0.00    -0.407 N 
HETATM   12  C4  UNL     1      -2.372   4.128  14.763  1.00  0.00     0.144 C 
BRANCH  11  13
HETATM   13  C2  UNL     1      -3.753   5.787  13.708  1.00  0.00     0.071 C 
HETATM   14  C1  UNL     1      -4.295   6.259  12.363  1.00  0.00     0.031 C 
HETATM   15  C3  UNL     1      -3.009   6.929  14.318  1.00  0.00     0.031 C 
ENDBRANCH  11  13
ENDBRANCH   1  11
BRANCH   4  16
HETATM   16  O1  UNL     1      -5.554   2.381  10.947  1.00  0.00    -0.363 OA
ATOM     17  H1  UNL     1      -5.150   3.147  10.558  1.00  0.00     0.212 HD
ENDBRANCH   4  16
TORSDOF 3
ENDMDL
MODEL 4
REMARK VINA RESULT: -6.076444195      1.330      1.530
REMARK  3 active torsions:
REMARK  status: ('A' for Active; 'I' for Inactive)
REMARK    1  A    between atoms: C2_2  and  N1_4 
REMARK    2  A    between atoms: N1_4  and  C5_6 
REMARK    3  A    between atoms: C8_9  and  O1_10 
ROOT
HETATM    1  C5  UNL     1      -3.292   3.213  13.616  1.00  0.00     0.112 C 
HETATM    2  C6  UNL     1      -3.478   1.732  13.331  1.00  0.00     0.032 C 
HETATM    3  C7  UNL     1      -4.638   1.185  14.157  1.00  0.00     0.073 C 
HETATM    4  C8  UNL     1      -4.454   1.730  15.547  1.00  0.00     0.259 C 
HETATM    5  C9  UNL     1      -5.327   1.044  16.560  1.00  0.00     0.073 C 
HETATM    6  C10 UNL     1      -6.492   1.974  16.742  1.00  0.00     0.035 C 
HETATM    7  C11 UNL     1      -6.251   3.059  15.706  1.00  0.00     0.277 C 
HETATM    8  N2  UNL     1      -4.802   3.122  15.533  1.00  0.00     0.129 N 
HETATM    9  C12 UNL     1      -4.465   3.816  14.325  1.00  0.00     0.245 C 
HETATM   10  C13 UNL     1      -4.062   5.229  14.734  1.00  0.00     0.045 C 
ENDROOT
BRANCH   1  11
HETATM   11  N1  UNL     1      -2.833   3.957  12.496  1.00  0.00    -0.407 N 
HETATM   12  C4  UNL     1      -3.509   3.781  11.267  1.00  0.00     0.144 C 
BRANCH  11  13
HETATM   13  C2  UNL     1      -1.435   4.170  12.418  1.00  0.00     0.071 C 
HETATM   14  C1  UNL     1      -1.084   5.650  12.306  1.00  0.00     0.031 C 
HETATM   15  C3  UNL     1      -0.716   3.454  11.322  1.00  0.00     0.031 C 
ENDBRANCH  11  13
ENDBRANCH   1  11
BRANCH   4  16
HETATM   16  O1  UNL     1      -3.137   1.575  16.006  1.00  0.00    -0.363 OA
ATOM     17  H1  UNL     1      -2.504   1.960  15.411  1.00  0.00     0.212 HD
ENDBRANCH   4  16
TORSDOF 3
ENDMDL
MODEL 5
REMARK VINA RESULT: -5.879767955      1.817      5.170
REMARK  3 active torsions:
REMARK  status: ('A' for Active; 'I' for Inactive)
REMARK    1  A    between atoms: C2_2  and  N1_4 
REMARK    2  A    between atoms: N1_4  and  C5_6 
REMARK    3  A    between atoms: C8_9  and  O1_10 
ROOT
HETATM    1  C5  UNL     1      -4.603   2.583  14.214  1.00  0.00     0.112 C 
HETATM    2  C6  UNL     1      -4.440   1.347  13.346  1.00  0.00     0.032 C 
HETATM    3  C7  UNL     1      -3.397   1.605  12.264  1.00  0.00     0.073 C 
HETATM    4  C8  UNL     1      -3.710   2.963  11.697  1.00  0.00     0.259 C 
HETATM    5  C9  UNL     1      -2.977   3.240  10.414  1.00  0.00     0.073 C 
HETATM    6  C10 UNL     1      -1.806   4.084  10.828  1.00  0.00     0.035 C 
HETATM    7  C11 UNL     1      -1.894   4.105  12.345  1.00  0.00     0.277 C 
HETATM    8  N2  UNL     1      -3.313   3.953  12.657  1.00  0.00     0.129 N 
HETATM    9  C12 UNL     1      -3.493   3.570  14.027  1.00  0.00     0.245 C 
HETATM   10  C13 UNL     1      -3.887   4.834  14.782  1.00  0.00     0.045 C 
ENDROOT
BRANCH   1  11
HETATM   11  N1  UNL     1      -4.911   2.292  15.570  1.00  0.00    -0.407 N 
HETATM   12  C4  UNL     1      -4.048   1.418  16.269  1.00  0.00     0.144 C 
BRANCH  11  13
HETATM   13  C2  UNL     1      -6.288   2.203  15.893  1.00  0.00     0.071 C 
HETATM   14  C1  UNL     1      -6.805   3.471  16.563  1.00  0.00     0.031 C 
HETATM   15  C3  UNL     1      -6.695   1.047  16.746  1.00  0.00     0.031 C 
ENDBRANCH  11  13
ENDBRANCH   1  11
BRANCH   4  16
HETATM   16  O1  UNL     1      -5.074   3.110  11.400  1.00  0.00    -0.363 OA
ATOM     17  H1  UNL     1      -5.215   3.587  10.591  1.00  0.00     0.212 HD
ENDBRANCH   4  16
TORSDOF 3
ENDMDL
