MODEL 1
REMARK VINA RESULT: -6.374390484      0.000      0.000
REMARK  2 active torsions:
REMARK  status: ('A' for Active; 'I' for Inactive)
REMARK    1  A    between atoms: N1_4  and  C4_5 
REMARK    2  A    between atoms: N2_8  and  C7_9 
ROOT
HETATM    1  C4  UNL     1      -3.749   2.094  14.923  1.00  0.00     0.226 C 
HETATM    2  C5  UNL     1      -3.499   3.546  14.645  1.00  0.00     0.066 C 
HETATM    3  C6  UNL     1      -2.928   3.816  13.287  1.00  0.00     0.275 C 
HETATM    4  N2  UNL     1      -3.216   2.808  12.311  1.00  0.00     0.095 N 
HETATM    5  C11 UNL     1      -4.487   2.154  12.522  1.00  0.00     0.275 C 
HETATM    6  C12 UNL     1      -4.371   1.347  13.783  1.00  0.00     0.066 C 
ENDROOT
BRANCH   4   7
HETATM    7  C7  UNL     1      -3.196   3.257  10.953  1.00  0.00     0.250 C 
HETATM    8  C8  UNL     1      -4.121   4.402  10.660  1.00  0.00     0.065 C 
HETATM    9  C9  UNL     1      -3.564   4.907   9.345  1.00  0.00     0.234 C 
HETATM   10  N3  UNL     1      -2.196   4.473   9.268  1.00  0.00    -0.073 N 
HETATM   11  C10 UNL     1      -1.870   3.796  10.499  1.00  0.00     0.268 C 
ATOM     12  H32 UNL     1      -2.010   3.903   8.443  1.00  0.00     0.277 HD
ATOM     13  H31 UNL     1      -1.553   5.236   9.055  1.00  0.00     0.277 HD
ENDBRANCH   4   7
BRANCH   1  14
HETATM   14  N1  UNL     1      -4.637   1.940  16.064  1.00  0.00     0.093 N 
HETATM   15  C3  UNL     1      -5.676   2.915  16.107  1.00  0.00     0.273 C 
HETATM   16  C2  UNL     1      -7.057   2.394  16.299  1.00  0.00     0.030 C 
HETATM   17  C1  UNL     1      -7.186   1.240  17.235  1.00  0.00     0.003 C 
HETATM   18  C14 UNL     1      -5.968   0.377  17.338  1.00  0.00     0.030 C 
HETATM   19  C13 UNL     1      -5.071   0.579  16.153  1.00  0.00     0.273 C 
ENDBRANCH   1  14
TORSDOF 2
ENDMDL
MODEL 2
REMARK VINA RESULT: -6.235617364      2.798      6.607
REMARK  2 active torsions:
REMARK  status: ('A' for Active; 'I' for Inactive)
REMARK    1  A    between atoms: N1_4  and  C4_5 
REMARK    2  A    between atoms: N2_8  and  C7_9 
ROOT
HETATM    1  C4  UNL     1      -3.312   5.036  13.981  1.00  0.00     0.226 C 
HETATM    2  C5  UNL     1      -4.641   5.408  14.568  1.00  0.00     0.066 C 
HETATM    3  C6  UNL     1      -5.583   4.254  14.719  1.00  0.00     0.275 C 
HETATM    4  N2  UNL     1      -4.945   2.976  14.820  1.00  0.00     0.095 N 
HETATM    5  C11 UNL     1      -3.650   3.032  15.457  1.00  0.00     0.275 C 
HETATM    6  C12 UNL     1      -2.728   3.772  14.532  1.00  0.00     0.066 C 
ENDROOT
BRANCH   4   7
HETATM    7  C7  UNL     1      -5.704   1.972  15.499  1.00  0.00     0.250 C 
HETATM    8  C8  UNL     1      -4.893   1.059  16.371  1.00  0.00     0.065 C 
HETATM    9  C9  UNL     1      -5.968   0.449  17.246  1.00  0.00     0.234 C 
HETATM   10  N3  UNL     1      -7.087   1.351  17.237  1.00  0.00    -0.073 N 
HETATM   11  C10 UNL     1      -6.721   2.512  16.463  1.00  0.00     0.268 C 
ATOM     12  H32 UNL     1      -7.945   0.911  16.905  1.00  0.00     0.277 HD
ATOM     13  H31 UNL     1      -7.410   1.588  18.176  1.00  0.00     0.277 HD
ENDBRANCH   4   7
BRANCH   1  14
HETATM   14  N1  UNL     1      -2.339   6.090  14.217  1.00  0.00     0.093 N 
HETATM   15  C3  UNL     1      -1.631   6.479  13.042  1.00  0.00     0.273 C 
HETATM   16  C2  UNL     1      -1.578   7.939  12.760  1.00  0.00     0.030 C 
HETATM   17  C1  UNL     1      -1.424   8.821  13.953  1.00  0.00     0.003 C 
HETATM   18  C14 UNL     1      -1.974   8.255  15.225  1.00  0.00     0.030 C 
HETATM   19  C13 UNL     1      -2.958   7.160  14.939  1.00  0.00     0.273 C 
ENDBRANCH   1  14
TORSDOF 2
ENDMDL
MODEL 3
REMARK VINA RESULT: -6.150764434      0.989      1.590
REMARK  2 active torsions:
REMARK  status: ('A' for Active; 'I' for Inactive)
REMARK    1  A    between atoms: N1_4  and  C4_5 
REMARK    2  A    between atoms: N2_8  and  C7_9 
ROOT
HETATM    1  C4  UNL     1      -4.080   1.868  14.304  1.00  0.00     0.226 C 
HETATM    2  C5  UNL     1      -3.792   3.310  14.008  1.00  0.00     0.066 C 
HETATM    3  C6  UNL     1      -2.840   3.518  12.870  1.00  0.00     0.275 C 
HETATM    4  N2  UNL     1      -2.791   2.438  11.931  1.00  0.00     0.095 N 
HETATM    5  C11 UNL     1      -4.049   1.741  11.796  1.00  0.00     0.275 C 
HETATM    6  C12 UNL     1      -4.305   1.022  13.089  1.00  0.00     0.066 C 
ENDROOT
BRANCH   4   7
HETATM    7  C7  UNL     1      -2.368   2.799  10.613  1.00  0.00     0.250 C 
HETATM    8  C8  UNL     1      -2.711   4.203  10.211  1.00  0.00     0.065 C 
HETATM    9  C9  UNL     1      -1.787   4.409   9.029  1.00  0.00     0.234 C 
HETATM   10  N3  UNL     1      -0.703   3.475   9.168  1.00  0.00    -0.073 N 
HETATM   11  C10 UNL     1      -0.881   2.765  10.411  1.00  0.00     0.268 C 
ATOM     12  H32 UNL     1      -0.616   2.851   8.366  1.00  0.00     0.277 HD
ATOM     13  H31 UNL     1       0.212   3.920   9.095  1.00  0.00     0.277 HD
ENDBRANCH   4   7
BRANCH   1  14
HETATM   14  N1  UNL     1      -5.269   1.747  15.131  1.00  0.00     0.093 N 
HETATM   15  C3  UNL     1      -5.204   0.668  16.060  1.00  0.00     0.273 C 
HETATM   16  C2  UNL     1      -5.538   0.996  17.473  1.00  0.00     0.030 C 
HETATM   17  C1  UNL     1      -6.649   1.973  17.662  1.00  0.00     0.003 C 
HETATM   18  C14 UNL     1      -6.832   2.940  16.535  1.00  0.00     0.030 C 
HETATM   19  C13 UNL     1      -5.591   3.022  15.696  1.00  0.00     0.273 C 
ENDBRANCH   1  14
TORSDOF 2
ENDMDL
MODEL 4
REMARK VINA RESULT: -6.131809433      2.744      3.599
REMARK  2 active torsions:
REMARK  status: ('A' for Active; 'I' for Inactive)
REMARK    1  A    between atoms: N1_4  and  C4_5 
REMARK    2  A    between atoms: N2_8  and  C7_9 
ROOT
HETATM    1  C4  UNL     1      -5.246   3.744  13.842  1.00  0.00     0.226 C 
HETATM    2  C5  UNL     1      -3.881   3.516  13.265  1.00  0.00     0.066 C 
HETATM    3  C6  UNL     1      -3.221   4.760  12.755  1.00  0.00     0.275 C 
HETATM    4  N2  UNL     1      -3.688   5.971  13.359  1.00  0.00     0.095 N 
HETATM    5  C11 UNL     1      -4.108   5.800  14.731  1.00  0.00     0.275 C 
HETATM    6  C12 UNL     1      -5.349   4.956  14.718  1.00  0.00     0.066 C 
ENDROOT
BRANCH   4   7
HETATM    7  C7  UNL     1      -2.758   7.058  13.337  1.00  0.00     0.250 C 
HETATM    8  C8  UNL     1      -2.438   7.634  14.685  1.00  0.00     0.065 C 
HETATM    9  C9  UNL     1      -1.168   8.402  14.387  1.00  0.00     0.234 C 
HETATM   10  N3  UNL     1      -0.587   7.823  13.206  1.00  0.00    -0.073 N 
HETATM   11  C10 UNL     1      -1.398   6.697  12.814  1.00  0.00     0.268 C 
ATOM     12  H32 UNL     1      -0.465   8.502  12.455  1.00  0.00     0.277 HD
ATOM     13  H31 UNL     1       0.395   7.578  13.330  1.00  0.00     0.277 HD
ENDBRANCH   4   7
BRANCH   1  14
HETATM   14  N1  UNL     1      -5.655   2.604  14.647  1.00  0.00     0.093 N 
HETATM   15  C3  UNL     1      -4.594   1.688  14.907  1.00  0.00     0.273 C 
HETATM   16  C2  UNL     1      -4.408   1.285  16.328  1.00  0.00     0.030 C 
HETATM   17  C1  UNL     1      -5.662   1.096  17.114  1.00  0.00     0.003 C 
HETATM   18  C14 UNL     1      -6.825   1.911  16.643  1.00  0.00     0.030 C 
HETATM   19  C13 UNL     1      -6.363   3.064  15.802  1.00  0.00     0.273 C 
ENDBRANCH   1  14
TORSDOF 2
ENDMDL
MODEL 5
REMARK VINA RESULT: -6.126974296      1.313      6.370
REMARK  2 active torsions:
REMARK  status: ('A' for Active; 'I' for Inactive)
REMARK    1  A    between atoms: N1_4  and  C4_5 
REMARK    2  A    between atoms: N2_8  and  C7_9 
ROOT
HETATM    1  C4  UNL     1      -3.730   3.785  12.614  1.00  0.00     0.226 C 
HETATM    2  C5  UNL     1      -2.900   3.882  13.859  1.00  0.00     0.066 C 
HETATM    3  C6  UNL     1      -3.670   3.651  15.123  1.00  0.00     0.275 C 
HETATM    4  N2  UNL     1      -4.857   2.867  14.960  1.00  0.00     0.095 N 
HETATM    5  C11 UNL     1      -4.755   1.888  13.903  1.00  0.00     0.275 C 
HETATM    6  C12 UNL     1      -4.693   2.637  12.604  1.00  0.00     0.066 C 
ENDROOT
BRANCH   4   7
HETATM    7  C7  UNL     1      -5.291   2.174  16.134  1.00  0.00     0.250 C 
HETATM    8  C8  UNL     1      -6.775   2.189  16.356  1.00  0.00     0.065 C 
HETATM    9  C9  UNL     1      -6.939   1.061  17.353  1.00  0.00     0.234 C 
HETATM   10  N3  UNL     1      -5.796   0.200  17.214  1.00  0.00    -0.073 N 
HETATM   11  C10 UNL     1      -4.984   0.705  16.134  1.00  0.00     0.268 C 
ATOM     12  H32 UNL     1      -5.274   0.095  18.084  1.00  0.00     0.277 HD
ATOM     13  H31 UNL     1      -6.053  -0.779  17.090  1.00  0.00     0.277 HD
ENDBRANCH   4   7
BRANCH   1  14
HETATM   14  N1  UNL     1      -2.879   3.634  11.445  1.00  0.00     0.093 N 
HETATM   15  C3  UNL     1      -1.985   4.728  11.253  1.00  0.00     0.273 C 
HETATM   16  C2  UNL     1      -0.555   4.378  11.036  1.00  0.00     0.030 C 
HETATM   17  C1  UNL     1      -0.309   3.161  10.207  1.00  0.00     0.003 C 
HETATM   18  C14 UNL     1      -1.401   2.140  10.255  1.00  0.00     0.030 C 
HETATM   19  C13 UNL     1      -2.267   2.341  11.463  1.00  0.00     0.273 C 
ENDBRANCH   1  14
TORSDOF 2
ENDMDL
