MODEL 1
REMARK VINA RESULT: -7.019077916      0.000      0.000
REMARK  4 active torsions:
REMARK  status: ('A' for Active; 'I' for Inactive)
REMARK    1  A    between atoms: C1_1  and  C7_9 
REMARK    2  A    between atoms: C2_2  and  C3_3 
REMARK    3  A    between atoms: C7_9  and  N1_10 
REMARK    4  A    between atoms: N1_10  and  C8_12 
ROOT
HETATM    1  C7  UNL     1      -3.282   3.598  13.522  1.00  0.00     0.209 C 
ENDROOT
BRANCH   1   2
HETATM    2  C1  UNL     1      -4.080   3.300  14.703  1.00  0.00    -0.085 C 
HETATM    3  C2  UNL     1      -4.754   3.025  15.666  1.00  0.00    -0.073 C 
BRANCH   3   4
HETATM    4  C3  UNL     1      -5.575   2.656  16.824  1.00  0.00     0.205 C 
HETATM    5  C4  UNL     1      -7.024   2.388  16.395  1.00  0.00     0.071 C 
HETATM    6  C5  UNL     1      -7.517   1.119  17.055  1.00  0.00     0.174 C 
HETATM    7  O1  UNL     1      -6.737   0.050  16.625  1.00  0.00    -0.367 OA
HETATM    8  C6  UNL     1      -5.393   0.385  16.539  1.00  0.00     0.339 C 
HETATM    9  O2  UNL     1      -5.080   1.466  17.374  1.00  0.00    -0.349 OA
ENDBRANCH   3   4
ENDBRANCH   1   2
BRANCH   1  10
HETATM   10  N1  UNL     1      -2.810   2.503  12.768  1.00  0.00    -0.407 N 
ATOM     11  H1  UNL     1      -1.816   2.330  12.616  1.00  0.00     0.154 HD
BRANCH  10  12
HETATM   12  C8  UNL     1      -3.796   1.680  12.248  1.00  0.00     0.081 C 
HETATM   13  C9  UNL     1      -4.069   0.360  12.929  1.00  0.00     0.029 C 
HETATM   14  C10 UNL     1      -4.481  -0.598  11.821  1.00  0.00    -0.012 C 
HETATM   15  C11 UNL     1      -3.205  -1.134  11.217  1.00  0.00     0.005 C 
HETATM   16  C14 UNL     1      -4.880   0.385  10.713  1.00  0.00     0.011 C 
HETATM   17  C12 UNL     1      -2.546   0.171  10.746  1.00  0.00     0.007 C 
HETATM   18  C13 UNL     1      -3.591   1.228  10.812  1.00  0.00     0.008 C 
ENDBRANCH  10  12
ENDBRANCH   1  10
TORSDOF 4
ENDMDL
MODEL 2
REMARK VINA RESULT: -6.860450070      0.595      1.294
REMARK  4 active torsions:
REMARK  status: ('A' for Active; 'I' for Inactive)
REMARK    1  A    between atoms: C1_1  and  C7_9 
REMARK    2  A    between atoms: C2_2  and  C3_3 
REMARK    3  A    between atoms: C7_9  and  N1_10 
REMARK    4  A    between atoms: N1_10  and  C8_12 
ROOT
HETATM    1  C7  UNL     1      -2.991   3.635  13.640  1.00  0.00     0.209 C 
ENDROOT
BRANCH   1   2
HETATM    2  C1  UNL     1      -3.896   3.270  14.721  1.00  0.00    -0.085 C 
HETATM    3  C2  UNL     1      -4.624   2.983  15.640  1.00  0.00    -0.073 C 
BRANCH   3   4
HETATM    4  C3  UNL     1      -5.494   2.661  16.776  1.00  0.00     0.205 C 
HETATM    5  C4  UNL     1      -6.935   2.425  16.303  1.00  0.00     0.071 C 
HETATM    6  C5  UNL     1      -7.487   1.184  16.969  1.00  0.00     0.174 C 
HETATM    7  O1  UNL     1      -6.723   0.085  16.586  1.00  0.00    -0.367 OA
HETATM    8  C6  UNL     1      -5.368   0.381  16.540  1.00  0.00     0.339 C 
HETATM    9  O2  UNL     1      -5.052   1.468  17.365  1.00  0.00    -0.349 OA
ENDBRANCH   3   4
ENDBRANCH   1   2
BRANCH   1  10
HETATM   10  N1  UNL     1      -3.222   3.051  12.377  1.00  0.00    -0.407 N 
ATOM     11  H1  UNL     1      -3.367   3.607  11.534  1.00  0.00     0.154 HD
BRANCH  10  12
HETATM   12  C8  UNL     1      -3.240   1.665  12.367  1.00  0.00     0.081 C 
HETATM   13  C9  UNL     1      -2.563   0.942  11.226  1.00  0.00     0.029 C 
HETATM   14  C10 UNL     1      -3.377  -0.323  11.000  1.00  0.00    -0.012 C 
HETATM   15  C11 UNL     1      -4.537   0.062  10.113  1.00  0.00     0.005 C 
HETATM   16  C14 UNL     1      -4.121  -0.439  12.336  1.00  0.00     0.011 C 
HETATM   17  C12 UNL     1      -5.213   1.131  10.982  1.00  0.00     0.007 C 
HETATM   18  C13 UNL     1      -4.616   1.022  12.341  1.00  0.00     0.008 C 
ENDBRANCH  10  12
ENDBRANCH   1  10
TORSDOF 4
ENDMDL
MODEL 3
REMARK VINA RESULT: -6.795571362      2.763      5.977
REMARK  4 active torsions:
REMARK  status: ('A' for Active; 'I' for Inactive)
REMARK    1  A    between atoms: C1_1  and  C7_9 
REMARK    2  A    between atoms: C2_2  and  C3_3 
REMARK    3  A    between atoms: C7_9  and  N1_10 
REMARK    4  A    between atoms: N1_10  and  C8_12 
ROOT
HETATM    1  C7  UNL     1      -5.433   4.405  14.338  1.00  0.00     0.209 C 
ENDROOT
BRANCH   1   2
HETATM    2  C1  UNL     1      -4.783   3.832  13.167  1.00  0.00    -0.085 C 
HETATM    3  C2  UNL     1      -4.261   3.325  12.204  1.00  0.00    -0.073 C 
BRANCH   3   4
HETATM    4  C3  UNL     1      -3.651   2.685  11.034  1.00  0.00     0.205 C 
HETATM    5  C4  UNL     1      -2.663   1.594  11.470  1.00  0.00     0.071 C 
HETATM    6  C5  UNL     1      -2.885   0.352  10.635  1.00  0.00     0.174 C 
HETATM    7  O1  UNL     1      -4.174  -0.122  10.859  1.00  0.00    -0.367 OA
HETATM    8  C6  UNL     1      -5.101   0.907  10.946  1.00  0.00     0.339 C 
HETATM    9  O2  UNL     1      -4.654   2.058  10.282  1.00  0.00    -0.349 OA
ENDBRANCH   3   4
ENDBRANCH   1   2
BRANCH   1  10
HETATM   10  N1  UNL     1      -6.388   3.608  15.002  1.00  0.00    -0.407 N 
ATOM     11  H1  UNL     1      -7.299   3.390  14.596  1.00  0.00     0.154 HD
BRANCH  10  12
HETATM   12  C8  UNL     1      -5.999   3.142  16.248  1.00  0.00     0.081 C 
HETATM   13  C9  UNL     1      -4.990   2.021  16.318  1.00  0.00     0.029 C 
HETATM   14  C10 UNL     1      -5.360   1.210  17.551  1.00  0.00    -0.012 C 
HETATM   15  C11 UNL     1      -6.447   0.251  17.128  1.00  0.00     0.005 C 
HETATM   16  C14 UNL     1      -6.216   2.221  18.325  1.00  0.00     0.011 C 
HETATM   17  C12 UNL     1      -7.520   1.237  16.644  1.00  0.00     0.007 C 
HETATM   18  C13 UNL     1      -7.111   2.586  17.123  1.00  0.00     0.008 C 
ENDBRANCH  10  12
ENDBRANCH   1  10
TORSDOF 4
ENDMDL
MODEL 4
REMARK VINA RESULT: -6.601868994      2.965      6.166
REMARK  4 active torsions:
REMARK  status: ('A' for Active; 'I' for Inactive)
REMARK    1  A    between atoms: C1_1  and  C7_9 
REMARK    2  A    between atoms: C2_2  and  C3_3 
REMARK    3  A    between atoms: C7_9  and  N1_10 
REMARK    4  A    between atoms: N1_10  and  C8_12 
ROOT
HETATM    1  C7  UNL     1      -5.564   4.413  14.199  1.00  0.00     0.209 C 
ENDROOT
BRANCH   1   2
HETATM    2  C1  UNL     1      -4.701   4.002  13.100  1.00  0.00    -0.085 C 
HETATM    3  C2  UNL     1      -4.006   3.682  12.167  1.00  0.00    -0.073 C 
BRANCH   3   4
HETATM    4  C3  UNL     1      -3.172   3.320  11.015  1.00  0.00     0.205 C 
HETATM    5  C4  UNL     1      -1.685   3.352  11.394  1.00  0.00     0.071 C 
HETATM    6  C5  UNL     1      -1.002   2.115  10.855  1.00  0.00     0.174 C 
HETATM    7  O1  UNL     1      -1.571   0.989  11.442  1.00  0.00    -0.367 OA
HETATM    8  C6  UNL     1      -2.949   1.102  11.561  1.00  0.00     0.339 C 
HETATM    9  O2  UNL     1      -3.472   2.007  10.629  1.00  0.00    -0.349 OA
ENDBRANCH   3   4
ENDBRANCH   1   2
BRANCH   1  10
HETATM   10  N1  UNL     1      -6.361   3.417  14.802  1.00  0.00    -0.407 N 
ATOM     11  H1  UNL     1      -7.160   2.994  14.329  1.00  0.00     0.154 HD
BRANCH  10  12
HETATM   12  C8  UNL     1      -5.978   3.056  16.084  1.00  0.00     0.081 C 
HETATM   13  C9  UNL     1      -4.974   1.940  16.251  1.00  0.00     0.029 C 
HETATM   14  C10 UNL     1      -5.351   1.236  17.546  1.00  0.00    -0.012 C 
HETATM   15  C11 UNL     1      -6.442   0.251  17.201  1.00  0.00     0.005 C 
HETATM   16  C14 UNL     1      -6.205   2.313  18.229  1.00  0.00     0.011 C 
HETATM   17  C12 UNL     1      -7.509   1.198  16.633  1.00  0.00     0.007 C 
HETATM   18  C13 UNL     1      -7.094   2.580  16.998  1.00  0.00     0.008 C 
ENDBRANCH  10  12
ENDBRANCH   1  10
TORSDOF 4
ENDMDL
MODEL 5
REMARK VINA RESULT: -6.504283222      2.680      6.067
REMARK  4 active torsions:
REMARK  status: ('A' for Active; 'I' for Inactive)
REMARK    1  A    between atoms: C1_1  and  C7_9 
REMARK    2  A    between atoms: C2_2  and  C3_3 
REMARK    3  A    between atoms: C7_9  and  N1_10 
REMARK    4  A    between atoms: N1_10  and  C8_12 
ROOT
HETATM    1  C7  UNL     1      -3.483   3.148  15.127  1.00  0.00     0.209 C 
ENDROOT
BRANCH   1   2
HETATM    2  C1  UNL     1      -3.327   2.784  13.725  1.00  0.00    -0.085 C 
HETATM    3  C2  UNL     1      -3.193   2.449  12.574  1.00  0.00    -0.073 C 
BRANCH   3   4
HETATM    4  C3  UNL     1      -3.038   2.008  11.183  1.00  0.00     0.205 C 
HETATM    5  C4  UNL     1      -2.619   0.532  11.129  1.00  0.00     0.071 C 
HETATM    6  C5  UNL     1      -3.447  -0.188  10.088  1.00  0.00     0.174 C 
HETATM    7  O1  UNL     1      -4.787  -0.135  10.457  1.00  0.00    -0.367 OA
HETATM    8  C6  UNL     1      -5.137   1.102  10.979  1.00  0.00     0.339 C 
HETATM    9  O2  UNL     1      -4.274   2.110  10.531  1.00  0.00    -0.349 OA
ENDBRANCH   3   4
ENDBRANCH   1   2
BRANCH   1  10
HETATM   10  N1  UNL     1      -3.818   2.117  16.030  1.00  0.00    -0.407 N 
ATOM     11  H1  UNL     1      -3.124   1.659  16.621  1.00  0.00     0.154 HD
BRANCH  10  12
HETATM   12  C8  UNL     1      -5.160   1.773  16.053  1.00  0.00     0.081 C 
HETATM   13  C9  UNL     1      -6.191   2.871  15.943  1.00  0.00     0.029 C 
HETATM   14  C10 UNL     1      -7.376   2.409  16.778  1.00  0.00    -0.012 C 
HETATM   15  C11 UNL     1      -7.073   2.789  18.207  1.00  0.00     0.005 C 
HETATM   16  C14 UNL     1      -7.107   0.901  16.865  1.00  0.00     0.011 C 
HETATM   17  C12 UNL     1      -5.768   2.013  18.434  1.00  0.00     0.007 C 
HETATM   18  C13 UNL     1      -5.636   1.054  17.304  1.00  0.00     0.008 C 
ENDBRANCH  10  12
ENDBRANCH   1  10
TORSDOF 4
ENDMDL
