MODEL 1
REMARK VINA RESULT: -7.103678599      0.000      0.000
REMARK  13 active torsions:
REMARK  status: ('A' for Active; 'I' for Inactive)
REMARK    1  A    between atoms: C2_2  and  O2_4 
REMARK    2  A    between atoms: O2_4  and  C3_5 
REMARK    3  A    between atoms: C7_9  and  C8_10 
REMARK    4  A    between atoms: C8_10  and  C9_11 
REMARK    5  A    between atoms: C9_11  and  C10_12 
REMARK    6  A    between atoms: C10_12  and  C11_13 
REMARK    7  A    between atoms: C11_13  and  C13_15 
REMARK    8  A    between atoms: C11_13  and  C21_23 
REMARK    9  A    between atoms: C13_15  and  C14_16 
REMARK   10  A    between atoms: C14_16  and  C15_17 
REMARK   11  A    between atoms: C22_26  and  C23_27 
REMARK   12  A    between atoms: C23_27  and  C24_28 
REMARK   13  A    between atoms: C25_30  and  O5_32 
ROOT
HETATM    1  C3  UNL     1       1.275  16.084 -25.850  1.00  0.00     0.170 C 
HETATM    2  C4  UNL     1       2.402  15.765 -26.742  1.00  0.00     0.044 C 
HETATM    3  C5  UNL     1       2.399  14.465 -27.473  1.00  0.00     0.013 C 
HETATM    4  C6  UNL     1       2.626  14.789 -28.942  1.00  0.00     0.015 C 
HETATM    5  C7  UNL     1       1.273  13.550 -27.192  1.00  0.00    -0.070 C 
HETATM    6  C22 UNL     1      -0.017  14.121 -26.758  1.00  0.00    -0.035 C 
HETATM    7  C25 UNL     1       0.215  15.091 -25.631  1.00  0.00     0.105 C 
HETATM    8  C26 UNL     1      -1.070  15.751 -25.176  1.00  0.00     0.053 C 
ENDROOT
BRANCH   5   9
HETATM    9  C8  UNL     1       1.091  12.407 -28.208  1.00  0.00     0.035 C 
BRANCH   9  10
HETATM   10  C9  UNL     1       0.202  11.335 -27.656  1.00  0.00     0.006 C 
BRANCH  10  11
HETATM   11  C10 UNL     1       0.543  10.620 -26.447  1.00  0.00     0.018 C 
BRANCH  11  12
HETATM   12  C11 UNL     1      -0.472   9.936 -25.581  1.00  0.00     0.035 C 
HETATM   13  C12 UNL     1      -1.578   9.398 -26.433  1.00  0.00     0.025 C 
BRANCH  12  14
HETATM   14  C13 UNL     1      -0.869  10.773 -24.416  1.00  0.00     0.018 C 
BRANCH  14  15
HETATM   15  C14 UNL     1      -1.913  11.788 -24.535  1.00  0.00     0.006 C 
BRANCH  15  16
HETATM   16  C15 UNL     1      -3.270  11.559 -23.990  1.00  0.00    -0.014 C 
HETATM   17  C16 UNL     1      -3.801  12.799 -23.251  1.00  0.00     0.004 C 
HETATM   18  C17 UNL     1      -5.241  12.525 -22.939  1.00  0.00     0.000 C 
HETATM   19  C18 UNL     1      -5.488  11.068 -22.664  1.00  0.00     0.000 C 
HETATM   20  C19 UNL     1      -4.292  10.502 -21.955  1.00  0.00     0.000 C 
HETATM   21  C20 UNL     1      -3.102  10.519 -22.856  1.00  0.00     0.004 C 
ENDBRANCH  15  16
ENDBRANCH  14  15
ENDBRANCH  12  14
BRANCH  12  22
HETATM   22  C21 UNL     1       0.294   8.727 -25.049  1.00  0.00     0.239 C 
HETATM   23  N1  UNL     1       1.353   8.189 -25.800  1.00  0.00    -0.061 NA
HETATM   24  O3  UNL     1      -0.032   8.249 -23.968  1.00  0.00    -0.276 OA
ENDBRANCH  12  22
ENDBRANCH  11  12
ENDBRANCH  10  11
ENDBRANCH   9  10
ENDBRANCH   5   9
BRANCH   6  25
HETATM   25  C23 UNL     1      -1.024  14.509 -27.760  1.00  0.00     0.106 C 
BRANCH  25  26
HETATM   26  C24 UNL     1      -0.797  15.608 -28.658  1.00  0.00     0.235 C 
HETATM   27  O4  UNL     1      -1.007  16.785 -28.432  1.00  0.00    -0.307 OA
ENDBRANCH  25  26
ENDBRANCH   6  25
BRANCH   7  28
HETATM   28  O5  UNL     1       0.619  14.300 -24.519  1.00  0.00    -0.383 OA
ATOM     29  H5  UNL     1       0.170  14.649 -23.758  1.00  0.00     0.211 HD
ENDBRANCH   7  28
BRANCH   1  30
HETATM   30  O2  UNL     1       1.730  16.472 -24.540  1.00  0.00    -0.313 OA
BRANCH  30  31
HETATM   31  C2  UNL     1       1.854  17.757 -24.109  1.00  0.00     0.255 C 
HETATM   32  C1  UNL     1       3.113  18.487 -24.436  1.00  0.00     0.126 C 
HETATM   33  O1  UNL     1       0.911  18.270 -23.459  1.00  0.00    -0.266 OA
ENDBRANCH  30  31
ENDBRANCH   1  30
TORSDOF 13
ENDMDL
MODEL 2
REMARK VINA RESULT: -7.075138015      1.598      2.090
REMARK  13 active torsions:
REMARK  status: ('A' for Active; 'I' for Inactive)
REMARK    1  A    between atoms: C2_2  and  O2_4 
REMARK    2  A    between atoms: O2_4  and  C3_5 
REMARK    3  A    between atoms: C7_9  and  C8_10 
REMARK    4  A    between atoms: C8_10  and  C9_11 
REMARK    5  A    between atoms: C9_11  and  C10_12 
REMARK    6  A    between atoms: C10_12  and  C11_13 
REMARK    7  A    between atoms: C11_13  and  C13_15 
REMARK    8  A    between atoms: C11_13  and  C21_23 
REMARK    9  A    between atoms: C13_15  and  C14_16 
REMARK   10  A    between atoms: C14_16  and  C15_17 
REMARK   11  A    between atoms: C22_26  and  C23_27 
REMARK   12  A    between atoms: C23_27  and  C24_28 
REMARK   13  A    between atoms: C25_30  and  O5_32 
ROOT
HETATM    1  C3  UNL     1       0.649  15.969 -26.042  1.00  0.00     0.170 C 
HETATM    2  C4  UNL     1       1.824  16.176 -26.904  1.00  0.00     0.044 C 
HETATM    3  C5  UNL     1       2.629  14.992 -27.322  1.00  0.00     0.013 C 
HETATM    4  C6  UNL     1       2.750  15.060 -28.838  1.00  0.00     0.015 C 
HETATM    5  C7  UNL     1       2.214  13.683 -26.777  1.00  0.00    -0.070 C 
HETATM    6  C22 UNL     1       0.800  13.482 -26.407  1.00  0.00    -0.035 C 
HETATM    7  C25 UNL     1       0.337  14.624 -25.543  1.00  0.00     0.105 C 
HETATM    8  C26 UNL     1      -1.125  14.500 -25.173  1.00  0.00     0.053 C 
ENDROOT
BRANCH   5   9
HETATM    9  C8  UNL     1       2.808  12.457 -27.498  1.00  0.00     0.035 C 
BRANCH   9  10
HETATM   10  C9  UNL     1       2.913  11.287 -26.568  1.00  0.00     0.006 C 
BRANCH  10  11
HETATM   11  C10 UNL     1       2.745   9.932 -27.039  1.00  0.00     0.018 C 
BRANCH  11  12
HETATM   12  C11 UNL     1       1.509   9.120 -26.786  1.00  0.00     0.035 C 
HETATM   13  C12 UNL     1       0.939   8.655 -28.089  1.00  0.00     0.025 C 
BRANCH  12  14
HETATM   14  C13 UNL     1       0.573   9.802 -25.851  1.00  0.00     0.018 C 
BRANCH  14  15
HETATM   15  C14 UNL     1      -0.873   9.736 -26.046  1.00  0.00     0.006 C 
BRANCH  15  16
HETATM   16  C15 UNL     1      -1.805   9.799 -24.898  1.00  0.00    -0.014 C 
HETATM   17  C16 UNL     1      -1.901  11.222 -24.323  1.00  0.00     0.004 C 
HETATM   18  C17 UNL     1      -3.019  11.204 -23.324  1.00  0.00     0.000 C 
HETATM   19  C18 UNL     1      -3.121   9.879 -22.621  1.00  0.00     0.000 C 
HETATM   20  C19 UNL     1      -1.737   9.326 -22.433  1.00  0.00     0.000 C 
HETATM   21  C20 UNL     1      -1.126   9.005 -23.756  1.00  0.00     0.004 C 
ENDBRANCH  15  16
ENDBRANCH  14  15
ENDBRANCH  12  14
BRANCH  12  22
HETATM   22  C21 UNL     1       2.054   7.880 -26.083  1.00  0.00     0.239 C 
HETATM   23  N1  UNL     1       3.428   7.785 -25.806  1.00  0.00    -0.061 NA
HETATM   24  O3  UNL     1       1.275   6.987 -25.769  1.00  0.00    -0.276 OA
ENDBRANCH  12  22
ENDBRANCH  11  12
ENDBRANCH  10  11
ENDBRANCH   9  10
ENDBRANCH   5   9
BRANCH   6  25
HETATM   25  C23 UNL     1      -0.160  12.988 -27.410  1.00  0.00     0.106 C 
BRANCH  25  26
HETATM   26  C24 UNL     1      -0.457  13.747 -28.594  1.00  0.00     0.235 C 
HETATM   27  O4  UNL     1      -1.176  14.726 -28.666  1.00  0.00    -0.307 OA
ENDBRANCH  25  26
ENDBRANCH   6  25
BRANCH   7  28
HETATM   28  O5  UNL     1       1.028  14.475 -24.308  1.00  0.00    -0.383 OA
ATOM     29  H5  UNL     1       1.193  13.546 -24.197  1.00  0.00     0.211 HD
ENDBRANCH   7  28
BRANCH   1  30
HETATM   30  O2  UNL     1       0.687  16.822 -24.881  1.00  0.00    -0.313 OA
BRANCH  30  31
HETATM   31  C2  UNL     1      -0.031  17.969 -24.734  1.00  0.00     0.255 C 
HETATM   32  C1  UNL     1       0.281  19.112 -25.641  1.00  0.00     0.126 C 
HETATM   33  O1  UNL     1      -0.921  18.015 -23.850  1.00  0.00    -0.266 OA
ENDBRANCH  30  31
ENDBRANCH   1  30
TORSDOF 13
ENDMDL
MODEL 3
REMARK VINA RESULT: -6.912257152      1.436      1.936
REMARK  13 active torsions:
REMARK  status: ('A' for Active; 'I' for Inactive)
REMARK    1  A    between atoms: C2_2  and  O2_4 
REMARK    2  A    between atoms: O2_4  and  C3_5 
REMARK    3  A    between atoms: C7_9  and  C8_10 
REMARK    4  A    between atoms: C8_10  and  C9_11 
REMARK    5  A    between atoms: C9_11  and  C10_12 
REMARK    6  A    between atoms: C10_12  and  C11_13 
REMARK    7  A    between atoms: C11_13  and  C13_15 
REMARK    8  A    between atoms: C11_13  and  C21_23 
REMARK    9  A    between atoms: C13_15  and  C14_16 
REMARK   10  A    between atoms: C14_16  and  C15_17 
REMARK   11  A    between atoms: C22_26  and  C23_27 
REMARK   12  A    between atoms: C23_27  and  C24_28 
REMARK   13  A    between atoms: C25_30  and  O5_32 
ROOT
HETATM    1  C3  UNL     1       0.626  17.056 -26.115  1.00  0.00     0.170 C 
HETATM    2  C4  UNL     1       1.796  16.165 -26.046  1.00  0.00     0.044 C 
HETATM    3  C5  UNL     1       1.579  14.704 -25.848  1.00  0.00     0.013 C 
HETATM    4  C6  UNL     1       2.353  13.993 -26.948  1.00  0.00     0.015 C 
HETATM    5  C7  UNL     1       0.181  14.260 -25.669  1.00  0.00    -0.070 C 
HETATM    6  C22 UNL     1      -0.903  15.061 -26.271  1.00  0.00    -0.035 C 
HETATM    7  C25 UNL     1      -0.721  16.510 -25.907  1.00  0.00     0.105 C 
HETATM    8  C26 UNL     1      -1.776  17.392 -26.541  1.00  0.00     0.053 C 
ENDROOT
BRANCH   5   9
HETATM    9  C8  UNL     1      -0.052  12.746 -25.837  1.00  0.00     0.035 C 
BRANCH   9  10
HETATM   10  C9  UNL     1      -1.050  12.242 -24.840  1.00  0.00     0.006 C 
BRANCH  10  11
HETATM   11  C10 UNL     1      -0.807  11.044 -24.070  1.00  0.00     0.018 C 
BRANCH  11  12
HETATM   12  C11 UNL     1      -1.366   9.702 -24.438  1.00  0.00     0.035 C 
HETATM   13  C12 UNL     1      -1.948   9.760 -25.815  1.00  0.00     0.025 C 
BRANCH  12  14
HETATM   14  C13 UNL     1      -2.236   9.144 -23.366  1.00  0.00     0.018 C 
BRANCH  14  15
HETATM   15  C14 UNL     1      -2.911  10.017 -22.410  1.00  0.00     0.006 C 
BRANCH  15  16
HETATM   16  C15 UNL     1      -4.253  10.572 -22.693  1.00  0.00    -0.014 C 
HETATM   17  C16 UNL     1      -4.225  12.107 -22.785  1.00  0.00     0.004 C 
HETATM   18  C17 UNL     1      -5.574  12.529 -23.282  1.00  0.00     0.000 C 
HETATM   19  C18 UNL     1      -6.665  11.621 -22.786  1.00  0.00     0.000 C 
HETATM   20  C19 UNL     1      -6.319  11.169 -21.396  1.00  0.00     0.000 C 
HETATM   21  C20 UNL     1      -5.097  10.313 -21.421  1.00  0.00     0.004 C 
ENDBRANCH  15  16
ENDBRANCH  14  15
ENDBRANCH  12  14
BRANCH  12  22
HETATM   22  C21 UNL     1      -0.119   8.827 -24.531  1.00  0.00     0.239 C 
HETATM   23  N1  UNL     1       0.796   9.027 -25.579  1.00  0.00    -0.061 NA
HETATM   24  O3  UNL     1       0.063   7.962 -23.681  1.00  0.00    -0.276 OA
ENDBRANCH  12  22
ENDBRANCH  11  12
ENDBRANCH  10  11
ENDBRANCH   9  10
ENDBRANCH   5   9
BRANCH   6  25
HETATM   25  C23 UNL     1      -1.346  14.781 -27.648  1.00  0.00     0.106 C 
BRANCH  25  26
HETATM   26  C24 UNL     1      -0.412  14.751 -28.740  1.00  0.00     0.235 C 
HETATM   27  O4  UNL     1       0.018  15.709 -29.354  1.00  0.00    -0.307 OA
ENDBRANCH  25  26
ENDBRANCH   6  25
BRANCH   7  28
HETATM   28  O5  UNL     1      -0.984  16.591 -24.511  1.00  0.00    -0.383 OA
ATOM     29  H5  UNL     1      -1.155  15.705 -24.213  1.00  0.00     0.211 HD
ENDBRANCH   7  28
BRANCH   1  30
HETATM   30  O2  UNL     1       0.749  18.164 -25.202  1.00  0.00    -0.313 OA
BRANCH  30  31
HETATM   31  C2  UNL     1       1.268  19.381 -25.521  1.00  0.00     0.255 C 
HETATM   32  C1  UNL     1       2.662  19.684 -25.087  1.00  0.00     0.126 C 
HETATM   33  O1  UNL     1       0.556  20.192 -26.162  1.00  0.00    -0.266 OA
ENDBRANCH  30  31
ENDBRANCH   1  30
TORSDOF 13
ENDMDL
MODEL 4
REMARK VINA RESULT: -6.882977797      1.874      2.679
REMARK  13 active torsions:
REMARK  status: ('A' for Active; 'I' for Inactive)
REMARK    1  A    between atoms: C2_2  and  O2_4 
REMARK    2  A    between atoms: O2_4  and  C3_5 
REMARK    3  A    between atoms: C7_9  and  C8_10 
REMARK    4  A    between atoms: C8_10  and  C9_11 
REMARK    5  A    between atoms: C9_11  and  C10_12 
REMARK    6  A    between atoms: C10_12  and  C11_13 
REMARK    7  A    between atoms: C11_13  and  C13_15 
REMARK    8  A    between atoms: C11_13  and  C21_23 
REMARK    9  A    between atoms: C13_15  and  C14_16 
REMARK   10  A    between atoms: C14_16  and  C15_17 
REMARK   11  A    between atoms: C22_26  and  C23_27 
REMARK   12  A    between atoms: C23_27  and  C24_28 
REMARK   13  A    between atoms: C25_30  and  O5_32 
ROOT
HETATM    1  C3  UNL     1       0.016  15.514 -26.729  1.00  0.00     0.170 C 
HETATM    2  C4  UNL     1       0.535  14.377 -25.952  1.00  0.00     0.044 C 
HETATM    3  C5  UNL     1       0.645  13.043 -26.610  1.00  0.00     0.013 C 
HETATM    4  C6  UNL     1       2.070  12.561 -26.386  1.00  0.00     0.015 C 
HETATM    5  C7  UNL     1       0.155  12.949 -28.001  1.00  0.00    -0.070 C 
HETATM    6  C22 UNL     1       0.174  14.160 -28.846  1.00  0.00    -0.035 C 
HETATM    7  C25 UNL     1      -0.460  15.304 -28.102  1.00  0.00     0.105 C 
HETATM    8  C26 UNL     1      -0.423  16.590 -28.900  1.00  0.00     0.053 C 
ENDROOT
BRANCH   5   9
HETATM    9  C8  UNL     1       0.610  11.695 -28.772  1.00  0.00     0.035 C 
BRANCH   9  10
HETATM   10  C9  UNL     1      -0.220  10.505 -28.398  1.00  0.00     0.006 C 
BRANCH  10  11
HETATM   11  C10 UNL     1       0.383   9.219 -28.131  1.00  0.00     0.018 C 
BRANCH  11  12
HETATM   12  C11 UNL     1       0.528   8.649 -26.752  1.00  0.00     0.035 C 
HETATM   13  C12 UNL     1      -0.183   7.334 -26.674  1.00  0.00     0.025 C 
BRANCH  12  14
HETATM   14  C13 UNL     1       0.207   9.647 -25.696  1.00  0.00     0.018 C 
BRANCH  14  15
HETATM   15  C14 UNL     1      -0.601   9.286 -24.533  1.00  0.00     0.006 C 
BRANCH  15  16
HETATM   16  C15 UNL     1      -1.867   9.991 -24.231  1.00  0.00    -0.014 C 
HETATM   17  C16 UNL     1      -1.644  11.501 -24.043  1.00  0.00     0.004 C 
HETATM   18  C17 UNL     1      -3.005  12.124 -23.959  1.00  0.00     0.000 C 
HETATM   19  C18 UNL     1      -3.999  11.214 -23.293  1.00  0.00     0.000 C 
HETATM   20  C19 UNL     1      -3.296  10.440 -22.215  1.00  0.00     0.000 C 
HETATM   21  C20 UNL     1      -2.286   9.520 -22.816  1.00  0.00     0.004 C 
ENDBRANCH  15  16
ENDBRANCH  14  15
ENDBRANCH  12  14
BRANCH  12  22
HETATM   22  C21 UNL     1       2.020   8.341 -26.666  1.00  0.00     0.239 C 
HETATM   23  N1  UNL     1       2.861   8.667 -27.744  1.00  0.00    -0.061 NA
HETATM   24  O3  UNL     1       2.459   7.813 -25.649  1.00  0.00    -0.276 OA
ENDBRANCH  12  22
ENDBRANCH  11  12
ENDBRANCH  10  11
ENDBRANCH   9  10
ENDBRANCH   5   9
BRANCH   6  25
HETATM   25  C23 UNL     1       1.369  14.479 -29.646  1.00  0.00     0.106 C 
BRANCH  25  26
HETATM   26  C24 UNL     1       1.366  14.348 -31.077  1.00  0.00     0.235 C 
HETATM   27  O4  UNL     1       0.530  13.776 -31.751  1.00  0.00    -0.307 OA
ENDBRANCH  25  26
ENDBRANCH   6  25
BRANCH   7  28
HETATM   28  O5  UNL     1      -1.844  14.984 -28.012  1.00  0.00    -0.383 OA
ATOM     29  H5  UNL     1      -2.145  14.823 -28.898  1.00  0.00     0.211 HD
ENDBRANCH   7  28
BRANCH   1  30
HETATM   30  O2  UNL     1      -1.057  16.183 -26.037  1.00  0.00    -0.313 OA
BRANCH  30  31
HETATM   31  C2  UNL     1      -0.903  17.257 -25.216  1.00  0.00     0.255 C 
HETATM   32  C1  UNL     1      -0.214  18.462 -25.762  1.00  0.00     0.126 C 
HETATM   33  O1  UNL     1      -1.345  17.189 -24.043  1.00  0.00    -0.266 OA
ENDBRANCH  30  31
ENDBRANCH   1  30
TORSDOF 13
ENDMDL
MODEL 5
REMARK VINA RESULT: -6.692637990      1.430      1.776
REMARK  13 active torsions:
REMARK  status: ('A' for Active; 'I' for Inactive)
REMARK    1  A    between atoms: C2_2  and  O2_4 
REMARK    2  A    between atoms: O2_4  and  C3_5 
REMARK    3  A    between atoms: C7_9  and  C8_10 
REMARK    4  A    between atoms: C8_10  and  C9_11 
REMARK    5  A    between atoms: C9_11  and  C10_12 
REMARK    6  A    between atoms: C10_12  and  C11_13 
REMARK    7  A    between atoms: C11_13  and  C13_15 
REMARK    8  A    between atoms: C11_13  and  C21_23 
REMARK    9  A    between atoms: C13_15  and  C14_16 
REMARK   10  A    between atoms: C14_16  and  C15_17 
REMARK   11  A    between atoms: C22_26  and  C23_27 
REMARK   12  A    between atoms: C23_27  and  C24_28 
REMARK   13  A    between atoms: C25_30  and  O5_32 
ROOT
HETATM    1  C3  UNL     1       2.363  17.316 -26.046  1.00  0.00     0.170 C 
HETATM    2  C4  UNL     1       2.819  16.475 -27.166  1.00  0.00     0.044 C 
HETATM    3  C5  UNL     1       2.163  15.154 -27.390  1.00  0.00     0.013 C 
HETATM    4  C6  UNL     1       1.732  15.122 -28.848  1.00  0.00     0.015 C 
HETATM    5  C7  UNL     1       1.129  14.754 -26.414  1.00  0.00    -0.070 C 
HETATM    6  C22 UNL     1       0.376  15.806 -25.702  1.00  0.00    -0.035 C 
HETATM    7  C25 UNL     1       1.336  16.811 -25.125  1.00  0.00     0.105 C 
HETATM    8  C26 UNL     1       0.619  17.946 -24.426  1.00  0.00     0.053 C 
ENDROOT
BRANCH   5   9
HETATM    9  C8  UNL     1       0.223  13.591 -26.861  1.00  0.00     0.035 C 
BRANCH   9  10
HETATM   10  C9  UNL     1      -0.007  12.627 -25.737  1.00  0.00     0.006 C 
BRANCH  10  11
HETATM   11  C10 UNL     1       0.239  11.212 -25.896  1.00  0.00     0.018 C 
BRANCH  11  12
HETATM   12  C11 UNL     1      -0.705  10.153 -25.412  1.00  0.00     0.035 C 
HETATM   13  C12 UNL     1      -1.556   9.681 -26.550  1.00  0.00     0.025 C 
BRANCH  12  14
HETATM   14  C13 UNL     1      -1.415  10.561 -24.169  1.00  0.00     0.018 C 
BRANCH  14  15
HETATM   15  C14 UNL     1      -2.362  11.673 -24.169  1.00  0.00     0.006 C 
BRANCH  15  16
HETATM   16  C15 UNL     1      -3.760  11.490 -23.719  1.00  0.00    -0.014 C 
HETATM   17  C16 UNL     1      -4.316  12.765 -23.063  1.00  0.00     0.004 C 
HETATM   18  C17 UNL     1      -5.782  12.529 -22.850  1.00  0.00     0.000 C 
HETATM   19  C18 UNL     1      -6.080  11.088 -22.545  1.00  0.00     0.000 C 
HETATM   20  C19 UNL     1      -4.951  10.525 -21.730  1.00  0.00     0.000 C 
HETATM   21  C20 UNL     1      -3.698  10.488 -22.541  1.00  0.00     0.004 C 
ENDBRANCH  15  16
ENDBRANCH  14  15
ENDBRANCH  12  14
BRANCH  12  22
HETATM   22  C21 UNL     1       0.229   8.998 -25.060  1.00  0.00     0.239 C 
HETATM   23  N1  UNL     1      -0.083   8.156 -23.979  1.00  0.00    -0.061 NA
HETATM   24  O3  UNL     1       1.238   8.826 -25.734  1.00  0.00    -0.276 OA
ENDBRANCH  12  22
ENDBRANCH  11  12
ENDBRANCH  10  11
ENDBRANCH   9  10
ENDBRANCH   5   9
BRANCH   6  25
HETATM   25  C23 UNL     1      -0.864  16.345 -26.287  1.00  0.00     0.106 C 
BRANCH  25  26
HETATM   26  C24 UNL     1      -0.834  17.203 -27.439  1.00  0.00     0.235 C 
HETATM   27  O4  UNL     1      -1.066  18.397 -27.460  1.00  0.00    -0.307 OA
ENDBRANCH  25  26
ENDBRANCH   6  25
BRANCH   7  28
HETATM   28  O5  UNL     1       2.023  16.130 -24.081  1.00  0.00    -0.383 OA
ATOM     29  H5  UNL     1       1.641  15.262 -24.024  1.00  0.00     0.211 HD
ENDBRANCH   7  28
BRANCH   1  30
HETATM   30  O2  UNL     1       3.464  17.738 -25.219  1.00  0.00    -0.313 OA
BRANCH  30  31
HETATM   31  C2  UNL     1       3.899  19.022 -25.098  1.00  0.00     0.255 C 
HETATM   32  C1  UNL     1       3.918  19.629 -23.736  1.00  0.00     0.126 C 
HETATM   33  O1  UNL     1       4.263  19.636 -26.130  1.00  0.00    -0.266 OA
ENDBRANCH  30  31
ENDBRANCH   1  30
TORSDOF 13
ENDMDL
