MODEL 1
REMARK VINA RESULT: -8.459258478      0.000      0.000
REMARK  14 active torsions:
REMARK  status: ('A' for Active; 'I' for Inactive)
REMARK    1  A    between atoms: C2_2  and  C3_3 
REMARK    2  A    between atoms: C3_3  and  O1_5 
REMARK    3  A    between atoms: C3_3  and  C16_26 
REMARK    4  A    between atoms: O1_5  and  N1_6 
REMARK    5  A    between atoms: N2_9  and  C7_10 
REMARK    6  A    between atoms: C7_10  and  C8_11 
REMARK    7  A    between atoms: C8_11  and  C9_12 
REMARK    8  A    between atoms: C9_12  and  C10_13 
REMARK    9  A    between atoms: C10_13  and  C11_14 
REMARK   10  A    between atoms: C11_14  and  C12_15 
REMARK   11  A    between atoms: C12_15  and  C13_16 
REMARK   12  A    between atoms: C13_16  and  C14_17 
REMARK   13  A    between atoms: C14_17  and  O2_18 
REMARK   14  A    between atoms: N3_20  and  O3_22 
REMARK       I    between atoms: C16_26  and  N4_28 
ROOT
HETATM    1  N1  UNL     1      -0.409   9.683 -24.992  1.00  0.00    -0.205 N 
HETATM    2  C5  UNL     1      -1.108   8.341 -24.918  1.00  0.00     0.181 C 
HETATM    3  C6  UNL     1      -1.436   8.335 -23.433  1.00  0.00     0.150 C 
HETATM    4  N2  UNL     1      -1.904   9.726 -23.213  1.00  0.00    -0.331 N 
HETATM    5  C15 UNL     1      -1.328  10.481 -24.243  1.00  0.00     0.344 C 
HETATM    6  O4  UNL     1      -1.584  11.674 -24.461  1.00  0.00    -0.245 OA
ENDROOT
BRANCH   1   7
HETATM    7  O1  UNL     1       0.718   9.878 -25.585  1.00  0.00    -0.253 OA
BRANCH   7   8
HETATM    8  C3  UNL     1       0.962  10.426 -26.766  1.00  0.00     0.165 C 
HETATM    9  C4  UNL     1       2.105   9.675 -27.499  1.00  0.00     0.059 C 
BRANCH   8  10
HETATM   10  C2  UNL     1      -0.112  10.566 -27.788  1.00  0.00     0.046 C 
HETATM   11  C1  UNL     1       0.386  10.828 -29.191  1.00  0.00     0.009 C 
ENDBRANCH   8  10
BRANCH   8  12
HETATM   12  C16 UNL     1       1.540  11.812 -26.569  1.00  0.00     0.258 C 
HETATM   13  O5  UNL     1       2.788  11.909 -26.866  1.00  0.00    -0.270 OA
HETATM   14  N4  UNL     1       0.885  12.894 -26.123  1.00  0.00    -0.332 N 
HETATM   15  C17 UNL     1       0.149  13.831 -26.385  1.00  0.00    -0.011 C 
ATOM     16  H4  UNL     1       1.095  12.964 -25.127  1.00  0.00     0.168 HD
HETATM   17  C18 UNL     1      -0.409  14.131 -27.712  1.00  0.00     0.053 C 
HETATM   18  C23 UNL     1      -0.235  14.781 -25.275  1.00  0.00     0.053 C 
HETATM   19  C19 UNL     1      -0.864  15.571 -27.755  1.00  0.00     0.010 C 
HETATM   20  C20 UNL     1      -1.839  15.944 -26.689  1.00  0.00    -0.018 C 
HETATM   21  C21 UNL     1      -1.552  17.365 -26.260  1.00  0.00     0.010 C 
HETATM   22  C22 UNL     1      -1.709  15.074 -25.453  1.00  0.00     0.010 C 
ENDBRANCH   8  12
ENDBRANCH   7   8
ENDBRANCH   1   7
BRANCH   4  23
HETATM   23  C7  UNL     1      -2.785  10.022 -22.120  1.00  0.00     0.127 C 
BRANCH  23  24
HETATM   24  C8  UNL     1      -4.184  10.316 -22.492  1.00  0.00     0.020 C 
BRANCH  24  25
HETATM   25  C9  UNL     1      -4.540  11.717 -22.827  1.00  0.00     0.002 C 
BRANCH  25  26
HETATM   26  C10 UNL     1      -6.008  11.961 -22.666  1.00  0.00     0.000 C 
BRANCH  26  27
HETATM   27  C11 UNL     1      -6.685  10.938 -21.743  1.00  0.00     0.000 C 
BRANCH  27  28
HETATM   28  C12 UNL     1      -8.090  11.445 -21.454  1.00  0.00     0.008 C 
BRANCH  28  29
HETATM   29  C13 UNL     1      -9.165  10.451 -21.726  1.00  0.00     0.086 C 
BRANCH  29  30
HETATM   30  C14 UNL     1      -9.954  10.668 -22.938  1.00  0.00     0.135 C 
HETATM   31  N3  UNL     1     -11.209  10.414 -22.930  1.00  0.00    -0.251 N 
ATOM     32  H3  UNL     1     -11.623  10.065 -22.065  1.00  0.00     0.196 HD
BRANCH  30  33
HETATM   33  O2  UNL     1      -9.425  11.143 -24.134  1.00  0.00    -0.348 OA
ATOM     34  H2  UNL     1      -9.900  11.155 -24.956  1.00  0.00     0.219 HD
ENDBRANCH  30  33
BRANCH  31  35
HETATM   35  O3  UNL     1     -12.020  10.584 -24.003  1.00  0.00    -0.288 OA
ATOM     36  H3  UNL     1     -12.926  10.864 -23.942  1.00  0.00     0.244 HD
ENDBRANCH  31  35
ENDBRANCH  29  30
ENDBRANCH  28  29
ENDBRANCH  27  28
ENDBRANCH  26  27
ENDBRANCH  25  26
ENDBRANCH  24  25
ENDBRANCH  23  24
ENDBRANCH   4  23
TORSDOF 14
ENDMDL
MODEL 2
REMARK VINA RESULT: -8.446293677      1.196      1.227
REMARK  14 active torsions:
REMARK  status: ('A' for Active; 'I' for Inactive)
REMARK    1  A    between atoms: C2_2  and  C3_3 
REMARK    2  A    between atoms: C3_3  and  O1_5 
REMARK    3  A    between atoms: C3_3  and  C16_26 
REMARK    4  A    between atoms: O1_5  and  N1_6 
REMARK    5  A    between atoms: N2_9  and  C7_10 
REMARK    6  A    between atoms: C7_10  and  C8_11 
REMARK    7  A    between atoms: C8_11  and  C9_12 
REMARK    8  A    between atoms: C9_12  and  C10_13 
REMARK    9  A    between atoms: C10_13  and  C11_14 
REMARK   10  A    between atoms: C11_14  and  C12_15 
REMARK   11  A    between atoms: C12_15  and  C13_16 
REMARK   12  A    between atoms: C13_16  and  C14_17 
REMARK   13  A    between atoms: C14_17  and  O2_18 
REMARK   14  A    between atoms: N3_20  and  O3_22 
REMARK       I    between atoms: C16_26  and  N4_28 
ROOT
HETATM    1  N1  UNL     1      -0.550   9.600 -24.923  1.00  0.00    -0.205 N 
HETATM    2  C5  UNL     1      -1.281   8.276 -24.851  1.00  0.00     0.181 C 
HETATM    3  C6  UNL     1      -1.638   8.290 -23.373  1.00  0.00     0.150 C 
HETATM    4  N2  UNL     1      -2.078   9.694 -23.174  1.00  0.00    -0.331 N 
HETATM    5  C15 UNL     1      -1.464  10.427 -24.198  1.00  0.00     0.344 C 
HETATM    6  O4  UNL     1      -1.688  11.623 -24.430  1.00  0.00    -0.245 OA
ENDROOT
BRANCH   1   7
HETATM    7  O1  UNL     1       0.593   9.765 -25.494  1.00  0.00    -0.253 OA
BRANCH   7   8
HETATM    8  C3  UNL     1       0.874  10.309 -26.669  1.00  0.00     0.165 C 
HETATM    9  C4  UNL     1       2.009   9.528 -27.382  1.00  0.00     0.059 C 
BRANCH   8  10
HETATM   10  C2  UNL     1      -0.177  10.481 -27.710  1.00  0.00     0.046 C 
HETATM   11  C1  UNL     1       0.355  10.745 -29.100  1.00  0.00     0.009 C 
ENDBRANCH   8  10
BRANCH   8  12
HETATM   12  C16 UNL     1       1.486  11.678 -26.456  1.00  0.00     0.258 C 
HETATM   13  O5  UNL     1       2.735  11.748 -26.759  1.00  0.00    -0.270 OA
HETATM   14  N4  UNL     1       0.860  12.769 -25.994  1.00  0.00    -0.332 N 
HETATM   15  C17 UNL     1       0.146  13.727 -26.240  1.00  0.00    -0.011 C 
ATOM     16  H4  UNL     1       1.076  12.822 -24.998  1.00  0.00     0.168 HD
HETATM   17  C18 UNL     1      -0.411  14.057 -27.560  1.00  0.00     0.053 C 
HETATM   18  C23 UNL     1      -0.210  14.671 -25.116  1.00  0.00     0.053 C 
HETATM   19  C19 UNL     1      -0.831  15.508 -27.583  1.00  0.00     0.010 C 
HETATM   20  C20 UNL     1      -1.792  15.891 -26.507  1.00  0.00    -0.018 C 
HETATM   21  C21 UNL     1      -1.469  17.299 -26.061  1.00  0.00     0.010 C 
HETATM   22  C22 UNL     1      -1.678  15.002 -25.283  1.00  0.00     0.010 C 
ENDBRANCH   8  12
ENDBRANCH   7   8
ENDBRANCH   1   7
BRANCH   4  23
HETATM   23  C7  UNL     1      -2.974  10.019 -22.100  1.00  0.00     0.127 C 
BRANCH  23  24
HETATM   24  C8  UNL     1      -4.338  10.415 -22.507  1.00  0.00     0.020 C 
BRANCH  24  25
HETATM   25  C9  UNL     1      -4.575  11.832 -22.877  1.00  0.00     0.002 C 
BRANCH  25  26
HETATM   26  C10 UNL     1      -6.034  12.165 -22.855  1.00  0.00     0.000 C 
BRANCH  26  27
HETATM   27  C11 UNL     1      -6.833  11.281 -21.887  1.00  0.00     0.000 C 
BRANCH  27  28
HETATM   28  C12 UNL     1      -8.301  11.651 -22.040  1.00  0.00     0.008 C 
BRANCH  28  29
HETATM   29  C13 UNL     1      -9.246  10.581 -21.616  1.00  0.00     0.086 C 
BRANCH  29  30
HETATM   30  C14 UNL     1     -10.346  10.997 -20.747  1.00  0.00     0.135 C 
HETATM   31  N3  UNL     1     -11.407  11.494 -21.263  1.00  0.00    -0.251 N 
ATOM     32  H3  UNL     1     -11.451  11.584 -22.278  1.00  0.00     0.196 HD
BRANCH  30  33
HETATM   33  O2  UNL     1     -10.321  10.890 -19.360  1.00  0.00    -0.348 OA
ATOM     34  H2  UNL     1     -10.900  11.372 -18.781  1.00  0.00     0.219 HD
ENDBRANCH  30  33
BRANCH  31  35
HETATM   35  O3  UNL     1     -12.476  11.907 -20.537  1.00  0.00    -0.288 OA
ATOM     36  H3  UNL     1     -13.362  11.594 -20.677  1.00  0.00     0.244 HD
ENDBRANCH  31  35
ENDBRANCH  29  30
ENDBRANCH  28  29
ENDBRANCH  27  28
ENDBRANCH  26  27
ENDBRANCH  25  26
ENDBRANCH  24  25
ENDBRANCH  23  24
ENDBRANCH   4  23
TORSDOF 14
ENDMDL
MODEL 3
REMARK VINA RESULT: -8.262458998      1.571      1.798
REMARK  14 active torsions:
REMARK  status: ('A' for Active; 'I' for Inactive)
REMARK    1  A    between atoms: C2_2  and  C3_3 
REMARK    2  A    between atoms: C3_3  and  O1_5 
REMARK    3  A    between atoms: C3_3  and  C16_26 
REMARK    4  A    between atoms: O1_5  and  N1_6 
REMARK    5  A    between atoms: N2_9  and  C7_10 
REMARK    6  A    between atoms: C7_10  and  C8_11 
REMARK    7  A    between atoms: C8_11  and  C9_12 
REMARK    8  A    between atoms: C9_12  and  C10_13 
REMARK    9  A    between atoms: C10_13  and  C11_14 
REMARK   10  A    between atoms: C11_14  and  C12_15 
REMARK   11  A    between atoms: C12_15  and  C13_16 
REMARK   12  A    between atoms: C13_16  and  C14_17 
REMARK   13  A    between atoms: C14_17  and  O2_18 
REMARK   14  A    between atoms: N3_20  and  O3_22 
REMARK       I    between atoms: C16_26  and  N4_28 
ROOT
HETATM    1  N1  UNL     1      -0.251   9.871 -25.141  1.00  0.00    -0.205 N 
HETATM    2  C5  UNL     1      -0.990   8.551 -25.197  1.00  0.00     0.181 C 
HETATM    3  C6  UNL     1      -1.299   8.398 -23.716  1.00  0.00     0.150 C 
HETATM    4  N2  UNL     1      -1.721   9.772 -23.344  1.00  0.00    -0.331 N 
HETATM    5  C15 UNL     1      -1.134  10.614 -24.297  1.00  0.00     0.344 C 
HETATM    6  O4  UNL     1      -1.356  11.829 -24.384  1.00  0.00    -0.245 OA
ENDROOT
BRANCH   1   7
HETATM    7  O1  UNL     1       0.875  10.095 -25.727  1.00  0.00    -0.253 OA
BRANCH   7   8
HETATM    8  C3  UNL     1       1.115  10.700 -26.881  1.00  0.00     0.165 C 
HETATM    9  C4  UNL     1       2.287  10.013 -27.631  1.00  0.00     0.059 C 
BRANCH   8  10
HETATM   10  C2  UNL     1       0.048  10.853 -27.908  1.00  0.00     0.046 C 
HETATM   11  C1  UNL     1       0.201   9.949 -29.110  1.00  0.00     0.009 C 
ENDBRANCH   8  10
BRANCH   8  12
HETATM   12  C16 UNL     1       1.650  12.092 -26.617  1.00  0.00     0.258 C 
HETATM   13  O5  UNL     1       2.904  12.231 -26.875  1.00  0.00    -0.270 OA
HETATM   14  N4  UNL     1       0.956  13.140 -26.152  1.00  0.00    -0.332 N 
HETATM   15  C17 UNL     1       0.203  14.067 -26.402  1.00  0.00    -0.011 C 
ATOM     16  H4  UNL     1       1.136  13.179 -25.149  1.00  0.00     0.168 HD
HETATM   17  C18 UNL     1      -0.326  14.400 -27.733  1.00  0.00     0.053 C 
HETATM   18  C23 UNL     1      -0.237  14.965 -25.271  1.00  0.00     0.053 C 
HETATM   19  C19 UNL     1      -0.817  15.829 -27.738  1.00  0.00     0.010 C 
HETATM   20  C20 UNL     1      -1.831  16.139 -26.687  1.00  0.00    -0.018 C 
HETATM   21  C21 UNL     1      -1.594  17.550 -26.200  1.00  0.00     0.010 C 
HETATM   22  C22 UNL     1      -1.713  15.228 -25.480  1.00  0.00     0.010 C 
ENDBRANCH   8  12
ENDBRANCH   7   8
ENDBRANCH   1   7
BRANCH   4  23
HETATM   23  C7  UNL     1      -2.579   9.976 -22.212  1.00  0.00     0.127 C 
BRANCH  23  24
HETATM   24  C8  UNL     1      -3.993  10.263 -22.529  1.00  0.00     0.020 C 
BRANCH  24  25
HETATM   25  C9  UNL     1      -4.347  11.635 -22.971  1.00  0.00     0.002 C 
BRANCH  25  26
HETATM   26  C10 UNL     1      -5.487  12.188 -22.174  1.00  0.00     0.000 C 
BRANCH  26  27
HETATM   27  C11 UNL     1      -6.719  12.502 -23.035  1.00  0.00     0.000 C 
BRANCH  27  28
HETATM   28  C12 UNL     1      -7.664  11.315 -22.927  1.00  0.00     0.008 C 
BRANCH  28  29
HETATM   29  C13 UNL     1      -8.694  11.452 -21.861  1.00  0.00     0.086 C 
BRANCH  29  30
HETATM   30  C14 UNL     1      -8.554  10.561 -20.708  1.00  0.00     0.135 C 
HETATM   31  N3  UNL     1      -7.441   9.963 -20.504  1.00  0.00    -0.251 N 
ATOM     32  H3  UNL     1      -6.678  10.129 -21.160  1.00  0.00     0.196 HD
BRANCH  30  33
HETATM   33  O2  UNL     1      -9.572  10.310 -19.794  1.00  0.00    -0.348 OA
ATOM     34  H2  UNL     1      -9.972   9.457 -19.668  1.00  0.00     0.219 HD
ENDBRANCH  30  33
BRANCH  31  35
HETATM   35  O3  UNL     1      -7.218   9.120 -19.465  1.00  0.00    -0.288 OA
ATOM     36  H3  UNL     1      -6.471   8.536 -19.410  1.00  0.00     0.244 HD
ENDBRANCH  31  35
ENDBRANCH  29  30
ENDBRANCH  28  29
ENDBRANCH  27  28
ENDBRANCH  26  27
ENDBRANCH  25  26
ENDBRANCH  24  25
ENDBRANCH  23  24
ENDBRANCH   4  23
TORSDOF 14
ENDMDL
MODEL 4
REMARK VINA RESULT: -8.170158916      1.070      1.459
REMARK  14 active torsions:
REMARK  status: ('A' for Active; 'I' for Inactive)
REMARK    1  A    between atoms: C2_2  and  C3_3 
REMARK    2  A    between atoms: C3_3  and  O1_5 
REMARK    3  A    between atoms: C3_3  and  C16_26 
REMARK    4  A    between atoms: O1_5  and  N1_6 
REMARK    5  A    between atoms: N2_9  and  C7_10 
REMARK    6  A    between atoms: C7_10  and  C8_11 
REMARK    7  A    between atoms: C8_11  and  C9_12 
REMARK    8  A    between atoms: C9_12  and  C10_13 
REMARK    9  A    between atoms: C10_13  and  C11_14 
REMARK   10  A    between atoms: C11_14  and  C12_15 
REMARK   11  A    between atoms: C12_15  and  C13_16 
REMARK   12  A    between atoms: C13_16  and  C14_17 
REMARK   13  A    between atoms: C14_17  and  O2_18 
REMARK   14  A    between atoms: N3_20  and  O3_22 
REMARK       I    between atoms: C16_26  and  N4_28 
ROOT
HETATM    1  N1  UNL     1       0.130   9.088 -25.687  1.00  0.00    -0.205 N 
HETATM    2  C5  UNL     1      -0.548   7.765 -25.977  1.00  0.00     0.181 C 
HETATM    3  C6  UNL     1      -0.843   7.340 -24.547  1.00  0.00     0.150 C 
HETATM    4  N2  UNL     1      -1.326   8.606 -23.940  1.00  0.00    -0.331 N 
HETATM    5  C15 UNL     1      -0.782   9.629 -24.729  1.00  0.00     0.344 C 
HETATM    6  O4  UNL     1      -1.060  10.830 -24.602  1.00  0.00    -0.245 OA
ENDROOT
BRANCH   1   7
HETATM    7  O1  UNL     1       1.242   9.462 -26.220  1.00  0.00    -0.253 OA
BRANCH   7   8
HETATM    8  C3  UNL     1       1.449  10.264 -27.255  1.00  0.00     0.165 C 
HETATM    9  C4  UNL     1       2.633   9.756 -28.119  1.00  0.00     0.059 C 
BRANCH   8  10
HETATM   10  C2  UNL     1       0.365  10.554 -28.234  1.00  0.00     0.046 C 
HETATM   11  C1  UNL     1       0.852  10.989 -29.597  1.00  0.00     0.009 C 
ENDBRANCH   8  10
BRANCH   8  12
HETATM   12  C16 UNL     1       1.942  11.607 -26.760  1.00  0.00     0.258 C 
HETATM   13  O5  UNL     1       3.192  11.822 -26.981  1.00  0.00    -0.270 OA
HETATM   14  N4  UNL     1       1.216  12.544 -26.133  1.00  0.00    -0.332 N 
HETATM   15  C17 UNL     1       0.437  13.477 -26.232  1.00  0.00    -0.011 C 
ATOM     16  H4  UNL     1       1.391  12.421 -25.136  1.00  0.00     0.168 HD
HETATM   17  C18 UNL     1      -0.096  14.013 -27.494  1.00  0.00     0.053 C 
HETATM   18  C23 UNL     1      -0.032  14.163 -24.971  1.00  0.00     0.053 C 
HETATM   19  C19 UNL     1      -0.629  15.408 -27.266  1.00  0.00     0.010 C 
HETATM   20  C20 UNL     1      -1.656  15.510 -26.187  1.00  0.00    -0.018 C 
HETATM   21  C21 UNL     1      -1.461  16.827 -25.471  1.00  0.00     0.010 C 
HETATM   22  C22 UNL     1      -1.515  14.415 -25.146  1.00  0.00     0.010 C 
ENDBRANCH   8  12
ENDBRANCH   7   8
ENDBRANCH   1   7
BRANCH   4  23
HETATM   23  C7  UNL     1      -2.187   8.569 -22.793  1.00  0.00     0.127 C 
BRANCH  23  24
HETATM   24  C8  UNL     1      -2.526   9.883 -22.209  1.00  0.00     0.020 C 
BRANCH  24  25
HETATM   25  C9  UNL     1      -3.893  10.416 -22.431  1.00  0.00     0.002 C 
BRANCH  25  26
HETATM   26  C10 UNL     1      -3.865  11.669 -23.250  1.00  0.00     0.000 C 
BRANCH  26  27
HETATM   27  C11 UNL     1      -4.985  12.651 -22.878  1.00  0.00     0.000 C 
BRANCH  27  28
HETATM   28  C12 UNL     1      -6.239  11.831 -22.614  1.00  0.00     0.008 C 
BRANCH  28  29
HETATM   29  C13 UNL     1      -7.507  12.531 -22.959  1.00  0.00     0.086 C 
BRANCH  29  30
HETATM   30  C14 UNL     1      -8.734  11.744 -22.836  1.00  0.00     0.135 C 
HETATM   31  N3  UNL     1      -9.141  11.048 -23.830  1.00  0.00    -0.251 N 
ATOM     32  H3  UNL     1      -8.589  11.065 -24.687  1.00  0.00     0.196 HD
BRANCH  30  33
HETATM   33  O2  UNL     1      -9.513  11.698 -21.684  1.00  0.00    -0.348 OA
ATOM     34  H2  UNL     1     -10.209  11.067 -21.540  1.00  0.00     0.219 HD
ENDBRANCH  30  33
BRANCH  31  35
HETATM   35  O3  UNL     1     -10.265  10.289 -23.808  1.00  0.00    -0.288 OA
ATOM     36  H3  UNL     1     -11.104  10.598 -23.487  1.00  0.00     0.244 HD
ENDBRANCH  31  35
ENDBRANCH  29  30
ENDBRANCH  28  29
ENDBRANCH  27  28
ENDBRANCH  26  27
ENDBRANCH  25  26
ENDBRANCH  24  25
ENDBRANCH  23  24
ENDBRANCH   4  23
TORSDOF 14
ENDMDL
MODEL 5
REMARK VINA RESULT: -8.111004222      2.468      3.418
REMARK  14 active torsions:
REMARK  status: ('A' for Active; 'I' for Inactive)
REMARK    1  A    between atoms: C2_2  and  C3_3 
REMARK    2  A    between atoms: C3_3  and  O1_5 
REMARK    3  A    between atoms: C3_3  and  C16_26 
REMARK    4  A    between atoms: O1_5  and  N1_6 
REMARK    5  A    between atoms: N2_9  and  C7_10 
REMARK    6  A    between atoms: C7_10  and  C8_11 
REMARK    7  A    between atoms: C8_11  and  C9_12 
REMARK    8  A    between atoms: C9_12  and  C10_13 
REMARK    9  A    between atoms: C10_13  and  C11_14 
REMARK   10  A    between atoms: C11_14  and  C12_15 
REMARK   11  A    between atoms: C12_15  and  C13_16 
REMARK   12  A    between atoms: C13_16  and  C14_17 
REMARK   13  A    between atoms: C14_17  and  O2_18 
REMARK   14  A    between atoms: N3_20  and  O3_22 
REMARK       I    between atoms: C16_26  and  N4_28 
ROOT
HETATM    1  N1  UNL     1      -0.804   9.417 -23.575  1.00  0.00    -0.205 N 
HETATM    2  C5  UNL     1      -0.980  10.838 -24.069  1.00  0.00     0.181 C 
HETATM    3  C6  UNL     1      -2.497  10.859 -24.169  1.00  0.00     0.150 C 
HETATM    4  N2  UNL     1      -2.901  10.172 -22.917  1.00  0.00    -0.331 N 
HETATM    5  C15 UNL     1      -1.801   9.385 -22.551  1.00  0.00     0.344 C 
HETATM    6  O4  UNL     1      -1.718   8.754 -21.489  1.00  0.00    -0.245 OA
ENDROOT
BRANCH   1   7
HETATM    7  O1  UNL     1       0.041   8.580 -24.070  1.00  0.00    -0.253 OA
BRANCH   7   8
HETATM    8  C3  UNL     1      -0.044   7.855 -25.175  1.00  0.00     0.165 C 
HETATM    9  C4  UNL     1       0.421   6.398 -24.919  1.00  0.00     0.059 C 
BRANCH   8  10
HETATM   10  C2  UNL     1      -1.332   7.716 -25.909  1.00  0.00     0.046 C 
HETATM   11  C1  UNL     1      -2.038   6.397 -25.692  1.00  0.00     0.009 C 
ENDBRANCH   8  10
BRANCH   8  12
HETATM   12  C16 UNL     1       0.965   8.360 -26.186  1.00  0.00     0.258 C 
HETATM   13  O5  UNL     1       1.461   7.440 -26.938  1.00  0.00    -0.270 OA
HETATM   14  N4  UNL     1       1.369   9.628 -26.347  1.00  0.00    -0.332 N 
HETATM   15  C17 UNL     1       1.146  10.724 -26.835  1.00  0.00    -0.011 C 
ATOM     16  H4  UNL     1       2.248   9.715 -25.837  1.00  0.00     0.168 HD
HETATM   17  C18 UNL     1      -0.021  11.068 -27.661  1.00  0.00     0.053 C 
HETATM   18  C23 UNL     1       2.136  11.838 -26.591  1.00  0.00     0.053 C 
HETATM   19  C19 UNL     1       0.270  12.323 -28.450  1.00  0.00     0.010 C 
HETATM   20  C20 UNL     1       0.679  13.495 -27.620  1.00  0.00    -0.018 C 
HETATM   21  C21 UNL     1       1.715  14.282 -28.389  1.00  0.00     0.010 C 
HETATM   22  C22 UNL     1       1.320  13.082 -26.309  1.00  0.00     0.010 C 
ENDBRANCH   8  12
ENDBRANCH   7   8
ENDBRANCH   1   7
BRANCH   4  23
HETATM   23  C7  UNL     1      -4.195  10.421 -22.347  1.00  0.00     0.127 C 
BRANCH  23  24
HETATM   24  C8  UNL     1      -4.890  11.624 -22.850  1.00  0.00     0.020 C 
BRANCH  24  25
HETATM   25  C9  UNL     1      -6.192  11.987 -22.238  1.00  0.00     0.002 C 
BRANCH  25  26
HETATM   26  C10 UNL     1      -7.076  12.697 -23.215  1.00  0.00     0.000 C 
BRANCH  26  27
HETATM   27  C11 UNL     1      -8.558  12.659 -22.816  1.00  0.00     0.000 C 
BRANCH  27  28
HETATM   28  C12 UNL     1      -9.069  11.254 -23.098  1.00  0.00     0.008 C 
BRANCH  28  29
HETATM   29  C13 UNL     1      -9.998  10.724 -22.062  1.00  0.00     0.086 C 
BRANCH  29  30
HETATM   30  C14 UNL     1      -9.400  10.392 -20.768  1.00  0.00     0.135 C 
HETATM   31  N3  UNL     1      -8.287   9.762 -20.729  1.00  0.00    -0.251 N 
ATOM     32  H3  UNL     1      -7.846   9.509 -21.614  1.00  0.00     0.196 HD
BRANCH  30  33
HETATM   33  O2  UNL     1      -9.972  10.720 -19.543  1.00  0.00    -0.348 OA
ATOM     34  H2  UNL     1     -10.003  10.131 -18.798  1.00  0.00     0.219 HD
ENDBRANCH  30  33
BRANCH  31  35
HETATM   35  O3  UNL     1      -7.659   9.412 -19.579  1.00  0.00    -0.288 OA
ATOM     36  H3  UNL     1      -7.431   8.518 -19.354  1.00  0.00     0.244 HD
ENDBRANCH  31  35
ENDBRANCH  29  30
ENDBRANCH  28  29
ENDBRANCH  27  28
ENDBRANCH  26  27
ENDBRANCH  25  26
ENDBRANCH  24  25
ENDBRANCH  23  24
ENDBRANCH   4  23
TORSDOF 14
ENDMDL
