MODEL 1
REMARK VINA RESULT: -7.631038324      0.000      0.000
REMARK  14 active torsions:
REMARK  status: ('A' for Active; 'I' for Inactive)
REMARK    1  A    between atoms: C2_2  and  N1_3 
REMARK    2  A    between atoms: N1_3  and  C3_4 
REMARK    3  A    between atoms: N1_3  and  C5_6 
REMARK    4  A    between atoms: C5_6  and  C6_7 
REMARK    5  A    between atoms: C6_7  and  C7_8 
REMARK    6  A    between atoms: C7_8  and  N2_9 
REMARK    7  A    between atoms: C9_14  and  N4_15 
REMARK    8  A    between atoms: C10_20  and  N6_21 
REMARK    9  A    between atoms: N6_21  and  C11_23 
REMARK   10  A    between atoms: C11_23  and  C12_24 
REMARK   11  A    between atoms: C12_24  and  C13_25 
REMARK   12  A    between atoms: C13_25  and  C14_26 
REMARK   13  A    between atoms: C14_26  and  N8_30 
REMARK   14  A    between atoms: N8_30  and  C16_32 
ROOT
HETATM    1  N2  UNL     1      11.292  39.700  -5.320  1.00  0.00    -0.225 N 
ATOM      2  H2  UNL     1      11.277  40.538  -4.738  1.00  0.00     0.177 HD
HETATM    3  C8  UNL     1      11.883  39.886  -6.436  1.00  0.00     0.707 A 
HETATM    4  N3  UNL     1      12.402  41.131  -6.700  1.00  0.00    -0.022 N 
ATOM      5  H3  UNL     1      12.310  41.872  -6.005  1.00  0.00     0.203 HD
HETATM    6  C9  UNL     1      13.021  41.382  -7.844  1.00  0.00     0.705 A 
HETATM    7  N5  UNL     1      13.159  40.419  -8.794  1.00  0.00    -0.021 N 
ATOM      8  H5  UNL     1      13.637  40.633  -9.669  1.00  0.00     0.203 HD
HETATM    9  C10 UNL     1      12.668  39.189  -8.583  1.00  0.00     0.710 A 
HETATM   10  N11 UNL     1      12.029  38.960  -7.373  1.00  0.00    -0.021 N 
ATOM     11  H11 UNL     1      11.653  38.029  -7.195  1.00  0.00     0.203 HD
ENDROOT
BRANCH   9  12
HETATM   12  N6  UNL     1      12.719  38.271  -9.390  1.00  0.00    -0.204 N 
ATOM     13  H6  UNL     1      11.768  37.905  -9.433  1.00  0.00     0.183 HD
BRANCH  12  14
HETATM   14  C11 UNL     1      13.437  37.499 -10.263  1.00  0.00     0.079 C 
BRANCH  14  15
HETATM   15  C12 UNL     1      13.470  37.835 -11.723  1.00  0.00     0.052 C 
BRANCH  15  16
HETATM   16  C13 UNL     1      13.581  36.648 -12.641  1.00  0.00     0.081 C 
BRANCH  16  17
HETATM   17  C14 UNL     1      14.826  36.351 -13.279  1.00  0.00     0.078 C 
HETATM   18  N7  UNL     1      14.885  36.029 -14.534  1.00  0.00    -0.384 N 
HETATM   19  C15 UNL     1      13.719  35.952 -15.351  1.00  0.00     0.147 C 
ATOM     20  H7  UNL     1      15.793  35.824 -14.950  1.00  0.00     0.160 HD
BRANCH  17  21
HETATM   21  N8  UNL     1      16.092  36.405 -12.579  1.00  0.00    -0.330 N 
ATOM     22  H8  UNL     1      16.293  35.896 -11.718  1.00  0.00     0.168 HD
BRANCH  21  23
HETATM   23  C16 UNL     1      17.066  37.297 -13.273  1.00  0.00     0.145 A 
HETATM   24  N9  UNL     1      17.006  38.594 -12.395  1.00  0.00    -0.282 N 
HETATM   25  N10 UNL     1      17.870  39.132 -13.164  1.00  0.00    -0.296 N 
ATOM     26  H9  UNL     1      16.494  38.884 -11.562  1.00  0.00     0.189 HD
HETATM   27  C17 UNL     1      18.543  40.448 -13.171  1.00  0.00     0.177 C 
HETATM   28  C18 UNL     1      17.877  38.041 -13.850  1.00  0.00     0.069 A 
HETATM   29  C19 UNL     1      18.734  37.664 -15.102  1.00  0.00     0.074 C 
ENDBRANCH  21  23
ENDBRANCH  17  21
ENDBRANCH  16  17
ENDBRANCH  15  16
ENDBRANCH  14  15
ENDBRANCH  12  14
ENDBRANCH   9  12
BRANCH   6  30
HETATM   30  N4  UNL     1      13.527  42.564  -8.099  1.00  0.00    -0.234 N 
ATOM     31  H42 UNL     1      13.001  43.381  -7.788  1.00  0.00     0.174 HD
ATOM     32  H41 UNL     1      14.414  42.666  -8.595  1.00  0.00     0.174 HD
ENDBRANCH   6  30
BRANCH   1  33
HETATM   33  C7  UNL     1      10.658  38.605  -4.711  1.00  0.00     0.139 C 
BRANCH  33  34
HETATM   34  C6  UNL     1       9.486  39.089  -3.840  1.00  0.00     0.040 C 
BRANCH  34  35
HETATM   35  C5  UNL     1       9.140  38.016  -2.823  1.00  0.00     0.123 C 
BRANCH  35  36
HETATM   36  N1  UNL     1       9.166  38.466  -1.458  1.00  0.00    -0.394 N 
BRANCH  36  37
HETATM   37  C2  UNL     1      10.074  39.494  -1.134  1.00  0.00     0.053 C 
HETATM   38  C1  UNL     1      11.492  39.093  -0.831  1.00  0.00     0.054 C 
ENDBRANCH  36  37
BRANCH  36  39
HETATM   39  C3  UNL     1       9.076  37.357  -0.534  1.00  0.00     0.117 C 
HETATM   40  C4  UNL     1       9.322  36.028  -1.141  1.00  0.00     0.026 C 
ENDBRANCH  36  39
ENDBRANCH  35  36
ENDBRANCH  34  35
ENDBRANCH  33  34
ENDBRANCH   1  33
TORSDOF 14
ENDMDL
MODEL 2
REMARK VINA RESULT: -7.597736673      1.895      3.118
REMARK  14 active torsions:
REMARK  status: ('A' for Active; 'I' for Inactive)
REMARK    1  A    between atoms: C2_2  and  N1_3 
REMARK    2  A    between atoms: N1_3  and  C3_4 
REMARK    3  A    between atoms: N1_3  and  C5_6 
REMARK    4  A    between atoms: C5_6  and  C6_7 
REMARK    5  A    between atoms: C6_7  and  C7_8 
REMARK    6  A    between atoms: C7_8  and  N2_9 
REMARK    7  A    between atoms: C9_14  and  N4_15 
REMARK    8  A    between atoms: C10_20  and  N6_21 
REMARK    9  A    between atoms: N6_21  and  C11_23 
REMARK   10  A    between atoms: C11_23  and  C12_24 
REMARK   11  A    between atoms: C12_24  and  C13_25 
REMARK   12  A    between atoms: C13_25  and  C14_26 
REMARK   13  A    between atoms: C14_26  and  N8_30 
REMARK   14  A    between atoms: N8_30  and  C16_32 
ROOT
HETATM    1  N2  UNL     1      10.887  39.935  -5.263  1.00  0.00    -0.225 N 
ATOM      2  H2  UNL     1      10.419  40.791  -4.963  1.00  0.00     0.177 HD
HETATM    3  C8  UNL     1      11.418  40.044  -6.419  1.00  0.00     0.707 A 
HETATM    4  N3  UNL     1      11.302  41.243  -7.081  1.00  0.00    -0.022 N 
ATOM      5  H3  UNL     1      10.802  42.015  -6.638  1.00  0.00     0.203 HD
HETATM    6  C9  UNL     1      11.829  41.411  -8.284  1.00  0.00     0.705 A 
HETATM    7  N5  UNL     1      12.498  40.403  -8.904  1.00  0.00    -0.021 N 
ATOM      8  H5  UNL     1      12.896  40.551  -9.831  1.00  0.00     0.203 HD
HETATM    9  C10 UNL     1      12.638  39.214  -8.299  1.00  0.00     0.710 A 
HETATM   10  N11 UNL     1      12.076  39.074  -7.038  1.00  0.00    -0.021 N 
ATOM     11  H11 UNL     1      12.176  38.177  -6.562  1.00  0.00     0.203 HD
ENDROOT
BRANCH   9  12
HETATM   12  N6  UNL     1      13.196  38.243  -8.791  1.00  0.00    -0.204 N 
ATOM     13  H6  UNL     1      12.446  37.584  -9.000  1.00  0.00     0.183 HD
BRANCH  12  14
HETATM   14  C11 UNL     1      14.343  37.615  -9.197  1.00  0.00     0.079 C 
BRANCH  14  15
HETATM   15  C12 UNL     1      14.343  36.757 -10.425  1.00  0.00     0.052 C 
BRANCH  15  16
HETATM   16  C13 UNL     1      13.347  37.162 -11.478  1.00  0.00     0.081 C 
BRANCH  16  17
HETATM   17  C14 UNL     1      13.697  37.085 -12.862  1.00  0.00     0.078 C 
HETATM   18  N7  UNL     1      14.095  38.131 -13.518  1.00  0.00    -0.384 N 
HETATM   19  C15 UNL     1      14.208  39.412 -12.905  1.00  0.00     0.147 C 
ATOM     20  H7  UNL     1      14.334  38.033 -14.505  1.00  0.00     0.160 HD
BRANCH  17  21
HETATM   21  N8  UNL     1      13.647  35.848 -13.611  1.00  0.00    -0.330 N 
ATOM     22  H8  UNL     1      13.258  34.976 -13.253  1.00  0.00     0.168 HD
BRANCH  21  23
HETATM   23  C16 UNL     1      14.237  36.005 -14.973  1.00  0.00     0.145 A 
HETATM   24  N9  UNL     1      13.324  35.068 -15.835  1.00  0.00    -0.282 N 
HETATM   25  N10 UNL     1      14.008  35.382 -16.865  1.00  0.00    -0.296 N 
ATOM     26  H9  UNL     1      12.523  34.464 -15.651  1.00  0.00     0.189 HD
HETATM   27  C17 UNL     1      13.922  35.010 -18.293  1.00  0.00     0.177 C 
HETATM   28  C18 UNL     1      14.727  36.136 -16.106  1.00  0.00     0.069 A 
HETATM   29  C19 UNL     1      15.923  37.069 -16.484  1.00  0.00     0.074 C 
ENDBRANCH  21  23
ENDBRANCH  17  21
ENDBRANCH  16  17
ENDBRANCH  15  16
ENDBRANCH  14  15
ENDBRANCH  12  14
ENDBRANCH   9  12
BRANCH   6  30
HETATM   30  N4  UNL     1      11.730  42.555  -8.917  1.00  0.00    -0.234 N 
ATOM     31  H42 UNL     1      12.434  43.267  -8.720  1.00  0.00     0.174 HD
ATOM     32  H41 UNL     1      10.975  42.729  -9.581  1.00  0.00     0.174 HD
ENDBRANCH   6  30
BRANCH   1  33
HETATM   33  C7  UNL     1      10.799  38.906  -4.312  1.00  0.00     0.139 C 
BRANCH  33  34
HETATM   34  C6  UNL     1       9.324  38.579  -4.021  1.00  0.00     0.040 C 
BRANCH  34  35
HETATM   35  C5  UNL     1       9.098  38.573  -2.519  1.00  0.00     0.123 C 
BRANCH  35  36
HETATM   36  N1  UNL     1      10.218  38.096  -1.756  1.00  0.00    -0.394 N 
BRANCH  36  37
HETATM   37  C2  UNL     1      10.213  36.737  -1.380  1.00  0.00     0.053 C 
HETATM   38  C1  UNL     1       8.873  36.080  -1.190  1.00  0.00     0.054 C 
ENDBRANCH  36  37
BRANCH  36  39
HETATM   39  C3  UNL     1      10.616  39.052  -0.746  1.00  0.00     0.117 C 
HETATM   40  C4  UNL     1       9.785  39.033   0.481  1.00  0.00     0.026 C 
ENDBRANCH  36  39
ENDBRANCH  35  36
ENDBRANCH  34  35
ENDBRANCH  33  34
ENDBRANCH   1  33
TORSDOF 14
ENDMDL
MODEL 3
REMARK VINA RESULT: -7.558376295      0.764      1.299
REMARK  14 active torsions:
REMARK  status: ('A' for Active; 'I' for Inactive)
REMARK    1  A    between atoms: C2_2  and  N1_3 
REMARK    2  A    between atoms: N1_3  and  C3_4 
REMARK    3  A    between atoms: N1_3  and  C5_6 
REMARK    4  A    between atoms: C5_6  and  C6_7 
REMARK    5  A    between atoms: C6_7  and  C7_8 
REMARK    6  A    between atoms: C7_8  and  N2_9 
REMARK    7  A    between atoms: C9_14  and  N4_15 
REMARK    8  A    between atoms: C10_20  and  N6_21 
REMARK    9  A    between atoms: N6_21  and  C11_23 
REMARK   10  A    between atoms: C11_23  and  C12_24 
REMARK   11  A    between atoms: C12_24  and  C13_25 
REMARK   12  A    between atoms: C13_25  and  C14_26 
REMARK   13  A    between atoms: C14_26  and  N8_30 
REMARK   14  A    between atoms: N8_30  and  C16_32 
ROOT
HETATM    1  N2  UNL     1      10.936  39.887  -5.330  1.00  0.00    -0.225 N 
ATOM      2  H2  UNL     1      10.464  40.749  -5.058  1.00  0.00     0.177 HD
HETATM    3  C8  UNL     1      11.546  39.990  -6.446  1.00  0.00     0.707 A 
HETATM    4  N3  UNL     1      11.497  41.193  -7.108  1.00  0.00    -0.022 N 
ATOM      5  H3  UNL     1      10.983  41.973  -6.697  1.00  0.00     0.203 HD
HETATM    6  C9  UNL     1      12.109  41.356  -8.272  1.00  0.00     0.705 A 
HETATM    7  N5  UNL     1      12.800  40.338  -8.850  1.00  0.00    -0.021 N 
ATOM      8  H5  UNL     1      13.263  40.482  -9.748  1.00  0.00     0.203 HD
HETATM    9  C10 UNL     1      12.876  39.145  -8.244  1.00  0.00     0.710 A 
HETATM   10  N11 UNL     1      12.228  39.010  -7.024  1.00  0.00    -0.021 N 
ATOM     11  H11 UNL     1      12.278  38.110  -6.548  1.00  0.00     0.203 HD
ENDROOT
BRANCH   9  12
HETATM   12  N6  UNL     1      13.449  38.166  -8.701  1.00  0.00    -0.204 N 
ATOM     13  H6  UNL     1      13.397  37.461  -7.965  1.00  0.00     0.183 HD
BRANCH  12  14
HETATM   14  C11 UNL     1      14.127  37.560  -9.725  1.00  0.00     0.079 C 
BRANCH  14  15
HETATM   15  C12 UNL     1      13.397  37.098 -10.948  1.00  0.00     0.052 C 
BRANCH  15  16
HETATM   16  C13 UNL     1      14.015  37.528 -12.252  1.00  0.00     0.081 C 
BRANCH  16  17
HETATM   17  C14 UNL     1      15.000  36.707 -12.882  1.00  0.00     0.078 C 
HETATM   18  N7  UNL     1      14.720  35.995 -13.929  1.00  0.00    -0.384 N 
HETATM   19  C15 UNL     1      13.420  35.988 -14.514  1.00  0.00     0.147 C 
ATOM     20  H7  UNL     1      15.453  35.422 -14.348  1.00  0.00     0.160 HD
BRANCH  17  21
HETATM   21  N8  UNL     1      16.366  36.627 -12.409  1.00  0.00    -0.330 N 
ATOM     22  H8  UNL     1      16.667  36.058 -11.619  1.00  0.00     0.168 HD
BRANCH  21  23
HETATM   23  C16 UNL     1      17.280  37.484 -13.222  1.00  0.00     0.145 A 
HETATM   24  N9  UNL     1      17.296  38.817 -12.400  1.00  0.00    -0.282 N 
HETATM   25  N10 UNL     1      18.093  39.317 -13.262  1.00  0.00    -0.296 N 
ATOM     26  H9  UNL     1      16.857  39.146 -11.540  1.00  0.00     0.189 HD
HETATM   27  C17 UNL     1      18.765  40.627 -13.384  1.00  0.00     0.177 C 
HETATM   28  C18 UNL     1      18.040  38.197 -13.897  1.00  0.00     0.069 A 
HETATM   29  C19 UNL     1      18.786  37.761 -15.201  1.00  0.00     0.074 C 
ENDBRANCH  21  23
ENDBRANCH  17  21
ENDBRANCH  16  17
ENDBRANCH  15  16
ENDBRANCH  14  15
ENDBRANCH  12  14
ENDBRANCH   9  12
BRANCH   6  30
HETATM   30  N4  UNL     1      12.074  42.504  -8.905  1.00  0.00    -0.234 N 
ATOM     31  H42 UNL     1      12.587  43.285  -8.496  1.00  0.00     0.174 HD
ATOM     32  H41 UNL     1      11.549  42.615  -9.773  1.00  0.00     0.174 HD
ENDBRANCH   6  30
BRANCH   1  33
HETATM   33  C7  UNL     1      10.765  38.856  -4.392  1.00  0.00     0.139 C 
BRANCH  33  34
HETATM   34  C6  UNL     1       9.267  38.611  -4.142  1.00  0.00     0.040 C 
BRANCH  34  35
HETATM   35  C5  UNL     1       8.895  39.135  -2.766  1.00  0.00     0.123 C 
BRANCH  35  36
HETATM   36  N1  UNL     1       9.506  38.423  -1.678  1.00  0.00    -0.394 N 
BRANCH  36  37
HETATM   37  C2  UNL     1       8.844  37.270  -1.209  1.00  0.00     0.053 C 
HETATM   38  C1  UNL     1       9.627  35.986  -1.187  1.00  0.00     0.054 C 
ENDBRANCH  36  37
BRANCH  36  39
HETATM   39  C3  UNL     1      10.029  39.329  -0.679  1.00  0.00     0.117 C 
HETATM   40  C4  UNL     1       9.658  38.989   0.714  1.00  0.00     0.026 C 
ENDBRANCH  36  39
ENDBRANCH  35  36
ENDBRANCH  34  35
ENDBRANCH  33  34
ENDBRANCH   1  33
TORSDOF 14
ENDMDL
MODEL 4
REMARK VINA RESULT: -7.527285362      1.799      2.754
REMARK  14 active torsions:
REMARK  status: ('A' for Active; 'I' for Inactive)
REMARK    1  A    between atoms: C2_2  and  N1_3 
REMARK    2  A    between atoms: N1_3  and  C3_4 
REMARK    3  A    between atoms: N1_3  and  C5_6 
REMARK    4  A    between atoms: C5_6  and  C6_7 
REMARK    5  A    between atoms: C6_7  and  C7_8 
REMARK    6  A    between atoms: C7_8  and  N2_9 
REMARK    7  A    between atoms: C9_14  and  N4_15 
REMARK    8  A    between atoms: C10_20  and  N6_21 
REMARK    9  A    between atoms: N6_21  and  C11_23 
REMARK   10  A    between atoms: C11_23  and  C12_24 
REMARK   11  A    between atoms: C12_24  and  C13_25 
REMARK   12  A    between atoms: C13_25  and  C14_26 
REMARK   13  A    between atoms: C14_26  and  N8_30 
REMARK   14  A    between atoms: N8_30  and  C16_32 
ROOT
HETATM    1  N2  UNL     1      10.889  39.961  -5.256  1.00  0.00    -0.225 N 
ATOM      2  H2  UNL     1      10.406  40.826  -5.010  1.00  0.00     0.177 HD
HETATM    3  C8  UNL     1      11.431  40.010  -6.410  1.00  0.00     0.707 A 
HETATM    4  N3  UNL     1      11.307  41.167  -7.141  1.00  0.00    -0.022 N 
ATOM      5  H3  UNL     1      10.792  41.956  -6.749  1.00  0.00     0.203 HD
HETATM    6  C9  UNL     1      11.845  41.273  -8.347  1.00  0.00     0.705 A 
HETATM    7  N5  UNL     1      12.535  40.241  -8.900  1.00  0.00    -0.021 N 
ATOM      8  H5  UNL     1      12.941  40.341  -9.830  1.00  0.00     0.203 HD
HETATM    9  C10 UNL     1      12.683  39.091  -8.227  1.00  0.00     0.710 A 
HETATM   10  N11 UNL     1      12.110  39.016  -6.966  1.00  0.00    -0.021 N 
ATOM     11  H11 UNL     1      12.216  38.149  -6.438  1.00  0.00     0.203 HD
ENDROOT
BRANCH   9  12
HETATM   12  N6  UNL     1      13.260  38.101  -8.656  1.00  0.00    -0.204 N 
ATOM     13  H6  UNL     1      13.144  37.393  -7.931  1.00  0.00     0.183 HD
BRANCH  12  14
HETATM   14  C11 UNL     1      13.987  37.486  -9.640  1.00  0.00     0.079 C 
BRANCH  14  15
HETATM   15  C12 UNL     1      13.351  37.149 -10.954  1.00  0.00     0.052 C 
BRANCH  15  16
HETATM   16  C13 UNL     1      13.736  38.055 -12.092  1.00  0.00     0.081 C 
BRANCH  16  17
HETATM   17  C14 UNL     1      15.093  38.104 -12.540  1.00  0.00     0.078 C 
HETATM   18  N7  UNL     1      15.511  37.358 -13.514  1.00  0.00    -0.384 N 
HETATM   19  C15 UNL     1      14.650  36.449 -14.196  1.00  0.00     0.147 C 
ATOM     20  H7  UNL     1      16.488  37.423 -13.803  1.00  0.00     0.160 HD
BRANCH  17  21
HETATM   21  N8  UNL     1      16.075  38.991 -11.954  1.00  0.00    -0.330 N 
ATOM     22  H8  UNL     1      17.062  38.759 -11.842  1.00  0.00     0.168 HD
BRANCH  21  23
HETATM   23  C16 UNL     1      15.465  40.286 -11.533  1.00  0.00     0.145 A 
HETATM   24  N9  UNL     1      16.148  40.535 -10.145  1.00  0.00    -0.282 N 
HETATM   25  N10 UNL     1      15.489  41.621 -10.037  1.00  0.00    -0.296 N 
ATOM     26  H9  UNL     1      16.829  40.038  -9.572  1.00  0.00     0.189 HD
HETATM   27  C17 UNL     1      15.440  42.681  -9.007  1.00  0.00     0.177 C 
HETATM   28  C18 UNL     1      14.958  41.364 -11.182  1.00  0.00     0.069 A 
HETATM   29  C19 UNL     1      13.941  42.211 -12.015  1.00  0.00     0.074 C 
ENDBRANCH  21  23
ENDBRANCH  17  21
ENDBRANCH  16  17
ENDBRANCH  15  16
ENDBRANCH  14  15
ENDBRANCH  12  14
ENDBRANCH   9  12
BRANCH   6  30
HETATM   30  N4  UNL     1      11.738  42.377  -9.046  1.00  0.00    -0.234 N 
ATOM     31  H42 UNL     1      10.844  42.868  -9.020  1.00  0.00     0.174 HD
ATOM     32  H41 UNL     1      12.519  42.732  -9.599  1.00  0.00     0.174 HD
ENDBRANCH   6  30
BRANCH   1  33
HETATM   33  C7  UNL     1      10.805  38.987  -4.247  1.00  0.00     0.139 C 
BRANCH  33  34
HETATM   34  C6  UNL     1       9.347  38.522  -4.081  1.00  0.00     0.040 C 
BRANCH  34  35
HETATM   35  C5  UNL     1       8.946  38.642  -2.622  1.00  0.00     0.123 C 
BRANCH  35  36
HETATM   36  N1  UNL     1      10.013  38.390  -1.693  1.00  0.00    -0.394 N 
BRANCH  36  37
HETATM   37  C2  UNL     1      10.204  37.058  -1.274  1.00  0.00     0.053 C 
HETATM   38  C1  UNL     1       8.995  36.163  -1.247  1.00  0.00     0.054 C 
ENDBRANCH  36  37
BRANCH  36  39
HETATM   39  C3  UNL     1      10.079  39.413  -0.672  1.00  0.00     0.117 C 
HETATM   40  C4  UNL     1       9.731  38.946   0.689  1.00  0.00     0.026 C 
ENDBRANCH  36  39
ENDBRANCH  35  36
ENDBRANCH  34  35
ENDBRANCH  33  34
ENDBRANCH   1  33
TORSDOF 14
ENDMDL
MODEL 5
REMARK VINA RESULT: -7.480522490      1.350      2.883
REMARK  14 active torsions:
REMARK  status: ('A' for Active; 'I' for Inactive)
REMARK    1  A    between atoms: C2_2  and  N1_3 
REMARK    2  A    between atoms: N1_3  and  C3_4 
REMARK    3  A    between atoms: N1_3  and  C5_6 
REMARK    4  A    between atoms: C5_6  and  C6_7 
REMARK    5  A    between atoms: C6_7  and  C7_8 
REMARK    6  A    between atoms: C7_8  and  N2_9 
REMARK    7  A    between atoms: C9_14  and  N4_15 
REMARK    8  A    between atoms: C10_20  and  N6_21 
REMARK    9  A    between atoms: N6_21  and  C11_23 
REMARK   10  A    between atoms: C11_23  and  C12_24 
REMARK   11  A    between atoms: C12_24  and  C13_25 
REMARK   12  A    between atoms: C13_25  and  C14_26 
REMARK   13  A    between atoms: C14_26  and  N8_30 
REMARK   14  A    between atoms: N8_30  and  C16_32 
ROOT
HETATM    1  N2  UNL     1      11.107  39.883  -5.329  1.00  0.00    -0.225 N 
ATOM      2  H2  UNL     1      10.998  40.760  -4.821  1.00  0.00     0.177 HD
HETATM    3  C8  UNL     1      11.720  40.029  -6.439  1.00  0.00     0.707 A 
HETATM    4  N3  UNL     1      12.140  41.289  -6.791  1.00  0.00    -0.022 N 
ATOM      5  H3  UNL     1      11.959  42.073  -6.164  1.00  0.00     0.203 HD
HETATM    6  C9  UNL     1      12.778  41.501  -7.933  1.00  0.00     0.705 A 
HETATM    7  N5  UNL     1      13.033  40.479  -8.794  1.00  0.00    -0.021 N 
ATOM      8  H5  UNL     1      13.524  40.662  -9.669  1.00  0.00     0.203 HD
HETATM    9  C10 UNL     1      12.642  39.232  -8.495  1.00  0.00     0.710 A 
HETATM   10  N11 UNL     1      11.981  39.046  -7.289  1.00  0.00    -0.021 N 
ATOM     11  H11 UNL     1      11.680  38.103  -7.045  1.00  0.00     0.203 HD
ENDROOT
BRANCH   9  12
HETATM   12  N6  UNL     1      12.802  38.259  -9.219  1.00  0.00    -0.204 N 
ATOM     13  H6  UNL     1      11.874  37.847  -9.316  1.00  0.00     0.183 HD
BRANCH  12  14
HETATM   14  C11 UNL     1      13.626  37.458  -9.963  1.00  0.00     0.079 C 
BRANCH  14  15
HETATM   15  C12 UNL     1      13.323  37.189 -11.405  1.00  0.00     0.052 C 
BRANCH  15  16
HETATM   16  C13 UNL     1      14.012  38.109 -12.377  1.00  0.00     0.081 C 
BRANCH  16  17
HETATM   17  C14 UNL     1      15.433  38.056 -12.527  1.00  0.00     0.078 C 
HETATM   18  N7  UNL     1      16.192  39.031 -12.133  1.00  0.00    -0.384 N 
HETATM   19  C15 UNL     1      15.661  40.208 -11.530  1.00  0.00     0.147 C 
ATOM     20  H7  UNL     1      17.202  38.953 -12.259  1.00  0.00     0.160 HD
BRANCH  17  21
HETATM   21  N8  UNL     1      16.114  36.917 -13.106  1.00  0.00    -0.330 N 
ATOM     22  H8  UNL     1      16.963  36.502 -12.725  1.00  0.00     0.168 HD
BRANCH  21  23
HETATM   23  C16 UNL     1      15.416  36.425 -14.331  1.00  0.00     0.145 A 
HETATM   24  N9  UNL     1      16.619  36.037 -15.258  1.00  0.00    -0.282 N 
HETATM   25  N10 UNL     1      15.786  35.678 -16.155  1.00  0.00    -0.296 N 
ATOM     26  H9  UNL     1      17.635  36.060 -15.178  1.00  0.00     0.189 HD
HETATM   27  C17 UNL     1      15.937  35.101 -17.508  1.00  0.00     0.177 C 
HETATM   28  C18 UNL     1      14.838  36.016 -15.351  1.00  0.00     0.069 A 
HETATM   29  C19 UNL     1      13.290  35.906 -15.542  1.00  0.00     0.074 C 
ENDBRANCH  21  23
ENDBRANCH  17  21
ENDBRANCH  16  17
ENDBRANCH  15  16
ENDBRANCH  14  15
ENDBRANCH  12  14
ENDBRANCH   9  12
BRANCH   6  30
HETATM   30  N4  UNL     1      13.189  42.698  -8.272  1.00  0.00    -0.234 N 
ATOM     31  H42 UNL     1      12.555  43.480  -8.108  1.00  0.00     0.174 HD
ATOM     32  H41 UNL     1      14.109  42.844  -8.689  1.00  0.00     0.174 HD
ENDBRANCH   6  30
BRANCH   1  33
HETATM   33  C7  UNL     1      10.547  38.789  -4.650  1.00  0.00     0.139 C 
BRANCH  33  34
HETATM   34  C6  UNL     1       9.272  39.224  -3.907  1.00  0.00     0.040 C 
BRANCH  34  35
HETATM   35  C5  UNL     1       8.975  38.232  -2.796  1.00  0.00     0.123 C 
BRANCH  35  36
HETATM   36  N1  UNL     1      10.008  38.131  -1.803  1.00  0.00    -0.394 N 
BRANCH  36  37
HETATM   37  C2  UNL     1      10.178  36.882  -1.172  1.00  0.00     0.053 C 
HETATM   38  C1  UNL     1       8.992  35.958  -1.140  1.00  0.00     0.054 C 
ENDBRANCH  36  37
BRANCH  36  39
HETATM   39  C3  UNL     1      10.043  39.302  -0.954  1.00  0.00     0.117 C 
HETATM   40  C4  UNL     1       9.879  39.020   0.491  1.00  0.00     0.026 C 
ENDBRANCH  36  39
ENDBRANCH  35  36
ENDBRANCH  34  35
ENDBRANCH  33  34
ENDBRANCH   1  33
TORSDOF 14
ENDMDL
