MODEL 1
REMARK VINA RESULT: -7.354269815      0.000      0.000
REMARK  15 active torsions:
REMARK  status: ('A' for Active; 'I' for Inactive)
REMARK    1  A    between atoms: C2_2  and  C3_3 
REMARK    2  A    between atoms: C3_3  and  C4_4 
REMARK    3  A    between atoms: C4_4  and  C5_5 
REMARK    4  A    between atoms: C5_5  and  C6_6 
REMARK    5  A    between atoms: C6_6  and  C7_7 
REMARK    6  A    between atoms: C7_7  and  C8_8 
REMARK    7  A    between atoms: C8_8  and  C9_9 
REMARK    8  A    between atoms: C9_9  and  C10_10 
REMARK    9  A    between atoms: C10_10  and  C11_11 
REMARK   10  A    between atoms: C11_11  and  N1_12 
REMARK   11  A    between atoms: N1_12  and  C12_14 
REMARK   12  A    between atoms: C14_23  and  N5_24 
REMARK   13  A    between atoms: N5_24  and  C15_26 
REMARK   14  A    between atoms: C15_26  and  C16_27 
REMARK   15  A    between atoms: C16_27  and  O1_28 
ROOT
HETATM    1  C12 UNL     1      10.786  39.082  -4.543  1.00  0.00     0.707 A 
HETATM    2  N2  UNL     1      10.716  38.081  -3.647  1.00  0.00    -0.022 N 
ATOM      3  H2  UNL     1      11.433  37.356  -3.649  1.00  0.00     0.203 HD
HETATM    4  C13 UNL     1       9.711  38.017  -2.742  1.00  0.00     0.705 A 
HETATM    5  N3  UNL     1       9.607  37.087  -1.877  1.00  0.00    -0.234 N 
ATOM      6  H31 UNL     1       8.850  37.040  -1.195  1.00  0.00     0.174 HD
ATOM      7  H32 UNL     1      10.326  36.363  -1.880  1.00  0.00     0.174 HD
HETATM    8  N4  UNL     1       8.747  38.989  -2.739  1.00  0.00    -0.022 N 
ATOM      9  H4  UNL     1       7.989  38.941  -2.058  1.00  0.00     0.203 HD
HETATM   10  C14 UNL     1       8.784  39.993  -3.610  1.00  0.00     0.709 A 
HETATM   11  N8  UNL     1       9.818  40.001  -4.492  1.00  0.00    -0.021 N 
ATOM     12  H8  UNL     1       9.858  40.767  -5.165  1.00  0.00     0.203 HD
ENDROOT
BRANCH  10  13
HETATM   13  N5  UNL     1       7.901  40.915  -3.629  1.00  0.00    -0.183 N 
ATOM     14  H5  UNL     1       7.017  40.713  -4.096  1.00  0.00     0.180 HD
BRANCH  13  15
HETATM   15  C15 UNL     1       8.059  42.198  -3.050  1.00  0.00     0.307 A 
HETATM   16  C17 UNL     1       8.524  43.338  -3.862  1.00  0.00     0.379 A 
HETATM   17  C18 UNL     1       8.692  43.268  -5.317  1.00  0.00     0.256 C 
HETATM   18  N7  UNL     1       7.135  43.311  -3.444  1.00  0.00     0.142 N 
HETATM   19  O2  UNL     1       9.660  42.651  -5.796  1.00  0.00    -0.271 OA
HETATM   20  N6  UNL     1       7.770  43.892  -6.201  1.00  0.00    -0.357 N 
HETATM   21  C19 UNL     1       6.429  44.131  -5.649  1.00  0.00     0.153 C 
ATOM     22  H6  UNL     1       8.021  44.155  -7.154  1.00  0.00     0.162 HD
HETATM   23  C20 UNL     1       6.261  43.060  -4.576  1.00  0.00     0.296 C 
BRANCH  15  24
HETATM   24  C16 UNL     1       8.506  42.298  -1.587  1.00  0.00     0.232 C 
BRANCH  24  25
HETATM   25  O1  UNL     1       9.666  43.045  -1.498  1.00  0.00    -0.396 OA
ATOM     26  H1  UNL     1       9.480  43.888  -1.100  1.00  0.00     0.209 HD
ENDBRANCH  24  25
ENDBRANCH  15  24
ENDBRANCH  13  15
ENDBRANCH  10  13
BRANCH   1  27
HETATM   27  N1  UNL     1      11.719  39.191  -5.424  1.00  0.00    -0.225 N 
ATOM     28  H1  UNL     1      12.690  39.169  -5.109  1.00  0.00     0.177 HD
BRANCH  27  29
HETATM   29  C11 UNL     1      11.454  39.343  -6.841  1.00  0.00     0.138 C 
BRANCH  29  30
HETATM   30  C10 UNL     1      12.730  39.534  -7.607  1.00  0.00     0.020 C 
BRANCH  30  31
HETATM   31  C9  UNL     1      12.805  38.516  -8.711  1.00  0.00     0.002 C 
BRANCH  31  32
HETATM   32  C8  UNL     1      14.107  37.787  -8.731  1.00  0.00     0.000 C 
BRANCH  32  33
HETATM   33  C7  UNL     1      14.432  37.194 -10.076  1.00  0.00     0.000 C 
BRANCH  33  34
HETATM   34  C6  UNL     1      13.259  37.197 -11.011  1.00  0.00     0.000 C 
BRANCH  34  35
HETATM   35  C5  UNL     1      13.689  37.855 -12.305  1.00  0.00     0.000 C 
BRANCH  35  36
HETATM   36  C4  UNL     1      14.707  38.930 -12.090  1.00  0.00     0.000 C 
BRANCH  36  37
HETATM   37  C3  UNL     1      14.123  40.316 -12.210  1.00  0.00    -0.000 C 
BRANCH  37  38
HETATM   38  C2  UNL     1      14.206  41.082 -10.914  1.00  0.00    -0.005 C 
HETATM   39  C1  UNL     1      15.539  40.869 -10.224  1.00  0.00     0.005 C 
ENDBRANCH  37  38
ENDBRANCH  36  37
ENDBRANCH  35  36
ENDBRANCH  34  35
ENDBRANCH  33  34
ENDBRANCH  32  33
ENDBRANCH  31  32
ENDBRANCH  30  31
ENDBRANCH  29  30
ENDBRANCH  27  29
ENDBRANCH   1  27
TORSDOF 15
ENDMDL
MODEL 2
REMARK VINA RESULT: -7.292154744      0.790      1.158
REMARK  15 active torsions:
REMARK  status: ('A' for Active; 'I' for Inactive)
REMARK    1  A    between atoms: C2_2  and  C3_3 
REMARK    2  A    between atoms: C3_3  and  C4_4 
REMARK    3  A    between atoms: C4_4  and  C5_5 
REMARK    4  A    between atoms: C5_5  and  C6_6 
REMARK    5  A    between atoms: C6_6  and  C7_7 
REMARK    6  A    between atoms: C7_7  and  C8_8 
REMARK    7  A    between atoms: C8_8  and  C9_9 
REMARK    8  A    between atoms: C9_9  and  C10_10 
REMARK    9  A    between atoms: C10_10  and  C11_11 
REMARK   10  A    between atoms: C11_11  and  N1_12 
REMARK   11  A    between atoms: N1_12  and  C12_14 
REMARK   12  A    between atoms: C14_23  and  N5_24 
REMARK   13  A    between atoms: N5_24  and  C15_26 
REMARK   14  A    between atoms: C15_26  and  C16_27 
REMARK   15  A    between atoms: C16_27  and  O1_28 
ROOT
HETATM    1  C12 UNL     1      10.801  39.259  -4.702  1.00  0.00     0.707 A 
HETATM    2  N2  UNL     1      10.855  38.228  -3.838  1.00  0.00    -0.022 N 
ATOM      3  H2  UNL     1      11.614  37.551  -3.914  1.00  0.00     0.203 HD
HETATM    4  C13 UNL     1       9.920  38.073  -2.872  1.00  0.00     0.705 A 
HETATM    5  N3  UNL     1       9.934  37.112  -2.035  1.00  0.00    -0.234 N 
ATOM      6  H31 UNL     1       9.229  36.995  -1.306  1.00  0.00     0.174 HD
ATOM      7  H32 UNL     1      10.694  36.436  -2.111  1.00  0.00     0.174 HD
HETATM    8  N4  UNL     1       8.901  38.979  -2.771  1.00  0.00    -0.022 N 
ATOM      9  H4  UNL     1       8.196  38.863  -2.043  1.00  0.00     0.203 HD
HETATM   10  C14 UNL     1       8.815  40.011  -3.606  1.00  0.00     0.709 A 
HETATM   11  N8  UNL     1       9.785  40.112  -4.555  1.00  0.00    -0.021 N 
ATOM     12  H8  UNL     1       9.731  40.899  -5.202  1.00  0.00     0.203 HD
ENDROOT
BRANCH  10  13
HETATM   13  N5  UNL     1       7.878  40.874  -3.535  1.00  0.00    -0.183 N 
ATOM     14  H5  UNL     1       6.970  40.618  -3.921  1.00  0.00     0.180 HD
BRANCH  13  15
HETATM   15  C15 UNL     1       8.007  42.161  -2.958  1.00  0.00     0.307 A 
HETATM   16  C17 UNL     1       8.392  43.321  -3.785  1.00  0.00     0.379 A 
HETATM   17  C18 UNL     1       8.504  43.260  -5.245  1.00  0.00     0.256 C 
HETATM   18  N7  UNL     1       7.023  43.237  -3.311  1.00  0.00     0.142 N 
HETATM   19  O2  UNL     1       9.476  42.684  -5.765  1.00  0.00    -0.271 OA
HETATM   20  N6  UNL     1       7.522  43.847  -6.090  1.00  0.00    -0.357 N 
HETATM   21  C19 UNL     1       6.196  44.031  -5.483  1.00  0.00     0.153 C 
ATOM     22  H6  UNL     1       7.724  44.122  -7.051  1.00  0.00     0.162 HD
HETATM   23  C20 UNL     1       6.115  42.951  -4.407  1.00  0.00     0.296 C 
BRANCH  15  24
HETATM   24  C16 UNL     1       8.508  42.277  -1.514  1.00  0.00     0.232 C 
BRANCH  24  25
HETATM   25  O1  UNL     1       9.641  43.068  -1.469  1.00  0.00    -0.396 OA
ATOM     26  H1  UNL     1      10.161  42.846  -0.705  1.00  0.00     0.209 HD
ENDBRANCH  24  25
ENDBRANCH  15  24
ENDBRANCH  13  15
ENDBRANCH  10  13
BRANCH   1  27
HETATM   27  N1  UNL     1      11.664  39.454  -5.638  1.00  0.00    -0.225 N 
ATOM     28  H1  UNL     1      12.404  40.139  -5.483  1.00  0.00     0.177 HD
BRANCH  27  29
HETATM   29  C11 UNL     1      11.631  38.745  -6.902  1.00  0.00     0.138 C 
BRANCH  29  30
HETATM   30  C10 UNL     1      13.016  38.558  -7.448  1.00  0.00     0.020 C 
BRANCH  30  31
HETATM   31  C9  UNL     1      13.048  38.997  -8.885  1.00  0.00     0.002 C 
BRANCH  31  32
HETATM   32  C8  UNL     1      13.081  37.847  -9.835  1.00  0.00     0.000 C 
BRANCH  32  33
HETATM   33  C7  UNL     1      14.397  37.115  -9.831  1.00  0.00     0.000 C 
BRANCH  33  34
HETATM   34  C6  UNL     1      14.647  36.362 -11.104  1.00  0.00     0.000 C 
BRANCH  34  35
HETATM   35  C5  UNL     1      13.421  36.500 -11.982  1.00  0.00     0.000 C 
BRANCH  35  36
HETATM   36  C4  UNL     1      13.767  36.795 -13.407  1.00  0.00     0.000 C 
BRANCH  36  37
HETATM   37  C3  UNL     1      14.778  37.907 -13.541  1.00  0.00    -0.000 C 
BRANCH  37  38
HETATM   38  C2  UNL     1      14.140  39.270 -13.448  1.00  0.00    -0.005 C 
HETATM   39  C1  UNL     1      14.740  40.090 -12.324  1.00  0.00     0.005 C 
ENDBRANCH  37  38
ENDBRANCH  36  37
ENDBRANCH  35  36
ENDBRANCH  34  35
ENDBRANCH  33  34
ENDBRANCH  32  33
ENDBRANCH  31  32
ENDBRANCH  30  31
ENDBRANCH  29  30
ENDBRANCH  27  29
ENDBRANCH   1  27
TORSDOF 15
ENDMDL
MODEL 3
REMARK VINA RESULT: -7.262332116      1.010      2.065
REMARK  15 active torsions:
REMARK  status: ('A' for Active; 'I' for Inactive)
REMARK    1  A    between atoms: C2_2  and  C3_3 
REMARK    2  A    between atoms: C3_3  and  C4_4 
REMARK    3  A    between atoms: C4_4  and  C5_5 
REMARK    4  A    between atoms: C5_5  and  C6_6 
REMARK    5  A    between atoms: C6_6  and  C7_7 
REMARK    6  A    between atoms: C7_7  and  C8_8 
REMARK    7  A    between atoms: C8_8  and  C9_9 
REMARK    8  A    between atoms: C9_9  and  C10_10 
REMARK    9  A    between atoms: C10_10  and  C11_11 
REMARK   10  A    between atoms: C11_11  and  N1_12 
REMARK   11  A    between atoms: N1_12  and  C12_14 
REMARK   12  A    between atoms: C14_23  and  N5_24 
REMARK   13  A    between atoms: N5_24  and  C15_26 
REMARK   14  A    between atoms: C15_26  and  C16_27 
REMARK   15  A    between atoms: C16_27  and  O1_28 
ROOT
HETATM    1  C12 UNL     1      10.666  39.031  -4.329  1.00  0.00     0.707 A 
HETATM    2  N2  UNL     1      10.519  38.046  -3.423  1.00  0.00    -0.022 N 
ATOM      3  H2  UNL     1      11.209  37.296  -3.384  1.00  0.00     0.203 HD
HETATM    4  C13 UNL     1       9.472  38.032  -2.565  1.00  0.00     0.705 A 
HETATM    5  N3  UNL     1       9.296  37.119  -1.694  1.00  0.00    -0.234 N 
ATOM      6  H31 UNL     1       8.507  37.109  -1.047  1.00  0.00     0.174 HD
ATOM      7  H32 UNL     1       9.987  36.369  -1.654  1.00  0.00     0.174 HD
HETATM    8  N4  UNL     1       8.546  39.037  -2.618  1.00  0.00    -0.022 N 
ATOM      9  H4  UNL     1       7.757  39.027  -1.972  1.00  0.00     0.203 HD
HETATM   10  C14 UNL     1       8.659  40.027  -3.499  1.00  0.00     0.709 A 
HETATM   11  N8  UNL     1       9.732  39.985  -4.333  1.00  0.00    -0.021 N 
ATOM     12  H8  UNL     1       9.831  40.739  -5.014  1.00  0.00     0.203 HD
ENDROOT
BRANCH  10  13
HETATM   13  N5  UNL     1       7.813  40.980  -3.571  1.00  0.00    -0.183 N 
ATOM     14  H5  UNL     1       6.936  40.798  -4.059  1.00  0.00     0.180 HD
BRANCH  13  15
HETATM   15  C15 UNL     1       8.002  42.272  -3.022  1.00  0.00     0.307 A 
HETATM   16  C17 UNL     1       8.524  43.374  -3.852  1.00  0.00     0.379 A 
HETATM   17  C18 UNL     1       8.723  43.259  -5.300  1.00  0.00     0.256 C 
HETATM   18  N7  UNL     1       7.126  43.405  -3.467  1.00  0.00     0.142 N 
HETATM   19  O2  UNL     1       9.680  42.596  -5.740  1.00  0.00    -0.271 OA
HETATM   20  N6  UNL     1       7.843  43.889  -6.222  1.00  0.00    -0.357 N 
HETATM   21  C19 UNL     1       6.499  44.188  -5.709  1.00  0.00     0.153 C 
ATOM     22  H6  UNL     1       8.125  44.118  -7.176  1.00  0.00     0.162 HD
HETATM   23  C20 UNL     1       6.270  43.152  -4.612  1.00  0.00     0.296 C 
BRANCH  15  24
HETATM   24  C16 UNL     1       8.418  42.397  -1.552  1.00  0.00     0.232 C 
BRANCH  24  25
HETATM   25  O1  UNL     1       9.718  42.861  -1.467  1.00  0.00    -0.396 OA
ATOM     26  H1  UNL     1       9.745  43.789  -1.668  1.00  0.00     0.209 HD
ENDBRANCH  24  25
ENDBRANCH  15  24
ENDBRANCH  13  15
ENDBRANCH  10  13
BRANCH   1  27
HETATM   27  N1  UNL     1      11.642  39.093  -5.166  1.00  0.00    -0.225 N 
ATOM     28  H1  UNL     1      12.577  39.296  -4.811  1.00  0.00     0.177 HD
BRANCH  27  29
HETATM   29  C11 UNL     1      11.473  38.888  -6.592  1.00  0.00     0.138 C 
BRANCH  29  30
HETATM   30  C10 UNL     1      11.743  40.154  -7.351  1.00  0.00     0.020 C 
BRANCH  30  31
HETATM   31  C9  UNL     1      12.689  39.864  -8.483  1.00  0.00     0.002 C 
BRANCH  31  32
HETATM   32  C8  UNL     1      13.223  38.472  -8.440  1.00  0.00     0.000 C 
BRANCH  32  33
HETATM   33  C7  UNL     1      14.093  38.136  -9.623  1.00  0.00     0.000 C 
BRANCH  33  34
HETATM   34  C6  UNL     1      13.793  38.983 -10.824  1.00  0.00     0.000 C 
BRANCH  34  35
HETATM   35  C5  UNL     1      13.643  38.068 -12.021  1.00  0.00     0.000 C 
BRANCH  35  36
HETATM   36  C4  UNL     1      13.279  36.670 -11.631  1.00  0.00     0.000 C 
BRANCH  36  37
HETATM   37  C3  UNL     1      13.323  35.711 -12.794  1.00  0.00    -0.000 C 
BRANCH  37  38
HETATM   38  C2  UNL     1      14.002  36.309 -14.000  1.00  0.00    -0.005 C 
HETATM   39  C1  UNL     1      13.354  35.850 -15.291  1.00  0.00     0.005 C 
ENDBRANCH  37  38
ENDBRANCH  36  37
ENDBRANCH  35  36
ENDBRANCH  34  35
ENDBRANCH  33  34
ENDBRANCH  32  33
ENDBRANCH  31  32
ENDBRANCH  30  31
ENDBRANCH  29  30
ENDBRANCH  27  29
ENDBRANCH   1  27
TORSDOF 15
ENDMDL
MODEL 4
REMARK VINA RESULT: -7.101383957      0.950      2.071
REMARK  15 active torsions:
REMARK  status: ('A' for Active; 'I' for Inactive)
REMARK    1  A    between atoms: C2_2  and  C3_3 
REMARK    2  A    between atoms: C3_3  and  C4_4 
REMARK    3  A    between atoms: C4_4  and  C5_5 
REMARK    4  A    between atoms: C5_5  and  C6_6 
REMARK    5  A    between atoms: C6_6  and  C7_7 
REMARK    6  A    between atoms: C7_7  and  C8_8 
REMARK    7  A    between atoms: C8_8  and  C9_9 
REMARK    8  A    between atoms: C9_9  and  C10_10 
REMARK    9  A    between atoms: C10_10  and  C11_11 
REMARK   10  A    between atoms: C11_11  and  N1_12 
REMARK   11  A    between atoms: N1_12  and  C12_14 
REMARK   12  A    between atoms: C14_23  and  N5_24 
REMARK   13  A    between atoms: N5_24  and  C15_26 
REMARK   14  A    between atoms: C15_26  and  C16_27 
REMARK   15  A    between atoms: C16_27  and  O1_28 
ROOT
HETATM    1  C12 UNL     1      10.785  39.114  -4.563  1.00  0.00     0.707 A 
HETATM    2  N2  UNL     1      10.765  38.129  -3.645  1.00  0.00    -0.022 N 
ATOM      3  H2  UNL     1      11.495  37.418  -3.659  1.00  0.00     0.203 HD
HETATM    4  C13 UNL     1       9.794  38.066  -2.705  1.00  0.00     0.705 A 
HETATM    5  N3  UNL     1       9.737  37.152  -1.819  1.00  0.00    -0.234 N 
ATOM      6  H31 UNL     1       9.005  37.104  -1.110  1.00  0.00     0.174 HD
ATOM      7  H32 UNL     1      10.468  36.440  -1.833  1.00  0.00     0.174 HD
HETATM    8  N4  UNL     1       8.813  39.020  -2.686  1.00  0.00    -0.022 N 
ATOM      9  H4  UNL     1       8.081  38.973  -1.978  1.00  0.00     0.203 HD
HETATM   10  C14 UNL     1       8.801  40.008  -3.576  1.00  0.00     0.709 A 
HETATM   11  N8  UNL     1       9.804  40.017  -4.495  1.00  0.00    -0.021 N 
ATOM     12  H8  UNL     1       9.807  40.770  -5.183  1.00  0.00     0.203 HD
ENDROOT
BRANCH  10  13
HETATM   13  N5  UNL     1       7.902  40.914  -3.582  1.00  0.00    -0.183 N 
ATOM     14  H5  UNL     1       7.018  40.699  -4.043  1.00  0.00     0.180 HD
BRANCH  13  15
HETATM   15  C15 UNL     1       8.041  42.196  -2.995  1.00  0.00     0.307 A 
HETATM   16  C17 UNL     1       8.478  43.350  -3.804  1.00  0.00     0.379 A 
HETATM   17  C18 UNL     1       8.634  43.293  -5.260  1.00  0.00     0.256 C 
HETATM   18  N7  UNL     1       7.093  43.294  -3.374  1.00  0.00     0.142 N 
HETATM   19  O2  UNL     1       9.609  42.697  -5.752  1.00  0.00    -0.271 OA
HETATM   20  N6  UNL     1       7.692  43.905  -6.132  1.00  0.00    -0.357 N 
HETATM   21  C19 UNL     1       6.352  44.116  -5.567  1.00  0.00     0.153 C 
ATOM     22  H6  UNL     1       7.930  44.180  -7.085  1.00  0.00     0.162 HD
HETATM   23  C20 UNL     1       6.214  43.034  -4.499  1.00  0.00     0.296 C 
BRANCH  15  24
HETATM   24  C16 UNL     1       8.499  42.294  -1.536  1.00  0.00     0.232 C 
BRANCH  24  25
HETATM   25  O1  UNL     1       9.657  43.046  -1.454  1.00  0.00    -0.396 OA
ATOM     26  H1  UNL     1      10.119  42.843  -0.649  1.00  0.00     0.209 HD
ENDBRANCH  24  25
ENDBRANCH  15  24
ENDBRANCH  13  15
ENDBRANCH  10  13
BRANCH   1  27
HETATM   27  N1  UNL     1      11.686  39.222  -5.477  1.00  0.00    -0.225 N 
ATOM     28  H1  UNL     1      12.637  38.921  -5.262  1.00  0.00     0.177 HD
BRANCH  27  29
HETATM   29  C11 UNL     1      11.409  39.751  -6.798  1.00  0.00     0.138 C 
BRANCH  29  30
HETATM   30  C10 UNL     1      12.291  40.927  -7.100  1.00  0.00     0.020 C 
BRANCH  30  31
HETATM   31  C9  UNL     1      11.814  41.597  -8.359  1.00  0.00     0.002 C 
BRANCH  31  32
HETATM   32  C8  UNL     1      12.668  41.274  -9.539  1.00  0.00     0.000 C 
BRANCH  32  33
HETATM   33  C7  UNL     1      14.038  40.777  -9.158  1.00  0.00     0.000 C 
BRANCH  33  34
HETATM   34  C6  UNL     1      14.441  39.548  -9.917  1.00  0.00     0.000 C 
BRANCH  34  35
HETATM   35  C5  UNL     1      13.382  38.488  -9.696  1.00  0.00     0.000 C 
BRANCH  35  36
HETATM   36  C4  UNL     1      13.347  37.477 -10.798  1.00  0.00     0.000 C 
BRANCH  36  37
HETATM   37  C3  UNL     1      13.902  38.009 -12.095  1.00  0.00    -0.000 C 
BRANCH  37  38
HETATM   38  C2  UNL     1      13.710  37.042 -13.236  1.00  0.00    -0.005 C 
HETATM   39  C1  UNL     1      13.349  35.656 -12.737  1.00  0.00     0.005 C 
ENDBRANCH  37  38
ENDBRANCH  36  37
ENDBRANCH  35  36
ENDBRANCH  34  35
ENDBRANCH  33  34
ENDBRANCH  32  33
ENDBRANCH  31  32
ENDBRANCH  30  31
ENDBRANCH  29  30
ENDBRANCH  27  29
ENDBRANCH   1  27
TORSDOF 15
ENDMDL
MODEL 5
REMARK VINA RESULT: -7.061446399      0.791      1.050
REMARK  15 active torsions:
REMARK  status: ('A' for Active; 'I' for Inactive)
REMARK    1  A    between atoms: C2_2  and  C3_3 
REMARK    2  A    between atoms: C3_3  and  C4_4 
REMARK    3  A    between atoms: C4_4  and  C5_5 
REMARK    4  A    between atoms: C5_5  and  C6_6 
REMARK    5  A    between atoms: C6_6  and  C7_7 
REMARK    6  A    between atoms: C7_7  and  C8_8 
REMARK    7  A    between atoms: C8_8  and  C9_9 
REMARK    8  A    between atoms: C9_9  and  C10_10 
REMARK    9  A    between atoms: C10_10  and  C11_11 
REMARK   10  A    between atoms: C11_11  and  N1_12 
REMARK   11  A    between atoms: N1_12  and  C12_14 
REMARK   12  A    between atoms: C14_23  and  N5_24 
REMARK   13  A    between atoms: N5_24  and  C15_26 
REMARK   14  A    between atoms: C15_26  and  C16_27 
REMARK   15  A    between atoms: C16_27  and  O1_28 
ROOT
HETATM    1  C12 UNL     1      10.802  39.194  -4.627  1.00  0.00     0.707 A 
HETATM    2  N2  UNL     1      10.739  38.165  -3.761  1.00  0.00    -0.022 N 
ATOM      3  H2  UNL     1      11.467  37.451  -3.779  1.00  0.00     0.203 HD
HETATM    4  C13 UNL     1       9.728  38.061  -2.868  1.00  0.00     0.705 A 
HETATM    5  N3  UNL     1       9.631  37.104  -2.032  1.00  0.00    -0.234 N 
ATOM      6  H31 UNL     1       8.868  37.025  -1.358  1.00  0.00     0.174 HD
ATOM      7  H32 UNL     1      10.359  36.390  -2.050  1.00  0.00     0.174 HD
HETATM    8  N4  UNL     1       8.750  39.018  -2.844  1.00  0.00    -0.022 N 
ATOM      9  H4  UNL     1       7.988  38.939  -2.171  1.00  0.00     0.203 HD
HETATM   10  C14 UNL     1       8.780  40.048  -3.684  1.00  0.00     0.709 A 
HETATM   11  N8  UNL     1       9.821  40.097  -4.556  1.00  0.00    -0.021 N 
ATOM     12  H8  UNL     1       9.856  40.883  -5.206  1.00  0.00     0.203 HD
ENDROOT
BRANCH  10  13
HETATM   13  N5  UNL     1       7.884  40.958  -3.684  1.00  0.00    -0.183 N 
ATOM     14  H5  UNL     1       7.007  40.757  -4.163  1.00  0.00     0.180 HD
BRANCH  13  15
HETATM   15  C15 UNL     1       8.019  42.225  -3.066  1.00  0.00     0.307 A 
HETATM   16  C17 UNL     1       8.443  43.402  -3.848  1.00  0.00     0.379 A 
HETATM   17  C18 UNL     1       8.590  43.382  -5.306  1.00  0.00     0.256 C 
HETATM   18  N7  UNL     1       7.062  43.327  -3.410  1.00  0.00     0.142 N 
HETATM   19  O2  UNL     1       9.565  42.805  -5.820  1.00  0.00    -0.271 OA
HETATM   20  N6  UNL     1       7.638  44.010  -6.157  1.00  0.00    -0.357 N 
HETATM   21  C19 UNL     1       6.301  44.198  -5.578  1.00  0.00     0.153 C 
ATOM     22  H6  UNL     1       7.868  44.309  -7.105  1.00  0.00     0.162 HD
HETATM   23  C20 UNL     1       6.177  43.089  -4.536  1.00  0.00     0.296 C 
BRANCH  15  24
HETATM   24  C16 UNL     1       8.486  42.291  -1.607  1.00  0.00     0.232 C 
BRANCH  24  25
HETATM   25  O1  UNL     1       9.705  42.939  -1.530  1.00  0.00    -0.396 OA
ATOM     26  H1  UNL     1       9.665  43.762  -2.003  1.00  0.00     0.209 HD
ENDBRANCH  24  25
ENDBRANCH  15  24
ENDBRANCH  13  15
ENDBRANCH  10  13
BRANCH   1  27
HETATM   27  N1  UNL     1      11.741  39.342  -5.495  1.00  0.00    -0.225 N 
ATOM     28  H1  UNL     1      12.568  38.748  -5.425  1.00  0.00     0.177 HD
BRANCH  27  29
HETATM   29  C11 UNL     1      11.678  40.315  -6.568  1.00  0.00     0.138 C 
BRANCH  29  30
HETATM   30  C10 UNL     1      12.260  39.756  -7.834  1.00  0.00     0.020 C 
BRANCH  30  31
HETATM   31  C9  UNL     1      13.054  38.521  -7.513  1.00  0.00     0.002 C 
BRANCH  31  32
HETATM   32  C8  UNL     1      13.876  38.052  -8.667  1.00  0.00     0.000 C 
BRANCH  32  33
HETATM   33  C7  UNL     1      13.071  37.853  -9.923  1.00  0.00     0.000 C 
BRANCH  33  34
HETATM   34  C6  UNL     1      13.817  38.253 -11.161  1.00  0.00     0.000 C 
BRANCH  34  35
HETATM   35  C5  UNL     1      13.956  39.761 -11.161  1.00  0.00     0.000 C 
BRANCH  35  36
HETATM   36  C4  UNL     1      15.383  40.205 -11.212  1.00  0.00     0.000 C 
BRANCH  36  37
HETATM   37  C3  UNL     1      15.776  41.040 -10.020  1.00  0.00    -0.000 C 
BRANCH  37  38
HETATM   38  C2  UNL     1      14.660  41.946  -9.566  1.00  0.00    -0.005 C 
HETATM   39  C1  UNL     1      15.128  42.919  -8.502  1.00  0.00     0.005 C 
ENDBRANCH  37  38
ENDBRANCH  36  37
ENDBRANCH  35  36
ENDBRANCH  34  35
ENDBRANCH  33  34
ENDBRANCH  32  33
ENDBRANCH  31  32
ENDBRANCH  30  31
ENDBRANCH  29  30
ENDBRANCH  27  29
ENDBRANCH   1  27
TORSDOF 15
ENDMDL
