MODEL 1
REMARK VINA RESULT: -6.629740846      0.000      0.000
REMARK  15 active torsions:
REMARK  status: ('A' for Active; 'I' for Inactive)
REMARK    1  A    between atoms: N1_1  and  C1_5 
REMARK    2  A    between atoms: C1_5  and  C2_6 
REMARK    3  A    between atoms: C2_6  and  C3_7 
REMARK    4  A    between atoms: C3_7  and  C4_8 
REMARK    5  A    between atoms: C8_15  and  C9_16 
REMARK    6  A    between atoms: C10_19  and  C11_20 
REMARK    7  A    between atoms: C11_20  and  O4_21 
REMARK    8  A    between atoms: C12_23  and  C13_24 
REMARK    9  A    between atoms: C13_24  and  C14_25 
REMARK   10  A    between atoms: C14_25  and  C15_26 
REMARK   11  A    between atoms: C15_26  and  C16_27 
REMARK   12  A    between atoms: C16_27  and  C17_28 
REMARK   13  A    between atoms: C17_28  and  C18_29 
REMARK   14  A    between atoms: C18_29  and  C19_30 
REMARK   15  A    between atoms: C19_30  and  O5_31 
ROOT
HETATM    1  C4  UNL     1      12.979  40.980  -7.400  1.00  0.00     0.177 C 
HETATM    2  N2  UNL     1      13.173  42.408  -7.139  1.00  0.00    -0.345 N 
ATOM      3  H2  UNL     1      12.496  42.915  -6.568  1.00  0.00     0.163 HD
HETATM    4  C5  UNL     1      14.337  43.117  -7.696  1.00  0.00     0.238 C 
HETATM    5  O1  UNL     1      14.754  44.174  -7.185  1.00  0.00    -0.269 OA
HETATM    6  C6  UNL     1      14.876  42.441  -8.841  1.00  0.00     0.048 C 
HETATM    7  C7  UNL     1      16.017  42.527  -9.664  1.00  0.00     0.048 C 
HETATM    8  C8  UNL     1      16.313  41.097 -10.176  1.00  0.00     0.098 C 
HETATM    9  C10 UNL     1      15.262  40.306 -10.811  1.00  0.00     0.046 C 
HETATM   10  C12 UNL     1      14.432  39.393  -9.953  1.00  0.00     0.091 C 
HETATM   11  N3  UNL     1      13.063  39.730  -9.712  1.00  0.00    -0.354 N 
ATOM     12  H3  UNL     1      12.381  39.270 -10.315  1.00  0.00     0.162 HD
HETATM   13  C20 UNL     1      12.530  40.623  -8.740  1.00  0.00     0.240 C 
HETATM   14  O6  UNL     1      11.454  41.247  -9.075  1.00  0.00    -0.271 OA
ENDROOT
BRANCH  10  15
HETATM   15  C13 UNL     1      14.422  37.925 -10.434  1.00  0.00     0.029 C 
BRANCH  15  16
HETATM   16  C14 UNL     1      13.195  37.525 -11.139  1.00  0.00     0.029 C 
BRANCH  16  17
HETATM   17  C15 UNL     1      13.309  36.364 -12.047  1.00  0.00    -0.031 C 
BRANCH  17  18
HETATM   18  C16 UNL     1      14.082  36.396 -13.280  1.00  0.00    -0.031 C 
BRANCH  18  19
HETATM   19  C17 UNL     1      14.366  37.658 -13.996  1.00  0.00     0.029 C 
BRANCH  19  20
HETATM   20  C18 UNL     1      15.811  38.079 -14.018  1.00  0.00     0.030 C 
BRANCH  20  21
HETATM   21  C19 UNL     1      16.666  36.977 -13.394  1.00  0.00     0.164 C 
BRANCH  21  22
HETATM   22  O5  UNL     1      17.498  37.547 -12.421  1.00  0.00    -0.401 OA
ATOM     23  H5  UNL     1      17.705  36.887 -11.770  1.00  0.00     0.209 HD
ENDBRANCH  21  22
ENDBRANCH  20  21
ENDBRANCH  19  20
ENDBRANCH  18  19
ENDBRANCH  17  18
ENDBRANCH  16  17
ENDBRANCH  15  16
ENDBRANCH  10  15
BRANCH   9  24
HETATM   24  C11 UNL     1      14.472  40.907 -11.940  1.00  0.00     0.171 C 
BRANCH  24  25
HETATM   25  O4  UNL     1      15.175  41.333 -13.030  1.00  0.00    -0.400 OA
ATOM     26  H4  UNL     1      14.994  42.211 -13.343  1.00  0.00     0.209 HD
ENDBRANCH  24  25
ENDBRANCH   9  24
BRANCH   8  27
HETATM   27  C9  UNL     1      17.615  41.165 -10.855  1.00  0.00     0.177 C 
HETATM   28  O2  UNL     1      18.497  41.960 -10.476  1.00  0.00    -0.648 OA
HETATM   29  O3  UNL     1      17.922  40.358 -11.942  1.00  0.00    -0.648 OA
ENDBRANCH   8  27
BRANCH   1  30
HETATM   30  C3  UNL     1      11.864  40.525  -6.449  1.00  0.00     0.036 C 
BRANCH  30  31
HETATM   31  C2  UNL     1      11.757  39.030  -6.386  1.00  0.00     0.030 C 
BRANCH  31  32
HETATM   32  C1  UNL     1      10.794  38.698  -5.265  1.00  0.00     0.230 C 
BRANCH  32  33
HETATM   33  N1  UNL     1      11.381  39.116  -4.016  1.00  0.00    -0.079 N 
ATOM     34  H13 UNL     1      12.385  39.280  -4.092  1.00  0.00     0.274 HD
ATOM     35  H12 UNL     1      11.105  40.062  -3.751  1.00  0.00     0.274 HD
ATOM     36  H11 UNL     1      11.150  38.426  -3.301  1.00  0.00     0.274 HD
ENDBRANCH  32  33
ENDBRANCH  31  32
ENDBRANCH  30  31
ENDBRANCH   1  30
TORSDOF 15
ENDMDL
MODEL 2
REMARK VINA RESULT: -6.574218393      2.802      5.199
REMARK  15 active torsions:
REMARK  status: ('A' for Active; 'I' for Inactive)
REMARK    1  A    between atoms: N1_1  and  C1_5 
REMARK    2  A    between atoms: C1_5  and  C2_6 
REMARK    3  A    between atoms: C2_6  and  C3_7 
REMARK    4  A    between atoms: C3_7  and  C4_8 
REMARK    5  A    between atoms: C8_15  and  C9_16 
REMARK    6  A    between atoms: C10_19  and  C11_20 
REMARK    7  A    between atoms: C11_20  and  O4_21 
REMARK    8  A    between atoms: C12_23  and  C13_24 
REMARK    9  A    between atoms: C13_24  and  C14_25 
REMARK   10  A    between atoms: C14_25  and  C15_26 
REMARK   11  A    between atoms: C15_26  and  C16_27 
REMARK   12  A    between atoms: C16_27  and  C17_28 
REMARK   13  A    between atoms: C17_28  and  C18_29 
REMARK   14  A    between atoms: C18_29  and  C19_30 
REMARK   15  A    between atoms: C19_30  and  O5_31 
ROOT
HETATM    1  C4  UNL     1      13.726  40.922 -10.224  1.00  0.00     0.177 C 
HETATM    2  N2  UNL     1      13.343  40.194  -9.012  1.00  0.00    -0.345 N 
ATOM      3  H2  UNL     1      13.347  40.672  -8.111  1.00  0.00     0.163 HD
HETATM    4  C5  UNL     1      12.952  38.776  -9.087  1.00  0.00     0.238 C 
HETATM    5  O1  UNL     1      12.249  38.253  -8.201  1.00  0.00    -0.269 OA
HETATM    6  C6  UNL     1      13.474  38.139 -10.261  1.00  0.00     0.048 C 
HETATM    7  C7  UNL     1      13.324  36.913 -10.940  1.00  0.00     0.048 C 
HETATM    8  C8  UNL     1      13.568  37.195 -12.442  1.00  0.00     0.098 C 
HETATM    9  C10 UNL     1      14.775  37.895 -12.877  1.00  0.00     0.046 C 
HETATM   10  C12 UNL     1      14.727  39.391 -13.017  1.00  0.00     0.091 C 
HETATM   11  N3  UNL     1      15.445  40.194 -12.076  1.00  0.00    -0.354 N 
ATOM     12  H3  UNL     1      16.368  40.509 -12.376  1.00  0.00     0.162 HD
HETATM   13  C20 UNL     1      15.039  40.610 -10.777  1.00  0.00     0.240 C 
HETATM   14  O6  UNL     1      15.979  40.746  -9.906  1.00  0.00    -0.271 OA
ENDROOT
BRANCH  10  15
HETATM   15  C13 UNL     1      15.154  39.899 -14.411  1.00  0.00     0.029 C 
BRANCH  15  16
HETATM   16  C14 UNL     1      14.135  39.729 -15.458  1.00  0.00     0.029 C 
BRANCH  16  17
HETATM   17  C15 UNL     1      14.583  39.082 -16.710  1.00  0.00    -0.031 C 
BRANCH  17  18
HETATM   18  C16 UNL     1      14.665  37.638 -16.869  1.00  0.00    -0.031 C 
BRANCH  18  19
HETATM   19  C17 UNL     1      15.873  36.874 -16.486  1.00  0.00     0.029 C 
BRANCH  19  20
HETATM   20  C18 UNL     1      15.742  35.377 -16.563  1.00  0.00     0.030 C 
BRANCH  20  21
HETATM   21  C19 UNL     1      14.513  35.020 -17.396  1.00  0.00     0.164 C 
BRANCH  21  22
HETATM   22  O5  UNL     1      13.681  34.183 -16.641  1.00  0.00    -0.401 OA
ATOM     23  H5  UNL     1      13.418  33.445 -17.179  1.00  0.00     0.209 HD
ENDBRANCH  21  22
ENDBRANCH  20  21
ENDBRANCH  19  20
ENDBRANCH  18  19
ENDBRANCH  17  18
ENDBRANCH  16  17
ENDBRANCH  15  16
ENDBRANCH  10  15
BRANCH   9  24
HETATM   24  C11 UNL     1      16.116  37.406 -12.407  1.00  0.00     0.171 C 
BRANCH  24  25
HETATM   25  O4  UNL     1      16.662  36.352 -13.082  1.00  0.00    -0.400 OA
ATOM     26  H4  UNL     1      16.066  35.672 -13.375  1.00  0.00     0.209 HD
ENDBRANCH  24  25
ENDBRANCH   9  24
BRANCH   8  27
HETATM   27  C9  UNL     1      13.204  35.962 -13.156  1.00  0.00     0.177 C 
HETATM   28  O2  UNL     1      12.995  35.969 -14.384  1.00  0.00    -0.648 OA
HETATM   29  O3  UNL     1      13.076  34.744 -12.504  1.00  0.00    -0.648 OA
ENDBRANCH   8  27
BRANCH   1  30
HETATM   30  C3  UNL     1      13.780  42.403  -9.825  1.00  0.00     0.036 C 
BRANCH  30  31
HETATM   31  C2  UNL     1      13.352  42.617  -8.403  1.00  0.00     0.030 C 
BRANCH  31  32
HETATM   32  C1  UNL     1      14.420  43.460  -7.738  1.00  0.00     0.230 C 
BRANCH  32  33
HETATM   33  N1  UNL     1      15.642  43.331  -8.490  1.00  0.00    -0.079 N 
ATOM     34  H13 UNL     1      15.610  42.562  -9.159  1.00  0.00     0.274 HD
ATOM     35  H12 UNL     1      15.773  44.092  -9.157  1.00  0.00     0.274 HD
ATOM     36  H11 UNL     1      16.420  43.247  -7.835  1.00  0.00     0.274 HD
ENDBRANCH  32  33
ENDBRANCH  31  32
ENDBRANCH  30  31
ENDBRANCH   1  30
TORSDOF 15
ENDMDL
MODEL 3
REMARK VINA RESULT: -6.566326632      1.320      1.575
REMARK  15 active torsions:
REMARK  status: ('A' for Active; 'I' for Inactive)
REMARK    1  A    between atoms: N1_1  and  C1_5 
REMARK    2  A    between atoms: C1_5  and  C2_6 
REMARK    3  A    between atoms: C2_6  and  C3_7 
REMARK    4  A    between atoms: C3_7  and  C4_8 
REMARK    5  A    between atoms: C8_15  and  C9_16 
REMARK    6  A    between atoms: C10_19  and  C11_20 
REMARK    7  A    between atoms: C11_20  and  O4_21 
REMARK    8  A    between atoms: C12_23  and  C13_24 
REMARK    9  A    between atoms: C13_24  and  C14_25 
REMARK   10  A    between atoms: C14_25  and  C15_26 
REMARK   11  A    between atoms: C15_26  and  C16_27 
REMARK   12  A    between atoms: C16_27  and  C17_28 
REMARK   13  A    between atoms: C17_28  and  C18_29 
REMARK   14  A    between atoms: C18_29  and  C19_30 
REMARK   15  A    between atoms: C19_30  and  O5_31 
ROOT
HETATM    1  C4  UNL     1      12.804  41.037  -7.263  1.00  0.00     0.177 C 
HETATM    2  N2  UNL     1      12.945  42.483  -7.077  1.00  0.00    -0.345 N 
ATOM      3  H2  UNL     1      12.250  42.993  -6.532  1.00  0.00     0.163 HD
HETATM    4  C5  UNL     1      14.083  43.203  -7.672  1.00  0.00     0.238 C 
HETATM    5  O1  UNL     1      14.460  44.301  -7.218  1.00  0.00    -0.269 OA
HETATM    6  C6  UNL     1      14.646  42.490  -8.782  1.00  0.00     0.048 C 
HETATM    7  C7  UNL     1      15.783  42.574  -9.611  1.00  0.00     0.048 C 
HETATM    8  C8  UNL     1      16.131  41.131 -10.048  1.00  0.00     0.098 C 
HETATM    9  C10 UNL     1      15.109  40.270 -10.639  1.00  0.00     0.046 C 
HETATM   10  C12 UNL     1      14.314  39.373  -9.733  1.00  0.00     0.091 C 
HETATM   11  N3  UNL     1      12.934  39.672  -9.507  1.00  0.00    -0.354 N 
ATOM     12  H3  UNL     1      12.268  39.156 -10.084  1.00  0.00     0.162 HD
HETATM   13  C20 UNL     1      12.368  40.594  -8.582  1.00  0.00     0.240 C 
HETATM   14  O6  UNL     1      11.270  41.160  -8.947  1.00  0.00    -0.271 OA
ENDROOT
BRANCH  10  15
HETATM   15  C13 UNL     1      14.358  37.883 -10.137  1.00  0.00     0.029 C 
BRANCH  15  16
HETATM   16  C14 UNL     1      13.125  37.388 -10.768  1.00  0.00     0.029 C 
BRANCH  16  17
HETATM   17  C15 UNL     1      13.290  36.635 -12.030  1.00  0.00    -0.031 C 
BRANCH  17  18
HETATM   18  C16 UNL     1      14.586  36.194 -12.525  1.00  0.00    -0.031 C 
BRANCH  18  19
HETATM   19  C17 UNL     1      15.127  36.649 -13.824  1.00  0.00     0.029 C 
BRANCH  19  20
HETATM   20  C18 UNL     1      14.099  37.003 -14.864  1.00  0.00     0.030 C 
BRANCH  20  21
HETATM   21  C19 UNL     1      13.954  35.840 -15.844  1.00  0.00     0.164 C 
BRANCH  21  22
HETATM   22  O5  UNL     1      12.960  34.972 -15.373  1.00  0.00    -0.401 OA
ATOM     23  H5  UNL     1      13.360  34.142 -15.142  1.00  0.00     0.209 HD
ENDBRANCH  21  22
ENDBRANCH  20  21
ENDBRANCH  19  20
ENDBRANCH  18  19
ENDBRANCH  17  18
ENDBRANCH  16  17
ENDBRANCH  15  16
ENDBRANCH  10  15
BRANCH   9  24
HETATM   24  C11 UNL     1      14.298  40.782 -11.796  1.00  0.00     0.171 C 
BRANCH  24  25
HETATM   25  O4  UNL     1      14.296  40.027 -12.934  1.00  0.00    -0.400 OA
ATOM     26  H4  UNL     1      13.451  39.729 -13.252  1.00  0.00     0.209 HD
ENDBRANCH  24  25
ENDBRANCH   9  24
BRANCH   8  27
HETATM   27  C9  UNL     1      17.429  41.212 -10.733  1.00  0.00     0.177 C 
HETATM   28  O2  UNL     1      17.744  40.388 -11.613  1.00  0.00    -0.648 OA
HETATM   29  O3  UNL     1      18.359  42.200 -10.436  1.00  0.00    -0.648 OA
ENDBRANCH   8  27
BRANCH   1  30
HETATM   30  C3  UNL     1      11.706  40.591  -6.287  1.00  0.00     0.036 C 
BRANCH  30  31
HETATM   31  C2  UNL     1      11.609  39.097  -6.198  1.00  0.00     0.030 C 
BRANCH  31  32
HETATM   32  C1  UNL     1      10.664  38.778  -5.058  1.00  0.00     0.230 C 
BRANCH  32  33
HETATM   33  N1  UNL     1      11.326  39.079  -3.814  1.00  0.00    -0.079 N 
ATOM     34  H13 UNL     1      11.148  40.032  -3.497  1.00  0.00     0.274 HD
ATOM     35  H12 UNL     1      10.912  38.588  -3.021  1.00  0.00     0.274 HD
ATOM     36  H11 UNL     1      12.321  38.882  -3.919  1.00  0.00     0.274 HD
ENDBRANCH  32  33
ENDBRANCH  31  32
ENDBRANCH  30  31
ENDBRANCH   1  30
TORSDOF 15
ENDMDL
MODEL 4
REMARK VINA RESULT: -6.553385163      1.634      2.403
REMARK  15 active torsions:
REMARK  status: ('A' for Active; 'I' for Inactive)
REMARK    1  A    between atoms: N1_1  and  C1_5 
REMARK    2  A    between atoms: C1_5  and  C2_6 
REMARK    3  A    between atoms: C2_6  and  C3_7 
REMARK    4  A    between atoms: C3_7  and  C4_8 
REMARK    5  A    between atoms: C8_15  and  C9_16 
REMARK    6  A    between atoms: C10_19  and  C11_20 
REMARK    7  A    between atoms: C11_20  and  O4_21 
REMARK    8  A    between atoms: C12_23  and  C13_24 
REMARK    9  A    between atoms: C13_24  and  C14_25 
REMARK   10  A    between atoms: C14_25  and  C15_26 
REMARK   11  A    between atoms: C15_26  and  C16_27 
REMARK   12  A    between atoms: C16_27  and  C17_28 
REMARK   13  A    between atoms: C17_28  and  C18_29 
REMARK   14  A    between atoms: C18_29  and  C19_30 
REMARK   15  A    between atoms: C19_30  and  O5_31 
ROOT
HETATM    1  C4  UNL     1      13.164  41.037  -8.429  1.00  0.00     0.177 C 
HETATM    2  N2  UNL     1      13.126  42.143  -7.470  1.00  0.00    -0.345 N 
ATOM      3  H2  UNL     1      12.297  42.283  -6.892  1.00  0.00     0.163 HD
HETATM    4  C5  UNL     1      14.275  43.053  -7.335  1.00  0.00     0.238 C 
HETATM    5  O1  UNL     1      14.455  43.716  -6.295  1.00  0.00    -0.269 OA
HETATM    6  C6  UNL     1      15.097  43.054  -8.511  1.00  0.00     0.048 C 
HETATM    7  C7  UNL     1      16.351  43.560  -8.910  1.00  0.00     0.048 C 
HETATM    8  C8  UNL     1      16.913  42.586  -9.973  1.00  0.00     0.098 C 
HETATM    9  C10 UNL     1      16.105  42.206 -11.129  1.00  0.00     0.046 C 
HETATM   10  C12 UNL     1      15.251  40.972 -11.035  1.00  0.00     0.091 C 
HETATM   11  N3  UNL     1      13.831  41.121 -10.972  1.00  0.00    -0.354 N 
ATOM     12  H3  UNL     1      13.334  41.017 -11.858  1.00  0.00     0.162 HD
HETATM   13  C20 UNL     1      13.019  41.396  -9.836  1.00  0.00     0.240 C 
HETATM   14  O6  UNL     1      11.954  42.088 -10.054  1.00  0.00    -0.271 OA
ENDROOT
BRANCH  10  15
HETATM   15  C13 UNL     1      15.514  39.946 -12.159  1.00  0.00     0.029 C 
BRANCH  15  16
HETATM   16  C14 UNL     1      14.440  39.852 -13.159  1.00  0.00     0.029 C 
BRANCH  16  17
HETATM   17  C15 UNL     1      14.081  38.490 -13.610  1.00  0.00    -0.031 C 
BRANCH  17  18
HETATM   18  C16 UNL     1      14.309  37.302 -12.801  1.00  0.00    -0.031 C 
BRANCH  18  19
HETATM   19  C17 UNL     1      13.297  36.797 -11.847  1.00  0.00     0.029 C 
BRANCH  19  20
HETATM   20  C18 UNL     1      13.267  37.486 -10.510  1.00  0.00     0.030 C 
BRANCH  20  21
HETATM   21  C19 UNL     1      14.491  37.064  -9.698  1.00  0.00     0.164 C 
BRANCH  21  22
HETATM   22  O5  UNL     1      14.830  38.101  -8.819  1.00  0.00    -0.401 OA
ATOM     23  H5  UNL     1      15.035  37.728  -7.969  1.00  0.00     0.209 HD
ENDBRANCH  21  22
ENDBRANCH  20  21
ENDBRANCH  19  20
ENDBRANCH  18  19
ENDBRANCH  17  18
ENDBRANCH  16  17
ENDBRANCH  15  16
ENDBRANCH  10  15
BRANCH   9  24
HETATM   24  C11 UNL     1      15.469  43.281 -11.965  1.00  0.00     0.171 C 
BRANCH  24  25
HETATM   25  O4  UNL     1      15.853  43.357 -13.273  1.00  0.00    -0.400 OA
ATOM     26  H4  UNL     1      15.498  42.704 -13.865  1.00  0.00     0.209 HD
ENDBRANCH  24  25
ENDBRANCH   9  24
BRANCH   8  27
HETATM   27  C9  UNL     1      18.299  43.007 -10.223  1.00  0.00     0.177 C 
HETATM   28  O2  UNL     1      19.077  42.295 -10.886  1.00  0.00    -0.648 OA
HETATM   29  O3  UNL     1      18.804  44.205  -9.737  1.00  0.00    -0.648 OA
ENDBRANCH   8  27
BRANCH   1  30
HETATM   30  C3  UNL     1      11.958  40.148  -8.097  1.00  0.00     0.036 C 
BRANCH  30  31
HETATM   31  C2  UNL     1      11.603  40.207  -6.640  1.00  0.00     0.030 C 
BRANCH  31  32
HETATM   32  C1  UNL     1      11.515  38.780  -6.144  1.00  0.00     0.230 C 
BRANCH  32  33
HETATM   33  N1  UNL     1      12.775  38.127  -6.396  1.00  0.00    -0.079 N 
ATOM     34  H13 UNL     1      12.716  37.440  -7.148  1.00  0.00     0.274 HD
ATOM     35  H12 UNL     1      13.458  38.749  -6.830  1.00  0.00     0.274 HD
ATOM     36  H11 UNL     1      13.113  37.723  -5.523  1.00  0.00     0.274 HD
ENDBRANCH  32  33
ENDBRANCH  31  32
ENDBRANCH  30  31
ENDBRANCH   1  30
TORSDOF 15
ENDMDL
MODEL 5
REMARK VINA RESULT: -6.502300600      3.081      5.365
REMARK  15 active torsions:
REMARK  status: ('A' for Active; 'I' for Inactive)
REMARK    1  A    between atoms: N1_1  and  C1_5 
REMARK    2  A    between atoms: C1_5  and  C2_6 
REMARK    3  A    between atoms: C2_6  and  C3_7 
REMARK    4  A    between atoms: C3_7  and  C4_8 
REMARK    5  A    between atoms: C8_15  and  C9_16 
REMARK    6  A    between atoms: C10_19  and  C11_20 
REMARK    7  A    between atoms: C11_20  and  O4_21 
REMARK    8  A    between atoms: C12_23  and  C13_24 
REMARK    9  A    between atoms: C13_24  and  C14_25 
REMARK   10  A    between atoms: C14_25  and  C15_26 
REMARK   11  A    between atoms: C15_26  and  C16_27 
REMARK   12  A    between atoms: C16_27  and  C17_28 
REMARK   13  A    between atoms: C17_28  and  C18_29 
REMARK   14  A    between atoms: C18_29  and  C19_30 
REMARK   15  A    between atoms: C19_30  and  O5_31 
ROOT
HETATM    1  C4  UNL     1      13.388  40.943 -10.507  1.00  0.00     0.177 C 
HETATM    2  N2  UNL     1      13.132  40.266  -9.234  1.00  0.00    -0.345 N 
ATOM      3  H2  UNL     1      13.128  40.802  -8.367  1.00  0.00     0.163 HD
HETATM    4  C5  UNL     1      12.881  38.815  -9.198  1.00  0.00     0.238 C 
HETATM    5  O1  UNL     1      12.273  38.289  -8.246  1.00  0.00    -0.269 OA
HETATM    6  C6  UNL     1      13.412  38.153 -10.354  1.00  0.00     0.048 C 
HETATM    7  C7  UNL     1      13.354  36.874 -10.945  1.00  0.00     0.048 C 
HETATM    8  C8  UNL     1      13.504  37.076 -12.472  1.00  0.00     0.098 C 
HETATM    9  C10 UNL     1      14.615  37.856 -13.011  1.00  0.00     0.046 C 
HETATM   10  C12 UNL     1      14.413  39.327 -13.243  1.00  0.00     0.091 C 
HETATM   11  N3  UNL     1      15.088  40.258 -12.393  1.00  0.00    -0.354 N 
ATOM     12  H3  UNL     1      15.961  40.640 -12.758  1.00  0.00     0.162 HD
HETATM   13  C20 UNL     1      14.700  40.722 -11.105  1.00  0.00     0.240 C 
HETATM   14  O6  UNL     1      15.658  41.006 -10.292  1.00  0.00    -0.271 OA
ENDROOT
BRANCH  10  15
HETATM   15  C13 UNL     1      14.726  39.778 -14.687  1.00  0.00     0.029 C 
BRANCH  15  16
HETATM   16  C14 UNL     1      14.475  38.754 -15.711  1.00  0.00     0.029 C 
BRANCH  16  17
HETATM   17  C15 UNL     1      15.631  38.360 -16.544  1.00  0.00    -0.031 C 
BRANCH  17  18
HETATM   18  C16 UNL     1      16.345  37.104 -16.364  1.00  0.00    -0.031 C 
BRANCH  18  19
HETATM   19  C17 UNL     1      15.657  35.796 -16.420  1.00  0.00     0.029 C 
BRANCH  19  20
HETATM   20  C18 UNL     1      15.256  35.334 -17.795  1.00  0.00     0.030 C 
BRANCH  20  21
HETATM   21  C19 UNL     1      14.517  34.002 -17.682  1.00  0.00     0.164 C 
BRANCH  21  22
HETATM   22  O5  UNL     1      13.658  34.052 -16.577  1.00  0.00    -0.401 OA
ATOM     23  H5  UNL     1      12.768  33.898 -16.872  1.00  0.00     0.209 HD
ENDBRANCH  21  22
ENDBRANCH  20  21
ENDBRANCH  19  20
ENDBRANCH  18  19
ENDBRANCH  17  18
ENDBRANCH  16  17
ENDBRANCH  15  16
ENDBRANCH  10  15
BRANCH   9  24
HETATM   24  C11 UNL     1      16.017  37.532 -12.579  1.00  0.00     0.171 C 
BRANCH  24  25
HETATM   25  O4  UNL     1      16.515  36.316 -12.952  1.00  0.00    -0.400 OA
ATOM     26  H4  UNL     1      17.299  36.318 -13.488  1.00  0.00     0.209 HD
ENDBRANCH  24  25
ENDBRANCH   9  24
BRANCH   8  27
HETATM   27  C9  UNL     1      13.233  35.768 -13.087  1.00  0.00     0.177 C 
HETATM   28  O2  UNL     1      12.966  35.671 -14.300  1.00  0.00    -0.648 OA
HETATM   29  O3  UNL     1      13.261  34.589 -12.354  1.00  0.00    -0.648 OA
ENDBRANCH   8  27
BRANCH   1  30
HETATM   30  C3  UNL     1      13.312  42.447 -10.207  1.00  0.00     0.036 C 
BRANCH  30  31
HETATM   31  C2  UNL     1      12.149  43.097 -10.897  1.00  0.00     0.030 C 
BRANCH  31  32
HETATM   32  C1  UNL     1      11.014  43.158  -9.897  1.00  0.00     0.230 C 
BRANCH  32  33
HETATM   33  N1  UNL     1       9.766  43.171 -10.618  1.00  0.00    -0.079 N 
ATOM     34  H13 UNL     1       8.956  43.195  -9.998  1.00  0.00     0.274 HD
ATOM     35  H12 UNL     1       9.601  44.055 -11.098  1.00  0.00     0.274 HD
ATOM     36  H11 UNL     1       9.749  42.372 -11.252  1.00  0.00     0.274 HD
ENDBRANCH  32  33
ENDBRANCH  31  32
ENDBRANCH  30  31
ENDBRANCH   1  30
TORSDOF 15
ENDMDL
