MODEL 1
REMARK VINA RESULT: -7.313873343      0.000      0.000
REMARK  15 active torsions:
REMARK  status: ('A' for Active; 'I' for Inactive)
REMARK    1  A    between atoms: C2_2  and  C3_3 
REMARK    2  A    between atoms: C4_6  and  N2_7 
REMARK    3  A    between atoms: N2_7  and  C5_9 
REMARK    4  A    between atoms: C5_9  and  C6_10 
REMARK    5  A    between atoms: C6_10  and  C7_11 
REMARK    6  A    between atoms: C7_11  and  C8_12 
REMARK    7  A    between atoms: C8_12  and  C9_13 
REMARK    8  A    between atoms: C9_13  and  C10_14 
REMARK    9  A    between atoms: C10_14  and  N3_15 
REMARK   10  A    between atoms: C11_21  and  N5_22 
REMARK   11  A    between atoms: N5_22  and  C12_24 
REMARK   12  A    between atoms: C12_24  and  C13_25 
REMARK   13  A    between atoms: C13_25  and  N6_26 
REMARK   14  A    between atoms: C17_33  and  C18_34 
REMARK   15  A    between atoms: C19_35  and  C20_36 
ROOT
HETATM    1  C3  UNL     1      12.583  40.799  -7.649  1.00  0.00     0.040 A 
HETATM    2  N1  UNL     1      12.069  40.056  -6.677  1.00  0.00    -0.195 N 
ATOM      3  H1  UNL     1      11.429  40.505  -6.023  1.00  0.00     0.184 HD
HETATM    4  C4  UNL     1      12.336  38.759  -6.498  1.00  0.00     0.679 A 
HETATM    5  N4  UNL     1      13.166  38.150  -7.335  1.00  0.00    -0.176 N 
ATOM      6  H4  UNL     1      13.383  37.160  -7.216  1.00  0.00     0.186 HD
HETATM    7  C11 UNL     1      13.727  38.862  -8.356  1.00  0.00     0.129 A 
HETATM    8  C17 UNL     1      13.475  40.199  -8.570  1.00  0.00     0.032 A 
ENDROOT
BRANCH   4   9
HETATM    9  N2  UNL     1      11.772  38.154  -5.514  1.00  0.00    -0.226 N 
ATOM     10  H2  UNL     1      11.824  37.140  -5.421  1.00  0.00     0.177 HD
BRANCH   9  11
HETATM   11  C5  UNL     1      11.059  38.959  -4.541  1.00  0.00     0.138 C 
BRANCH  11  12
HETATM   12  C6  UNL     1       9.622  38.515  -4.405  1.00  0.00     0.020 C 
BRANCH  12  13
HETATM   13  C7  UNL     1       9.062  39.018  -3.085  1.00  0.00     0.002 C 
BRANCH  13  14
HETATM   14  C8  UNL     1      10.132  39.088  -2.028  1.00  0.00     0.002 C 
BRANCH  14  15
HETATM   15  C9  UNL     1       9.622  38.441  -0.773  1.00  0.00     0.027 C 
BRANCH  15  16
HETATM   16  C10 UNL     1       9.199  37.016  -0.978  1.00  0.00     0.229 C 
BRANCH  16  17
HETATM   17  N3  UNL     1      10.386  36.271  -1.422  1.00  0.00    -0.079 N 
ATOM     18  H33 UNL     1      10.714  36.555  -2.345  1.00  0.00     0.274 HD
ATOM     19  H32 UNL     1      11.229  36.515  -0.903  1.00  0.00     0.274 HD
ATOM     20  H31 UNL     1      10.156  35.279  -1.366  1.00  0.00     0.274 HD
ENDBRANCH  16  17
ENDBRANCH  15  16
ENDBRANCH  14  15
ENDBRANCH  13  14
ENDBRANCH  12  13
ENDBRANCH  11  12
ENDBRANCH   9  11
ENDBRANCH   4   9
BRANCH   1  21
HETATM   21  C2  UNL     1      12.240  42.247  -7.810  1.00  0.00     0.054 C 
HETATM   22  C1  UNL     1      10.962  42.458  -8.580  1.00  0.00     0.011 C 
ENDBRANCH   1  21
BRANCH   7  23
HETATM   23  N5  UNL     1      14.521  38.240  -9.140  1.00  0.00    -0.374 N 
ATOM     24  H5  UNL     1      15.456  38.633  -9.247  1.00  0.00     0.161 HD
BRANCH  23  25
HETATM   25  C12 UNL     1      14.239  37.043  -9.888  1.00  0.00     0.141 C 
BRANCH  25  26
HETATM   26  C13 UNL     1      13.217  37.396 -10.946  1.00  0.00     0.145 C 
BRANCH  26  27
HETATM   27  N6  UNL     1      13.668  37.148 -12.274  1.00  0.00    -0.353 N 
HETATM   28  C14 UNL     1      14.164  38.082 -13.268  1.00  0.00     0.145 C 
HETATM   29  C15 UNL     1      14.778  37.225 -14.332  1.00  0.00     0.142 C 
HETATM   30  N7  UNL     1      14.324  35.907 -14.020  1.00  0.00    -0.363 N 
HETATM   31  C16 UNL     1      13.716  35.871 -12.890  1.00  0.00     0.186 C 
ATOM     32  H7  UNL     1      14.466  35.095 -14.621  1.00  0.00     0.162 HD
HETATM   33  N8  UNL     1      13.173  34.655 -12.367  1.00  0.00    -0.064 NA
ENDBRANCH  26  27
ENDBRANCH  25  26
ENDBRANCH  23  25
ENDBRANCH   7  23
BRANCH   8  34
HETATM   34  C18 UNL     1      14.043  41.009  -9.616  1.00  0.00     0.024 C 
HETATM   35  C19 UNL     1      13.739  41.110 -10.868  1.00  0.00     0.085 C 
BRANCH  35  36
HETATM   36  C20 UNL     1      14.487  42.034 -11.757  1.00  0.00     0.198 C 
HETATM   37  O1  UNL     1      15.259  41.555 -12.603  1.00  0.00    -0.645 OA
HETATM   38  O2  UNL     1      14.330  43.385 -11.645  1.00  0.00    -0.645 OA
ENDBRANCH  35  36
ENDBRANCH   8  34
TORSDOF 15
ENDMDL
MODEL 2
REMARK VINA RESULT: -7.289176397      1.177      1.430
REMARK  15 active torsions:
REMARK  status: ('A' for Active; 'I' for Inactive)
REMARK    1  A    between atoms: C2_2  and  C3_3 
REMARK    2  A    between atoms: C4_6  and  N2_7 
REMARK    3  A    between atoms: N2_7  and  C5_9 
REMARK    4  A    between atoms: C5_9  and  C6_10 
REMARK    5  A    between atoms: C6_10  and  C7_11 
REMARK    6  A    between atoms: C7_11  and  C8_12 
REMARK    7  A    between atoms: C8_12  and  C9_13 
REMARK    8  A    between atoms: C9_13  and  C10_14 
REMARK    9  A    between atoms: C10_14  and  N3_15 
REMARK   10  A    between atoms: C11_21  and  N5_22 
REMARK   11  A    between atoms: N5_22  and  C12_24 
REMARK   12  A    between atoms: C12_24  and  C13_25 
REMARK   13  A    between atoms: C13_25  and  N6_26 
REMARK   14  A    between atoms: C17_33  and  C18_34 
REMARK   15  A    between atoms: C19_35  and  C20_36 
ROOT
HETATM    1  C3  UNL     1      12.790  40.815  -7.696  1.00  0.00     0.040 A 
HETATM    2  N1  UNL     1      12.268  40.070  -6.730  1.00  0.00    -0.195 N 
ATOM      3  H1  UNL     1      11.667  40.530  -6.046  1.00  0.00     0.184 HD
HETATM    4  C4  UNL     1      12.478  38.758  -6.591  1.00  0.00     0.679 A 
HETATM    5  N4  UNL     1      13.256  38.135  -7.467  1.00  0.00    -0.176 N 
ATOM      6  H4  UNL     1      13.430  37.133  -7.380  1.00  0.00     0.186 HD
HETATM    7  C11 UNL     1      13.823  38.847  -8.485  1.00  0.00     0.129 A 
HETATM    8  C17 UNL     1      13.628  40.200  -8.656  1.00  0.00     0.032 A 
ENDROOT
BRANCH   4   9
HETATM    9  N2  UNL     1      11.912  38.153  -5.608  1.00  0.00    -0.226 N 
ATOM     10  H2  UNL     1      12.357  37.354  -5.157  1.00  0.00     0.177 HD
BRANCH   9  11
HETATM   11  C5  UNL     1      10.622  38.642  -5.162  1.00  0.00     0.138 C 
BRANCH  11  12
HETATM   12  C6  UNL     1      10.609  38.878  -3.670  1.00  0.00     0.020 C 
BRANCH  12  13
HETATM   13  C7  UNL     1       9.605  37.940  -3.022  1.00  0.00     0.002 C 
BRANCH  13  14
HETATM   14  C8  UNL     1       9.933  37.704  -1.572  1.00  0.00     0.002 C 
BRANCH  14  15
HETATM   15  C9  UNL     1      10.739  38.861  -1.059  1.00  0.00     0.027 C 
BRANCH  15  16
HETATM   16  C10 UNL     1       9.927  39.833  -0.254  1.00  0.00     0.229 C 
BRANCH  16  17
HETATM   17  N3  UNL     1      10.116  41.160  -0.857  1.00  0.00    -0.079 N 
ATOM     18  H33 UNL     1      10.270  41.123  -1.865  1.00  0.00     0.274 HD
ATOM     19  H32 UNL     1       9.263  41.717  -0.876  1.00  0.00     0.274 HD
ATOM     20  H31 UNL     1      10.878  41.613  -0.353  1.00  0.00     0.274 HD
ENDBRANCH  16  17
ENDBRANCH  15  16
ENDBRANCH  14  15
ENDBRANCH  13  14
ENDBRANCH  12  13
ENDBRANCH  11  12
ENDBRANCH   9  11
ENDBRANCH   4   9
BRANCH   1  21
HETATM   21  C2  UNL     1      12.511  42.282  -7.810  1.00  0.00     0.054 C 
HETATM   22  C1  UNL     1      11.114  42.570  -8.295  1.00  0.00     0.011 C 
ENDBRANCH   1  21
BRANCH   7  23
HETATM   23  N5  UNL     1      14.566  38.211  -9.306  1.00  0.00    -0.374 N 
ATOM     24  H5  UNL     1      15.540  38.508  -9.362  1.00  0.00     0.161 HD
BRANCH  23  25
HETATM   25  C12 UNL     1      14.177  37.120 -10.159  1.00  0.00     0.141 C 
BRANCH  25  26
HETATM   26  C13 UNL     1      13.339  37.693 -11.281  1.00  0.00     0.145 C 
BRANCH  26  27
HETATM   27  N6  UNL     1      13.760  37.272 -12.574  1.00  0.00    -0.353 N 
HETATM   28  C14 UNL     1      14.295  38.058 -13.670  1.00  0.00     0.145 C 
HETATM   29  C15 UNL     1      14.848  37.052 -14.634  1.00  0.00     0.142 C 
HETATM   30  N7  UNL     1      14.324  35.806 -14.173  1.00  0.00    -0.363 N 
HETATM   31  C16 UNL     1      13.728  35.933 -13.043  1.00  0.00     0.186 C 
ATOM     32  H7  UNL     1      14.413  34.925 -14.678  1.00  0.00     0.162 HD
HETATM   33  N8  UNL     1      13.124  34.816 -12.382  1.00  0.00    -0.064 NA
ENDBRANCH  26  27
ENDBRANCH  25  26
ENDBRANCH  23  25
ENDBRANCH   7  23
BRANCH   8  34
HETATM   34  C18 UNL     1      14.205  41.011  -9.696  1.00  0.00     0.024 C 
HETATM   35  C19 UNL     1      15.368  41.569  -9.788  1.00  0.00     0.085 C 
BRANCH  35  36
HETATM   36  C20 UNL     1      15.731  42.369 -10.985  1.00  0.00     0.198 C 
HETATM   37  O1  UNL     1      15.832  43.601 -10.871  1.00  0.00    -0.645 OA
HETATM   38  O2  UNL     1      15.949  41.761 -12.187  1.00  0.00    -0.645 OA
ENDBRANCH  35  36
ENDBRANCH   8  34
TORSDOF 15
ENDMDL
MODEL 3
REMARK VINA RESULT: -7.106777809      3.625      6.791
REMARK  15 active torsions:
REMARK  status: ('A' for Active; 'I' for Inactive)
REMARK    1  A    between atoms: C2_2  and  C3_3 
REMARK    2  A    between atoms: C4_6  and  N2_7 
REMARK    3  A    between atoms: N2_7  and  C5_9 
REMARK    4  A    between atoms: C5_9  and  C6_10 
REMARK    5  A    between atoms: C6_10  and  C7_11 
REMARK    6  A    between atoms: C7_11  and  C8_12 
REMARK    7  A    between atoms: C8_12  and  C9_13 
REMARK    8  A    between atoms: C9_13  and  C10_14 
REMARK    9  A    between atoms: C10_14  and  N3_15 
REMARK   10  A    between atoms: C11_21  and  N5_22 
REMARK   11  A    between atoms: N5_22  and  C12_24 
REMARK   12  A    between atoms: C12_24  and  C13_25 
REMARK   13  A    between atoms: C13_25  and  N6_26 
REMARK   14  A    between atoms: C17_33  and  C18_34 
REMARK   15  A    between atoms: C19_35  and  C20_36 
ROOT
HETATM    1  C3  UNL     1      13.350  41.498  -9.777  1.00  0.00     0.040 A 
HETATM    2  N1  UNL     1      14.240  41.914 -10.667  1.00  0.00    -0.195 N 
ATOM      3  H1  UNL     1      14.139  42.860 -11.035  1.00  0.00     0.184 HD
HETATM    4  C4  UNL     1      15.262  41.178 -11.115  1.00  0.00     0.679 A 
HETATM    5  N4  UNL     1      15.417  39.944 -10.652  1.00  0.00    -0.176 N 
ATOM      6  H4  UNL     1      16.190  39.364 -10.980  1.00  0.00     0.186 HD
HETATM    7  C11 UNL     1      14.531  39.457  -9.734  1.00  0.00     0.129 A 
HETATM    8  C17 UNL     1      13.468  40.188  -9.252  1.00  0.00     0.032 A 
ENDROOT
BRANCH   4   9
HETATM    9  N2  UNL     1      16.054  41.702 -11.980  1.00  0.00    -0.226 N 
ATOM     10  H2  UNL     1      16.187  41.276 -12.897  1.00  0.00     0.177 HD
BRANCH   9  11
HETATM   11  C5  UNL     1      16.754  42.917 -11.612  1.00  0.00     0.138 C 
BRANCH  11  12
HETATM   12  C6  UNL     1      17.851  42.640 -10.610  1.00  0.00     0.020 C 
BRANCH  12  13
HETATM   13  C7  UNL     1      17.931  43.790  -9.621  1.00  0.00     0.002 C 
BRANCH  13  14
HETATM   14  C8  UNL     1      16.738  43.808  -8.704  1.00  0.00     0.002 C 
BRANCH  14  15
HETATM   15  C9  UNL     1      16.764  45.071  -7.893  1.00  0.00     0.027 C 
BRANCH  15  16
HETATM   16  C10 UNL     1      18.126  45.699  -7.826  1.00  0.00     0.229 C 
BRANCH  16  17
HETATM   17  N3  UNL     1      18.326  46.150  -6.441  1.00  0.00    -0.079 N 
ATOM     18  H33 UNL     1      17.976  47.093  -6.273  1.00  0.00     0.274 HD
ATOM     19  H32 UNL     1      17.727  45.667  -5.772  1.00  0.00     0.274 HD
ATOM     20  H31 UNL     1      19.320  46.049  -6.233  1.00  0.00     0.274 HD
ENDBRANCH  16  17
ENDBRANCH  15  16
ENDBRANCH  14  15
ENDBRANCH  13  14
ENDBRANCH  12  13
ENDBRANCH  11  12
ENDBRANCH   9  11
ENDBRANCH   4   9
BRANCH   1  21
HETATM   21  C2  UNL     1      12.230  42.371  -9.302  1.00  0.00     0.054 C 
HETATM   22  C1  UNL     1      11.542  43.096 -10.429  1.00  0.00     0.011 C 
ENDBRANCH   1  21
BRANCH   7  23
HETATM   23  N5  UNL     1      14.715  38.265  -9.314  1.00  0.00    -0.374 N 
ATOM     24  H5  UNL     1      15.079  38.167  -8.366  1.00  0.00     0.161 HD
BRANCH  23  25
HETATM   25  C12 UNL     1      14.462  37.045 -10.034  1.00  0.00     0.141 C 
BRANCH  25  26
HETATM   26  C13 UNL     1      13.331  37.311 -11.002  1.00  0.00     0.145 C 
BRANCH  26  27
HETATM   27  N6  UNL     1      13.674  37.053 -12.360  1.00  0.00    -0.353 N 
HETATM   28  C14 UNL     1      14.084  37.979 -13.398  1.00  0.00     0.145 C 
HETATM   29  C15 UNL     1      14.613  37.114 -14.501  1.00  0.00     0.142 C 
HETATM   30  N7  UNL     1      14.190  35.799 -14.143  1.00  0.00    -0.363 N 
HETATM   31  C16 UNL     1      13.675  35.771 -12.967  1.00  0.00     0.186 C 
ATOM     32  H7  UNL     1      14.286  34.982 -14.746  1.00  0.00     0.162 HD
HETATM   33  N8  UNL     1      13.180  34.558 -12.391  1.00  0.00    -0.064 NA
ENDBRANCH  26  27
ENDBRANCH  25  26
ENDBRANCH  23  25
ENDBRANCH   7  23
BRANCH   8  34
HETATM   34  C18 UNL     1      12.493  39.732  -8.297  1.00  0.00     0.024 C 
HETATM   35  C19 UNL     1      12.558  39.610  -7.012  1.00  0.00     0.085 C 
BRANCH  35  36
HETATM   36  C20 UNL     1      11.395  39.108  -6.238  1.00  0.00     0.198 C 
HETATM   37  O1  UNL     1      11.284  37.885  -6.053  1.00  0.00    -0.645 OA
HETATM   38  O2  UNL     1      10.466  39.974  -5.740  1.00  0.00    -0.645 OA
ENDBRANCH  35  36
ENDBRANCH   8  34
TORSDOF 15
ENDMDL
MODEL 4
REMARK VINA RESULT: -7.035342424      2.266      8.785
REMARK  15 active torsions:
REMARK  status: ('A' for Active; 'I' for Inactive)
REMARK    1  A    between atoms: C2_2  and  C3_3 
REMARK    2  A    between atoms: C4_6  and  N2_7 
REMARK    3  A    between atoms: N2_7  and  C5_9 
REMARK    4  A    between atoms: C5_9  and  C6_10 
REMARK    5  A    between atoms: C6_10  and  C7_11 
REMARK    6  A    between atoms: C7_11  and  C8_12 
REMARK    7  A    between atoms: C8_12  and  C9_13 
REMARK    8  A    between atoms: C9_13  and  C10_14 
REMARK    9  A    between atoms: C10_14  and  N3_15 
REMARK   10  A    between atoms: C11_21  and  N5_22 
REMARK   11  A    between atoms: N5_22  and  C12_24 
REMARK   12  A    between atoms: C12_24  and  C13_25 
REMARK   13  A    between atoms: C13_25  and  N6_26 
REMARK   14  A    between atoms: C17_33  and  C18_34 
REMARK   15  A    between atoms: C19_35  and  C20_36 
ROOT
HETATM    1  C3  UNL     1      14.243  40.135  -9.905  1.00  0.00     0.040 A 
HETATM    2  N1  UNL     1      14.779  38.966 -10.228  1.00  0.00    -0.195 N 
ATOM      3  H1  UNL     1      15.577  38.967 -10.862  1.00  0.00     0.184 HD
HETATM    4  C4  UNL     1      14.343  37.786  -9.778  1.00  0.00     0.679 A 
HETATM    5  N4  UNL     1      13.305  37.755  -8.951  1.00  0.00    -0.176 N 
ATOM      6  H4  UNL     1      12.955  36.865  -8.596  1.00  0.00     0.186 HD
HETATM    7  C11 UNL     1      12.710  38.927  -8.582  1.00  0.00     0.129 A 
HETATM    8  C17 UNL     1      13.133  40.160  -9.026  1.00  0.00     0.032 A 
ENDROOT
BRANCH   4   9
HETATM    9  N2  UNL     1      14.951  36.724 -10.170  1.00  0.00    -0.226 N 
ATOM     10  H2  UNL     1      15.291  36.035  -9.499  1.00  0.00     0.177 HD
BRANCH   9  11
HETATM   11  C5  UNL     1      15.141  36.537 -11.596  1.00  0.00     0.138 C 
BRANCH  11  12
HETATM   12  C6  UNL     1      14.126  35.574 -12.165  1.00  0.00     0.020 C 
BRANCH  12  13
HETATM   13  C7  UNL     1      13.392  36.240 -13.317  1.00  0.00     0.002 C 
BRANCH  13  14
HETATM   14  C8  UNL     1      14.257  36.317 -14.546  1.00  0.00     0.002 C 
BRANCH  14  15
HETATM   15  C9  UNL     1      13.459  35.870 -15.735  1.00  0.00     0.027 C 
BRANCH  15  16
HETATM   16  C10 UNL     1      14.298  35.215 -16.794  1.00  0.00     0.229 C 
BRANCH  16  17
HETATM   17  N3  UNL     1      13.818  33.832 -16.932  1.00  0.00    -0.079 N 
ATOM     18  H33 UNL     1      14.572  33.161 -17.079  1.00  0.00     0.274 HD
ATOM     19  H32 UNL     1      13.465  33.442 -16.059  1.00  0.00     0.274 HD
ATOM     20  H31 UNL     1      13.126  33.828 -17.681  1.00  0.00     0.274 HD
ENDBRANCH  16  17
ENDBRANCH  15  16
ENDBRANCH  14  15
ENDBRANCH  13  14
ENDBRANCH  12  13
ENDBRANCH  11  12
ENDBRANCH   9  11
ENDBRANCH   4   9
BRANCH   1  21
HETATM   21  C2  UNL     1      14.782  41.431 -10.430  1.00  0.00     0.054 C 
HETATM   22  C1  UNL     1      16.129  41.775  -9.851  1.00  0.00     0.011 C 
ENDBRANCH   1  21
BRANCH   7  23
HETATM   23  N5  UNL     1      11.714  38.856  -7.785  1.00  0.00    -0.374 N 
ATOM     24  H5  UNL     1      10.788  38.927  -8.207  1.00  0.00     0.161 HD
BRANCH  23  25
HETATM   25  C12 UNL     1      11.758  38.685  -6.357  1.00  0.00     0.141 C 
BRANCH  25  26
HETATM   26  C13 UNL     1      11.115  39.901  -5.731  1.00  0.00     0.145 C 
BRANCH  26  27
HETATM   27  N6  UNL     1      10.217  39.586  -4.671  1.00  0.00    -0.353 N 
HETATM   28  C14 UNL     1      10.119  38.375  -3.877  1.00  0.00     0.145 C 
HETATM   29  C15 UNL     1       9.229  38.737  -2.728  1.00  0.00     0.142 C 
HETATM   30  N7  UNL     1       8.661  39.990  -3.111  1.00  0.00    -0.363 N 
HETATM   31  C16 UNL     1       9.206  40.450  -4.178  1.00  0.00     0.186 C 
ATOM     32  H7  UNL     1       7.914  40.460  -2.600  1.00  0.00     0.162 HD
HETATM   33  N8  UNL     1       8.801  41.697  -4.753  1.00  0.00    -0.064 NA
ENDBRANCH  26  27
ENDBRANCH  25  26
ENDBRANCH  23  25
ENDBRANCH   7  23
BRANCH   8  34
HETATM   34  C18 UNL     1      12.544  41.428  -8.687  1.00  0.00     0.024 C 
HETATM   35  C19 UNL     1      11.457  41.995  -9.099  1.00  0.00     0.085 C 
BRANCH  35  36
HETATM   36  C20 UNL     1      11.058  43.331  -8.589  1.00  0.00     0.198 C 
HETATM   37  O1  UNL     1      10.932  44.265  -9.396  1.00  0.00    -0.645 OA
HETATM   38  O2  UNL     1      10.836  43.526  -7.257  1.00  0.00    -0.645 OA
ENDBRANCH  35  36
ENDBRANCH   8  34
TORSDOF 15
ENDMDL
MODEL 5
REMARK VINA RESULT: -7.012601634      1.264      1.996
REMARK  15 active torsions:
REMARK  status: ('A' for Active; 'I' for Inactive)
REMARK    1  A    between atoms: C2_2  and  C3_3 
REMARK    2  A    between atoms: C4_6  and  N2_7 
REMARK    3  A    between atoms: N2_7  and  C5_9 
REMARK    4  A    between atoms: C5_9  and  C6_10 
REMARK    5  A    between atoms: C6_10  and  C7_11 
REMARK    6  A    between atoms: C7_11  and  C8_12 
REMARK    7  A    between atoms: C8_12  and  C9_13 
REMARK    8  A    between atoms: C9_13  and  C10_14 
REMARK    9  A    between atoms: C10_14  and  N3_15 
REMARK   10  A    between atoms: C11_21  and  N5_22 
REMARK   11  A    between atoms: N5_22  and  C12_24 
REMARK   12  A    between atoms: C12_24  and  C13_25 
REMARK   13  A    between atoms: C13_25  and  N6_26 
REMARK   14  A    between atoms: C17_33  and  C18_34 
REMARK   15  A    between atoms: C19_35  and  C20_36 
ROOT
HETATM    1  C3  UNL     1      12.707  40.832  -7.678  1.00  0.00     0.040 A 
HETATM    2  N1  UNL     1      12.191  40.095  -6.702  1.00  0.00    -0.195 N 
ATOM      3  H1  UNL     1      11.571  40.554  -6.036  1.00  0.00     0.184 HD
HETATM    4  C4  UNL     1      12.429  38.791  -6.535  1.00  0.00     0.679 A 
HETATM    5  N4  UNL     1      13.233  38.168  -7.387  1.00  0.00    -0.176 N 
ATOM      6  H4  UNL     1      13.429  37.173  -7.278  1.00  0.00     0.186 HD
HETATM    7  C11 UNL     1      13.796  38.873  -8.413  1.00  0.00     0.129 A 
HETATM    8  C17 UNL     1      13.572  40.217  -8.615  1.00  0.00     0.032 A 
ENDROOT
BRANCH   4   9
HETATM    9  N2  UNL     1      11.866  38.193  -5.546  1.00  0.00    -0.226 N 
ATOM     10  H2  UNL     1      12.317  37.404  -5.083  1.00  0.00     0.177 HD
BRANCH   9  11
HETATM   11  C5  UNL     1      10.570  38.676  -5.110  1.00  0.00     0.138 C 
BRANCH  11  12
HETATM   12  C6  UNL     1      10.415  38.563  -3.612  1.00  0.00     0.020 C 
BRANCH  12  13
HETATM   13  C7  UNL     1       9.012  38.990  -3.218  1.00  0.00     0.002 C 
BRANCH  13  14
HETATM   14  C8  UNL     1       8.943  40.471  -2.956  1.00  0.00     0.002 C 
BRANCH  14  15
HETATM   15  C9  UNL     1       7.780  41.046  -3.710  1.00  0.00     0.027 C 
BRANCH  15  16
HETATM   16  C10 UNL     1       8.117  42.321  -4.427  1.00  0.00     0.229 C 
BRANCH  16  17
HETATM   17  N3  UNL     1       9.411  42.113  -5.094  1.00  0.00    -0.079 N 
ATOM     18  H33 UNL     1       9.704  42.911  -5.657  1.00  0.00     0.274 HD
ATOM     19  H32 UNL     1      10.199  42.114  -4.447  1.00  0.00     0.274 HD
ATOM     20  H31 UNL     1       9.337  41.249  -5.631  1.00  0.00     0.274 HD
ENDBRANCH  16  17
ENDBRANCH  15  16
ENDBRANCH  14  15
ENDBRANCH  13  14
ENDBRANCH  12  13
ENDBRANCH  11  12
ENDBRANCH   9  11
ENDBRANCH   4   9
BRANCH   1  21
HETATM   21  C2  UNL     1      12.396  42.289  -7.825  1.00  0.00     0.054 C 
HETATM   22  C1  UNL     1      11.031  42.533  -8.415  1.00  0.00     0.011 C 
ENDBRANCH   1  21
BRANCH   7  23
HETATM   23  N5  UNL     1      14.564  38.238  -9.211  1.00  0.00    -0.374 N 
ATOM     24  H5  UNL     1      15.510  38.602  -9.319  1.00  0.00     0.161 HD
BRANCH  23  25
HETATM   25  C12 UNL     1      14.237  37.063  -9.976  1.00  0.00     0.141 C 
BRANCH  25  26
HETATM   26  C13 UNL     1      13.250  37.474 -11.046  1.00  0.00     0.145 C 
BRANCH  26  27
HETATM   27  N6  UNL     1      13.693  37.180 -12.367  1.00  0.00    -0.353 N 
HETATM   28  C14 UNL     1      14.183  38.079 -13.395  1.00  0.00     0.145 C 
HETATM   29  C15 UNL     1      14.790  37.186 -14.433  1.00  0.00     0.142 C 
HETATM   30  N7  UNL     1      14.336  35.880 -14.075  1.00  0.00    -0.363 N 
HETATM   31  C16 UNL     1      13.735  35.883 -12.941  1.00  0.00     0.186 C 
ATOM     32  H7  UNL     1      14.473  35.048 -14.648  1.00  0.00     0.162 HD
HETATM   33  N8  UNL     1      13.193  34.686 -12.372  1.00  0.00    -0.064 NA
ENDBRANCH  26  27
ENDBRANCH  25  26
ENDBRANCH  23  25
ENDBRANCH   7  23
BRANCH   8  34
HETATM   34  C18 UNL     1      14.143  41.020  -9.664  1.00  0.00     0.024 C 
HETATM   35  C19 UNL     1      13.774  41.199 -10.890  1.00  0.00     0.085 C 
BRANCH  35  36
HETATM   36  C20 UNL     1      14.544  42.094 -11.790  1.00  0.00     0.198 C 
HETATM   37  O1  UNL     1      15.713  42.383 -11.488  1.00  0.00    -0.645 OA
HETATM   38  O2  UNL     1      13.976  42.590 -12.928  1.00  0.00    -0.645 OA
ENDBRANCH  35  36
ENDBRANCH   8  34
TORSDOF 15
ENDMDL
