MODEL 1
REMARK VINA RESULT: -7.881480153      0.000      0.000
REMARK  14 active torsions:
REMARK  status: ('A' for Active; 'I' for Inactive)
REMARK    1  A    between atoms: C1_2  and  C2_4 
REMARK    2  A    between atoms: C2_4  and  C3_5 
REMARK    3  A    between atoms: C3_5  and  C4_6 
REMARK    4  A    between atoms: C4_6  and  N1_7 
REMARK    5  A    between atoms: C4_6  and  C17_29 
REMARK       I    between atoms: N1_7  and  C5_9 
REMARK    6  A    between atoms: C5_9  and  C6_11 
REMARK    7  A    between atoms: C6_11  and  C7_12 
REMARK    8  A    between atoms: C6_11  and  N2_14 
REMARK    9  A    between atoms: N2_14  and  C8_16 
REMARK   10  A    between atoms: C8_16  and  O4_17 
REMARK   11  A    between atoms: C8_16  and  C9_19 
REMARK   12  A    between atoms: C9_19  and  C10_20 
REMARK   13  A    between atoms: C10_20  and  S2_21 
REMARK   14  A    between atoms: S2_21  and  C11_23 
ROOT
HETATM    1  C6  UNL     1      12.074 -39.621   6.706  1.00  0.00     0.085 C 
ENDROOT
BRANCH   1   2
HETATM    2  C5  UNL     1      11.132 -39.164   5.710  1.00  0.00     0.265 C 
HETATM    3  N1  UNL     1      11.154 -39.541   4.351  1.00  0.00    -0.341 N 
ATOM      4  H1  UNL     1      11.867 -40.215   4.068  1.00  0.00     0.163 HD
HETATM    5  O3  UNL     1      10.181 -38.356   6.023  1.00  0.00    -0.266 OA
BRANCH   3   6
HETATM    6  C4  UNL     1      10.261 -39.061   3.324  1.00  0.00     0.186 C 
BRANCH   6   7
HETATM    7  C3  UNL     1      10.908 -39.082   1.981  1.00  0.00     0.046 C 
BRANCH   7   8
HETATM    8  C2  UNL     1      10.160 -38.367   0.901  1.00  0.00     0.116 C 
BRANCH   8   9
HETATM    9  C1  UNL     1       9.620 -37.056   1.233  1.00  0.00     0.172 C 
HETATM   10  O1  UNL     1      10.296 -36.009   1.339  1.00  0.00    -0.648 OA
HETATM   11  O2  UNL     1       8.251 -36.933   1.455  1.00  0.00    -0.648 OA
ENDBRANCH   8   9
ENDBRANCH   7   8
ENDBRANCH   6   7
BRANCH   6  12
HETATM   12  C17 UNL     1       9.011 -39.943   3.227  1.00  0.00     0.196 C 
HETATM   13  O6  UNL     1       8.988 -41.077   2.755  1.00  0.00    -0.646 OA
HETATM   14  O7  UNL     1       7.835 -39.375   3.722  1.00  0.00    -0.646 OA
ENDBRANCH   6  12
ENDBRANCH   3   6
ENDBRANCH   1   2
BRANCH   1  15
HETATM   15  C7  UNL     1      12.268 -41.112   6.719  1.00  0.00     0.148 C 
HETATM   16  S1  UNL     1      11.407 -41.834   8.134  1.00  0.00    -0.091 SA
ENDBRANCH   1  15
BRANCH   1  17
HETATM   17  N2  UNL     1      12.022 -39.022   7.980  1.00  0.00    -0.362 N 
ATOM     18  H2  UNL     1      11.189 -39.108   8.562  1.00  0.00     0.162 HD
BRANCH  17  19
HETATM   19  C8  UNL     1      13.150 -38.297   8.438  1.00  0.00     0.218 C 
BRANCH  19  20
HETATM   20  O4  UNL     1      13.652 -37.573   7.366  1.00  0.00    -0.377 OA
ATOM     21  H4  UNL     1      13.032 -36.880   7.169  1.00  0.00     0.212 HD
ENDBRANCH  19  20
BRANCH  19  22
HETATM   22  C9  UNL     1      14.215 -39.084   9.155  1.00  0.00     0.066 C 
BRANCH  22  23
HETATM   23  C10 UNL     1      13.650 -39.866  10.339  1.00  0.00     0.113 C 
BRANCH  23  24
HETATM   24  S2  UNL     1      14.394 -39.574  11.848  1.00  0.00     0.019 S 
HETATM   25  O5  UNL     1      15.640 -40.428  12.386  1.00  0.00    -0.258 OA
BRANCH  24  26
HETATM   26  C11 UNL     1      13.855 -38.204  12.751  1.00  0.00     0.079 C 
HETATM   27  C12 UNL     1      14.238 -36.874  12.082  1.00  0.00     0.017 C 
HETATM   28  C13 UNL     1      13.334 -35.818  12.668  1.00  0.00     0.001 C 
HETATM   29  C14 UNL     1      13.393 -35.949  14.188  1.00  0.00     0.000 C 
HETATM   30  C15 UNL     1      14.586 -36.759  14.603  1.00  0.00     0.001 C 
HETATM   31  C16 UNL     1      14.535 -38.175  14.128  1.00  0.00     0.017 C 
ENDBRANCH  24  26
ENDBRANCH  23  24
ENDBRANCH  22  23
ENDBRANCH  19  22
ENDBRANCH  17  19
ENDBRANCH   1  17
TORSDOF 14
ENDMDL
MODEL 2
REMARK VINA RESULT: -7.796165718      3.674      4.796
REMARK  14 active torsions:
REMARK  status: ('A' for Active; 'I' for Inactive)
REMARK    1  A    between atoms: C1_2  and  C2_4 
REMARK    2  A    between atoms: C2_4  and  C3_5 
REMARK    3  A    between atoms: C3_5  and  C4_6 
REMARK    4  A    between atoms: C4_6  and  N1_7 
REMARK    5  A    between atoms: C4_6  and  C17_29 
REMARK       I    between atoms: N1_7  and  C5_9 
REMARK    6  A    between atoms: C5_9  and  C6_11 
REMARK    7  A    between atoms: C6_11  and  C7_12 
REMARK    8  A    between atoms: C6_11  and  N2_14 
REMARK    9  A    between atoms: N2_14  and  C8_16 
REMARK   10  A    between atoms: C8_16  and  O4_17 
REMARK   11  A    between atoms: C8_16  and  C9_19 
REMARK   12  A    between atoms: C9_19  and  C10_20 
REMARK   13  A    between atoms: C10_20  and  S2_21 
REMARK   14  A    between atoms: S2_21  and  C11_23 
ROOT
HETATM    1  C6  UNL     1      11.889 -39.383   6.616  1.00  0.00     0.085 C 
ENDROOT
BRANCH   1   2
HETATM    2  C5  UNL     1      10.959 -39.009   5.574  1.00  0.00     0.265 C 
HETATM    3  N1  UNL     1      11.041 -39.439   4.234  1.00  0.00    -0.341 N 
ATOM      4  H1  UNL     1      11.790 -40.092   4.000  1.00  0.00     0.163 HD
HETATM    5  O3  UNL     1       9.966 -38.231   5.826  1.00  0.00    -0.266 OA
BRANCH   3   6
HETATM    6  C4  UNL     1      10.160 -39.040   3.162  1.00  0.00     0.186 C 
BRANCH   6   7
HETATM    7  C3  UNL     1      10.806 -39.214   1.829  1.00  0.00     0.046 C 
BRANCH   7   8
HETATM    8  C2  UNL     1      10.237 -38.374   0.730  1.00  0.00     0.116 C 
BRANCH   8   9
HETATM    9  C1  UNL     1       9.638 -37.104   1.116  1.00  0.00     0.172 C 
HETATM   10  O1  UNL     1      10.275 -36.050   1.335  1.00  0.00    -0.648 OA
HETATM   11  O2  UNL     1       8.254 -37.032   1.259  1.00  0.00    -0.648 OA
ENDBRANCH   8   9
ENDBRANCH   7   8
ENDBRANCH   6   7
BRANCH   6  12
HETATM   12  C17 UNL     1       8.887 -39.893   3.151  1.00  0.00     0.196 C 
HETATM   13  O6  UNL     1       7.813 -39.557   3.646  1.00  0.00    -0.646 OA
HETATM   14  O7  UNL     1       9.001 -41.135   2.524  1.00  0.00    -0.646 OA
ENDBRANCH   6  12
ENDBRANCH   3   6
ENDBRANCH   1   2
BRANCH   1  15
HETATM   15  C7  UNL     1      12.809 -38.271   7.036  1.00  0.00     0.148 C 
HETATM   16  S1  UNL     1      13.368 -38.540   8.733  1.00  0.00    -0.091 SA
ENDBRANCH   1  15
BRANCH   1  17
HETATM   17  N2  UNL     1      12.499 -40.651   6.526  1.00  0.00    -0.362 N 
ATOM     18  H2  UNL     1      13.424 -40.754   6.108  1.00  0.00     0.162 HD
BRANCH  17  19
HETATM   19  C8  UNL     1      11.802 -41.778   7.026  1.00  0.00     0.218 C 
BRANCH  19  20
HETATM   20  O4  UNL     1      10.730 -42.023   6.180  1.00  0.00    -0.377 OA
ATOM     21  H4  UNL     1      10.322 -42.835   6.456  1.00  0.00     0.212 HD
ENDBRANCH  19  20
BRANCH  19  22
HETATM   22  C9  UNL     1      11.399 -41.736   8.476  1.00  0.00     0.066 C 
BRANCH  22  23
HETATM   23  C10 UNL     1      11.657 -43.065   9.182  1.00  0.00     0.113 C 
BRANCH  23  24
HETATM   24  S2  UNL     1      12.794 -44.096   8.435  1.00  0.00     0.019 S 
HETATM   25  O5  UNL     1      12.422 -45.062   7.210  1.00  0.00    -0.258 OA
BRANCH  24  26
HETATM   26  C11 UNL     1      14.439 -43.974   8.945  1.00  0.00     0.079 C 
HETATM   27  C12 UNL     1      14.989 -42.545   8.811  1.00  0.00     0.017 C 
HETATM   28  C13 UNL     1      16.203 -42.462   9.702  1.00  0.00     0.001 C 
HETATM   29  C14 UNL     1      17.099 -43.655   9.375  1.00  0.00     0.000 C 
HETATM   30  C15 UNL     1      16.715 -44.258   8.056  1.00  0.00     0.001 C 
HETATM   31  C16 UNL     1      15.338 -44.838   8.048  1.00  0.00     0.017 C 
ENDBRANCH  24  26
ENDBRANCH  23  24
ENDBRANCH  22  23
ENDBRANCH  19  22
ENDBRANCH  17  19
ENDBRANCH   1  17
TORSDOF 14
ENDMDL
MODEL 3
REMARK VINA RESULT: -7.788945279      1.741      2.341
REMARK  14 active torsions:
REMARK  status: ('A' for Active; 'I' for Inactive)
REMARK    1  A    between atoms: C1_2  and  C2_4 
REMARK    2  A    between atoms: C2_4  and  C3_5 
REMARK    3  A    between atoms: C3_5  and  C4_6 
REMARK    4  A    between atoms: C4_6  and  N1_7 
REMARK    5  A    between atoms: C4_6  and  C17_29 
REMARK       I    between atoms: N1_7  and  C5_9 
REMARK    6  A    between atoms: C5_9  and  C6_11 
REMARK    7  A    between atoms: C6_11  and  C7_12 
REMARK    8  A    between atoms: C6_11  and  N2_14 
REMARK    9  A    between atoms: N2_14  and  C8_16 
REMARK   10  A    between atoms: C8_16  and  O4_17 
REMARK   11  A    between atoms: C8_16  and  C9_19 
REMARK   12  A    between atoms: C9_19  and  C10_20 
REMARK   13  A    between atoms: C10_20  and  S2_21 
REMARK   14  A    between atoms: S2_21  and  C11_23 
ROOT
HETATM    1  C6  UNL     1      12.524 -39.497   7.085  1.00  0.00     0.085 C 
ENDROOT
BRANCH   1   2
HETATM    2  C5  UNL     1      11.798 -38.798   6.048  1.00  0.00     0.265 C 
HETATM    3  N1  UNL     1      11.214 -39.415   4.923  1.00  0.00    -0.341 N 
ATOM      4  H1  UNL     1      11.279 -40.432   4.865  1.00  0.00     0.163 HD
HETATM    5  O3  UNL     1      11.640 -37.523   6.100  1.00  0.00    -0.266 OA
BRANCH   3   6
HETATM    6  C4  UNL     1      10.531 -38.739   3.846  1.00  0.00     0.186 C 
BRANCH   6   7
HETATM    7  C3  UNL     1      10.687 -39.468   2.555  1.00  0.00     0.046 C 
BRANCH   7   8
HETATM    8  C2  UNL     1      11.119 -38.627   1.395  1.00  0.00     0.116 C 
BRANCH   8   9
HETATM    9  C1  UNL     1      10.135 -37.703   0.851  1.00  0.00     0.172 C 
HETATM   10  O1  UNL     1       9.246 -38.009   0.026  1.00  0.00    -0.648 OA
HETATM   11  O2  UNL     1      10.164 -36.374   1.264  1.00  0.00    -0.648 OA
ENDBRANCH   8   9
ENDBRANCH   7   8
ENDBRANCH   6   7
BRANCH   6  12
HETATM   12  C17 UNL     1       9.027 -38.645   4.123  1.00  0.00     0.196 C 
HETATM   13  O6  UNL     1       8.515 -37.935   4.986  1.00  0.00    -0.646 OA
HETATM   14  O7  UNL     1       8.216 -39.444   3.314  1.00  0.00    -0.646 OA
ENDBRANCH   6  12
ENDBRANCH   3   6
ENDBRANCH   1   2
BRANCH   1  15
HETATM   15  C7  UNL     1      12.509 -40.993   6.933  1.00  0.00     0.148 C 
HETATM   16  S1  UNL     1      11.667 -41.748   8.342  1.00  0.00    -0.091 SA
ENDBRANCH   1  15
BRANCH   1  17
HETATM   17  N2  UNL     1      12.379 -39.038   8.409  1.00  0.00    -0.362 N 
ATOM     18  H2  UNL     1      11.604 -39.358   8.990  1.00  0.00     0.162 HD
BRANCH  17  19
HETATM   19  C8  UNL     1      13.332 -38.122   8.919  1.00  0.00     0.218 C 
BRANCH  19  20
HETATM   20  O4  UNL     1      14.594 -38.649   8.684  1.00  0.00    -0.377 OA
ATOM     21  H4  UNL     1      14.941 -38.232   7.904  1.00  0.00     0.212 HD
ENDBRANCH  19  20
BRANCH  19  22
HETATM   22  C9  UNL     1      13.146 -37.675  10.345  1.00  0.00     0.066 C 
BRANCH  22  23
HETATM   23  C10 UNL     1      14.286 -36.776  10.818  1.00  0.00     0.113 C 
BRANCH  23  24
HETATM   24  S2  UNL     1      14.019 -35.944  12.286  1.00  0.00     0.019 S 
HETATM   25  O5  UNL     1      13.142 -34.606  12.382  1.00  0.00    -0.258 OA
BRANCH  24  26
HETATM   26  C11 UNL     1      14.611 -36.673  13.735  1.00  0.00     0.079 C 
HETATM   27  C12 UNL     1      14.210 -38.152  13.853  1.00  0.00     0.017 C 
HETATM   28  C13 UNL     1      15.149 -38.778  14.854  1.00  0.00     0.001 C 
HETATM   29  C14 UNL     1      15.158 -37.891  16.097  1.00  0.00     0.000 C 
HETATM   30  C15 UNL     1      13.978 -36.965  16.094  1.00  0.00     0.001 C 
HETATM   31  C16 UNL     1      13.994 -35.988  14.963  1.00  0.00     0.017 C 
ENDBRANCH  24  26
ENDBRANCH  23  24
ENDBRANCH  22  23
ENDBRANCH  19  22
ENDBRANCH  17  19
ENDBRANCH   1  17
TORSDOF 14
ENDMDL
MODEL 4
REMARK VINA RESULT: -7.763376872      0.983      1.233
REMARK  14 active torsions:
REMARK  status: ('A' for Active; 'I' for Inactive)
REMARK    1  A    between atoms: C1_2  and  C2_4 
REMARK    2  A    between atoms: C2_4  and  C3_5 
REMARK    3  A    between atoms: C3_5  and  C4_6 
REMARK    4  A    between atoms: C4_6  and  N1_7 
REMARK    5  A    between atoms: C4_6  and  C17_29 
REMARK       I    between atoms: N1_7  and  C5_9 
REMARK    6  A    between atoms: C5_9  and  C6_11 
REMARK    7  A    between atoms: C6_11  and  C7_12 
REMARK    8  A    between atoms: C6_11  and  N2_14 
REMARK    9  A    between atoms: N2_14  and  C8_16 
REMARK   10  A    between atoms: C8_16  and  O4_17 
REMARK   11  A    between atoms: C8_16  and  C9_19 
REMARK   12  A    between atoms: C9_19  and  C10_20 
REMARK   13  A    between atoms: C10_20  and  S2_21 
REMARK   14  A    between atoms: S2_21  and  C11_23 
ROOT
HETATM    1  C6  UNL     1      12.397 -39.678   7.010  1.00  0.00     0.085 C 
ENDROOT
BRANCH   1   2
HETATM    2  C5  UNL     1      11.714 -38.941   5.971  1.00  0.00     0.265 C 
HETATM    3  N1  UNL     1      11.128 -39.523   4.828  1.00  0.00    -0.341 N 
ATOM      4  H1  UNL     1      11.159 -40.540   4.757  1.00  0.00     0.163 HD
HETATM    5  O3  UNL     1      11.600 -37.661   6.037  1.00  0.00    -0.266 OA
BRANCH   3   6
HETATM    6  C4  UNL     1      10.488 -38.809   3.749  1.00  0.00     0.186 C 
BRANCH   6   7
HETATM    7  C3  UNL     1      10.619 -39.539   2.455  1.00  0.00     0.046 C 
BRANCH   7   8
HETATM    8  C2  UNL     1      11.066 -38.706   1.295  1.00  0.00     0.116 C 
BRANCH   8   9
HETATM    9  C1  UNL     1      10.029 -38.232   0.389  1.00  0.00     0.172 C 
HETATM   10  O1  UNL     1       9.660 -38.824  -0.649  1.00  0.00    -0.648 OA
HETATM   11  O2  UNL     1       9.384 -37.032   0.680  1.00  0.00    -0.648 OA
ENDBRANCH   8   9
ENDBRANCH   7   8
ENDBRANCH   6   7
BRANCH   6  12
HETATM   12  C17 UNL     1       8.988 -38.645   4.013  1.00  0.00     0.196 C 
HETATM   13  O6  UNL     1       8.504 -37.929   4.888  1.00  0.00    -0.646 OA
HETATM   14  O7  UNL     1       8.145 -39.381   3.177  1.00  0.00    -0.646 OA
ENDBRANCH   6  12
ENDBRANCH   3   6
ENDBRANCH   1   2
BRANCH   1  15
HETATM   15  C7  UNL     1      12.295 -41.170   6.862  1.00  0.00     0.148 C 
HETATM   16  S1  UNL     1      11.467 -41.878   8.305  1.00  0.00    -0.091 SA
ENDBRANCH   1  15
BRANCH   1  17
HETATM   17  N2  UNL     1      12.280 -39.206   8.333  1.00  0.00    -0.362 N 
ATOM     18  H2  UNL     1      11.384 -39.243   8.820  1.00  0.00     0.162 HD
BRANCH  17  19
HETATM   19  C8  UNL     1      13.429 -38.680   8.972  1.00  0.00     0.218 C 
BRANCH  19  20
HETATM   20  O4  UNL     1      14.029 -37.787   8.096  1.00  0.00    -0.377 OA
ATOM     21  H4  UNL     1      14.843 -38.177   7.798  1.00  0.00     0.212 HD
ENDBRANCH  19  20
BRANCH  19  22
HETATM   22  C9  UNL     1      14.403 -39.677   9.542  1.00  0.00     0.066 C 
BRANCH  22  23
HETATM   23  C10 UNL     1      13.904 -40.281  10.853  1.00  0.00     0.113 C 
BRANCH  23  24
HETATM   24  S2  UNL     1      14.654 -39.699  12.273  1.00  0.00     0.019 S 
HETATM   25  O5  UNL     1      16.000 -40.332  12.870  1.00  0.00    -0.258 OA
BRANCH  24  26
HETATM   26  C11 UNL     1      13.993 -38.279  13.000  1.00  0.00     0.079 C 
HETATM   27  C12 UNL     1      14.343 -37.003  12.216  1.00  0.00     0.017 C 
HETATM   28  C13 UNL     1      13.353 -35.948  12.641  1.00  0.00     0.001 C 
HETATM   29  C14 UNL     1      13.333 -35.921  14.169  1.00  0.00     0.000 C 
HETATM   30  C15 UNL     1      14.542 -36.614  14.725  1.00  0.00     0.001 C 
HETATM   31  C16 UNL     1      14.592 -38.071  14.398  1.00  0.00     0.017 C 
ENDBRANCH  24  26
ENDBRANCH  23  24
ENDBRANCH  22  23
ENDBRANCH  19  22
ENDBRANCH  17  19
ENDBRANCH   1  17
TORSDOF 14
ENDMDL
MODEL 5
REMARK VINA RESULT: -7.742253489      1.062      1.487
REMARK  14 active torsions:
REMARK  status: ('A' for Active; 'I' for Inactive)
REMARK    1  A    between atoms: C1_2  and  C2_4 
REMARK    2  A    between atoms: C2_4  and  C3_5 
REMARK    3  A    between atoms: C3_5  and  C4_6 
REMARK    4  A    between atoms: C4_6  and  N1_7 
REMARK    5  A    between atoms: C4_6  and  C17_29 
REMARK       I    between atoms: N1_7  and  C5_9 
REMARK    6  A    between atoms: C5_9  and  C6_11 
REMARK    7  A    between atoms: C6_11  and  C7_12 
REMARK    8  A    between atoms: C6_11  and  N2_14 
REMARK    9  A    between atoms: N2_14  and  C8_16 
REMARK   10  A    between atoms: C8_16  and  O4_17 
REMARK   11  A    between atoms: C8_16  and  C9_19 
REMARK   12  A    between atoms: C9_19  and  C10_20 
REMARK   13  A    between atoms: C10_20  and  S2_21 
REMARK   14  A    between atoms: S2_21  and  C11_23 
ROOT
HETATM    1  C6  UNL     1      12.129 -39.443   6.356  1.00  0.00     0.085 C 
ENDROOT
BRANCH   1   2
HETATM    2  C5  UNL     1      11.134 -39.069   5.376  1.00  0.00     0.265 C 
HETATM    3  N1  UNL     1      11.147 -39.473   4.025  1.00  0.00    -0.341 N 
ATOM      4  H1  UNL     1      11.894 -40.105   3.737  1.00  0.00     0.163 HD
HETATM    5  O3  UNL     1      10.142 -38.317   5.699  1.00  0.00    -0.266 OA
BRANCH   3   6
HETATM    6  C4  UNL     1      10.198 -39.073   3.013  1.00  0.00     0.186 C 
BRANCH   6   7
HETATM    7  C3  UNL     1      10.797 -39.128   1.649  1.00  0.00     0.046 C 
BRANCH   7   8
HETATM    8  C2  UNL     1      10.119 -38.280   0.620  1.00  0.00     0.116 C 
BRANCH   8   9
HETATM    9  C1  UNL     1       9.562 -37.014   1.075  1.00  0.00     0.172 C 
HETATM   10  O1  UNL     1      10.226 -35.975   1.285  1.00  0.00    -0.648 OA
HETATM   11  O2  UNL     1       8.190 -36.928   1.300  1.00  0.00    -0.648 OA
ENDBRANCH   8   9
ENDBRANCH   7   8
ENDBRANCH   6   7
BRANCH   6  12
HETATM   12  C17 UNL     1       8.982 -40.005   3.001  1.00  0.00     0.196 C 
HETATM   13  O6  UNL     1       8.963 -41.126   2.497  1.00  0.00    -0.646 OA
HETATM   14  O7  UNL     1       7.834 -39.504   3.618  1.00  0.00    -0.646 OA
ENDBRANCH   6  12
ENDBRANCH   3   6
ENDBRANCH   1   2
BRANCH   1  15
HETATM   15  C7  UNL     1      11.676 -40.523   7.299  1.00  0.00     0.148 C 
HETATM   16  S1  UNL     1      12.783 -41.946   7.183  1.00  0.00    -0.091 SA
ENDBRANCH   1  15
BRANCH   1  17
HETATM   17  N2  UNL     1      12.877 -38.410   6.957  1.00  0.00    -0.362 N 
ATOM     18  H2  UNL     1      13.279 -37.662   6.391  1.00  0.00     0.162 HD
BRANCH  17  19
HETATM   19  C8  UNL     1      13.060 -38.432   8.361  1.00  0.00     0.218 C 
BRANCH  19  20
HETATM   20  O4  UNL     1      11.943 -37.850   8.942  1.00  0.00    -0.377 OA
ATOM     21  H4  UNL     1      11.181 -38.348   8.669  1.00  0.00     0.212 HD
ENDBRANCH  19  20
BRANCH  19  22
HETATM   22  C9  UNL     1      14.351 -37.860   8.885  1.00  0.00     0.066 C 
BRANCH  22  23
HETATM   23  C10 UNL     1      14.160 -37.138  10.217  1.00  0.00     0.113 C 
BRANCH  23  24
HETATM   24  S2  UNL     1      14.173 -38.127  11.609  1.00  0.00     0.019 S 
HETATM   25  O5  UNL     1      14.015 -39.721  11.547  1.00  0.00    -0.258 OA
BRANCH  24  26
HETATM   26  C11 UNL     1      14.515 -37.369  13.123  1.00  0.00     0.079 C 
HETATM   27  C12 UNL     1      14.259 -38.304  14.316  1.00  0.00     0.017 C 
HETATM   28  C13 UNL     1      15.022 -37.734  15.485  1.00  0.00     0.001 C 
HETATM   29  C14 UNL     1      14.669 -36.252  15.591  1.00  0.00     0.000 C 
HETATM   30  C15 UNL     1      13.424 -35.949  14.809  1.00  0.00     0.001 C 
HETATM   31  C16 UNL     1      13.579 -36.171  13.339  1.00  0.00     0.017 C 
ENDBRANCH  24  26
ENDBRANCH  23  24
ENDBRANCH  22  23
ENDBRANCH  19  22
ENDBRANCH  17  19
ENDBRANCH   1  17
TORSDOF 14
ENDMDL
