MODEL 1
REMARK VINA RESULT: -8.224160697      0.000      0.000
REMARK  17 active torsions:
REMARK  status: ('A' for Active; 'I' for Inactive)
REMARK    1  A    between atoms: C2_2  and  C3_3 
REMARK    2  A    between atoms: C3_3  and  C4_4 
REMARK    3  A    between atoms: C4_4  and  C5_5 
REMARK    4  A    between atoms: C5_5  and  C6_6 
REMARK    5  A    between atoms: C6_6  and  C7_7 
REMARK    6  A    between atoms: C7_7  and  C8_8 
REMARK    7  A    between atoms: C8_8  and  C9_9 
REMARK    8  A    between atoms: C9_9  and  C10_10 
REMARK    9  A    between atoms: C10_10  and  C11_11 
REMARK   10  A    between atoms: C11_11  and  C12_12 
REMARK       I    between atoms: C12_12  and  N1_14 
REMARK   11  A    between atoms: N1_14  and  C13_16 
REMARK   12  A    between atoms: N3_21  and  C15_22 
REMARK   13  A    between atoms: C15_22  and  C16_23 
REMARK   14  A    between atoms: C16_23  and  C17_24 
REMARK   15  A    between atoms: C18_28  and  O3_29 
REMARK   16  A    between atoms: C19_31  and  O4_32 
REMARK   17  A    between atoms: C20_34  and  O5_35 
ROOT
HETATM    1  C13 UNL     1      12.497 -38.656   6.629  1.00  0.00     0.703 A 
HETATM    2  N2  UNL     1      12.144 -39.614   7.527  1.00  0.00    -0.138 N 
ATOM      3  H2  UNL     1      11.495 -40.386   7.373  1.00  0.00     0.189 HD
HETATM    4  C14 UNL     1      12.814 -39.345   8.649  1.00  0.00     0.355 A 
HETATM    5  O2  UNL     1      12.705 -40.066   9.699  1.00  0.00    -0.244 OA
HETATM    6  N3  UNL     1      13.571 -38.255   8.484  1.00  0.00    -0.228 N 
HETATM    7  N5  UNL     1      13.359 -37.848   7.235  1.00  0.00    -0.126 N 
ATOM      8  H5  UNL     1      13.797 -37.034   6.804  1.00  0.00     0.206 HD
ENDROOT
BRANCH   1   9
HETATM    9  N1  UNL     1      12.052 -38.597   5.450  1.00  0.00    -0.158 N 
HETATM   10  C12 UNL     1      10.746 -38.506   4.987  1.00  0.00     0.235 C 
HETATM   11  O1  UNL     1       9.782 -38.309   5.746  1.00  0.00    -0.273 OA
ATOM     12  H1  UNL     1      12.766 -38.619   4.721  1.00  0.00     0.187 HD
BRANCH  10  13
HETATM   13  C11 UNL     1      10.510 -38.658   3.482  1.00  0.00     0.103 C 
BRANCH  13  14
HETATM   14  C10 UNL     1       9.298 -37.870   3.099  1.00  0.00     0.009 C 
BRANCH  14  15
HETATM   15  C9  UNL     1       9.320 -36.960   1.974  1.00  0.00     0.001 C 
BRANCH  15  16
HETATM   16  C8  UNL     1       9.142 -37.356   0.566  1.00  0.00     0.004 C 
BRANCH  16  17
HETATM   17  C7  UNL     1      10.062 -38.294  -0.072  1.00  0.00     0.027 C 
BRANCH  17  18
HETATM   18  C6  UNL     1       9.618 -39.706  -0.078  1.00  0.00    -0.031 C 
BRANCH  18  19
HETATM   19  C5  UNL     1      10.147 -40.759   0.767  1.00  0.00    -0.031 C 
BRANCH  19  20
HETATM   20  C4  UNL     1       9.384 -41.992   1.090  1.00  0.00     0.027 C 
BRANCH  20  21
HETATM   21  C3  UNL     1       8.576 -41.755   2.394  1.00  0.00     0.003 C 
BRANCH  21  22
HETATM   22  C2  UNL     1       7.553 -42.827   2.570  1.00  0.00    -0.004 C 
HETATM   23  C1  UNL     1       7.572 -43.856   1.478  1.00  0.00     0.005 C 
ENDBRANCH  21  22
ENDBRANCH  20  21
ENDBRANCH  19  20
ENDBRANCH  18  19
ENDBRANCH  17  18
ENDBRANCH  16  17
ENDBRANCH  15  16
ENDBRANCH  14  15
ENDBRANCH  13  14
ENDBRANCH  10  13
ENDBRANCH   1   9
BRANCH   6  24
HETATM   24  C15 UNL     1      14.440 -37.650   9.464  1.00  0.00     0.156 C 
BRANCH  24  25
HETATM   25  C16 UNL     1      13.584 -37.126  10.587  1.00  0.00     0.058 C 
BRANCH  25  26
HETATM   26  C17 UNL     1      14.413 -36.582  11.728  1.00  0.00     0.221 C 
HETATM   27  N4  UNL     1      15.067 -37.631  12.475  1.00  0.00    -0.040 N 
HETATM   28  C18 UNL     1      15.536 -36.930  13.656  1.00  0.00     0.350 C 
ATOM     29  H42 UNL     1      14.487 -38.448  12.663  1.00  0.00     0.280 HD
ATOM     30  H41 UNL     1      15.789 -38.137  11.961  1.00  0.00     0.280 HD
HETATM   31  C19 UNL     1      14.367 -36.038  14.007  1.00  0.00     0.205 C 
HETATM   32  C20 UNL     1      13.524 -35.950  12.752  1.00  0.00     0.181 C 
BRANCH  28  33
HETATM   33  O3  UNL     1      16.702 -36.201  13.403  1.00  0.00    -0.368 OA
ATOM     34  H3  UNL     1      17.443 -36.534  13.895  1.00  0.00     0.212 HD
ENDBRANCH  28  33
BRANCH  31  35
HETATM   35  O4  UNL     1      13.611 -36.669  15.008  1.00  0.00    -0.389 OA
ATOM     36  H4  UNL     1      12.793 -36.965  14.625  1.00  0.00     0.210 HD
ENDBRANCH  31  35
BRANCH  32  37
HETATM   37  O5  UNL     1      13.275 -34.618  12.455  1.00  0.00    -0.391 OA
ATOM     38  H5  UNL     1      12.342 -34.439  12.417  1.00  0.00     0.210 HD
ENDBRANCH  32  37
ENDBRANCH  25  26
ENDBRANCH  24  25
ENDBRANCH   6  24
TORSDOF 17
ENDMDL
MODEL 2
REMARK VINA RESULT: -8.208070736      0.879      2.615
REMARK  17 active torsions:
REMARK  status: ('A' for Active; 'I' for Inactive)
REMARK    1  A    between atoms: C2_2  and  C3_3 
REMARK    2  A    between atoms: C3_3  and  C4_4 
REMARK    3  A    between atoms: C4_4  and  C5_5 
REMARK    4  A    between atoms: C5_5  and  C6_6 
REMARK    5  A    between atoms: C6_6  and  C7_7 
REMARK    6  A    between atoms: C7_7  and  C8_8 
REMARK    7  A    between atoms: C8_8  and  C9_9 
REMARK    8  A    between atoms: C9_9  and  C10_10 
REMARK    9  A    between atoms: C10_10  and  C11_11 
REMARK   10  A    between atoms: C11_11  and  C12_12 
REMARK       I    between atoms: C12_12  and  N1_14 
REMARK   11  A    between atoms: N1_14  and  C13_16 
REMARK   12  A    between atoms: N3_21  and  C15_22 
REMARK   13  A    between atoms: C15_22  and  C16_23 
REMARK   14  A    between atoms: C16_23  and  C17_24 
REMARK   15  A    between atoms: C18_28  and  O3_29 
REMARK   16  A    between atoms: C19_31  and  O4_32 
REMARK   17  A    between atoms: C20_34  and  O5_35 
ROOT
HETATM    1  C13 UNL     1      12.748 -38.893   7.140  1.00  0.00     0.703 A 
HETATM    2  N2  UNL     1      12.735 -39.969   7.971  1.00  0.00    -0.138 N 
ATOM      3  H2  UNL     1      12.349 -40.892   7.770  1.00  0.00     0.189 HD
HETATM    4  C14 UNL     1      13.327 -39.579   9.101  1.00  0.00     0.355 A 
HETATM    5  O2  UNL     1      13.478 -40.364  10.099  1.00  0.00    -0.244 OA
HETATM    6  N3  UNL     1      13.708 -38.301   9.006  1.00  0.00    -0.228 N 
HETATM    7  N5  UNL     1      13.341 -37.900   7.791  1.00  0.00    -0.126 N 
ATOM      8  H5  UNL     1      13.494 -36.964   7.415  1.00  0.00     0.206 HD
ENDROOT
BRANCH   1   9
HETATM    9  N1  UNL     1      12.269 -38.898   5.973  1.00  0.00    -0.158 N 
HETATM   10  C12 UNL     1      10.963 -38.709   5.539  1.00  0.00     0.235 C 
HETATM   11  O1  UNL     1      10.055 -38.335   6.300  1.00  0.00    -0.273 OA
ATOM     12  H1  UNL     1      12.948 -39.068   5.230  1.00  0.00     0.187 HD
BRANCH  10  13
HETATM   13  C11 UNL     1      10.656 -38.977   4.063  1.00  0.00     0.103 C 
BRANCH  13  14
HETATM   14  C10 UNL     1       9.200 -38.739   3.820  1.00  0.00     0.009 C 
BRANCH  14  15
HETATM   15  C9  UNL     1       8.306 -39.829   3.491  1.00  0.00     0.001 C 
BRANCH  15  16
HETATM   16  C8  UNL     1       8.704 -41.244   3.390  1.00  0.00     0.004 C 
BRANCH  16  17
HETATM   17  C7  UNL     1       8.442 -42.013   2.176  1.00  0.00     0.027 C 
BRANCH  17  18
HETATM   18  C6  UNL     1       9.482 -41.912   1.129  1.00  0.00    -0.031 C 
BRANCH  18  19
HETATM   19  C5  UNL     1      10.223 -40.714   0.791  1.00  0.00    -0.031 C 
BRANCH  19  20
HETATM   20  C4  UNL     1       9.685 -39.662  -0.110  1.00  0.00     0.027 C 
BRANCH  20  21
HETATM   21  C3  UNL     1      10.179 -38.275   0.385  1.00  0.00     0.003 C 
BRANCH  21  22
HETATM   22  C2  UNL     1       9.041 -37.311   0.436  1.00  0.00    -0.004 C 
HETATM   23  C1  UNL     1       9.362 -36.048   1.179  1.00  0.00     0.005 C 
ENDBRANCH  21  22
ENDBRANCH  20  21
ENDBRANCH  19  20
ENDBRANCH  18  19
ENDBRANCH  17  18
ENDBRANCH  16  17
ENDBRANCH  15  16
ENDBRANCH  14  15
ENDBRANCH  13  14
ENDBRANCH  10  13
ENDBRANCH   1   9
BRANCH   6  24
HETATM   24  C15 UNL     1      14.382 -37.522  10.016  1.00  0.00     0.156 C 
BRANCH  24  25
HETATM   25  C16 UNL     1      13.372 -37.153  11.072  1.00  0.00     0.058 C 
BRANCH  25  26
HETATM   26  C17 UNL     1      14.023 -36.541  12.291  1.00  0.00     0.221 C 
HETATM   27  N4  UNL     1      14.236 -37.511  13.339  1.00  0.00    -0.040 N 
HETATM   28  C18 UNL     1      14.571 -36.676  14.478  1.00  0.00     0.350 C 
ATOM     29  H42 UNL     1      13.458 -38.154  13.493  1.00  0.00     0.280 HD
ATOM     30  H41 UNL     1      14.921 -38.234  13.121  1.00  0.00     0.280 HD
HETATM   31  C19 UNL     1      13.585 -35.535  14.363  1.00  0.00     0.205 C 
HETATM   32  C20 UNL     1      13.090 -35.561  12.931  1.00  0.00     0.181 C 
BRANCH  28  33
HETATM   33  O3  UNL     1      15.898 -36.237  14.431  1.00  0.00    -0.368 OA
ATOM     34  H3  UNL     1      15.984 -35.337  14.723  1.00  0.00     0.212 HD
ENDBRANCH  28  33
BRANCH  31  35
HETATM   35  O4  UNL     1      12.499 -35.798  15.213  1.00  0.00    -0.389 OA
ATOM     36  H4  UNL     1      12.544 -35.201  15.951  1.00  0.00     0.210 HD
ENDBRANCH  31  35
BRANCH  32  37
HETATM   37  O5  UNL     1      13.223 -34.297  12.374  1.00  0.00    -0.391 OA
ATOM     38  H5  UNL     1      12.378 -33.931  12.138  1.00  0.00     0.210 HD
ENDBRANCH  32  37
ENDBRANCH  25  26
ENDBRANCH  24  25
ENDBRANCH   6  24
TORSDOF 17
ENDMDL
MODEL 3
REMARK VINA RESULT: -8.001770450      2.897      9.773
REMARK  17 active torsions:
REMARK  status: ('A' for Active; 'I' for Inactive)
REMARK    1  A    between atoms: C2_2  and  C3_3 
REMARK    2  A    between atoms: C3_3  and  C4_4 
REMARK    3  A    between atoms: C4_4  and  C5_5 
REMARK    4  A    between atoms: C5_5  and  C6_6 
REMARK    5  A    between atoms: C6_6  and  C7_7 
REMARK    6  A    between atoms: C7_7  and  C8_8 
REMARK    7  A    between atoms: C8_8  and  C9_9 
REMARK    8  A    between atoms: C9_9  and  C10_10 
REMARK    9  A    between atoms: C10_10  and  C11_11 
REMARK   10  A    between atoms: C11_11  and  C12_12 
REMARK       I    between atoms: C12_12  and  N1_14 
REMARK   11  A    between atoms: N1_14  and  C13_16 
REMARK   12  A    between atoms: N3_21  and  C15_22 
REMARK   13  A    between atoms: C15_22  and  C16_23 
REMARK   14  A    between atoms: C16_23  and  C17_24 
REMARK   15  A    between atoms: C18_28  and  O3_29 
REMARK   16  A    between atoms: C19_31  and  O4_32 
REMARK   17  A    between atoms: C20_34  and  O5_35 
ROOT
HETATM    1  C13 UNL     1      12.665 -39.322   8.981  1.00  0.00     0.703 A 
HETATM    2  N2  UNL     1      12.662 -40.658   9.231  1.00  0.00    -0.138 N 
ATOM      3  H2  UNL     1      13.022 -41.125  10.064  1.00  0.00     0.189 HD
HETATM    4  C14 UNL     1      12.095 -41.239   8.173  1.00  0.00     0.355 A 
HETATM    5  O2  UNL     1      11.937 -42.505   8.091  1.00  0.00    -0.244 OA
HETATM    6  N3  UNL     1      11.745 -40.315   7.272  1.00  0.00    -0.228 N 
HETATM    7  N5  UNL     1      12.106 -39.144   7.790  1.00  0.00    -0.126 N 
ATOM      8  H5  UNL     1      11.971 -38.239   7.338  1.00  0.00     0.206 HD
ENDROOT
BRANCH   1   9
HETATM    9  N1  UNL     1      13.129 -38.457   9.774  1.00  0.00    -0.158 N 
HETATM   10  C12 UNL     1      14.128 -37.511   9.584  1.00  0.00     0.235 C 
HETATM   11  O1  UNL     1      14.630 -37.285   8.470  1.00  0.00    -0.273 OA
ATOM     12  H1  UNL     1      12.703 -38.452  10.701  1.00  0.00     0.187 HD
BRANCH  10  13
HETATM   13  C11 UNL     1      14.614 -36.731  10.808  1.00  0.00     0.103 C 
BRANCH  13  14
HETATM   14  C10 UNL     1      13.556 -36.774  11.863  1.00  0.00     0.009 C 
BRANCH  14  15
HETATM   15  C9  UNL     1      13.856 -37.210  13.210  1.00  0.00     0.001 C 
BRANCH  15  16
HETATM   16  C8  UNL     1      14.707 -38.364  13.553  1.00  0.00     0.004 C 
BRANCH  16  17
HETATM   17  C7  UNL     1      14.196 -39.729  13.461  1.00  0.00     0.027 C 
BRANCH  17  18
HETATM   18  C6  UNL     1      14.611 -40.477  12.255  1.00  0.00    -0.031 C 
BRANCH  18  19
HETATM   19  C5  UNL     1      15.869 -40.314  11.553  1.00  0.00    -0.031 C 
BRANCH  19  20
HETATM   20  C4  UNL     1      16.061 -40.726  10.138  1.00  0.00     0.027 C 
BRANCH  20  21
HETATM   21  C3  UNL     1      16.396 -42.242  10.098  1.00  0.00     0.003 C 
BRANCH  21  22
HETATM   22  C2  UNL     1      15.656 -42.905   8.985  1.00  0.00    -0.004 C 
HETATM   23  C1  UNL     1      16.466 -43.939   8.260  1.00  0.00     0.005 C 
ENDBRANCH  21  22
ENDBRANCH  20  21
ENDBRANCH  19  20
ENDBRANCH  18  19
ENDBRANCH  17  18
ENDBRANCH  16  17
ENDBRANCH  15  16
ENDBRANCH  14  15
ENDBRANCH  13  14
ENDBRANCH  10  13
ENDBRANCH   1   9
BRANCH   6  24
HETATM   24  C15 UNL     1      11.103 -40.547   6.000  1.00  0.00     0.156 C 
BRANCH  24  25
HETATM   25  C16 UNL     1      10.906 -39.213   5.327  1.00  0.00     0.058 C 
BRANCH  25  26
HETATM   26  C17 UNL     1      10.510 -39.362   3.877  1.00  0.00     0.221 C 
HETATM   27  N4  UNL     1      11.628 -39.166   2.984  1.00  0.00    -0.040 N 
HETATM   28  C18 UNL     1      10.982 -39.053   1.689  1.00  0.00     0.350 C 
ATOM     29  H42 UNL     1      12.240 -38.387   3.228  1.00  0.00     0.280 HD
ATOM     30  H41 UNL     1      12.352 -39.883   3.041  1.00  0.00     0.280 HD
HETATM   31  C19 UNL     1       9.780 -38.183   1.986  1.00  0.00     0.205 C 
HETATM   32  C20 UNL     1       9.576 -38.259   3.484  1.00  0.00     0.181 C 
BRANCH  28  33
HETATM   33  O3  UNL     1      10.618 -40.302   1.176  1.00  0.00    -0.368 OA
ATOM     34  H3  UNL     1       9.774 -40.589   1.505  1.00  0.00     0.212 HD
ENDBRANCH  28  33
BRANCH  31  35
HETATM   35  O4  UNL     1      10.097 -36.858   1.646  1.00  0.00    -0.389 OA
ATOM     36  H4  UNL     1       9.374 -36.495   1.148  1.00  0.00     0.210 HD
ENDBRANCH  31  35
BRANCH  32  37
HETATM   37  O5  UNL     1       8.257 -38.592   3.755  1.00  0.00    -0.391 OA
ATOM     38  H5  UNL     1       8.098 -38.647   4.690  1.00  0.00     0.210 HD
ENDBRANCH  32  37
ENDBRANCH  25  26
ENDBRANCH  24  25
ENDBRANCH   6  24
TORSDOF 17
ENDMDL
MODEL 4
REMARK VINA RESULT: -7.949763472      1.235      1.987
REMARK  17 active torsions:
REMARK  status: ('A' for Active; 'I' for Inactive)
REMARK    1  A    between atoms: C2_2  and  C3_3 
REMARK    2  A    between atoms: C3_3  and  C4_4 
REMARK    3  A    between atoms: C4_4  and  C5_5 
REMARK    4  A    between atoms: C5_5  and  C6_6 
REMARK    5  A    between atoms: C6_6  and  C7_7 
REMARK    6  A    between atoms: C7_7  and  C8_8 
REMARK    7  A    between atoms: C8_8  and  C9_9 
REMARK    8  A    between atoms: C9_9  and  C10_10 
REMARK    9  A    between atoms: C10_10  and  C11_11 
REMARK   10  A    between atoms: C11_11  and  C12_12 
REMARK       I    between atoms: C12_12  and  N1_14 
REMARK   11  A    between atoms: N1_14  and  C13_16 
REMARK   12  A    between atoms: N3_21  and  C15_22 
REMARK   13  A    between atoms: C15_22  and  C16_23 
REMARK   14  A    between atoms: C16_23  and  C17_24 
REMARK   15  A    between atoms: C18_28  and  O3_29 
REMARK   16  A    between atoms: C19_31  and  O4_32 
REMARK   17  A    between atoms: C20_34  and  O5_35 
ROOT
HETATM    1  C13 UNL     1      12.080 -38.651   6.142  1.00  0.00     0.703 A 
HETATM    2  N2  UNL     1      11.634 -39.665   6.930  1.00  0.00    -0.138 N 
ATOM      3  H2  UNL     1      10.899 -40.336   6.704  1.00  0.00     0.189 HD
HETATM    4  C14 UNL     1      12.345 -39.609   8.057  1.00  0.00     0.355 A 
HETATM    5  O2  UNL     1      12.169 -40.434   9.017  1.00  0.00    -0.244 OA
HETATM    6  N3  UNL     1      13.218 -38.598   8.001  1.00  0.00    -0.228 N 
HETATM    7  N5  UNL     1      13.037 -38.023   6.815  1.00  0.00    -0.126 N 
ATOM      8  H5  UNL     1      13.558 -37.216   6.472  1.00  0.00     0.206 HD
ENDROOT
BRANCH   1   9
HETATM    9  N1  UNL     1      11.629 -38.402   4.991  1.00  0.00    -0.158 N 
HETATM   10  C12 UNL     1      10.319 -38.289   4.545  1.00  0.00     0.235 C 
HETATM   11  O1  UNL     1       9.350 -38.274   5.323  1.00  0.00    -0.273 OA
ATOM     12  H1  UNL     1      12.340 -38.261   4.272  1.00  0.00     0.187 HD
BRANCH  10  13
HETATM   13  C11 UNL     1      10.084 -38.179   3.036  1.00  0.00     0.103 C 
BRANCH  13  14
HETATM   14  C10 UNL     1      11.077 -39.042   2.327  1.00  0.00     0.009 C 
BRANCH  14  15
HETATM   15  C9  UNL     1      10.850 -39.486   0.968  1.00  0.00     0.001 C 
BRANCH  15  16
HETATM   16  C8  UNL     1       9.768 -40.393   0.546  1.00  0.00     0.004 C 
BRANCH  16  17
HETATM   17  C7  UNL     1       9.765 -41.797   0.950  1.00  0.00     0.027 C 
BRANCH  17  18
HETATM   18  C6  UNL     1       8.696 -42.177   1.899  1.00  0.00    -0.031 C 
BRANCH  18  19
HETATM   19  C5  UNL     1       8.428 -41.532   3.170  1.00  0.00    -0.031 C 
BRANCH  19  20
HETATM   20  C4  UNL     1       7.136 -41.676   3.889  1.00  0.00     0.027 C 
BRANCH  20  21
HETATM   21  C3  UNL     1       6.295 -42.782   3.195  1.00  0.00     0.003 C 
BRANCH  21  22
HETATM   22  C2  UNL     1       5.035 -43.026   3.957  1.00  0.00    -0.004 C 
HETATM   23  C1  UNL     1       3.870 -42.224   3.457  1.00  0.00     0.005 C 
ENDBRANCH  21  22
ENDBRANCH  20  21
ENDBRANCH  19  20
ENDBRANCH  18  19
ENDBRANCH  17  18
ENDBRANCH  16  17
ENDBRANCH  15  16
ENDBRANCH  14  15
ENDBRANCH  13  14
ENDBRANCH  10  13
ENDBRANCH   1   9
BRANCH   6  24
HETATM   24  C15 UNL     1      14.164 -38.215   9.021  1.00  0.00     0.156 C 
BRANCH  24  25
HETATM   25  C16 UNL     1      13.413 -37.485  10.104  1.00  0.00     0.058 C 
BRANCH  25  26
HETATM   26  C17 UNL     1      14.337 -36.931  11.164  1.00  0.00     0.221 C 
HETATM   27  N4  UNL     1      15.248 -37.932  11.668  1.00  0.00    -0.040 N 
HETATM   28  C18 UNL     1      15.807 -37.285  12.842  1.00  0.00     0.350 C 
ATOM     29  H42 UNL     1      14.828 -38.846  11.841  1.00  0.00     0.280 HD
ATOM     30  H41 UNL     1      15.937 -38.264  10.993  1.00  0.00     0.280 HD
HETATM   31  C19 UNL     1      14.600 -36.628  13.473  1.00  0.00     0.205 C 
HETATM   32  C20 UNL     1      13.553 -36.552  12.381  1.00  0.00     0.181 C 
BRANCH  28  33
HETATM   33  O3  UNL     1      16.799 -36.359  12.506  1.00  0.00    -0.368 OA
ATOM     34  H3  UNL     1      16.936 -35.720  13.195  1.00  0.00     0.212 HD
ENDBRANCH  28  33
BRANCH  31  35
HETATM   35  O4  UNL     1      14.119 -37.467  14.492  1.00  0.00    -0.389 OA
ATOM     36  H4  UNL     1      14.665 -37.349  15.261  1.00  0.00     0.210 HD
ENDBRANCH  31  35
BRANCH  32  37
HETATM   37  O5  UNL     1      13.073 -35.254  12.291  1.00  0.00    -0.391 OA
ATOM     38  H5  UNL     1      12.391 -35.090  12.931  1.00  0.00     0.210 HD
ENDBRANCH  32  37
ENDBRANCH  25  26
ENDBRANCH  24  25
ENDBRANCH   6  24
TORSDOF 17
ENDMDL
MODEL 5
REMARK VINA RESULT: -7.941412577      2.880     10.553
REMARK  17 active torsions:
REMARK  status: ('A' for Active; 'I' for Inactive)
REMARK    1  A    between atoms: C2_2  and  C3_3 
REMARK    2  A    between atoms: C3_3  and  C4_4 
REMARK    3  A    between atoms: C4_4  and  C5_5 
REMARK    4  A    between atoms: C5_5  and  C6_6 
REMARK    5  A    between atoms: C6_6  and  C7_7 
REMARK    6  A    between atoms: C7_7  and  C8_8 
REMARK    7  A    between atoms: C8_8  and  C9_9 
REMARK    8  A    between atoms: C9_9  and  C10_10 
REMARK    9  A    between atoms: C10_10  and  C11_11 
REMARK   10  A    between atoms: C11_11  and  C12_12 
REMARK       I    between atoms: C12_12  and  N1_14 
REMARK   11  A    between atoms: N1_14  and  C13_16 
REMARK   12  A    between atoms: N3_21  and  C15_22 
REMARK   13  A    between atoms: C15_22  and  C16_23 
REMARK   14  A    between atoms: C16_23  and  C17_24 
REMARK   15  A    between atoms: C18_28  and  O3_29 
REMARK   16  A    between atoms: C19_31  and  O4_32 
REMARK   17  A    between atoms: C20_34  and  O5_35 
ROOT
HETATM    1  C13 UNL     1      12.746 -39.345   8.714  1.00  0.00     0.703 A 
HETATM    2  N2  UNL     1      13.114 -40.650   8.624  1.00  0.00    -0.138 N 
ATOM      3  H2  UNL     1      13.768 -41.143   9.232  1.00  0.00     0.189 HD
HETATM    4  C14 UNL     1      12.453 -41.158   7.584  1.00  0.00     0.355 A 
HETATM    5  O2  UNL     1      12.578 -42.379   7.225  1.00  0.00    -0.244 OA
HETATM    6  N3  UNL     1      11.685 -40.219   7.021  1.00  0.00    -0.228 N 
HETATM    7  N5  UNL     1      11.882 -39.112   7.733  1.00  0.00    -0.126 N 
ATOM      8  H5  UNL     1      11.434 -38.214   7.550  1.00  0.00     0.206 HD
ENDROOT
BRANCH   1   9
HETATM    9  N1  UNL     1      13.178 -38.548   9.591  1.00  0.00    -0.158 N 
HETATM   10  C12 UNL     1      14.148 -37.558   9.504  1.00  0.00     0.235 C 
HETATM   11  O1  UNL     1      14.648 -37.209   8.421  1.00  0.00    -0.273 OA
ATOM     12  H1  UNL     1      12.747 -38.646  10.511  1.00  0.00     0.187 HD
BRANCH  10  13
HETATM   13  C11 UNL     1      14.603 -36.887  10.803  1.00  0.00     0.103 C 
BRANCH  13  14
HETATM   14  C10 UNL     1      13.429 -36.757  11.719  1.00  0.00     0.009 C 
BRANCH  14  15
HETATM   15  C9  UNL     1      13.437 -35.818  12.820  1.00  0.00     0.001 C 
BRANCH  15  16
HETATM   16  C8  UNL     1      13.384 -36.190  14.245  1.00  0.00     0.004 C 
BRANCH  16  17
HETATM   17  C7  UNL     1      14.550 -36.024  15.109  1.00  0.00     0.027 C 
BRANCH  17  18
HETATM   18  C6  UNL     1      15.766 -36.744  14.671  1.00  0.00    -0.031 C 
BRANCH  18  19
HETATM   19  C5  UNL     1      15.980 -38.175  14.770  1.00  0.00    -0.031 C 
BRANCH  19  20
HETATM   20  C4  UNL     1      15.830 -39.092  13.611  1.00  0.00     0.027 C 
BRANCH  20  21
HETATM   21  C3  UNL     1      14.414 -39.728  13.652  1.00  0.00     0.003 C 
BRANCH  21  22
HETATM   22  C2  UNL     1      14.145 -40.471  12.386  1.00  0.00    -0.004 C 
HETATM   23  C1  UNL     1      15.356 -40.625  11.515  1.00  0.00     0.005 C 
ENDBRANCH  21  22
ENDBRANCH  20  21
ENDBRANCH  19  20
ENDBRANCH  18  19
ENDBRANCH  17  18
ENDBRANCH  16  17
ENDBRANCH  15  16
ENDBRANCH  14  15
ENDBRANCH  13  14
ENDBRANCH  10  13
ENDBRANCH   1   9
BRANCH   6  24
HETATM   24  C15 UNL     1      10.820 -40.380   5.878  1.00  0.00     0.156 C 
BRANCH  24  25
HETATM   25  C16 UNL     1      10.837 -39.093   5.095  1.00  0.00     0.058 C 
BRANCH  25  26
HETATM   26  C17 UNL     1      10.507 -39.310   3.636  1.00  0.00     0.221 C 
HETATM   27  N4  UNL     1      11.650 -39.091   2.781  1.00  0.00    -0.040 N 
HETATM   28  C18 UNL     1      11.051 -39.054   1.459  1.00  0.00     0.350 C 
ATOM     29  H42 UNL     1      12.213 -38.274   3.019  1.00  0.00     0.280 HD
ATOM     30  H41 UNL     1      12.404 -39.768   2.891  1.00  0.00     0.280 HD
HETATM   31  C19 UNL     1       9.799 -38.235   1.677  1.00  0.00     0.205 C 
HETATM   32  C20 UNL     1       9.538 -38.269   3.169  1.00  0.00     0.181 C 
BRANCH  28  33
HETATM   33  O3  UNL     1      10.769 -40.336   0.977  1.00  0.00    -0.368 OA
ATOM     34  H3  UNL     1      10.157 -40.799   1.538  1.00  0.00     0.212 HD
ENDBRANCH  28  33
BRANCH  31  35
HETATM   35  O4  UNL     1      10.064 -36.908   1.302  1.00  0.00    -0.389 OA
ATOM     36  H4  UNL     1       9.432 -36.649   0.642  1.00  0.00     0.210 HD
ENDBRANCH  31  35
BRANCH  32  37
HETATM   37  O5  UNL     1       8.227 -38.657   3.400  1.00  0.00    -0.391 OA
ATOM     38  H5  UNL     1       7.973 -38.504   4.303  1.00  0.00     0.210 HD
ENDBRANCH  32  37
ENDBRANCH  25  26
ENDBRANCH  24  25
ENDBRANCH   6  24
TORSDOF 17
ENDMDL
