MODEL 1
REMARK VINA RESULT: -7.616423054      0.000      0.000
REMARK  16 active torsions:
REMARK  status: ('A' for Active; 'I' for Inactive)
REMARK    1  A    between atoms: N1_1  and  C1_5 
REMARK    2  A    between atoms: C1_5  and  C2_6 
REMARK    3  A    between atoms: C2_6  and  C3_7 
REMARK    4  A    between atoms: C3_7  and  C4_8 
REMARK    5  A    between atoms: C4_8  and  C5_9 
REMARK    6  A    between atoms: C5_9  and  C6_10 
REMARK    7  A    between atoms: C5_9  and  N4_20 
REMARK    8  A    between atoms: C6_10  and  C7_11 
REMARK    9  A    between atoms: C7_11  and  C8_12 
REMARK   10  A    between atoms: C8_12  and  C9_13 
REMARK       I    between atoms: N4_20  and  C12_22 
REMARK   11  A    between atoms: C12_22  and  C13_24 
REMARK   12  A    between atoms: N5_28  and  C17_29 
REMARK   13  A    between atoms: C17_29  and  O2_30 
REMARK   14  A    between atoms: C17_29  and  C18_32 
REMARK   15  A    between atoms: C18_32  and  N6_33 
REMARK   16  A    between atoms: C18_32  and  C19_37 
ROOT
HETATM    1  N4  UNL     1      11.525 -38.929   4.981  1.00  0.00    -0.355 N 
ATOM      2  H4  UNL     1      12.373 -39.149   4.458  1.00  0.00     0.162 HD
HETATM    3  C12 UNL     1      10.368 -38.578   4.251  1.00  0.00     0.251 C 
HETATM    4  O1  UNL     1       9.310 -38.303   4.857  1.00  0.00    -0.271 OA
ENDROOT
BRANCH   1   5
HETATM    5  C5  UNL     1      11.584 -38.998   6.444  1.00  0.00     0.084 C 
BRANCH   5   6
HETATM    6  C4  UNL     1      11.490 -40.414   6.814  1.00  0.00     0.025 C 
BRANCH   6   7
HETATM    7  C3  UNL     1      12.569 -41.390   6.746  1.00  0.00     0.004 C 
BRANCH   7   8
HETATM    8  C2  UNL     1      13.067 -42.019   7.998  1.00  0.00     0.027 C 
BRANCH   8   9
HETATM    9  C1  UNL     1      13.488 -43.481   7.677  1.00  0.00     0.229 C 
BRANCH   9  10
HETATM   10  N1  UNL     1      14.603 -43.485   6.754  1.00  0.00    -0.079 N 
ATOM     11  H13 UNL     1      14.301 -43.340   5.790  1.00  0.00     0.274 HD
ATOM     12  H12 UNL     1      15.185 -42.653   6.854  1.00  0.00     0.274 HD
ATOM     13  H11 UNL     1      15.141 -44.344   6.860  1.00  0.00     0.274 HD
ENDBRANCH   9  10
ENDBRANCH   8   9
ENDBRANCH   7   8
ENDBRANCH   6   7
ENDBRANCH   5   6
BRANCH   5  14
HETATM   14  C6  UNL     1      12.771 -38.271   6.966  1.00  0.00     0.025 C 
BRANCH  14  15
HETATM   15  C7  UNL     1      12.769 -38.371   8.535  1.00  0.00     0.008 C 
BRANCH  15  16
HETATM   16  C8  UNL     1      14.179 -38.069   8.988  1.00  0.00     0.058 C 
BRANCH  16  17
HETATM   17  C9  UNL     1      14.222 -37.226  10.184  1.00  0.00     0.025 A 
HETATM   18  C10 UNL     1      13.233 -37.144  11.141  1.00  0.00     0.113 A 
HETATM   19  N2  UNL     1      13.610 -36.284  12.084  1.00  0.00    -0.360 N 
HETATM   20  C11 UNL     1      14.829 -35.826  11.724  1.00  0.00     0.180 A 
ATOM     21  H2  UNL     1      13.082 -36.021  12.916  1.00  0.00     0.166 HD
HETATM   22  N3  UNL     1      15.205 -36.402  10.563  1.00  0.00    -0.355 N 
ATOM     23  H3  UNL     1      16.079 -36.239  10.065  1.00  0.00     0.166 HD
ENDBRANCH  16  17
ENDBRANCH  15  16
ENDBRANCH  14  15
ENDBRANCH   5  14
ENDBRANCH   1   5
BRANCH   3  24
HETATM   24  C13 UNL     1      10.358 -38.522   2.766  1.00  0.00     0.317 C 
HETATM   25  C14 UNL     1       9.894 -37.130   2.307  1.00  0.00     0.047 C 
HETATM   26  C15 UNL     1       9.434 -37.430   0.900  1.00  0.00     0.033 C 
HETATM   27  C16 UNL     1       9.414 -38.929   0.765  1.00  0.00     0.277 C 
HETATM   28  N5  UNL     1       9.357 -39.355   2.174  1.00  0.00     0.133 N 
BRANCH  28  29
HETATM   29  C17 UNL     1       9.670 -40.769   2.270  1.00  0.00     0.394 C 
BRANCH  29  30
HETATM   30  O2  UNL     1       9.665 -41.272   0.949  1.00  0.00    -0.366 OA
ATOM     31  H2  UNL     1      10.071 -40.607   0.406  1.00  0.00     0.212 HD
ENDBRANCH  29  30
BRANCH  29  32
HETATM   32  C18 UNL     1       8.566 -41.422   3.074  1.00  0.00     0.291 C 
BRANCH  32  33
HETATM   33  N6  UNL     1       9.030 -41.601   4.458  1.00  0.00    -0.065 N 
ATOM     34  H63 UNL     1       9.979 -41.255   4.599  1.00  0.00     0.275 HD
ATOM     35  H62 UNL     1       8.554 -40.980   5.112  1.00  0.00     0.275 HD
ATOM     36  H61 UNL     1       8.931 -42.584   4.712  1.00  0.00     0.275 HD
ENDBRANCH  32  33
BRANCH  32  37
HETATM   37  C19 UNL     1       8.213 -42.760   2.533  1.00  0.00     0.036 C 
HETATM   38  C20 UNL     1       6.985 -43.217   2.354  1.00  0.00     0.002 C 
HETATM   39  C21 UNL     1       7.009 -44.581   1.802  1.00  0.00     0.048 C 
HETATM   40  C22 UNL     1       8.421 -44.725   1.293  1.00  0.00     0.123 C 
HETATM   41  N7  UNL     1       9.139 -43.754   2.126  1.00  0.00    -0.391 N 
ATOM     42  H7  UNL     1      10.129 -43.788   2.370  1.00  0.00     0.159 HD
ENDBRANCH  32  37
ENDBRANCH  29  32
ENDBRANCH  28  29
ENDBRANCH   3  24
TORSDOF 16
ENDMDL
MODEL 2
REMARK VINA RESULT: -7.086678139      3.682      8.985
REMARK  16 active torsions:
REMARK  status: ('A' for Active; 'I' for Inactive)
REMARK    1  A    between atoms: N1_1  and  C1_5 
REMARK    2  A    between atoms: C1_5  and  C2_6 
REMARK    3  A    between atoms: C2_6  and  C3_7 
REMARK    4  A    between atoms: C3_7  and  C4_8 
REMARK    5  A    between atoms: C4_8  and  C5_9 
REMARK    6  A    between atoms: C5_9  and  C6_10 
REMARK    7  A    between atoms: C5_9  and  N4_20 
REMARK    8  A    between atoms: C6_10  and  C7_11 
REMARK    9  A    between atoms: C7_11  and  C8_12 
REMARK   10  A    between atoms: C8_12  and  C9_13 
REMARK       I    between atoms: N4_20  and  C12_22 
REMARK   11  A    between atoms: C12_22  and  C13_24 
REMARK   12  A    between atoms: N5_28  and  C17_29 
REMARK   13  A    between atoms: C17_29  and  O2_30 
REMARK   14  A    between atoms: C17_29  and  C18_32 
REMARK   15  A    between atoms: C18_32  and  N6_33 
REMARK   16  A    between atoms: C18_32  and  C19_37 
ROOT
HETATM    1  N4  UNL     1      12.570 -39.137   9.135  1.00  0.00    -0.355 N 
ATOM      2  H4  UNL     1      11.692 -39.253   9.642  1.00  0.00     0.162 HD
HETATM    3  C12 UNL     1      13.641 -38.503   9.803  1.00  0.00     0.251 C 
HETATM    4  O1  UNL     1      14.733 -38.343   9.216  1.00  0.00    -0.271 OA
ENDROOT
BRANCH   1   5
HETATM    5  C5  UNL     1      12.641 -39.638   7.760  1.00  0.00     0.084 C 
BRANCH   5   6
HETATM    6  C4  UNL     1      12.168 -41.027   7.781  1.00  0.00     0.025 C 
BRANCH   6   7
HETATM    7  C3  UNL     1      11.643 -41.734   8.941  1.00  0.00     0.004 C 
BRANCH   7   8
HETATM    8  C2  UNL     1      10.889 -43.001   8.746  1.00  0.00     0.027 C 
BRANCH   8   9
HETATM    9  C1  UNL     1      10.561 -43.594  10.146  1.00  0.00     0.229 C 
BRANCH   9  10
HETATM   10  N1  UNL     1       9.190 -43.297  10.501  1.00  0.00    -0.079 N 
ATOM     11  H13 UNL     1       9.086 -43.104  11.497  1.00  0.00     0.274 HD
ATOM     12  H12 UNL     1       8.889 -42.391  10.142  1.00  0.00     0.274 HD
ATOM     13  H11 UNL     1       8.577 -44.052  10.194  1.00  0.00     0.274 HD
ENDBRANCH   9  10
ENDBRANCH   8   9
ENDBRANCH   7   8
ENDBRANCH   6   7
ENDBRANCH   5   6
BRANCH   5  14
HETATM   14  C6  UNL     1      11.933 -38.728   6.822  1.00  0.00     0.025 C 
BRANCH  14  15
HETATM   15  C7  UNL     1      11.199 -39.599   5.738  1.00  0.00     0.008 C 
BRANCH  15  16
HETATM   16  C8  UNL     1      10.261 -38.670   5.002  1.00  0.00     0.058 C 
BRANCH  16  17
HETATM   17  C9  UNL     1      10.481 -38.671   3.555  1.00  0.00     0.025 A 
HETATM   18  C10 UNL     1       9.751 -37.948   2.635  1.00  0.00     0.113 A 
HETATM   19  N2  UNL     1      10.227 -38.190   1.415  1.00  0.00    -0.360 N 
HETATM   20  C11 UNL     1      11.250 -39.059   1.566  1.00  0.00     0.180 A 
ATOM     21  H2  UNL     1       9.886 -37.796   0.539  1.00  0.00     0.166 HD
HETATM   22  N3  UNL     1      11.406 -39.353   2.873  1.00  0.00    -0.355 N 
ATOM     23  H3  UNL     1      12.104 -39.982   3.269  1.00  0.00     0.166 HD
ENDBRANCH  16  17
ENDBRANCH  15  16
ENDBRANCH  14  15
ENDBRANCH   5  14
ENDBRANCH   1   5
BRANCH   3  24
HETATM   24  C13 UNL     1      13.521 -38.011  11.200  1.00  0.00     0.317 C 
HETATM   25  C14 UNL     1      13.883 -36.518  11.253  1.00  0.00     0.047 C 
HETATM   26  C15 UNL     1      14.233 -36.358  12.714  1.00  0.00     0.033 C 
HETATM   27  C16 UNL     1      14.305 -37.746  13.292  1.00  0.00     0.277 C 
HETATM   28  N5  UNL     1      14.501 -38.564  12.082  1.00  0.00     0.133 N 
BRANCH  28  29
HETATM   29  C17 UNL     1      14.259 -39.961  12.393  1.00  0.00     0.394 C 
BRANCH  29  30
HETATM   30  O2  UNL     1      14.069 -40.034  13.791  1.00  0.00    -0.366 OA
ATOM     31  H2  UNL     1      13.426 -40.716  13.941  1.00  0.00     0.212 HD
ENDBRANCH  29  30
BRANCH  29  32
HETATM   32  C18 UNL     1      15.500 -40.732  12.000  1.00  0.00     0.291 C 
BRANCH  32  33
HETATM   33  N6  UNL     1      16.507 -39.786  11.496  1.00  0.00    -0.065 N 
ATOM     34  H63 UNL     1      16.216 -38.814  11.602  1.00  0.00     0.275 HD
ATOM     35  H62 UNL     1      17.337 -39.750  12.087  1.00  0.00     0.275 HD
ATOM     36  H61 UNL     1      16.727 -40.024  10.529  1.00  0.00     0.275 HD
ENDBRANCH  32  33
BRANCH  32  37
HETATM   37  C19 UNL     1      15.216 -41.714  10.922  1.00  0.00     0.036 C 
HETATM   38  C20 UNL     1      15.729 -41.687   9.703  1.00  0.00     0.002 C 
HETATM   39  C21 UNL     1      15.228 -42.812   8.899  1.00  0.00     0.048 C 
HETATM   40  C22 UNL     1      14.658 -43.751   9.931  1.00  0.00     0.123 C 
HETATM   41  N7  UNL     1      14.351 -42.832  11.032  1.00  0.00    -0.391 N 
ATOM     42  H7  UNL     1      13.640 -42.972  11.750  1.00  0.00     0.159 HD
ENDBRANCH  32  37
ENDBRANCH  29  32
ENDBRANCH  28  29
ENDBRANCH   3  24
TORSDOF 16
ENDMDL
MODEL 3
REMARK VINA RESULT: -6.938570685      3.527      8.904
REMARK  16 active torsions:
REMARK  status: ('A' for Active; 'I' for Inactive)
REMARK    1  A    between atoms: N1_1  and  C1_5 
REMARK    2  A    between atoms: C1_5  and  C2_6 
REMARK    3  A    between atoms: C2_6  and  C3_7 
REMARK    4  A    between atoms: C3_7  and  C4_8 
REMARK    5  A    between atoms: C4_8  and  C5_9 
REMARK    6  A    between atoms: C5_9  and  C6_10 
REMARK    7  A    between atoms: C5_9  and  N4_20 
REMARK    8  A    between atoms: C6_10  and  C7_11 
REMARK    9  A    between atoms: C7_11  and  C8_12 
REMARK   10  A    between atoms: C8_12  and  C9_13 
REMARK       I    between atoms: N4_20  and  C12_22 
REMARK   11  A    between atoms: C12_22  and  C13_24 
REMARK   12  A    between atoms: N5_28  and  C17_29 
REMARK   13  A    between atoms: C17_29  and  O2_30 
REMARK   14  A    between atoms: C17_29  and  C18_32 
REMARK   15  A    between atoms: C18_32  and  N6_33 
REMARK   16  A    between atoms: C18_32  and  C19_37 
ROOT
HETATM    1  N4  UNL     1      12.524 -39.287   8.695  1.00  0.00    -0.355 N 
ATOM      2  H4  UNL     1      11.768 -39.738   9.212  1.00  0.00     0.162 HD
HETATM    3  C12 UNL     1      13.464 -38.526   9.425  1.00  0.00     0.251 C 
HETATM    4  O1  UNL     1      14.404 -37.960   8.827  1.00  0.00    -0.271 OA
ENDROOT
BRANCH   1   5
HETATM    5  C5  UNL     1      12.565 -39.471   7.242  1.00  0.00     0.084 C 
BRANCH   5   6
HETATM    6  C4  UNL     1      12.648 -40.913   6.990  1.00  0.00     0.025 C 
BRANCH   6   7
HETATM    7  C3  UNL     1      13.236 -41.905   7.880  1.00  0.00     0.004 C 
BRANCH   7   8
HETATM    8  C2  UNL     1      14.149 -42.938   7.325  1.00  0.00     0.027 C 
BRANCH   8   9
HETATM    9  C1  UNL     1      13.553 -44.339   7.644  1.00  0.00     0.229 C 
BRANCH   9  10
HETATM   10  N1  UNL     1      14.290 -45.364   6.936  1.00  0.00    -0.079 N 
ATOM     11  H13 UNL     1      15.262 -45.098   6.782  1.00  0.00     0.274 HD
ATOM     12  H12 UNL     1      14.452 -46.188   7.516  1.00  0.00     0.274 HD
ATOM     13  H11 UNL     1      13.815 -45.598   6.065  1.00  0.00     0.274 HD
ENDBRANCH   9  10
ENDBRANCH   8   9
ENDBRANCH   7   8
ENDBRANCH   6   7
ENDBRANCH   5   6
BRANCH   5  14
HETATM   14  C6  UNL     1      11.438 -38.763   6.581  1.00  0.00     0.025 C 
BRANCH  14  15
HETATM   15  C7  UNL     1      10.932 -39.640   5.379  1.00  0.00     0.008 C 
BRANCH  15  16
HETATM   16  C8  UNL     1      10.007 -38.764   4.565  1.00  0.00     0.058 C 
BRANCH  16  17
HETATM   17  C9  UNL     1      10.388 -38.693   3.154  1.00  0.00     0.025 A 
HETATM   18  C10 UNL     1       9.730 -37.966   2.184  1.00  0.00     0.113 A 
HETATM   19  N2  UNL     1      10.353 -38.132   1.019  1.00  0.00    -0.360 N 
HETATM   20  C11 UNL     1      11.395 -38.959   1.253  1.00  0.00     0.180 A 
ATOM     21  H2  UNL     1      10.093 -37.717   0.124  1.00  0.00     0.166 HD
HETATM   22  N3  UNL     1      11.418 -39.302   2.557  1.00  0.00    -0.355 N 
ATOM     23  H3  UNL     1      12.098 -39.914   3.007  1.00  0.00     0.166 HD
ENDBRANCH  16  17
ENDBRANCH  15  16
ENDBRANCH  14  15
ENDBRANCH   5  14
ENDBRANCH   1   5
BRANCH   3  24
HETATM   24  C13 UNL     1      13.379 -38.370  10.900  1.00  0.00     0.317 C 
HETATM   25  C14 UNL     1      13.592 -36.894  11.274  1.00  0.00     0.047 C 
HETATM   26  C15 UNL     1      14.011 -37.021  12.720  1.00  0.00     0.033 C 
HETATM   27  C16 UNL     1      14.257 -38.485  12.968  1.00  0.00     0.277 C 
HETATM   28  N5  UNL     1      14.462 -38.990  11.599  1.00  0.00     0.133 N 
BRANCH  28  29
HETATM   29  C17 UNL     1      14.380 -40.439  11.596  1.00  0.00     0.394 C 
BRANCH  29  30
HETATM   30  O2  UNL     1      14.032 -40.825  12.910  1.00  0.00    -0.366 OA
ATOM     31  H2  UNL     1      14.113 -41.770  12.944  1.00  0.00     0.212 HD
ENDBRANCH  29  30
BRANCH  29  32
HETATM   32  C18 UNL     1      15.756 -40.968  11.252  1.00  0.00     0.291 C 
BRANCH  32  33
HETATM   33  N6  UNL     1      16.272 -40.226  10.091  1.00  0.00    -0.065 N 
ATOM     34  H63 UNL     1      16.798 -40.821   9.451  1.00  0.00     0.275 HD
ATOM     35  H62 UNL     1      15.533 -39.945   9.448  1.00  0.00     0.275 HD
ATOM     36  H61 UNL     1      16.820 -39.433  10.425  1.00  0.00     0.275 HD
ENDBRANCH  32  33
BRANCH  32  37
HETATM   37  C19 UNL     1      15.715 -42.408  10.892  1.00  0.00     0.036 C 
HETATM   38  C20 UNL     1      16.675 -43.073  10.272  1.00  0.00     0.002 C 
HETATM   39  C21 UNL     1      16.296 -44.481  10.076  1.00  0.00     0.048 C 
HETATM   40  C22 UNL     1      15.141 -44.665  11.028  1.00  0.00     0.123 C 
HETATM   41  N7  UNL     1      14.639 -43.293  11.156  1.00  0.00    -0.391 N 
ATOM     42  H7  UNL     1      13.685 -43.023  11.394  1.00  0.00     0.159 HD
ENDBRANCH  32  37
ENDBRANCH  29  32
ENDBRANCH  28  29
ENDBRANCH   3  24
TORSDOF 16
ENDMDL
MODEL 4
REMARK VINA RESULT: -6.889335039      1.449      1.738
REMARK  16 active torsions:
REMARK  status: ('A' for Active; 'I' for Inactive)
REMARK    1  A    between atoms: N1_1  and  C1_5 
REMARK    2  A    between atoms: C1_5  and  C2_6 
REMARK    3  A    between atoms: C2_6  and  C3_7 
REMARK    4  A    between atoms: C3_7  and  C4_8 
REMARK    5  A    between atoms: C4_8  and  C5_9 
REMARK    6  A    between atoms: C5_9  and  C6_10 
REMARK    7  A    between atoms: C5_9  and  N4_20 
REMARK    8  A    between atoms: C6_10  and  C7_11 
REMARK    9  A    between atoms: C7_11  and  C8_12 
REMARK   10  A    between atoms: C8_12  and  C9_13 
REMARK       I    between atoms: N4_20  and  C12_22 
REMARK   11  A    between atoms: C12_22  and  C13_24 
REMARK   12  A    between atoms: N5_28  and  C17_29 
REMARK   13  A    between atoms: C17_29  and  O2_30 
REMARK   14  A    between atoms: C17_29  and  C18_32 
REMARK   15  A    between atoms: C18_32  and  N6_33 
REMARK   16  A    between atoms: C18_32  and  C19_37 
ROOT
HETATM    1  N4  UNL     1      11.513 -39.428   5.231  1.00  0.00    -0.355 N 
ATOM      2  H4  UNL     1      12.271 -39.912   4.748  1.00  0.00     0.162 HD
HETATM    3  C12 UNL     1      10.474 -38.878   4.447  1.00  0.00     0.251 C 
HETATM    4  O1  UNL     1       9.528 -38.278   5.001  1.00  0.00    -0.271 OA
ENDROOT
BRANCH   1   5
HETATM    5  C5  UNL     1      11.571 -39.347   6.693  1.00  0.00     0.084 C 
BRANCH   5   6
HETATM    6  C4  UNL     1      11.710 -40.717   7.197  1.00  0.00     0.025 C 
BRANCH   6   7
HETATM    7  C3  UNL     1      12.763 -41.658   6.838  1.00  0.00     0.004 C 
BRANCH   7   8
HETATM    8  C2  UNL     1      13.591 -42.273   7.909  1.00  0.00     0.027 C 
BRANCH   8   9
HETATM    9  C1  UNL     1      12.698 -42.463   9.168  1.00  0.00     0.229 C 
BRANCH   9  10
HETATM   10  N1  UNL     1      12.108 -43.785   9.163  1.00  0.00    -0.079 N 
ATOM     11  H13 UNL     1      12.586 -44.413   8.518  1.00  0.00     0.274 HD
ATOM     12  H12 UNL     1      12.296 -44.291  10.029  1.00  0.00     0.274 HD
ATOM     13  H11 UNL     1      11.110 -43.721   8.967  1.00  0.00     0.274 HD
ENDBRANCH   9  10
ENDBRANCH   8   9
ENDBRANCH   7   8
ENDBRANCH   6   7
ENDBRANCH   5   6
BRANCH   5  14
HETATM   14  C6  UNL     1      12.615 -38.386   7.135  1.00  0.00     0.025 C 
BRANCH  14  15
HETATM   15  C7  UNL     1      12.842 -38.568   8.680  1.00  0.00     0.008 C 
BRANCH  15  16
HETATM   16  C8  UNL     1      14.205 -37.993   8.986  1.00  0.00     0.058 C 
BRANCH  16  17
HETATM   17  C9  UNL     1      14.222 -37.195  10.213  1.00  0.00     0.025 A 
HETATM   18  C10 UNL     1      13.218 -37.158  11.157  1.00  0.00     0.113 A 
HETATM   19  N2  UNL     1      13.572 -36.330  12.137  1.00  0.00    -0.360 N 
HETATM   20  C11 UNL     1      14.792 -35.847  11.812  1.00  0.00     0.180 A 
ATOM     21  H2  UNL     1      13.029 -36.103  12.969  1.00  0.00     0.166 HD
HETATM   22  N3  UNL     1      15.190 -36.376  10.637  1.00  0.00    -0.355 N 
ATOM     23  H3  UNL     1      16.071 -36.185  10.159  1.00  0.00     0.166 HD
ENDBRANCH  16  17
ENDBRANCH  15  16
ENDBRANCH  14  15
ENDBRANCH   5  14
ENDBRANCH   1   5
BRANCH   3  24
HETATM   24  C13 UNL     1      10.461 -38.987   2.965  1.00  0.00     0.317 C 
HETATM   25  C14 UNL     1      10.260 -37.592   2.349  1.00  0.00     0.047 C 
HETATM   26  C15 UNL     1       9.738 -37.956   0.979  1.00  0.00     0.033 C 
HETATM   27  C16 UNL     1       9.439 -39.430   1.011  1.00  0.00     0.277 C 
HETATM   28  N5  UNL     1       9.317 -39.679   2.458  1.00  0.00     0.133 N 
BRANCH  28  29
HETATM   29  C17 UNL     1       9.362 -41.107   2.714  1.00  0.00     0.394 C 
BRANCH  29  30
HETATM   30  O2  UNL     1       9.548 -41.733   1.460  1.00  0.00    -0.366 OA
ATOM     31  H2  UNL     1       9.882 -42.604   1.641  1.00  0.00     0.212 HD
ENDBRANCH  29  30
BRANCH  29  32
HETATM   32  C18 UNL     1       8.022 -41.504   3.294  1.00  0.00     0.291 C 
BRANCH  32  33
HETATM   33  N6  UNL     1       7.303 -40.287   3.701  1.00  0.00    -0.065 N 
ATOM     34  H63 UNL     1       7.014 -39.720   2.905  1.00  0.00     0.275 HD
ATOM     35  H62 UNL     1       6.375 -40.489   4.075  1.00  0.00     0.275 HD
ATOM     36  H61 UNL     1       7.883 -39.768   4.360  1.00  0.00     0.275 HD
ENDBRANCH  32  33
BRANCH  32  37
HETATM   37  C19 UNL     1       8.179 -42.365   4.494  1.00  0.00     0.036 C 
HETATM   38  C20 UNL     1       7.262 -43.188   4.975  1.00  0.00     0.002 C 
HETATM   39  C21 UNL     1       7.757 -43.883   6.173  1.00  0.00     0.048 C 
HETATM   40  C22 UNL     1       9.247 -43.665   6.110  1.00  0.00     0.123 C 
HETATM   41  N7  UNL     1       9.336 -42.439   5.310  1.00  0.00    -0.391 N 
ATOM     42  H7  UNL     1      10.095 -41.758   5.336  1.00  0.00     0.159 HD
ENDBRANCH  32  37
ENDBRANCH  29  32
ENDBRANCH  28  29
ENDBRANCH   3  24
TORSDOF 16
ENDMDL
MODEL 5
REMARK VINA RESULT: -6.738122684      3.381      9.466
REMARK  16 active torsions:
REMARK  status: ('A' for Active; 'I' for Inactive)
REMARK    1  A    between atoms: N1_1  and  C1_5 
REMARK    2  A    between atoms: C1_5  and  C2_6 
REMARK    3  A    between atoms: C2_6  and  C3_7 
REMARK    4  A    between atoms: C3_7  and  C4_8 
REMARK    5  A    between atoms: C4_8  and  C5_9 
REMARK    6  A    between atoms: C5_9  and  C6_10 
REMARK    7  A    between atoms: C5_9  and  N4_20 
REMARK    8  A    between atoms: C6_10  and  C7_11 
REMARK    9  A    between atoms: C7_11  and  C8_12 
REMARK   10  A    between atoms: C8_12  and  C9_13 
REMARK       I    between atoms: N4_20  and  C12_22 
REMARK   11  A    between atoms: C12_22  and  C13_24 
REMARK   12  A    between atoms: N5_28  and  C17_29 
REMARK   13  A    between atoms: C17_29  and  O2_30 
REMARK   14  A    between atoms: C17_29  and  C18_32 
REMARK   15  A    between atoms: C18_32  and  N6_33 
REMARK   16  A    between atoms: C18_32  and  C19_37 
ROOT
HETATM    1  N4  UNL     1      13.090 -40.758   7.284  1.00  0.00    -0.355 N 
ATOM      2  H4  UNL     1      13.838 -40.430   6.672  1.00  0.00     0.162 HD
HETATM    3  C12 UNL     1      13.359 -41.859   8.127  1.00  0.00     0.251 C 
HETATM    4  O1  UNL     1      12.469 -42.290   8.891  1.00  0.00    -0.271 OA
ENDROOT
BRANCH   1   5
HETATM    5  C5  UNL     1      11.804 -40.057   7.233  1.00  0.00     0.084 C 
BRANCH   5   6
HETATM    6  C4  UNL     1      12.032 -38.698   7.733  1.00  0.00     0.025 C 
BRANCH   6   7
HETATM    7  C3  UNL     1      13.176 -38.256   8.520  1.00  0.00     0.004 C 
BRANCH   7   8
HETATM    8  C2  UNL     1      13.175 -38.461   9.992  1.00  0.00     0.027 C 
BRANCH   8   9
HETATM    9  C1  UNL     1      13.657 -37.146  10.669  1.00  0.00     0.229 C 
BRANCH   9  10
HETATM   10  N1  UNL     1      14.917 -36.726  10.095  1.00  0.00    -0.079 N 
ATOM     11  H13 UNL     1      15.348 -35.972  10.630  1.00  0.00     0.274 HD
ATOM     12  H12 UNL     1      15.646 -37.430  10.214  1.00  0.00     0.274 HD
ATOM     13  H11 UNL     1      14.788 -36.473   9.115  1.00  0.00     0.274 HD
ENDBRANCH   9  10
ENDBRANCH   8   9
ENDBRANCH   7   8
ENDBRANCH   6   7
ENDBRANCH   5   6
BRANCH   5  14
HETATM   14  C6  UNL     1      11.195 -40.155   5.880  1.00  0.00     0.025 C 
BRANCH  14  15
HETATM   15  C7  UNL     1      10.991 -38.702   5.317  1.00  0.00     0.008 C 
BRANCH  15  16
HETATM   16  C8  UNL     1       9.846 -38.777   4.334  1.00  0.00     0.058 C 
BRANCH  16  17
HETATM   17  C9  UNL     1      10.292 -38.750   2.940  1.00  0.00     0.025 A 
HETATM   18  C10 UNL     1       9.587 -38.207   1.886  1.00  0.00     0.113 A 
HETATM   19  N2  UNL     1      10.294 -38.358   0.767  1.00  0.00    -0.360 N 
HETATM   20  C11 UNL     1      11.436 -38.991   1.114  1.00  0.00     0.180 A 
ATOM     21  H2  UNL     1      10.025 -38.055  -0.168  1.00  0.00     0.166 HD
HETATM   22  N3  UNL     1      11.436 -39.230   2.442  1.00  0.00    -0.355 N 
ATOM     23  H3  UNL     1      12.175 -39.694   2.970  1.00  0.00     0.166 HD
ENDBRANCH  16  17
ENDBRANCH  15  16
ENDBRANCH  14  15
ENDBRANCH   5  14
ENDBRANCH   1   5
BRANCH   3  24
HETATM   24  C13 UNL     1      14.682 -42.537   8.142  1.00  0.00     0.317 C 
HETATM   25  C14 UNL     1      14.535 -43.964   7.589  1.00  0.00     0.047 C 
HETATM   26  C15 UNL     1      15.759 -44.628   8.175  1.00  0.00     0.033 C 
HETATM   27  C16 UNL     1      16.329 -43.663   9.180  1.00  0.00     0.277 C 
HETATM   28  N5  UNL     1      15.168 -42.802   9.461  1.00  0.00     0.133 N 
BRANCH  28  29
HETATM   29  C17 UNL     1      15.604 -41.603  10.153  1.00  0.00     0.394 C 
BRANCH  29  30
HETATM   30  O2  UNL     1      17.016 -41.592  10.085  1.00  0.00    -0.366 OA
ATOM     31  H2  UNL     1      17.258 -40.797   9.626  1.00  0.00     0.212 HD
ENDBRANCH  29  30
BRANCH  29  32
HETATM   32  C18 UNL     1      15.159 -41.727  11.594  1.00  0.00     0.291 C 
BRANCH  32  33
HETATM   33  N6  UNL     1      13.760 -42.182  11.621  1.00  0.00    -0.065 N 
ATOM     34  H63 UNL     1      13.628 -43.001  12.214  1.00  0.00     0.275 HD
ATOM     35  H62 UNL     1      13.151 -41.540  12.128  1.00  0.00     0.275 HD
ATOM     36  H61 UNL     1      13.448 -42.340  10.663  1.00  0.00     0.275 HD
ENDBRANCH  32  33
BRANCH  32  37
HETATM   37  C19 UNL     1      15.228 -40.423  12.302  1.00  0.00     0.036 C 
HETATM   38  C20 UNL     1      14.403 -40.020  13.254  1.00  0.00     0.002 C 
HETATM   39  C21 UNL     1      14.768 -38.677  13.730  1.00  0.00     0.048 C 
HETATM   40  C22 UNL     1      16.173 -38.495  13.216  1.00  0.00     0.123 C 
HETATM   41  N7  UNL     1      16.190 -39.408  12.067  1.00  0.00    -0.391 N 
ATOM     42  H7  UNL     1      16.788 -39.327  11.245  1.00  0.00     0.159 HD
ENDBRANCH  32  37
ENDBRANCH  29  32
ENDBRANCH  28  29
ENDBRANCH   3  24
TORSDOF 16
ENDMDL
