MODEL 1
REMARK VINA RESULT: -7.822152068      0.000      0.000
REMARK  16 active torsions:
REMARK  status: ('A' for Active; 'I' for Inactive)
REMARK    1  A    between atoms: C2_2  and  C3_3 
REMARK    2  A    between atoms: C8_8  and  C9_9 
REMARK    3  A    between atoms: C10_10  and  C11_11 
REMARK    4  A    between atoms: C12_12  and  C13_13 
REMARK    5  A    between atoms: C13_13  and  O1_14 
REMARK    6  A    between atoms: C13_13  and  C14_16 
REMARK    7  A    between atoms: C14_16  and  C15_17 
REMARK    8  A    between atoms: C15_17  and  N1_18 
REMARK    9  A    between atoms: N1_18  and  S1_20 
REMARK   10  A    between atoms: S1_20  and  N2_23 
REMARK   11  A    between atoms: N2_23  and  C16_25 
REMARK   12  A    between atoms: C16_25  and  C17_26 
REMARK   13  A    between atoms: C17_26  and  C18_27 
REMARK   14  A    between atoms: C18_27  and  N3_28 
REMARK   15  A    between atoms: N3_28  and  C19_30 
REMARK   16  A    between atoms: C19_30  and  C20_31 
ROOT
HETATM    1  C15 UNL     1      11.580 -40.702   6.838  1.00  0.00     0.137 C 
ENDROOT
BRANCH   1   2
HETATM    2  C14 UNL     1      12.591 -40.135   7.846  1.00  0.00     0.065 C 
BRANCH   2   3
HETATM    3  C13 UNL     1      12.512 -38.637   7.692  1.00  0.00     0.198 C 
BRANCH   3   4
HETATM    4  C12 UNL     1      13.283 -38.046   8.784  1.00  0.00    -0.070 C 
HETATM    5  C11 UNL     1      13.933 -37.575   9.693  1.00  0.00    -0.076 C 
BRANCH   5   6
HETATM    6  C10 UNL     1      14.688 -36.975  10.748  1.00  0.00     0.061 C 
HETATM    7  C9  UNL     1      14.795 -37.281  11.978  1.00  0.00    -0.013 C 
BRANCH   7   8
HETATM    8  C8  UNL     1      14.186 -38.358  12.746  1.00  0.00     0.016 C 
HETATM    9  C3  UNL     1      14.064 -37.902  14.193  1.00  0.00     0.015 C 
HETATM   10  C4  UNL     1      14.774 -38.885  15.086  1.00  0.00     0.009 C 
HETATM   11  C5  UNL     1      14.113 -40.232  14.957  1.00  0.00     0.001 C 
HETATM   12  C6  UNL     1      14.086 -40.705  13.537  1.00  0.00     0.001 C 
HETATM   13  C7  UNL     1      14.819 -39.714  12.619  1.00  0.00     0.009 C 
BRANCH   9  14
HETATM   14  C2  UNL     1      14.704 -36.567  14.321  1.00  0.00    -0.032 C 
HETATM   15  C1  UNL     1      15.145 -36.093  15.479  1.00  0.00     0.007 C 
ENDBRANCH   9  14
ENDBRANCH   7   8
ENDBRANCH   5   6
ENDBRANCH   3   4
BRANCH   3  16
HETATM   16  O1  UNL     1      11.148 -38.288   7.813  1.00  0.00    -0.383 OA
ATOM     17  H1  UNL     1      10.658 -39.003   8.203  1.00  0.00     0.211 HD
ENDBRANCH   3  16
ENDBRANCH   2   3
ENDBRANCH   1   2
BRANCH   1  18
HETATM   18  N1  UNL     1      11.768 -39.966   5.626  1.00  0.00    -0.303 N 
ATOM     19  H1  UNL     1      12.689 -39.697   5.282  1.00  0.00     0.173 HD
BRANCH  18  20
HETATM   20  S1  UNL     1      10.325 -39.576   4.804  1.00  0.00     0.314 S 
HETATM   21  O2  UNL     1       9.679 -38.341   5.386  1.00  0.00    -0.183 OA
HETATM   22  O3  UNL     1       9.349 -40.731   4.983  1.00  0.00    -0.183 OA
BRANCH  20  23
HETATM   23  N2  UNL     1      10.673 -39.342   3.134  1.00  0.00    -0.303 N 
ATOM     24  H2  UNL     1      11.468 -38.798   2.798  1.00  0.00     0.173 HD
BRANCH  23  25
HETATM   25  C16 UNL     1       9.730 -39.990   2.259  1.00  0.00     0.135 C 
BRANCH  25  26
HETATM   26  C17 UNL     1      10.343 -40.262   0.901  1.00  0.00     0.039 C 
BRANCH  26  27
HETATM   27  C18 UNL     1       9.701 -39.456  -0.187  1.00  0.00     0.116 C 
BRANCH  27  28
HETATM   28  N3  UNL     1       9.904 -38.047  -0.087  1.00  0.00    -0.412 N 
ATOM     29  H3  UNL     1      10.829 -37.624  -0.153  1.00  0.00     0.153 HD
BRANCH  28  30
HETATM   30  C19 UNL     1       8.723 -37.269   0.113  1.00  0.00     0.228 C 
BRANCH  30  31
HETATM   31  C20 UNL     1       8.946 -36.326   1.234  1.00  0.00     0.190 C 
HETATM   32  O4  UNL     1       9.083 -35.099   1.012  1.00  0.00    -0.647 OA
HETATM   33  O5  UNL     1       9.006 -36.783   2.534  1.00  0.00    -0.647 OA
ENDBRANCH  30  31
ENDBRANCH  28  30
ENDBRANCH  27  28
ENDBRANCH  26  27
ENDBRANCH  25  26
ENDBRANCH  23  25
ENDBRANCH  20  23
ENDBRANCH  18  20
ENDBRANCH   1  18
TORSDOF 16
ENDMDL
MODEL 2
REMARK VINA RESULT: -7.620603430      1.667      2.935
REMARK  16 active torsions:
REMARK  status: ('A' for Active; 'I' for Inactive)
REMARK    1  A    between atoms: C2_2  and  C3_3 
REMARK    2  A    between atoms: C8_8  and  C9_9 
REMARK    3  A    between atoms: C10_10  and  C11_11 
REMARK    4  A    between atoms: C12_12  and  C13_13 
REMARK    5  A    between atoms: C13_13  and  O1_14 
REMARK    6  A    between atoms: C13_13  and  C14_16 
REMARK    7  A    between atoms: C14_16  and  C15_17 
REMARK    8  A    between atoms: C15_17  and  N1_18 
REMARK    9  A    between atoms: N1_18  and  S1_20 
REMARK   10  A    between atoms: S1_20  and  N2_23 
REMARK   11  A    between atoms: N2_23  and  C16_25 
REMARK   12  A    between atoms: C16_25  and  C17_26 
REMARK   13  A    between atoms: C17_26  and  C18_27 
REMARK   14  A    between atoms: C18_27  and  N3_28 
REMARK   15  A    between atoms: N3_28  and  C19_30 
REMARK   16  A    between atoms: C19_30  and  C20_31 
ROOT
HETATM    1  C15 UNL     1      11.521 -40.576   7.072  1.00  0.00     0.137 C 
ENDROOT
BRANCH   1   2
HETATM    2  C14 UNL     1      12.583 -40.037   8.042  1.00  0.00     0.065 C 
BRANCH   2   3
HETATM    3  C13 UNL     1      12.578 -38.541   7.850  1.00  0.00     0.198 C 
BRANCH   3   4
HETATM    4  C12 UNL     1      13.352 -37.959   8.945  1.00  0.00    -0.070 C 
HETATM    5  C11 UNL     1      13.981 -37.486   9.868  1.00  0.00    -0.076 C 
BRANCH   5   6
HETATM    6  C10 UNL     1      14.757 -36.917  10.923  1.00  0.00     0.061 C 
HETATM    7  C9  UNL     1      14.856 -37.230  12.152  1.00  0.00    -0.013 C 
BRANCH   7   8
HETATM    8  C8  UNL     1      14.212 -38.288  12.918  1.00  0.00     0.016 C 
HETATM    9  C3  UNL     1      14.144 -37.850  14.373  1.00  0.00     0.015 C 
HETATM   10  C4  UNL     1      14.824 -38.880  15.235  1.00  0.00     0.009 C 
HETATM   11  C5  UNL     1      14.095 -40.191  15.102  1.00  0.00     0.001 C 
HETATM   12  C6  UNL     1      14.014 -40.639  13.676  1.00  0.00     0.001 C 
HETATM   13  C7  UNL     1      14.775 -39.671  12.756  1.00  0.00     0.009 C 
BRANCH   9  14
HETATM   14  C2  UNL     1      14.851 -36.549  14.507  1.00  0.00    -0.032 C 
HETATM   15  C1  UNL     1      15.201 -36.042  15.682  1.00  0.00     0.007 C 
ENDBRANCH   9  14
ENDBRANCH   7   8
ENDBRANCH   5   6
ENDBRANCH   3   4
BRANCH   3  16
HETATM   16  O1  UNL     1      11.229 -38.127   7.930  1.00  0.00    -0.383 OA
ATOM     17  H1  UNL     1      10.977 -37.671   7.135  1.00  0.00     0.211 HD
ENDBRANCH   3  16
ENDBRANCH   2   3
ENDBRANCH   1   2
BRANCH   1  18
HETATM   18  N1  UNL     1      11.870 -40.074   5.779  1.00  0.00    -0.303 N 
ATOM     19  H1  UNL     1      12.829 -40.062   5.431  1.00  0.00     0.173 HD
BRANCH  18  20
HETATM   20  S1  UNL     1      10.550 -39.495   4.865  1.00  0.00     0.314 S 
HETATM   21  O2  UNL     1       9.910 -38.297   5.526  1.00  0.00    -0.183 OA
HETATM   22  O3  UNL     1       9.501 -40.597   4.797  1.00  0.00    -0.183 OA
BRANCH  20  23
HETATM   23  N2  UNL     1      11.094 -39.091   3.283  1.00  0.00    -0.303 N 
ATOM     24  H2  UNL     1      12.073 -38.917   3.054  1.00  0.00     0.173 HD
BRANCH  23  25
HETATM   25  C16 UNL     1      10.030 -39.022   2.314  1.00  0.00     0.135 C 
BRANCH  25  26
HETATM   26  C17 UNL     1      10.470 -39.584   0.978  1.00  0.00     0.039 C 
BRANCH  26  27
HETATM   27  C18 UNL     1      10.025 -41.001   0.781  1.00  0.00     0.116 C 
BRANCH  27  28
HETATM   28  N3  UNL     1       9.316 -41.565   1.884  1.00  0.00    -0.412 N 
ATOM     29  H3  UNL     1       9.329 -41.143   2.812  1.00  0.00     0.153 HD
BRANCH  28  30
HETATM   30  C19 UNL     1       8.588 -42.759   1.600  1.00  0.00     0.228 C 
BRANCH  30  31
HETATM   31  C20 UNL     1       8.511 -43.586   2.827  1.00  0.00     0.190 C 
HETATM   32  O4  UNL     1       7.728 -43.271   3.756  1.00  0.00    -0.647 OA
HETATM   33  O5  UNL     1       9.298 -44.710   2.966  1.00  0.00    -0.647 OA
ENDBRANCH  30  31
ENDBRANCH  28  30
ENDBRANCH  27  28
ENDBRANCH  26  27
ENDBRANCH  25  26
ENDBRANCH  23  25
ENDBRANCH  20  23
ENDBRANCH  18  20
ENDBRANCH   1  18
TORSDOF 16
ENDMDL
MODEL 3
REMARK VINA RESULT: -7.513680589      1.038      1.986
REMARK  16 active torsions:
REMARK  status: ('A' for Active; 'I' for Inactive)
REMARK    1  A    between atoms: C2_2  and  C3_3 
REMARK    2  A    between atoms: C8_8  and  C9_9 
REMARK    3  A    between atoms: C10_10  and  C11_11 
REMARK    4  A    between atoms: C12_12  and  C13_13 
REMARK    5  A    between atoms: C13_13  and  O1_14 
REMARK    6  A    between atoms: C13_13  and  C14_16 
REMARK    7  A    between atoms: C14_16  and  C15_17 
REMARK    8  A    between atoms: C15_17  and  N1_18 
REMARK    9  A    between atoms: N1_18  and  S1_20 
REMARK   10  A    between atoms: S1_20  and  N2_23 
REMARK   11  A    between atoms: N2_23  and  C16_25 
REMARK   12  A    between atoms: C16_25  and  C17_26 
REMARK   13  A    between atoms: C17_26  and  C18_27 
REMARK   14  A    between atoms: C18_27  and  N3_28 
REMARK   15  A    between atoms: N3_28  and  C19_30 
REMARK   16  A    between atoms: C19_30  and  C20_31 
ROOT
HETATM    1  C15 UNL     1      11.279 -40.391   6.915  1.00  0.00     0.137 C 
ENDROOT
BRANCH   1   2
HETATM    2  C14 UNL     1      12.688 -39.783   6.843  1.00  0.00     0.065 C 
BRANCH   2   3
HETATM    3  C13 UNL     1      12.689 -38.654   7.842  1.00  0.00     0.198 C 
BRANCH   3   4
HETATM    4  C12 UNL     1      13.138 -39.202   9.120  1.00  0.00    -0.070 C 
HETATM    5  C11 UNL     1      13.506 -39.637  10.190  1.00  0.00    -0.076 C 
BRANCH   5   6
HETATM    6  C10 UNL     1      13.938 -40.195  11.432  1.00  0.00     0.061 C 
HETATM    7  C9  UNL     1      14.360 -39.641  12.497  1.00  0.00    -0.013 C 
BRANCH   7   8
HETATM    8  C8  UNL     1      14.550 -38.236  12.825  1.00  0.00     0.016 C 
HETATM    9  C3  UNL     1      14.869 -38.131  14.309  1.00  0.00     0.015 C 
HETATM   10  C4  UNL     1      13.871 -37.217  14.970  1.00  0.00     0.009 C 
HETATM   11  C5  UNL     1      13.986 -35.843  14.364  1.00  0.00     0.001 C 
HETATM   12  C6  UNL     1      13.799 -35.874  12.879  1.00  0.00     0.001 C 
HETATM   13  C7  UNL     1      13.459 -37.295  12.401  1.00  0.00     0.009 C 
BRANCH   9  14
HETATM   14  C2  UNL     1      14.770 -39.487  14.909  1.00  0.00    -0.032 C 
HETATM   15  C1  UNL     1      14.352 -39.692  16.151  1.00  0.00     0.007 C 
ENDBRANCH   9  14
ENDBRANCH   7   8
ENDBRANCH   5   6
ENDBRANCH   3   4
BRANCH   3  16
HETATM   16  O1  UNL     1      11.353 -38.203   7.945  1.00  0.00    -0.383 OA
ATOM     17  H1  UNL     1      11.215 -37.451   7.382  1.00  0.00     0.211 HD
ENDBRANCH   3  16
ENDBRANCH   2   3
ENDBRANCH   1   2
BRANCH   1  18
HETATM   18  N1  UNL     1      10.917 -40.719   5.570  1.00  0.00    -0.303 N 
ATOM     19  H1  UNL     1      11.091 -41.636   5.160  1.00  0.00     0.173 HD
BRANCH  18  20
HETATM   20  S1  UNL     1      10.169 -39.450   4.709  1.00  0.00     0.314 S 
HETATM   21  O2  UNL     1       9.872 -38.276   5.612  1.00  0.00    -0.183 OA
HETATM   22  O3  UNL     1       8.841 -39.962   4.169  1.00  0.00    -0.183 OA
BRANCH  20  23
HETATM   23  N2  UNL     1      11.195 -38.967   3.414  1.00  0.00    -0.303 N 
ATOM     24  H2  UNL     1      11.946 -38.285   3.518  1.00  0.00     0.173 HD
BRANCH  23  25
HETATM   25  C16 UNL     1      10.886 -39.622   2.168  1.00  0.00     0.135 C 
BRANCH  25  26
HETATM   26  C17 UNL     1      11.561 -38.927   1.004  1.00  0.00     0.039 C 
BRANCH  26  27
HETATM   27  C18 UNL     1      10.592 -38.540  -0.071  1.00  0.00     0.116 C 
BRANCH  27  28
HETATM   28  N3  UNL     1       9.224 -38.526   0.335  1.00  0.00    -0.412 N 
ATOM     29  H3  UNL     1       8.761 -39.350   0.718  1.00  0.00     0.153 HD
BRANCH  28  30
HETATM   30  C19 UNL     1       8.546 -37.280   0.168  1.00  0.00     0.228 C 
BRANCH  30  31
HETATM   31  C20 UNL     1       8.931 -36.366   1.269  1.00  0.00     0.190 C 
HETATM   32  O4  UNL     1       9.226 -35.171   1.028  1.00  0.00    -0.647 OA
HETATM   33  O5  UNL     1       8.971 -36.816   2.573  1.00  0.00    -0.647 OA
ENDBRANCH  30  31
ENDBRANCH  28  30
ENDBRANCH  27  28
ENDBRANCH  26  27
ENDBRANCH  25  26
ENDBRANCH  23  25
ENDBRANCH  20  23
ENDBRANCH  18  20
ENDBRANCH   1  18
TORSDOF 16
ENDMDL
MODEL 4
REMARK VINA RESULT: -7.483271462      1.569      2.083
REMARK  16 active torsions:
REMARK  status: ('A' for Active; 'I' for Inactive)
REMARK    1  A    between atoms: C2_2  and  C3_3 
REMARK    2  A    between atoms: C8_8  and  C9_9 
REMARK    3  A    between atoms: C10_10  and  C11_11 
REMARK    4  A    between atoms: C12_12  and  C13_13 
REMARK    5  A    between atoms: C13_13  and  O1_14 
REMARK    6  A    between atoms: C13_13  and  C14_16 
REMARK    7  A    between atoms: C14_16  and  C15_17 
REMARK    8  A    between atoms: C15_17  and  N1_18 
REMARK    9  A    between atoms: N1_18  and  S1_20 
REMARK   10  A    between atoms: S1_20  and  N2_23 
REMARK   11  A    between atoms: N2_23  and  C16_25 
REMARK   12  A    between atoms: C16_25  and  C17_26 
REMARK   13  A    between atoms: C17_26  and  C18_27 
REMARK   14  A    between atoms: C18_27  and  N3_28 
REMARK   15  A    between atoms: N3_28  and  C19_30 
REMARK   16  A    between atoms: C19_30  and  C20_31 
ROOT
HETATM    1  C15 UNL     1      11.957 -38.594   7.305  1.00  0.00     0.137 C 
ENDROOT
BRANCH   1   2
HETATM    2  C14 UNL     1      12.738 -39.313   8.415  1.00  0.00     0.065 C 
BRANCH   2   3
HETATM    3  C13 UNL     1      13.931 -38.436   8.698  1.00  0.00     0.198 C 
BRANCH   3   4
HETATM    4  C12 UNL     1      13.656 -37.711   9.937  1.00  0.00    -0.070 C 
HETATM    5  C11 UNL     1      13.449 -37.101  10.964  1.00  0.00    -0.076 C 
BRANCH   5   6
HETATM    6  C10 UNL     1      13.157 -36.390  12.169  1.00  0.00     0.061 C 
HETATM    7  C9  UNL     1      13.757 -36.362  13.290  1.00  0.00    -0.013 C 
BRANCH   7   8
HETATM    8  C8  UNL     1      14.959 -37.047  13.742  1.00  0.00     0.016 C 
HETATM    9  C3  UNL     1      15.029 -36.940  15.258  1.00  0.00     0.015 C 
HETATM   10  C4  UNL     1      16.335 -36.302  15.652  1.00  0.00     0.009 C 
HETATM   11  C5  UNL     1      17.469 -37.176  15.188  1.00  0.00     0.001 C 
HETATM   12  C6  UNL     1      17.409 -37.428  13.714  1.00  0.00     0.001 C 
HETATM   13  C7  UNL     1      16.246 -36.652  13.075  1.00  0.00     0.009 C 
BRANCH   9  14
HETATM   14  C2  UNL     1      13.903 -36.088  15.722  1.00  0.00    -0.032 C 
HETATM   15  C1  UNL     1      13.591 -35.950  17.004  1.00  0.00     0.007 C 
ENDBRANCH   9  14
ENDBRANCH   7   8
ENDBRANCH   5   6
ENDBRANCH   3   4
BRANCH   3  16
HETATM   16  O1  UNL     1      14.036 -37.532   7.616  1.00  0.00    -0.383 OA
ATOM     17  H1  UNL     1      13.752 -37.949   6.810  1.00  0.00     0.211 HD
ENDBRANCH   3  16
ENDBRANCH   2   3
ENDBRANCH   1   2
BRANCH   1  18
HETATM   18  N1  UNL     1      11.920 -39.495   6.194  1.00  0.00    -0.303 N 
ATOM     19  H1  UNL     1      12.596 -40.250   6.074  1.00  0.00     0.173 HD
BRANCH  18  20
HETATM   20  S1  UNL     1      10.655 -39.204   5.088  1.00  0.00     0.314 S 
HETATM   21  O2  UNL     1       9.730 -38.119   5.586  1.00  0.00    -0.183 OA
HETATM   22  O3  UNL     1       9.836 -40.481   4.957  1.00  0.00    -0.183 OA
BRANCH  20  23
HETATM   23  N2  UNL     1      11.328 -38.768   3.564  1.00  0.00    -0.303 N 
ATOM     24  H2  UNL     1      12.053 -38.059   3.454  1.00  0.00     0.173 HD
BRANCH  23  25
HETATM   25  C16 UNL     1      10.765 -39.505   2.461  1.00  0.00     0.135 C 
BRANCH  25  26
HETATM   26  C17 UNL     1      11.447 -39.141   1.158  1.00  0.00     0.039 C 
BRANCH  26  27
HETATM   27  C18 UNL     1      10.468 -38.881   0.054  1.00  0.00     0.116 C 
BRANCH  27  28
HETATM   28  N3  UNL     1       9.167 -38.488   0.489  1.00  0.00    -0.412 N 
ATOM     29  H3  UNL     1       8.569 -39.102   1.043  1.00  0.00     0.153 HD
BRANCH  28  30
HETATM   30  C19 UNL     1       8.758 -37.178   0.097  1.00  0.00     0.228 C 
BRANCH  30  31
HETATM   31  C20 UNL     1       8.928 -36.252   1.242  1.00  0.00     0.190 C 
HETATM   32  O4  UNL     1       9.016 -36.698   2.411  1.00  0.00    -0.647 OA
HETATM   33  O5  UNL     1       8.990 -34.889   1.038  1.00  0.00    -0.647 OA
ENDBRANCH  30  31
ENDBRANCH  28  30
ENDBRANCH  27  28
ENDBRANCH  26  27
ENDBRANCH  25  26
ENDBRANCH  23  25
ENDBRANCH  20  23
ENDBRANCH  18  20
ENDBRANCH   1  18
TORSDOF 16
ENDMDL
MODEL 5
REMARK VINA RESULT: -7.257250444      2.233      3.260
REMARK  16 active torsions:
REMARK  status: ('A' for Active; 'I' for Inactive)
REMARK    1  A    between atoms: C2_2  and  C3_3 
REMARK    2  A    between atoms: C8_8  and  C9_9 
REMARK    3  A    between atoms: C10_10  and  C11_11 
REMARK    4  A    between atoms: C12_12  and  C13_13 
REMARK    5  A    between atoms: C13_13  and  O1_14 
REMARK    6  A    between atoms: C13_13  and  C14_16 
REMARK    7  A    between atoms: C14_16  and  C15_17 
REMARK    8  A    between atoms: C15_17  and  N1_18 
REMARK    9  A    between atoms: N1_18  and  S1_20 
REMARK   10  A    between atoms: S1_20  and  N2_23 
REMARK   11  A    between atoms: N2_23  and  C16_25 
REMARK   12  A    between atoms: C16_25  and  C17_26 
REMARK   13  A    between atoms: C17_26  and  C18_27 
REMARK   14  A    between atoms: C18_27  and  N3_28 
REMARK   15  A    between atoms: N3_28  and  C19_30 
REMARK   16  A    between atoms: C19_30  and  C20_31 
ROOT
HETATM    1  C15 UNL     1      11.898 -38.691   7.257  1.00  0.00     0.137 C 
ENDROOT
BRANCH   1   2
HETATM    2  C14 UNL     1      12.707 -39.377   8.368  1.00  0.00     0.065 C 
BRANCH   2   3
HETATM    3  C13 UNL     1      13.886 -38.472   8.623  1.00  0.00     0.198 C 
BRANCH   3   4
HETATM    4  C12 UNL     1      13.618 -37.746   9.862  1.00  0.00    -0.070 C 
HETATM    5  C11 UNL     1      13.416 -37.146  10.897  1.00  0.00    -0.076 C 
BRANCH   5   6
HETATM    6  C10 UNL     1      13.139 -36.421  12.097  1.00  0.00     0.061 C 
HETATM    7  C9  UNL     1      13.741 -36.395  13.217  1.00  0.00    -0.013 C 
BRANCH   7   8
HETATM    8  C8  UNL     1      14.932 -37.098  13.672  1.00  0.00     0.016 C 
HETATM    9  C3  UNL     1      15.021 -36.958  15.184  1.00  0.00     0.015 C 
HETATM   10  C4  UNL     1      16.345 -36.342  15.551  1.00  0.00     0.009 C 
HETATM   11  C5  UNL     1      17.454 -37.253  15.095  1.00  0.00     0.001 C 
HETATM   12  C6  UNL     1      17.371 -37.538  13.628  1.00  0.00     0.001 C 
HETATM   13  C7  UNL     1      16.220 -36.749  12.983  1.00  0.00     0.009 C 
BRANCH   9  14
HETATM   14  C2  UNL     1      13.919 -36.069  15.640  1.00  0.00    -0.032 C 
HETATM   15  C1  UNL     1      13.852 -35.588  16.874  1.00  0.00     0.007 C 
ENDBRANCH   9  14
ENDBRANCH   7   8
ENDBRANCH   5   6
ENDBRANCH   3   4
BRANCH   3  16
HETATM   16  O1  UNL     1      13.951 -37.574   7.534  1.00  0.00    -0.383 OA
ATOM     17  H1  UNL     1      13.787 -38.033   6.718  1.00  0.00     0.211 HD
ENDBRANCH   3  16
ENDBRANCH   2   3
ENDBRANCH   1   2
BRANCH   1  18
HETATM   18  N1  UNL     1      11.862 -39.612   6.163  1.00  0.00    -0.303 N 
ATOM     19  H1  UNL     1      12.527 -40.380   6.066  1.00  0.00     0.173 HD
BRANCH  18  20
HETATM   20  S1  UNL     1      10.618 -39.321   5.033  1.00  0.00     0.314 S 
HETATM   21  O2  UNL     1       9.746 -38.165   5.465  1.00  0.00    -0.183 OA
HETATM   22  O3  UNL     1       9.737 -40.561   4.968  1.00  0.00    -0.183 OA
BRANCH  20  23
HETATM   23  N2  UNL     1      11.317 -39.004   3.492  1.00  0.00    -0.303 N 
ATOM     24  H2  UNL     1      12.324 -38.949   3.335  1.00  0.00     0.173 HD
BRANCH  23  25
HETATM   25  C16 UNL     1      10.340 -38.823   2.449  1.00  0.00     0.135 C 
BRANCH  25  26
HETATM   26  C17 UNL     1      10.768 -39.521   1.174  1.00  0.00     0.039 C 
BRANCH  26  27
HETATM   27  C18 UNL     1       9.877 -40.675   0.828  1.00  0.00     0.116 C 
BRANCH  27  28
HETATM   28  N3  UNL     1       9.432 -41.443   1.945  1.00  0.00    -0.412 N 
ATOM     29  H3  UNL     1       9.620 -41.163   2.908  1.00  0.00     0.153 HD
BRANCH  28  30
HETATM   30  C19 UNL     1       8.706 -42.630   1.625  1.00  0.00     0.228 C 
BRANCH  30  31
HETATM   31  C20 UNL     1       7.544 -42.751   2.537  1.00  0.00     0.190 C 
HETATM   32  O4  UNL     1       7.186 -41.776   3.240  1.00  0.00    -0.647 OA
HETATM   33  O5  UNL     1       6.842 -43.935   2.625  1.00  0.00    -0.647 OA
ENDBRANCH  30  31
ENDBRANCH  28  30
ENDBRANCH  27  28
ENDBRANCH  26  27
ENDBRANCH  25  26
ENDBRANCH  23  25
ENDBRANCH  20  23
ENDBRANCH  18  20
ENDBRANCH   1  18
TORSDOF 16
ENDMDL
