MODEL 1
REMARK VINA RESULT: -7.371574094      0.000      0.000
REMARK  17 active torsions:
REMARK  status: ('A' for Active; 'I' for Inactive)
REMARK    1  A    between atoms: C3_9  and  N4_10 
REMARK    2  A    between atoms: N4_10  and  C4_12 
REMARK    3  A    between atoms: C4_12  and  C5_13 
REMARK    4  A    between atoms: C5_13  and  C6_14 
REMARK    5  A    between atoms: C6_14  and  C7_15 
REMARK    6  A    between atoms: C7_15  and  C8_16 
REMARK    7  A    between atoms: C8_16  and  C9_17 
REMARK    8  A    between atoms: C9_17  and  C10_18 
REMARK    9  A    between atoms: C10_18  and  C11_19 
REMARK   10  A    between atoms: C11_19  and  C12_20 
REMARK   11  A    between atoms: C12_20  and  S1_21 
REMARK   12  A    between atoms: S1_21  and  C13_22 
REMARK   13  A    between atoms: C13_22  and  C14_23 
REMARK   14  A    between atoms: C14_23  and  N5_24 
REMARK   15  A    between atoms: N5_24  and  C15_26 
REMARK   16  A    between atoms: C19_36  and  C20_37 
REMARK   17  A    between atoms: N10_39  and  O1_41 
ROOT
HETATM    1  C13 UNL     1      33.877  37.644  -7.697  1.00  0.00     0.093 C 
ENDROOT
BRANCH   1   2
HETATM    2  S1  UNL     1      32.698  37.859  -8.987  1.00  0.00    -0.168 SA
BRANCH   2   3
HETATM    3  C12 UNL     1      33.243  38.431 -10.558  1.00  0.00     0.074 C 
BRANCH   3   4
HETATM    4  C11 UNL     1      32.671  39.685 -11.095  1.00  0.00     0.010 C 
BRANCH   4   5
HETATM    5  C10 UNL     1      32.316  40.708 -10.069  1.00  0.00     0.001 C 
BRANCH   5   6
HETATM    6  C9  UNL     1      33.181  41.903  -9.998  1.00  0.00     0.000 C 
BRANCH   6   7
HETATM    7  C8  UNL     1      32.524  43.193 -10.411  1.00  0.00     0.000 C 
BRANCH   7   8
HETATM    8  C7  UNL     1      33.103  43.737 -11.700  1.00  0.00     0.000 C 
BRANCH   8   9
HETATM    9  C6  UNL     1      32.650  42.967 -12.903  1.00  0.00     0.002 C 
BRANCH   9  10
HETATM   10  C5  UNL     1      32.694  43.725 -14.190  1.00  0.00     0.020 C 
BRANCH  10  11
HETATM   11  C4  UNL     1      31.280  43.648 -14.783  1.00  0.00     0.121 C 
BRANCH  11  12
HETATM   12  N4  UNL     1      31.415  43.678 -16.219  1.00  0.00    -0.374 N 
ATOM     13  H4  UNL     1      31.131  42.857 -16.753  1.00  0.00     0.161 HD
BRANCH  12  14
HETATM   14  C3  UNL     1      31.880  44.700 -16.856  1.00  0.00     0.141 A 
HETATM   15  C2  UNL     1      32.583  44.627 -18.037  1.00  0.00     0.068 A 
HETATM   16  C1  UNL     1      32.931  43.400 -18.781  1.00  0.00     0.074 C 
HETATM   17  N1  UNL     1      32.909  45.878 -18.415  1.00  0.00    -0.287 N 
HETATM   18  N2  UNL     1      32.427  46.690 -17.502  1.00  0.00    -0.241 N 
ATOM     19  H1  UNL     1      33.431  46.143 -19.250  1.00  0.00     0.188 HD
HETATM   20  N3  UNL     1      31.799  46.002 -16.549  1.00  0.00    -0.270 N 
ATOM     21  H2  UNL     1      32.520  47.706 -17.521  1.00  0.00     0.208 HD
ATOM     22  H3  UNL     1      31.338  46.398 -15.729  1.00  0.00     0.190 HD
ENDBRANCH  12  14
ENDBRANCH  11  12
ENDBRANCH  10  11
ENDBRANCH   9  10
ENDBRANCH   8   9
ENDBRANCH   7   8
ENDBRANCH   6   7
ENDBRANCH   5   6
ENDBRANCH   4   5
ENDBRANCH   3   4
ENDBRANCH   2   3
ENDBRANCH   1   2
BRANCH   1  23
HETATM   23  C14 UNL     1      35.159  38.392  -7.791  1.00  0.00     0.131 C 
BRANCH  23  24
HETATM   24  N5  UNL     1      35.456  38.857  -6.427  1.00  0.00    -0.375 N 
ATOM     25  H5  UNL     1      35.868  38.214  -5.750  1.00  0.00     0.161 HD
BRANCH  24  26
HETATM   26  C15 UNL     1      35.203  40.058  -6.088  1.00  0.00     0.117 A 
HETATM   27  N6  UNL     1      34.226  40.746  -6.758  1.00  0.00    -0.338 N 
HETATM   28  C16 UNL     1      33.946  42.008  -6.422  1.00  0.00     0.183 A 
ATOM     29  H6  UNL     1      33.713  40.294  -7.515  1.00  0.00     0.168 HD
HETATM   30  N7  UNL     1      34.633  42.579  -5.425  1.00  0.00    -0.338 N 
HETATM   31  C17 UNL     1      35.599  41.936  -4.742  1.00  0.00     0.121 A 
ATOM     32  H7  UNL     1      34.415  43.542  -5.171  1.00  0.00     0.168 HD
HETATM   33  N8  UNL     1      36.400  42.281  -3.738  1.00  0.00    -0.350 N 
HETATM   34  C21 UNL     1      35.920  40.626  -5.060  1.00  0.00     0.067 A 
HETATM   35  C18 UNL     1      37.206  41.282  -3.399  1.00  0.00     0.105 A 
ATOM     36  H8  UNL     1      36.396  43.196  -3.288  1.00  0.00     0.166 HD
HETATM   37  C19 UNL     1      36.941  40.169  -4.228  1.00  0.00     0.040 A 
BRANCH  37  38
HETATM   38  C20 UNL     1      37.625  38.916  -4.135  1.00  0.00     0.148 C 
HETATM   39  N9  UNL     1      38.319  38.217  -5.136  1.00  0.00    -0.080 NA
HETATM   40  N10 UNL     1      37.651  38.284  -3.011  1.00  0.00    -0.255 N 
ATOM     41  H10 UNL     1      38.166  37.406  -3.064  1.00  0.00     0.195 HD
BRANCH  40  42
HETATM   42  O1  UNL     1      37.169  38.514  -1.827  1.00  0.00    -0.288 OA
ATOM     43  H1  UNL     1      37.279  39.208  -1.187  1.00  0.00     0.244 HD
ENDBRANCH  40  42
ENDBRANCH  37  38
ENDBRANCH  24  26
ENDBRANCH  23  24
ENDBRANCH   1  23
TORSDOF 17
ENDMDL
MODEL 2
REMARK VINA RESULT: -7.368867383      4.484     10.323
REMARK  17 active torsions:
REMARK  status: ('A' for Active; 'I' for Inactive)
REMARK    1  A    between atoms: C3_9  and  N4_10 
REMARK    2  A    between atoms: N4_10  and  C4_12 
REMARK    3  A    between atoms: C4_12  and  C5_13 
REMARK    4  A    between atoms: C5_13  and  C6_14 
REMARK    5  A    between atoms: C6_14  and  C7_15 
REMARK    6  A    between atoms: C7_15  and  C8_16 
REMARK    7  A    between atoms: C8_16  and  C9_17 
REMARK    8  A    between atoms: C9_17  and  C10_18 
REMARK    9  A    between atoms: C10_18  and  C11_19 
REMARK   10  A    between atoms: C11_19  and  C12_20 
REMARK   11  A    between atoms: C12_20  and  S1_21 
REMARK   12  A    between atoms: S1_21  and  C13_22 
REMARK   13  A    between atoms: C13_22  and  C14_23 
REMARK   14  A    between atoms: C14_23  and  N5_24 
REMARK   15  A    between atoms: N5_24  and  C15_26 
REMARK   16  A    between atoms: C19_36  and  C20_37 
REMARK   17  A    between atoms: N10_39  and  O1_41 
ROOT
HETATM    1  C13 UNL     1      36.132  36.804  -8.769  1.00  0.00     0.093 C 
ENDROOT
BRANCH   1   2
HETATM    2  S1  UNL     1      37.048  35.383  -9.262  1.00  0.00    -0.168 SA
BRANCH   2   3
HETATM    3  C12 UNL     1      38.423  34.871  -8.293  1.00  0.00     0.074 C 
BRANCH   3   4
HETATM    4  C11 UNL     1      38.852  35.724  -7.163  1.00  0.00     0.010 C 
BRANCH   4   5
HETATM    5  C10 UNL     1      40.141  35.327  -6.526  1.00  0.00     0.001 C 
BRANCH   5   6
HETATM    6  C9  UNL     1      41.114  36.410  -6.271  1.00  0.00     0.000 C 
BRANCH   6   7
HETATM    7  C8  UNL     1      41.593  36.516  -4.849  1.00  0.00     0.000 C 
BRANCH   7   8
HETATM    8  C7  UNL     1      41.291  37.873  -4.249  1.00  0.00     0.000 C 
BRANCH   8   9
HETATM    9  C6  UNL     1      40.295  37.799  -3.132  1.00  0.00     0.002 C 
BRANCH   9  10
HETATM   10  C5  UNL     1      38.868  37.950  -3.547  1.00  0.00     0.020 C 
BRANCH  10  11
HETATM   11  C4  UNL     1      38.667  39.439  -3.863  1.00  0.00     0.121 C 
BRANCH  11  12
HETATM   12  N4  UNL     1      38.011  40.034  -2.725  1.00  0.00    -0.374 N 
ATOM     13  H4  UNL     1      38.482  40.005  -1.821  1.00  0.00     0.161 HD
BRANCH  12  14
HETATM   14  C3  UNL     1      36.854  40.601  -2.801  1.00  0.00     0.141 A 
HETATM   15  C2  UNL     1      36.123  41.028  -1.717  1.00  0.00     0.068 A 
HETATM   16  C1  UNL     1      36.512  40.923  -0.296  1.00  0.00     0.074 C 
HETATM   17  N1  UNL     1      34.974  41.569  -2.164  1.00  0.00    -0.287 N 
HETATM   18  N2  UNL     1      34.995  41.479  -3.475  1.00  0.00    -0.241 N 
ATOM     19  H1  UNL     1      34.230  41.973  -1.595  1.00  0.00     0.188 HD
HETATM   20  N3  UNL     1      36.122  40.897  -3.885  1.00  0.00    -0.270 N 
ATOM     21  H2  UNL     1      34.253  41.807  -4.092  1.00  0.00     0.208 HD
ATOM     22  H3  UNL     1      36.382  40.710  -4.853  1.00  0.00     0.190 HD
ENDBRANCH  12  14
ENDBRANCH  11  12
ENDBRANCH  10  11
ENDBRANCH   9  10
ENDBRANCH   8   9
ENDBRANCH   7   8
ENDBRANCH   6   7
ENDBRANCH   5   6
ENDBRANCH   4   5
ENDBRANCH   3   4
ENDBRANCH   2   3
ENDBRANCH   1   2
BRANCH   1  23
HETATM   23  C14 UNL     1      35.423  37.578  -9.822  1.00  0.00     0.131 C 
BRANCH  23  24
HETATM   24  N5  UNL     1      34.451  38.426  -9.115  1.00  0.00    -0.375 N 
ATOM     25  H5  UNL     1      34.488  38.503  -8.099  1.00  0.00     0.161 HD
BRANCH  24  26
HETATM   26  C15 UNL     1      33.563  39.066  -9.767  1.00  0.00     0.117 A 
HETATM   27  N6  UNL     1      33.040  38.506 -10.903  1.00  0.00    -0.338 N 
HETATM   28  C16 UNL     1      32.110  39.161 -11.604  1.00  0.00     0.183 A 
ATOM     29  H6  UNL     1      33.361  37.589 -11.213  1.00  0.00     0.168 HD
HETATM   30  N7  UNL     1      31.704  40.362 -11.176  1.00  0.00    -0.338 N 
HETATM   31  C17 UNL     1      32.194  40.945 -10.065  1.00  0.00     0.121 A 
ATOM     32  H7  UNL     1      30.994  40.858 -11.714  1.00  0.00     0.168 HD
HETATM   33  N8  UNL     1      31.955  42.101  -9.452  1.00  0.00    -0.350 N 
HETATM   34  C21 UNL     1      33.159  40.300  -9.310  1.00  0.00     0.067 A 
HETATM   35  C18 UNL     1      32.702  42.233  -8.363  1.00  0.00     0.105 A 
ATOM     36  H8  UNL     1      31.285  42.797  -9.778  1.00  0.00     0.166 HD
HETATM   37  C19 UNL     1      33.514  41.085  -8.214  1.00  0.00     0.040 A 
BRANCH  37  38
HETATM   38  C20 UNL     1      34.441  40.889  -7.143  1.00  0.00     0.148 C 
HETATM   39  N9  UNL     1      35.588  41.634  -6.825  1.00  0.00    -0.080 NA
HETATM   40  N10 UNL     1      34.263  39.916  -6.315  1.00  0.00    -0.255 N 
ATOM     41  H10 UNL     1      34.984  39.874  -5.594  1.00  0.00     0.195 HD
BRANCH  40  42
HETATM   42  O1  UNL     1      33.374  38.977  -6.191  1.00  0.00    -0.288 OA
ATOM     43  H1  UNL     1      33.128  38.382  -5.493  1.00  0.00     0.244 HD
ENDBRANCH  40  42
ENDBRANCH  37  38
ENDBRANCH  24  26
ENDBRANCH  23  24
ENDBRANCH   1  23
TORSDOF 17
ENDMDL
MODEL 3
REMARK VINA RESULT: -7.332358565      3.952     11.908
REMARK  17 active torsions:
REMARK  status: ('A' for Active; 'I' for Inactive)
REMARK    1  A    between atoms: C3_9  and  N4_10 
REMARK    2  A    between atoms: N4_10  and  C4_12 
REMARK    3  A    between atoms: C4_12  and  C5_13 
REMARK    4  A    between atoms: C5_13  and  C6_14 
REMARK    5  A    between atoms: C6_14  and  C7_15 
REMARK    6  A    between atoms: C7_15  and  C8_16 
REMARK    7  A    between atoms: C8_16  and  C9_17 
REMARK    8  A    between atoms: C9_17  and  C10_18 
REMARK    9  A    between atoms: C10_18  and  C11_19 
REMARK   10  A    between atoms: C11_19  and  C12_20 
REMARK   11  A    between atoms: C12_20  and  S1_21 
REMARK   12  A    between atoms: S1_21  and  C13_22 
REMARK   13  A    between atoms: C13_22  and  C14_23 
REMARK   14  A    between atoms: C14_23  and  N5_24 
REMARK   15  A    between atoms: N5_24  and  C15_26 
REMARK   16  A    between atoms: C19_36  and  C20_37 
REMARK   17  A    between atoms: N10_39  and  O1_41 
ROOT
HETATM    1  C13 UNL     1      32.641  43.874 -11.315  1.00  0.00     0.093 C 
ENDROOT
BRANCH   1   2
HETATM    2  S1  UNL     1      33.058  42.572 -10.205  1.00  0.00    -0.168 SA
BRANCH   2   3
HETATM    3  C12 UNL     1      32.045  41.135 -10.152  1.00  0.00     0.074 C 
BRANCH   3   4
HETATM    4  C11 UNL     1      32.588  39.865 -10.679  1.00  0.00     0.010 C 
BRANCH   4   5
HETATM    5  C10 UNL     1      33.471  39.115  -9.739  1.00  0.00     0.001 C 
BRANCH   5   6
HETATM    6  C9  UNL     1      32.818  38.509  -8.560  1.00  0.00     0.000 C 
BRANCH   6   7
HETATM    7  C8  UNL     1      33.502  38.772  -7.246  1.00  0.00     0.000 C 
BRANCH   7   8
HETATM    8  C7  UNL     1      34.023  40.190  -7.151  1.00  0.00     0.000 C 
BRANCH   8   9
HETATM    9  C6  UNL     1      35.123  40.333  -6.144  1.00  0.00     0.002 C 
BRANCH   9  10
HETATM   10  C5  UNL     1      35.244  41.689  -5.529  1.00  0.00     0.020 C 
BRANCH  10  11
HETATM   11  C4  UNL     1      36.189  41.535  -4.329  1.00  0.00     0.121 C 
BRANCH  11  12
HETATM   12  N4  UNL     1      35.383  41.621  -3.136  1.00  0.00    -0.374 N 
ATOM     13  H4  UNL     1      34.391  41.835  -3.232  1.00  0.00     0.161 HD
BRANCH  12  14
HETATM   14  C3  UNL     1      35.865  41.441  -1.952  1.00  0.00     0.141 A 
HETATM   15  C2  UNL     1      36.388  42.439  -1.164  1.00  0.00     0.068 A 
HETATM   16  C1  UNL     1      36.497  43.871  -1.512  1.00  0.00     0.074 C 
HETATM   17  N1  UNL     1      36.794  41.895  -0.001  1.00  0.00    -0.287 N 
HETATM   18  N2  UNL     1      36.531  40.610  -0.069  1.00  0.00    -0.241 N 
ATOM     19  H1  UNL     1      37.222  42.387   0.783  1.00  0.00     0.188 HD
HETATM   20  N3  UNL     1      35.968  40.310  -1.240  1.00  0.00    -0.270 N 
ATOM     21  H2  UNL     1      36.729  39.935   0.670  1.00  0.00     0.208 HD
ATOM     22  H3  UNL     1      35.668  39.382  -1.540  1.00  0.00     0.190 HD
ENDBRANCH  12  14
ENDBRANCH  11  12
ENDBRANCH  10  11
ENDBRANCH   9  10
ENDBRANCH   8   9
ENDBRANCH   7   8
ENDBRANCH   6   7
ENDBRANCH   5   6
ENDBRANCH   4   5
ENDBRANCH   3   4
ENDBRANCH   2   3
ENDBRANCH   1   2
BRANCH   1  23
HETATM   23  C14 UNL     1      31.235  44.360 -11.324  1.00  0.00     0.131 C 
BRANCH  23  24
HETATM   24  N5  UNL     1      30.779  44.254 -12.719  1.00  0.00    -0.375 N 
ATOM     25  H5  UNL     1      30.798  45.076 -13.324  1.00  0.00     0.161 HD
BRANCH  24  26
HETATM   26  C15 UNL     1      30.362  43.141 -13.175  1.00  0.00     0.117 A 
HETATM   27  N6  UNL     1      29.461  42.417 -12.440  1.00  0.00    -0.338 N 
HETATM   28  C16 UNL     1      29.013  41.244 -12.898  1.00  0.00     0.183 A 
ATOM     29  H6  UNL     1      29.132  42.773 -11.543  1.00  0.00     0.168 HD
HETATM   30  N7  UNL     1      29.458  40.798 -14.079  1.00  0.00    -0.338 N 
HETATM   31  C17 UNL     1      30.344  41.481 -14.830  1.00  0.00     0.121 A 
ATOM     32  H7  UNL     1      29.113  39.903 -14.425  1.00  0.00     0.168 HD
HETATM   33  N8  UNL     1      30.921  41.251 -16.006  1.00  0.00    -0.350 N 
HETATM   34  C21 UNL     1      30.833  42.700 -14.392  1.00  0.00     0.067 A 
HETATM   35  C18 UNL     1      31.741  42.239 -16.342  1.00  0.00     0.105 A 
ATOM     36  H8  UNL     1      30.755  40.422 -16.576  1.00  0.00     0.166 HD
HETATM   37  C19 UNL     1      31.728  43.220 -15.325  1.00  0.00     0.040 A 
BRANCH  37  38
HETATM   38  C20 UNL     1      32.495  44.426 -15.361  1.00  0.00     0.148 C 
HETATM   39  N9  UNL     1      33.600  44.790 -14.574  1.00  0.00    -0.080 NA
HETATM   40  N10 UNL     1      32.191  45.352 -16.207  1.00  0.00    -0.255 N 
ATOM     41  H10 UNL     1      32.806  46.163 -16.142  1.00  0.00     0.195 HD
BRANCH  40  42
HETATM   42  O1  UNL     1      31.279  45.483 -17.122  1.00  0.00    -0.288 OA
ATOM     43  H1  UNL     1      31.026  44.979 -17.886  1.00  0.00     0.244 HD
ENDBRANCH  40  42
ENDBRANCH  37  38
ENDBRANCH  24  26
ENDBRANCH  23  24
ENDBRANCH   1  23
TORSDOF 17
ENDMDL
MODEL 4
REMARK VINA RESULT: -7.271806909      4.445     10.072
REMARK  17 active torsions:
REMARK  status: ('A' for Active; 'I' for Inactive)
REMARK    1  A    between atoms: C3_9  and  N4_10 
REMARK    2  A    between atoms: N4_10  and  C4_12 
REMARK    3  A    between atoms: C4_12  and  C5_13 
REMARK    4  A    between atoms: C5_13  and  C6_14 
REMARK    5  A    between atoms: C6_14  and  C7_15 
REMARK    6  A    between atoms: C7_15  and  C8_16 
REMARK    7  A    between atoms: C8_16  and  C9_17 
REMARK    8  A    between atoms: C9_17  and  C10_18 
REMARK    9  A    between atoms: C10_18  and  C11_19 
REMARK   10  A    between atoms: C11_19  and  C12_20 
REMARK   11  A    between atoms: C12_20  and  S1_21 
REMARK   12  A    between atoms: S1_21  and  C13_22 
REMARK   13  A    between atoms: C13_22  and  C14_23 
REMARK   14  A    between atoms: C14_23  and  N5_24 
REMARK   15  A    between atoms: N5_24  and  C15_26 
REMARK   16  A    between atoms: C19_36  and  C20_37 
REMARK   17  A    between atoms: N10_39  and  O1_41 
ROOT
HETATM    1  C13 UNL     1      35.921  36.911  -8.389  1.00  0.00     0.093 C 
ENDROOT
BRANCH   1   2
HETATM    2  S1  UNL     1      35.961  35.191  -8.016  1.00  0.00    -0.168 SA
BRANCH   2   3
HETATM    3  C12 UNL     1      37.515  34.396  -7.807  1.00  0.00     0.074 C 
BRANCH   3   4
HETATM    4  C11 UNL     1      38.038  34.208  -6.436  1.00  0.00     0.010 C 
BRANCH   4   5
HETATM    5  C10 UNL     1      37.710  35.304  -5.479  1.00  0.00     0.001 C 
BRANCH   5   6
HETATM    6  C9  UNL     1      38.729  36.362  -5.310  1.00  0.00     0.000 C 
BRANCH   6   7
HETATM    7  C8  UNL     1      39.673  36.161  -4.156  1.00  0.00     0.000 C 
BRANCH   7   8
HETATM    8  C7  UNL     1      39.481  37.206  -3.078  1.00  0.00     0.000 C 
BRANCH   8   9
HETATM    9  C6  UNL     1      39.405  38.596  -3.631  1.00  0.00     0.002 C 
BRANCH   9  10
HETATM   10  C5  UNL     1      38.303  39.438  -3.074  1.00  0.00     0.020 C 
BRANCH  10  11
HETATM   11  C4  UNL     1      37.772  40.280  -4.242  1.00  0.00     0.121 C 
BRANCH  11  12
HETATM   12  N4  UNL     1      37.357  41.550  -3.700  1.00  0.00    -0.374 N 
ATOM     13  H4  UNL     1      37.847  42.393  -4.000  1.00  0.00     0.161 HD
BRANCH  12  14
HETATM   14  C3  UNL     1      36.391  41.667  -2.852  1.00  0.00     0.141 A 
HETATM   15  C2  UNL     1      36.469  42.377  -1.676  1.00  0.00     0.068 A 
HETATM   16  C1  UNL     1      37.641  43.121  -1.172  1.00  0.00     0.074 C 
HETATM   17  N1  UNL     1      35.284  42.285  -1.044  1.00  0.00    -0.287 N 
HETATM   18  N2  UNL     1      34.504  41.546  -1.801  1.00  0.00    -0.241 N 
ATOM     19  H1  UNL     1      35.037  42.708  -0.149  1.00  0.00     0.188 HD
HETATM   20  N3  UNL     1      35.151  41.160  -2.901  1.00  0.00    -0.270 N 
ATOM     21  H2  UNL     1      33.540  41.302  -1.578  1.00  0.00     0.208 HD
ATOM     22  H3  UNL     1      34.768  40.581  -3.648  1.00  0.00     0.190 HD
ENDBRANCH  12  14
ENDBRANCH  11  12
ENDBRANCH  10  11
ENDBRANCH   9  10
ENDBRANCH   8   9
ENDBRANCH   7   8
ENDBRANCH   6   7
ENDBRANCH   5   6
ENDBRANCH   4   5
ENDBRANCH   3   4
ENDBRANCH   2   3
ENDBRANCH   1   2
BRANCH   1  23
HETATM   23  C14 UNL     1      34.929  37.385  -9.392  1.00  0.00     0.131 C 
BRANCH  23  24
HETATM   24  N5  UNL     1      34.722  38.814  -9.111  1.00  0.00    -0.375 N 
ATOM     25  H5  UNL     1      35.354  39.304  -8.478  1.00  0.00     0.161 HD
BRANCH  24  26
HETATM   26  C15 UNL     1      33.756  39.442  -9.654  1.00  0.00     0.117 A 
HETATM   27  N6  UNL     1      33.197  38.939 -10.799  1.00  0.00    -0.338 N 
HETATM   28  C16 UNL     1      32.185  39.584 -11.388  1.00  0.00     0.183 A 
ATOM     29  H6  UNL     1      33.554  38.073 -11.203  1.00  0.00     0.168 HD
HETATM   30  N7  UNL     1      31.734  40.717 -10.839  1.00  0.00    -0.338 N 
HETATM   31  C17 UNL     1      32.257  41.243  -9.714  1.00  0.00     0.121 A 
ATOM     32  H7  UNL     1      30.960  41.205 -11.291  1.00  0.00     0.168 HD
HETATM   33  N8  UNL     1      31.986  42.328  -8.995  1.00  0.00    -0.350 N 
HETATM   34  C21 UNL     1      33.306  40.606  -9.073  1.00  0.00     0.067 A 
HETATM   35  C18 UNL     1      32.792  42.424  -7.945  1.00  0.00     0.105 A 
ATOM     36  H8  UNL     1      31.254  43.001  -9.222  1.00  0.00     0.166 HD
HETATM   37  C19 UNL     1      33.681  41.325  -7.939  1.00  0.00     0.040 A 
BRANCH  37  38
HETATM   38  C20 UNL     1      34.685  41.108  -6.945  1.00  0.00     0.148 C 
HETATM   39  N9  UNL     1      35.836  41.867  -6.676  1.00  0.00    -0.080 NA
HETATM   40  N10 UNL     1      34.588  40.097  -6.148  1.00  0.00    -0.255 N 
ATOM     41  H10 UNL     1      35.358  40.044  -5.482  1.00  0.00     0.195 HD
BRANCH  40  42
HETATM   42  O1  UNL     1      33.730  39.133  -6.004  1.00  0.00    -0.288 OA
ATOM     43  H1  UNL     1      33.798  38.206  -5.808  1.00  0.00     0.244 HD
ENDBRANCH  40  42
ENDBRANCH  37  38
ENDBRANCH  24  26
ENDBRANCH  23  24
ENDBRANCH   1  23
TORSDOF 17
ENDMDL
MODEL 5
REMARK VINA RESULT: -7.183824535      4.998     10.743
REMARK  17 active torsions:
REMARK  status: ('A' for Active; 'I' for Inactive)
REMARK    1  A    between atoms: C3_9  and  N4_10 
REMARK    2  A    between atoms: N4_10  and  C4_12 
REMARK    3  A    between atoms: C4_12  and  C5_13 
REMARK    4  A    between atoms: C5_13  and  C6_14 
REMARK    5  A    between atoms: C6_14  and  C7_15 
REMARK    6  A    between atoms: C7_15  and  C8_16 
REMARK    7  A    between atoms: C8_16  and  C9_17 
REMARK    8  A    between atoms: C9_17  and  C10_18 
REMARK    9  A    between atoms: C10_18  and  C11_19 
REMARK   10  A    between atoms: C11_19  and  C12_20 
REMARK   11  A    between atoms: C12_20  and  S1_21 
REMARK   12  A    between atoms: S1_21  and  C13_22 
REMARK   13  A    between atoms: C13_22  and  C14_23 
REMARK   14  A    between atoms: C14_23  and  N5_24 
REMARK   15  A    between atoms: N5_24  and  C15_26 
REMARK   16  A    between atoms: C19_36  and  C20_37 
REMARK   17  A    between atoms: N10_39  and  O1_41 
ROOT
HETATM    1  C13 UNL     1      36.849  35.774  -8.290  1.00  0.00     0.093 C 
ENDROOT
BRANCH   1   2
HETATM    2  S1  UNL     1      38.355  35.575  -7.399  1.00  0.00    -0.168 SA
BRANCH   2   3
HETATM    3  C12 UNL     1      38.678  36.615  -6.018  1.00  0.00     0.074 C 
BRANCH   3   4
HETATM    4  C11 UNL     1      40.048  36.653  -5.464  1.00  0.00     0.010 C 
BRANCH   4   5
HETATM    5  C10 UNL     1      40.436  35.462  -4.653  1.00  0.00     0.001 C 
BRANCH   5   6
HETATM    6  C9  UNL     1      39.459  35.000  -3.646  1.00  0.00     0.000 C 
BRANCH   6   7
HETATM    7  C8  UNL     1      39.966  34.971  -2.230  1.00  0.00     0.000 C 
BRANCH   7   8
HETATM    8  C7  UNL     1      39.322  36.042  -1.375  1.00  0.00     0.000 C 
BRANCH   8   9
HETATM    9  C6  UNL     1      38.027  36.532  -1.945  1.00  0.00     0.002 C 
BRANCH   9  10
HETATM   10  C5  UNL     1      37.763  37.990  -1.751  1.00  0.00     0.020 C 
BRANCH  10  11
HETATM   11  C4  UNL     1      38.428  38.709  -2.933  1.00  0.00     0.121 C 
BRANCH  11  12
HETATM   12  N4  UNL     1      38.130  40.114  -2.802  1.00  0.00    -0.374 N 
ATOM     13  H4  UNL     1      38.882  40.749  -2.533  1.00  0.00     0.161 HD
BRANCH  12  14
HETATM   14  C3  UNL     1      36.954  40.603  -3.010  1.00  0.00     0.141 A 
HETATM   15  C2  UNL     1      36.162  41.167  -2.037  1.00  0.00     0.068 A 
HETATM   16  C1  UNL     1      36.497  41.317  -0.606  1.00  0.00     0.074 C 
HETATM   17  N1  UNL     1      35.010  41.570  -2.606  1.00  0.00    -0.287 N 
HETATM   18  N2  UNL     1      35.089  41.266  -3.882  1.00  0.00    -0.241 N 
ATOM     19  H1  UNL     1      34.227  42.025  -2.137  1.00  0.00     0.188 HD
HETATM   20  N3  UNL     1      36.255  40.680  -4.151  1.00  0.00    -0.270 N 
ATOM     21  H2  UNL     1      34.359  41.451  -4.569  1.00  0.00     0.208 HD
ATOM     22  H3  UNL     1      36.562  40.349  -5.066  1.00  0.00     0.190 HD
ENDBRANCH  12  14
ENDBRANCH  11  12
ENDBRANCH  10  11
ENDBRANCH   9  10
ENDBRANCH   8   9
ENDBRANCH   7   8
ENDBRANCH   6   7
ENDBRANCH   5   6
ENDBRANCH   4   5
ENDBRANCH   3   4
ENDBRANCH   2   3
ENDBRANCH   1   2
BRANCH   1  23
HETATM   23  C14 UNL     1      36.838  36.717  -9.440  1.00  0.00     0.131 C 
BRANCH  23  24
HETATM   24  N5  UNL     1      35.771  37.689  -9.154  1.00  0.00    -0.375 N 
ATOM     25  H5  UNL     1      35.768  38.195  -8.268  1.00  0.00     0.161 HD
BRANCH  24  26
HETATM   26  C15 UNL     1      34.851  37.902 -10.009  1.00  0.00     0.117 A 
HETATM   27  N6  UNL     1      34.782  37.109 -11.123  1.00  0.00    -0.338 N 
HETATM   28  C16 UNL     1      33.827  37.317 -12.035  1.00  0.00     0.183 A 
ATOM     29  H6  UNL     1      35.461  36.360 -11.258  1.00  0.00     0.168 HD
HETATM   30  N7  UNL     1      32.948  38.306 -11.835  1.00  0.00    -0.338 N 
HETATM   31  C17 UNL     1      32.982  39.107 -10.752  1.00  0.00     0.121 A 
ATOM     32  H7  UNL     1      32.220  38.461 -12.533  1.00  0.00     0.168 HD
HETATM   33  N8  UNL     1      32.238  40.129 -10.342  1.00  0.00    -0.350 N 
HETATM   34  C21 UNL     1      33.956  38.924  -9.785  1.00  0.00     0.067 A 
HETATM   35  C18 UNL     1      32.673  40.608  -9.182  1.00  0.00     0.105 A 
ATOM     36  H8  UNL     1      31.436  40.499 -10.852  1.00  0.00     0.166 HD
HETATM   37  C19 UNL     1      33.798  39.861  -8.764  1.00  0.00     0.040 A 
BRANCH  37  38
HETATM   38  C20 UNL     1      34.518  40.102  -7.552  1.00  0.00     0.148 C 
HETATM   39  N9  UNL     1      34.749  39.228  -6.478  1.00  0.00    -0.080 NA
HETATM   40  N10 UNL     1      35.058  41.255  -7.349  1.00  0.00    -0.255 N 
ATOM     41  H10 UNL     1      35.545  41.312  -6.455  1.00  0.00     0.195 HD
BRANCH  40  42
HETATM   42  O1  UNL     1      35.121  42.362  -8.027  1.00  0.00    -0.288 OA
ATOM     43  H1  UNL     1      34.918  43.271  -7.837  1.00  0.00     0.244 HD
ENDBRANCH  40  42
ENDBRANCH  37  38
ENDBRANCH  24  26
ENDBRANCH  23  24
ENDBRANCH   1  23
TORSDOF 17
ENDMDL
