MODEL 1
REMARK VINA RESULT: -7.938205307      0.000      0.000
REMARK  20 active torsions:
REMARK  status: ('A' for Active; 'I' for Inactive)
REMARK    1  A    between atoms: O1_1  and  C1_3 
REMARK    2  A    between atoms: C1_3  and  O2_4 
REMARK    3  A    between atoms: C1_3  and  C2_6 
REMARK    4  A    between atoms: C2_6  and  O3_7 
REMARK    5  A    between atoms: C2_6  and  C3_9 
REMARK    6  A    between atoms: C4_10  and  C5_11 
REMARK    7  A    between atoms: C6_13  and  C7_14 
REMARK    8  A    between atoms: C15_22  and  C16_23 
REMARK    9  A    between atoms: C16_23  and  O5_24 
REMARK   10  A    between atoms: O5_24  and  C17_25 
REMARK   11  A    between atoms: C17_25  and  C18_26 
REMARK   12  A    between atoms: C18_26  and  C19_27 
REMARK   13  A    between atoms: C19_27  and  C20_28 
REMARK   14  A    between atoms: C20_28  and  C21_29 
REMARK   15  A    between atoms: C21_29  and  C22_30 
REMARK   16  A    between atoms: C22_30  and  C23_31 
REMARK   17  A    between atoms: C23_31  and  O6_32 
REMARK   18  A    between atoms: C23_31  and  C24_34 
REMARK   19  A    between atoms: C24_34  and  O7_35 
REMARK   20  A    between atoms: C24_34  and  O8_37 
ROOT
HETATM    1  C5  UNL     1      33.524  37.988  -7.202  1.00  0.00     0.149 C 
HETATM    2  O4  UNL     1      34.273  37.518  -8.277  1.00  0.00    -0.376 OA
HETATM    3  C6  UNL     1      34.479  36.152  -7.953  1.00  0.00     0.126 C 
HETATM    4  C13 UNL     1      33.225  35.451  -8.369  1.00  0.00     0.038 C 
HETATM    5  C14 UNL     1      32.081  35.989  -7.578  1.00  0.00     0.002 A 
HETATM    6  C15 UNL     1      31.224  37.080  -8.133  1.00  0.00     0.021 A 
HETATM    7  C25 UNL     1      32.186  37.376  -7.086  1.00  0.00     0.029 A 
ENDROOT
BRANCH   6   8
HETATM    8  C16 UNL     1      31.353  37.402  -9.583  1.00  0.00     0.173 C 
BRANCH   8   9
HETATM    9  O5  UNL     1      31.335  38.727  -9.922  1.00  0.00    -0.391 OA
BRANCH   9  10
HETATM   10  C17 UNL     1      32.204  39.170 -10.856  1.00  0.00     0.167 C 
BRANCH  10  11
HETATM   11  C18 UNL     1      32.769  40.527 -10.554  1.00  0.00     0.026 C 
BRANCH  11  12
HETATM   12  C19 UNL     1      32.011  41.351  -9.560  1.00  0.00     0.002 C 
BRANCH  12  13
HETATM   13  C20 UNL     1      32.386  42.806  -9.510  1.00  0.00     0.000 C 
BRANCH  13  14
HETATM   14  C21 UNL     1      33.156  43.206 -10.778  1.00  0.00     0.003 C 
BRANCH  14  15
HETATM   15  C22 UNL     1      32.363  44.084 -11.683  1.00  0.00     0.036 C 
BRANCH  15  16
HETATM   16  C23 UNL     1      33.320  44.778 -12.662  1.00  0.00     0.173 C 
BRANCH  16  17
HETATM   17  O6  UNL     1      33.372  46.136 -12.461  1.00  0.00    -0.391 OA
ATOM     18  H6  UNL     1      34.173  46.404 -12.026  1.00  0.00     0.210 HD
ENDBRANCH  16  17
BRANCH  16  19
HETATM   19  C24 UNL     1      32.899  44.490 -14.075  1.00  0.00     0.282 C 
BRANCH  19  20
HETATM   20  O7  UNL     1      33.532  45.292 -15.003  1.00  0.00    -0.369 OA
ATOM     21  H7  UNL     1      32.988  46.007 -15.311  1.00  0.00     0.212 HD
ENDBRANCH  19  20
BRANCH  19  22
HETATM   22  O8  UNL     1      31.510  44.572 -14.223  1.00  0.00    -0.369 OA
ATOM     23  H8  UNL     1      31.236  44.299 -15.091  1.00  0.00     0.212 HD
ENDBRANCH  19  22
ENDBRANCH  16  19
ENDBRANCH  15  16
ENDBRANCH  14  15
ENDBRANCH  13  14
ENDBRANCH  12  13
ENDBRANCH  11  12
ENDBRANCH  10  11
ENDBRANCH   9  10
ENDBRANCH   8   9
ENDBRANCH   6   8
BRANCH   1  24
HETATM   24  C4  UNL     1      33.602  39.453  -7.155  1.00  0.00     0.004 C 
HETATM   25  C3  UNL     1      34.671  40.039  -6.604  1.00  0.00     0.008 C 
BRANCH  25  26
HETATM   26  C2  UNL     1      34.800  41.520  -6.531  1.00  0.00     0.195 C 
BRANCH  26  27
HETATM   27  C1  UNL     1      35.430  41.915  -5.204  1.00  0.00     0.286 C 
BRANCH  27  28
HETATM   28  O1  UNL     1      36.775  42.216  -5.454  1.00  0.00    -0.369 OA
ATOM     29  H1  UNL     1      36.886  43.146  -5.296  1.00  0.00     0.212 HD
ENDBRANCH  27  28
BRANCH  27  30
HETATM   30  O2  UNL     1      35.408  40.865  -4.299  1.00  0.00    -0.369 OA
ATOM     31  H2  UNL     1      35.704  41.211  -3.465  1.00  0.00     0.212 HD
ENDBRANCH  27  30
ENDBRANCH  26  27
BRANCH  26  32
HETATM   32  O3  UNL     1      35.610  42.017  -7.554  1.00  0.00    -0.387 OA
ATOM     33  H3  UNL     1      36.095  41.287  -7.921  1.00  0.00     0.210 HD
ENDBRANCH  26  32
ENDBRANCH  25  26
ENDBRANCH   1  24
BRANCH   3  34
HETATM   34  C7  UNL     1      35.711  35.666  -8.659  1.00  0.00     0.015 C 
HETATM   35  C8  UNL     1      36.262  36.627  -9.651  1.00  0.00     0.007 C 
HETATM   36  C9  UNL     1      37.501  36.015 -10.273  1.00  0.00     0.000 C 
HETATM   37  C10 UNL     1      37.152  34.730 -10.995  1.00  0.00     0.000 C 
HETATM   38  C11 UNL     1      36.530  33.729 -10.026  1.00  0.00     0.000 C 
HETATM   39  C12 UNL     1      35.312  34.400  -9.423  1.00  0.00     0.007 C 
ENDBRANCH   3  34
TORSDOF 20
ENDMDL
MODEL 2
REMARK VINA RESULT: -7.884036444      0.837      1.194
REMARK  20 active torsions:
REMARK  status: ('A' for Active; 'I' for Inactive)
REMARK    1  A    between atoms: O1_1  and  C1_3 
REMARK    2  A    between atoms: C1_3  and  O2_4 
REMARK    3  A    between atoms: C1_3  and  C2_6 
REMARK    4  A    between atoms: C2_6  and  O3_7 
REMARK    5  A    between atoms: C2_6  and  C3_9 
REMARK    6  A    between atoms: C4_10  and  C5_11 
REMARK    7  A    between atoms: C6_13  and  C7_14 
REMARK    8  A    between atoms: C15_22  and  C16_23 
REMARK    9  A    between atoms: C16_23  and  O5_24 
REMARK   10  A    between atoms: O5_24  and  C17_25 
REMARK   11  A    between atoms: C17_25  and  C18_26 
REMARK   12  A    between atoms: C18_26  and  C19_27 
REMARK   13  A    between atoms: C19_27  and  C20_28 
REMARK   14  A    between atoms: C20_28  and  C21_29 
REMARK   15  A    between atoms: C21_29  and  C22_30 
REMARK   16  A    between atoms: C22_30  and  C23_31 
REMARK   17  A    between atoms: C23_31  and  O6_32 
REMARK   18  A    between atoms: C23_31  and  C24_34 
REMARK   19  A    between atoms: C24_34  and  O7_35 
REMARK   20  A    between atoms: C24_34  and  O8_37 
ROOT
HETATM    1  C5  UNL     1      33.386  38.000  -7.598  1.00  0.00     0.149 C 
HETATM    2  O4  UNL     1      33.926  37.799  -8.865  1.00  0.00    -0.376 OA
HETATM    3  C6  UNL     1      34.096  36.392  -8.925  1.00  0.00     0.126 C 
HETATM    4  C13 UNL     1      32.751  35.844  -9.282  1.00  0.00     0.038 C 
HETATM    5  C14 UNL     1      31.781  36.190  -8.204  1.00  0.00     0.002 A 
HETATM    6  C15 UNL     1      30.916  37.403  -8.324  1.00  0.00     0.021 A 
HETATM    7  C25 UNL     1      32.047  37.406  -7.413  1.00  0.00     0.029 A 
ENDROOT
BRANCH   6   8
HETATM    8  C16 UNL     1      30.835  38.075  -9.651  1.00  0.00     0.173 C 
BRANCH   8   9
HETATM    9  O5  UNL     1      30.862  39.444  -9.650  1.00  0.00    -0.391 OA
BRANCH   9  10
HETATM   10  C17 UNL     1      31.255  40.087 -10.770  1.00  0.00     0.167 C 
BRANCH  10  11
HETATM   11  C18 UNL     1      32.701  40.485 -10.756  1.00  0.00     0.026 C 
BRANCH  11  12
HETATM   12  C19 UNL     1      33.052  41.666  -9.906  1.00  0.00     0.002 C 
BRANCH  12  13
HETATM   13  C20 UNL     1      33.214  42.967 -10.643  1.00  0.00     0.000 C 
BRANCH  13  14
HETATM   14  C21 UNL     1      31.913  43.783 -10.582  1.00  0.00     0.003 C 
BRANCH  14  15
HETATM   15  C22 UNL     1      31.635  44.522 -11.846  1.00  0.00     0.036 C 
BRANCH  15  16
HETATM   16  C23 UNL     1      32.960  44.755 -12.584  1.00  0.00     0.173 C 
BRANCH  16  17
HETATM   17  O6  UNL     1      33.430  46.034 -12.413  1.00  0.00    -0.391 OA
ATOM     18  H6  UNL     1      33.420  46.531 -13.223  1.00  0.00     0.210 HD
ENDBRANCH  16  17
BRANCH  16  19
HETATM   19  C24 UNL     1      32.785  44.470 -14.047  1.00  0.00     0.282 C 
BRANCH  19  20
HETATM   20  O7  UNL     1      33.543  45.292 -14.855  1.00  0.00    -0.369 OA
ATOM     21  H7  UNL     1      34.467  45.075 -14.848  1.00  0.00     0.212 HD
ENDBRANCH  19  20
BRANCH  19  22
HETATM   22  O8  UNL     1      31.437  44.522 -14.422  1.00  0.00    -0.369 OA
ATOM     23  H8  UNL     1      31.106  45.412 -14.408  1.00  0.00     0.212 HD
ENDBRANCH  19  22
ENDBRANCH  16  19
ENDBRANCH  15  16
ENDBRANCH  14  15
ENDBRANCH  13  14
ENDBRANCH  12  13
ENDBRANCH  11  12
ENDBRANCH  10  11
ENDBRANCH   9  10
ENDBRANCH   8   9
ENDBRANCH   6   8
BRANCH   1  24
HETATM   24  C4  UNL     1      33.561  39.405  -7.209  1.00  0.00     0.004 C 
HETATM   25  C3  UNL     1      34.754  39.824  -6.771  1.00  0.00     0.008 C 
BRANCH  25  26
HETATM   26  C2  UNL     1      34.984  41.237  -6.364  1.00  0.00     0.195 C 
BRANCH  26  27
HETATM   27  C1  UNL     1      35.791  41.273  -5.075  1.00  0.00     0.286 C 
BRANCH  27  28
HETATM   28  O1  UNL     1      36.474  40.053  -4.976  1.00  0.00    -0.369 OA
ATOM     29  H1  UNL     1      36.964  39.942  -5.781  1.00  0.00     0.212 HD
ENDBRANCH  27  28
BRANCH  27  30
HETATM   30  O2  UNL     1      34.970  41.372  -3.964  1.00  0.00    -0.369 OA
ATOM     31  H2  UNL     1      34.920  42.293  -3.735  1.00  0.00     0.212 HD
ENDBRANCH  27  30
ENDBRANCH  26  27
BRANCH  26  32
HETATM   32  O3  UNL     1      35.697  41.942  -7.336  1.00  0.00    -0.387 OA
ATOM     33  H3  UNL     1      36.482  41.447  -7.538  1.00  0.00     0.210 HD
ENDBRANCH  26  32
ENDBRANCH  25  26
ENDBRANCH   1  24
BRANCH   3  34
HETATM   34  C7  UNL     1      35.169  36.074  -9.924  1.00  0.00     0.015 C 
HETATM   35  C8  UNL     1      35.329  34.622 -10.201  1.00  0.00     0.007 C 
HETATM   36  C9  UNL     1      36.430  34.449 -11.228  1.00  0.00     0.000 C 
HETATM   37  C10 UNL     1      37.742  34.982 -10.693  1.00  0.00     0.000 C 
HETATM   38  C11 UNL     1      37.612  36.461 -10.341  1.00  0.00     0.000 C 
HETATM   39  C12 UNL     1      36.488  36.573  -9.329  1.00  0.00     0.007 C 
ENDBRANCH   3  34
TORSDOF 20
ENDMDL
MODEL 3
REMARK VINA RESULT: -7.851439140      4.976      7.394
REMARK  20 active torsions:
REMARK  status: ('A' for Active; 'I' for Inactive)
REMARK    1  A    between atoms: O1_1  and  C1_3 
REMARK    2  A    between atoms: C1_3  and  O2_4 
REMARK    3  A    between atoms: C1_3  and  C2_6 
REMARK    4  A    between atoms: C2_6  and  O3_7 
REMARK    5  A    between atoms: C2_6  and  C3_9 
REMARK    6  A    between atoms: C4_10  and  C5_11 
REMARK    7  A    between atoms: C6_13  and  C7_14 
REMARK    8  A    between atoms: C15_22  and  C16_23 
REMARK    9  A    between atoms: C16_23  and  O5_24 
REMARK   10  A    between atoms: O5_24  and  C17_25 
REMARK   11  A    between atoms: C17_25  and  C18_26 
REMARK   12  A    between atoms: C18_26  and  C19_27 
REMARK   13  A    between atoms: C19_27  and  C20_28 
REMARK   14  A    between atoms: C20_28  and  C21_29 
REMARK   15  A    between atoms: C21_29  and  C22_30 
REMARK   16  A    between atoms: C22_30  and  C23_31 
REMARK   17  A    between atoms: C23_31  and  O6_32 
REMARK   18  A    between atoms: C23_31  and  C24_34 
REMARK   19  A    between atoms: C24_34  and  O7_35 
REMARK   20  A    between atoms: C24_34  and  O8_37 
ROOT
HETATM    1  C5  UNL     1      39.088  38.724  -3.139  1.00  0.00     0.149 C 
HETATM    2  O4  UNL     1      40.090  38.779  -4.103  1.00  0.00    -0.376 OA
HETATM    3  C6  UNL     1      41.013  37.794  -3.667  1.00  0.00     0.126 C 
HETATM    4  C13 UNL     1      40.460  36.490  -4.148  1.00  0.00     0.038 C 
HETATM    5  C14 UNL     1      39.134  36.258  -3.508  1.00  0.00     0.002 A 
HETATM    6  C15 UNL     1      37.873  36.638  -4.216  1.00  0.00     0.021 A 
HETATM    7  C25 UNL     1      38.353  37.444  -3.106  1.00  0.00     0.029 A 
ENDROOT
BRANCH   6   8
HETATM    8  C16 UNL     1      37.959  36.972  -5.665  1.00  0.00     0.173 C 
BRANCH   8   9
HETATM    9  O5  UNL     1      36.775  37.158  -6.325  1.00  0.00    -0.391 OA
BRANCH   9  10
HETATM   10  C17 UNL     1      36.655  36.698  -7.589  1.00  0.00     0.167 C 
BRANCH  10  11
HETATM   11  C18 UNL     1      35.394  35.920  -7.826  1.00  0.00     0.026 C 
BRANCH  11  12
HETATM   12  C19 UNL     1      34.408  36.535  -8.770  1.00  0.00     0.002 C 
BRANCH  12  13
HETATM   13  C20 UNL     1      34.611  37.999  -9.051  1.00  0.00     0.000 C 
BRANCH  13  14
HETATM   14  C21 UNL     1      33.459  38.824  -8.456  1.00  0.00     0.003 C 
BRANCH  14  15
HETATM   15  C22 UNL     1      33.582  39.008  -6.982  1.00  0.00     0.036 C 
BRANCH  15  16
HETATM   16  C23 UNL     1      34.819  39.869  -6.693  1.00  0.00     0.173 C 
BRANCH  16  17
HETATM   17  O6  UNL     1      35.193  39.812  -5.372  1.00  0.00    -0.391 OA
ATOM     18  H6  UNL     1      35.808  39.108  -5.204  1.00  0.00     0.210 HD
ENDBRANCH  16  17
BRANCH  16  19
HETATM   19  C24 UNL     1      34.549  41.294  -7.083  1.00  0.00     0.282 C 
BRANCH  19  20
HETATM   20  O7  UNL     1      35.698  42.011  -7.345  1.00  0.00    -0.369 OA
ATOM     21  H7  UNL     1      36.391  41.851  -6.714  1.00  0.00     0.212 HD
ENDBRANCH  19  20
BRANCH  19  22
HETATM   22  O8  UNL     1      33.771  41.950  -6.122  1.00  0.00    -0.369 OA
ATOM     23  H8  UNL     1      32.861  42.006  -6.391  1.00  0.00     0.212 HD
ENDBRANCH  19  22
ENDBRANCH  16  19
ENDBRANCH  15  16
ENDBRANCH  14  15
ENDBRANCH  13  14
ENDBRANCH  12  13
ENDBRANCH  11  12
ENDBRANCH  10  11
ENDBRANCH   9  10
ENDBRANCH   8   9
ENDBRANCH   6   8
BRANCH   1  24
HETATM   24  C4  UNL     1      38.293  39.957  -3.187  1.00  0.00     0.004 C 
HETATM   25  C3  UNL     1      37.252  40.103  -2.360  1.00  0.00     0.008 C 
BRANCH  25  26
HETATM   26  C2  UNL     1      36.414  41.333  -2.368  1.00  0.00     0.195 C 
BRANCH  26  27
HETATM   27  C1  UNL     1      36.934  42.300  -3.420  1.00  0.00     0.286 C 
BRANCH  27  28
HETATM   28  O1  UNL     1      37.270  43.491  -2.763  1.00  0.00    -0.369 OA
ATOM     29  H1  UNL     1      37.369  43.282  -1.842  1.00  0.00     0.212 HD
ENDBRANCH  27  28
BRANCH  27  30
HETATM   30  O2  UNL     1      35.957  42.612  -4.352  1.00  0.00    -0.369 OA
ATOM     31  H2  UNL     1      35.435  43.316  -3.984  1.00  0.00     0.212 HD
ENDBRANCH  27  30
ENDBRANCH  26  27
BRANCH  26  32
HETATM   32  O3  UNL     1      35.082  41.045  -2.672  1.00  0.00    -0.387 OA
ATOM     33  H3  UNL     1      34.707  40.585  -1.931  1.00  0.00     0.210 HD
ENDBRANCH  26  32
ENDBRANCH  25  26
ENDBRANCH   1  24
BRANCH   3  34
HETATM   34  C7  UNL     1      42.370  38.121  -4.219  1.00  0.00     0.015 C 
HETATM   35  C8  UNL     1      43.000  37.010  -4.979  1.00  0.00     0.007 C 
HETATM   36  C9  UNL     1      44.349  37.480  -5.484  1.00  0.00     0.000 C 
HETATM   37  C10 UNL     1      45.254  37.838  -4.323  1.00  0.00     0.000 C 
HETATM   38  C11 UNL     1      44.621  38.941  -3.478  1.00  0.00     0.000 C 
HETATM   39  C12 UNL     1      43.273  38.423  -3.019  1.00  0.00     0.007 C 
ENDBRANCH   3  34
TORSDOF 20
ENDMDL
MODEL 4
REMARK VINA RESULT: -7.832150813      5.255      7.657
REMARK  20 active torsions:
REMARK  status: ('A' for Active; 'I' for Inactive)
REMARK    1  A    between atoms: O1_1  and  C1_3 
REMARK    2  A    between atoms: C1_3  and  O2_4 
REMARK    3  A    between atoms: C1_3  and  C2_6 
REMARK    4  A    between atoms: C2_6  and  O3_7 
REMARK    5  A    between atoms: C2_6  and  C3_9 
REMARK    6  A    between atoms: C4_10  and  C5_11 
REMARK    7  A    between atoms: C6_13  and  C7_14 
REMARK    8  A    between atoms: C15_22  and  C16_23 
REMARK    9  A    between atoms: C16_23  and  O5_24 
REMARK   10  A    between atoms: O5_24  and  C17_25 
REMARK   11  A    between atoms: C17_25  and  C18_26 
REMARK   12  A    between atoms: C18_26  and  C19_27 
REMARK   13  A    between atoms: C19_27  and  C20_28 
REMARK   14  A    between atoms: C20_28  and  C21_29 
REMARK   15  A    between atoms: C21_29  and  C22_30 
REMARK   16  A    between atoms: C22_30  and  C23_31 
REMARK   17  A    between atoms: C23_31  and  O6_32 
REMARK   18  A    between atoms: C23_31  and  C24_34 
REMARK   19  A    between atoms: C24_34  and  O7_35 
REMARK   20  A    between atoms: C24_34  and  O8_37 
ROOT
HETATM    1  C5  UNL     1      39.063  38.185  -2.974  1.00  0.00     0.149 C 
HETATM    2  O4  UNL     1      40.007  38.023  -3.985  1.00  0.00    -0.376 OA
HETATM    3  C6  UNL     1      41.154  37.567  -3.285  1.00  0.00     0.126 C 
HETATM    4  C13 UNL     1      40.942  36.100  -3.086  1.00  0.00     0.038 C 
HETATM    5  C14 UNL     1      39.725  35.892  -2.250  1.00  0.00     0.002 A 
HETATM    6  C15 UNL     1      38.401  35.628  -2.891  1.00  0.00     0.021 A 
HETATM    7  C25 UNL     1      38.675  36.928  -2.304  1.00  0.00     0.029 A 
ENDROOT
BRANCH   6   8
HETATM    8  C16 UNL     1      38.383  35.288  -4.342  1.00  0.00     0.173 C 
BRANCH   8   9
HETATM    9  O5  UNL     1      37.364  35.820  -5.085  1.00  0.00    -0.391 OA
BRANCH   9  10
HETATM   10  C17 UNL     1      37.667  36.470  -6.230  1.00  0.00     0.167 C 
BRANCH  10  11
HETATM   11  C18 UNL     1      36.867  36.006  -7.411  1.00  0.00     0.026 C 
BRANCH  11  12
HETATM   12  C19 UNL     1      36.060  37.053  -8.113  1.00  0.00     0.002 C 
BRANCH  12  13
HETATM   13  C20 UNL     1      34.567  36.886  -8.020  1.00  0.00     0.000 C 
BRANCH  13  14
HETATM   14  C21 UNL     1      33.903  38.214  -7.625  1.00  0.00     0.003 C 
BRANCH  14  15
HETATM   15  C22 UNL     1      34.733  39.402  -7.973  1.00  0.00     0.036 C 
BRANCH  15  16
HETATM   16  C23 UNL     1      34.944  40.244  -6.707  1.00  0.00     0.173 C 
BRANCH  16  17
HETATM   17  O6  UNL     1      34.348  39.682  -5.605  1.00  0.00    -0.391 OA
ATOM     18  H6  UNL     1      34.407  40.243  -4.840  1.00  0.00     0.210 HD
ENDBRANCH  16  17
BRANCH  16  19
HETATM   19  C24 UNL     1      34.408  41.630  -6.923  1.00  0.00     0.282 C 
BRANCH  19  20
HETATM   20  O7  UNL     1      35.165  42.374  -7.804  1.00  0.00    -0.369 OA
ATOM     21  H7  UNL     1      35.494  43.181  -7.425  1.00  0.00     0.212 HD
ENDBRANCH  19  20
BRANCH  19  22
HETATM   22  O8  UNL     1      34.253  42.314  -5.711  1.00  0.00    -0.369 OA
ATOM     23  H8  UNL     1      33.354  42.281  -5.406  1.00  0.00     0.212 HD
ENDBRANCH  19  22
ENDBRANCH  16  19
ENDBRANCH  15  16
ENDBRANCH  14  15
ENDBRANCH  13  14
ENDBRANCH  12  13
ENDBRANCH  11  12
ENDBRANCH  10  11
ENDBRANCH   9  10
ENDBRANCH   8   9
ENDBRANCH   6   8
BRANCH   1  24
HETATM   24  C4  UNL     1      37.982  39.057  -3.450  1.00  0.00     0.004 C 
HETATM   25  C3  UNL     1      38.217  40.362  -3.627  1.00  0.00     0.008 C 
BRANCH  25  26
HETATM   26  C2  UNL     1      37.157  41.289  -4.107  1.00  0.00     0.195 C 
BRANCH  26  27
HETATM   27  C1  UNL     1      36.338  41.787  -2.926  1.00  0.00     0.286 C 
BRANCH  27  28
HETATM   28  O1  UNL     1      35.016  41.367  -3.128  1.00  0.00    -0.369 OA
ATOM     29  H1  UNL     1      34.996  40.429  -2.980  1.00  0.00     0.212 HD
ENDBRANCH  27  28
BRANCH  27  30
HETATM   30  O2  UNL     1      36.320  43.171  -2.866  1.00  0.00    -0.369 OA
ATOM     31  H2  UNL     1      37.225  43.460  -2.836  1.00  0.00     0.212 HD
ENDBRANCH  27  30
ENDBRANCH  26  27
BRANCH  26  32
HETATM   32  O3  UNL     1      37.700  42.403  -4.750  1.00  0.00    -0.387 OA
ATOM     33  H3  UNL     1      38.308  42.090  -5.410  1.00  0.00     0.210 HD
ENDBRANCH  26  32
ENDBRANCH  25  26
ENDBRANCH   1  24
BRANCH   3  34
HETATM   34  C7  UNL     1      42.378  37.903  -4.086  1.00  0.00     0.015 C 
HETATM   35  C8  UNL     1      42.953  36.750  -4.828  1.00  0.00     0.007 C 
HETATM   36  C9  UNL     1      44.166  37.233  -5.596  1.00  0.00     0.000 C 
HETATM   37  C10 UNL     1      45.219  37.762  -4.645  1.00  0.00     0.000 C 
HETATM   38  C11 UNL     1      44.657  38.915  -3.818  1.00  0.00     0.000 C 
HETATM   39  C12 UNL     1      43.439  38.380  -3.091  1.00  0.00     0.007 C 
ENDBRANCH   3  34
TORSDOF 20
ENDMDL
MODEL 5
REMARK VINA RESULT: -7.390948523      5.113      7.023
REMARK  20 active torsions:
REMARK  status: ('A' for Active; 'I' for Inactive)
REMARK    1  A    between atoms: O1_1  and  C1_3 
REMARK    2  A    between atoms: C1_3  and  O2_4 
REMARK    3  A    between atoms: C1_3  and  C2_6 
REMARK    4  A    between atoms: C2_6  and  O3_7 
REMARK    5  A    between atoms: C2_6  and  C3_9 
REMARK    6  A    between atoms: C4_10  and  C5_11 
REMARK    7  A    between atoms: C6_13  and  C7_14 
REMARK    8  A    between atoms: C15_22  and  C16_23 
REMARK    9  A    between atoms: C16_23  and  O5_24 
REMARK   10  A    between atoms: O5_24  and  C17_25 
REMARK   11  A    between atoms: C17_25  and  C18_26 
REMARK   12  A    between atoms: C18_26  and  C19_27 
REMARK   13  A    between atoms: C19_27  and  C20_28 
REMARK   14  A    between atoms: C20_28  and  C21_29 
REMARK   15  A    between atoms: C21_29  and  C22_30 
REMARK   16  A    between atoms: C22_30  and  C23_31 
REMARK   17  A    between atoms: C23_31  and  O6_32 
REMARK   18  A    between atoms: C23_31  and  C24_34 
REMARK   19  A    between atoms: C24_34  and  O7_35 
REMARK   20  A    between atoms: C24_34  and  O8_37 
ROOT
HETATM    1  C5  UNL     1      38.960  38.983  -3.219  1.00  0.00     0.149 C 
HETATM    2  O4  UNL     1      39.936  38.644  -4.153  1.00  0.00    -0.376 OA
HETATM    3  C6  UNL     1      40.971  38.096  -3.353  1.00  0.00     0.126 C 
HETATM    4  C13 UNL     1      40.564  36.681  -3.091  1.00  0.00     0.038 C 
HETATM    5  C14 UNL     1      39.282  36.675  -2.330  1.00  0.00     0.002 A 
HETATM    6  C15 UNL     1      37.977  36.537  -3.045  1.00  0.00     0.021 A 
HETATM    7  C25 UNL     1      38.377  37.827  -2.511  1.00  0.00     0.029 A 
ENDROOT
BRANCH   6   8
HETATM    8  C16 UNL     1      38.004  36.112  -4.473  1.00  0.00     0.173 C 
BRANCH   8   9
HETATM    9  O5  UNL     1      37.302  36.885  -5.358  1.00  0.00    -0.391 OA
BRANCH   9  10
HETATM   10  C17 UNL     1      37.519  36.720  -6.680  1.00  0.00     0.167 C 
BRANCH  10  11
HETATM   11  C18 UNL     1      36.281  36.370  -7.452  1.00  0.00     0.026 C 
BRANCH  11  12
HETATM   12  C19 UNL     1      35.721  37.449  -8.325  1.00  0.00     0.002 C 
BRANCH  12  13
HETATM   13  C20 UNL     1      35.053  38.584  -7.599  1.00  0.00     0.000 C 
BRANCH  13  14
HETATM   14  C21 UNL     1      33.969  39.222  -8.482  1.00  0.00     0.003 C 
BRANCH  14  15
HETATM   15  C22 UNL     1      33.407  40.471  -7.895  1.00  0.00     0.036 C 
BRANCH  15  16
HETATM   16  C23 UNL     1      33.972  41.675  -8.661  1.00  0.00     0.173 C 
BRANCH  16  17
HETATM   17  O6  UNL     1      34.958  42.321  -7.955  1.00  0.00    -0.391 OA
ATOM     18  H6  UNL     1      35.750  41.800  -7.887  1.00  0.00     0.210 HD
ENDBRANCH  16  17
BRANCH  16  19
HETATM   19  C24 UNL     1      32.865  42.637  -8.984  1.00  0.00     0.282 C 
BRANCH  19  20
HETATM   20  O7  UNL     1      31.633  42.028  -9.098  1.00  0.00    -0.369 OA
ATOM     21  H7  UNL     1      30.908  42.618  -8.926  1.00  0.00     0.212 HD
ENDBRANCH  19  20
BRANCH  19  22
HETATM   22  O8  UNL     1      33.153  43.381 -10.134  1.00  0.00    -0.369 OA
ATOM     23  H8  UNL     1      32.557  43.169 -10.843  1.00  0.00     0.212 HD
ENDBRANCH  19  22
ENDBRANCH  16  19
ENDBRANCH  15  16
ENDBRANCH  14  15
ENDBRANCH  13  14
ENDBRANCH  12  13
ENDBRANCH  11  12
ENDBRANCH  10  11
ENDBRANCH   9  10
ENDBRANCH   8   9
ENDBRANCH   6   8
BRANCH   1  24
HETATM   24  C4  UNL     1      38.029  39.950  -3.814  1.00  0.00     0.004 C 
HETATM   25  C3  UNL     1      37.858  41.143  -3.233  1.00  0.00     0.008 C 
BRANCH  25  26
HETATM   26  C2  UNL     1      36.926  42.159  -3.794  1.00  0.00     0.195 C 
BRANCH  26  27
HETATM   27  C1  UNL     1      35.614  41.493  -4.180  1.00  0.00     0.286 C 
BRANCH  27  28
HETATM   28  O1  UNL     1      34.921  42.385  -5.009  1.00  0.00    -0.369 OA
ATOM     29  H1  UNL     1      35.572  42.916  -5.453  1.00  0.00     0.212 HD
ENDBRANCH  27  28
BRANCH  27  30
HETATM   30  O2  UNL     1      34.816  41.262  -3.072  1.00  0.00    -0.369 OA
ATOM     31  H2  UNL     1      35.104  41.860  -2.391  1.00  0.00     0.212 HD
ENDBRANCH  27  30
ENDBRANCH  26  27
BRANCH  26  32
HETATM   32  O3  UNL     1      36.640  43.162  -2.867  1.00  0.00    -0.387 OA
ATOM     33  H3  UNL     1      37.461  43.570  -2.617  1.00  0.00     0.210 HD
ENDBRANCH  26  32
ENDBRANCH  25  26
ENDBRANCH   1  24
BRANCH   3  34
HETATM   34  C7  UNL     1      42.274  38.229  -4.086  1.00  0.00     0.015 C 
HETATM   35  C8  UNL     1      42.759  36.963  -4.697  1.00  0.00     0.007 C 
HETATM   36  C9  UNL     1      44.067  37.246  -5.408  1.00  0.00     0.000 C 
HETATM   37  C10 UNL     1      45.111  37.732  -4.425  1.00  0.00     0.000 C 
HETATM   38  C11 UNL     1      44.633  39.004  -3.728  1.00  0.00     0.000 C 
HETATM   39  C12 UNL     1      43.318  38.666  -3.054  1.00  0.00     0.007 C 
ENDBRANCH   3  34
TORSDOF 20
ENDMDL
