MODEL 1
REMARK VINA RESULT: -8.039783950      0.000      0.000
REMARK  17 active torsions:
REMARK  status: ('A' for Active; 'I' for Inactive)
REMARK    1  A    between atoms: C4_4  and  N1_5 
REMARK    2  A    between atoms: C5_10  and  C6_11 
REMARK    3  A    between atoms: C6_11  and  C7_12 
REMARK    4  A    between atoms: C7_12  and  C8_13 
REMARK    5  A    between atoms: C8_13  and  C9_14 
REMARK    6  A    between atoms: C9_14  and  C10_15 
REMARK    7  A    between atoms: C10_15  and  C11_16 
REMARK    8  A    between atoms: C11_16  and  C12_17 
REMARK    9  A    between atoms: C13_18  and  O1_19 
REMARK   10  A    between atoms: N3_21  and  C14_22 
REMARK   11  A    between atoms: C14_22  and  C15_23 
REMARK   12  A    between atoms: C15_23  and  C16_24 
REMARK   13  A    between atoms: C16_24  and  C17_25 
REMARK   14  A    between atoms: C17_25  and  C18_26 
REMARK   15  A    between atoms: C18_26  and  C19_27 
REMARK   16  A    between atoms: C19_27  and  N4_28 
REMARK   17  A    between atoms: C24_33  and  N5_34 
ROOT
HETATM    1  C12 UNL     1      33.235  41.372  -9.525  1.00  0.00     0.062 A 
HETATM    2  C13 UNL     1      34.120  41.299  -8.470  1.00  0.00     0.169 A 
HETATM    3  N3  UNL     1      34.212  40.222  -7.678  1.00  0.00    -0.162 N 
HETATM    4  C24 UNL     1      33.425  39.160  -7.896  1.00  0.00     0.682 A 
HETATM    5  N6  UNL     1      32.537  39.170  -8.913  1.00  0.00    -0.156 N 
ATOM      6  H6  UNL     1      31.940  38.360  -9.076  1.00  0.00     0.187 HD
HETATM    7  C25 UNL     1      32.438  40.264  -9.725  1.00  0.00     0.270 A 
HETATM    8  O2  UNL     1      31.602  40.241 -10.663  1.00  0.00    -0.267 OA
ENDROOT
BRANCH   1   9
HETATM    9  C11 UNL     1      33.176  42.567 -10.362  1.00  0.00     0.049 C 
BRANCH   9  10
HETATM   10  C10 UNL     1      32.019  43.496 -10.075  1.00  0.00     0.005 C 
BRANCH  10  11
HETATM   11  C9  UNL     1      31.511  43.987 -11.389  1.00  0.00     0.000 C 
BRANCH  11  12
HETATM   12  C8  UNL     1      32.389  44.960 -12.092  1.00  0.00     0.000 C 
BRANCH  12  13
HETATM   13  C7  UNL     1      33.091  44.403 -13.285  1.00  0.00     0.007 C 
BRANCH  13  14
HETATM   14  C6  UNL     1      32.069  43.670 -14.124  1.00  0.00     0.076 C 
BRANCH  14  15
HETATM   15  C5  UNL     1      31.603  44.431 -15.295  1.00  0.00     0.082 A 
HETATM   16  N2  UNL     1      32.408  45.040 -16.185  1.00  0.00    -0.332 N 
HETATM   17  C4  UNL     1      31.864  45.711 -17.219  1.00  0.00     0.101 A 
ATOM     18  H2  UNL     1      33.421  44.994 -16.077  1.00  0.00     0.168 HD
HETATM   19  C3  UNL     1      30.500  45.792 -17.395  1.00  0.00     0.072 A 
HETATM   20  C2  UNL     1      29.678  45.166 -16.481  1.00  0.00     0.010 A 
HETATM   21  C1  UNL     1      28.185  45.229 -16.626  1.00  0.00     0.068 C 
HETATM   22  N7  UNL     1      30.268  44.513 -15.471  1.00  0.00    -0.350 N 
ATOM     23  H7  UNL     1      29.668  44.047 -14.789  1.00  0.00     0.167 HD
BRANCH  17  24
HETATM   24  N1  UNL     1      32.687  46.284 -18.058  1.00  0.00    -0.385 N 
ATOM     25  H12 UNL     1      32.992  47.233 -17.837  1.00  0.00     0.157 HD
ATOM     26  H11 UNL     1      33.009  45.797 -18.894  1.00  0.00     0.157 HD
ENDBRANCH  17  24
ENDBRANCH  14  15
ENDBRANCH  13  14
ENDBRANCH  12  13
ENDBRANCH  11  12
ENDBRANCH  10  11
ENDBRANCH   9  10
ENDBRANCH   1   9
BRANCH   2  27
HETATM   27  O1  UNL     1      34.938  42.392  -8.236  1.00  0.00    -0.345 OA
ATOM     28  H1  UNL     1      35.858  42.312  -8.457  1.00  0.00     0.219 HD
ENDBRANCH   2  27
BRANCH   3  29
HETATM   29  C14 UNL     1      35.150  40.182  -6.587  1.00  0.00     0.150 C 
BRANCH  29  30
HETATM   30  C15 UNL     1      34.649  41.185  -5.565  1.00  0.00     0.021 C 
BRANCH  30  31
HETATM   31  C16 UNL     1      35.792  41.856  -4.835  1.00  0.00     0.002 C 
BRANCH  31  32
HETATM   32  C17 UNL     1      36.779  40.853  -4.306  1.00  0.00     0.002 C 
BRANCH  32  33
HETATM   33  C18 UNL     1      37.335  41.363  -3.009  1.00  0.00     0.030 C 
BRANCH  33  34
HETATM   34  C19 UNL     1      36.856  42.749  -2.652  1.00  0.00     0.272 C 
BRANCH  34  35
HETATM   35  N4  UNL     1      36.476  42.871  -1.252  1.00  0.00     0.088 N 
HETATM   36  C20 UNL     1      36.347  41.540  -0.690  1.00  0.00     0.272 C 
HETATM   37  C21 UNL     1      36.754  41.685   0.762  1.00  0.00     0.032 C 
HETATM   38  C22 UNL     1      37.914  42.639   0.642  1.00  0.00     0.032 C 
HETATM   39  C23 UNL     1      37.494  43.549  -0.487  1.00  0.00     0.272 C 
ENDBRANCH  34  35
ENDBRANCH  33  34
ENDBRANCH  32  33
ENDBRANCH  31  32
ENDBRANCH  30  31
ENDBRANCH  29  30
ENDBRANCH   3  29
BRANCH   4  40
HETATM   40  N5  UNL     1      33.476  38.102  -7.162  1.00  0.00    -0.234 N 
ATOM     41  H52 UNL     1      34.335  37.551  -7.192  1.00  0.00     0.174 HD
ATOM     42  H51 UNL     1      32.700  37.810  -6.569  1.00  0.00     0.174 HD
ENDBRANCH   4  40
TORSDOF 17
ENDMDL
MODEL 2
REMARK VINA RESULT: -7.841834797      3.292     11.947
REMARK  17 active torsions:
REMARK  status: ('A' for Active; 'I' for Inactive)
REMARK    1  A    between atoms: C4_4  and  N1_5 
REMARK    2  A    between atoms: C5_10  and  C6_11 
REMARK    3  A    between atoms: C6_11  and  C7_12 
REMARK    4  A    between atoms: C7_12  and  C8_13 
REMARK    5  A    between atoms: C8_13  and  C9_14 
REMARK    6  A    between atoms: C9_14  and  C10_15 
REMARK    7  A    between atoms: C10_15  and  C11_16 
REMARK    8  A    between atoms: C11_16  and  C12_17 
REMARK    9  A    between atoms: C13_18  and  O1_19 
REMARK   10  A    between atoms: N3_21  and  C14_22 
REMARK   11  A    between atoms: C14_22  and  C15_23 
REMARK   12  A    between atoms: C15_23  and  C16_24 
REMARK   13  A    between atoms: C16_24  and  C17_25 
REMARK   14  A    between atoms: C17_25  and  C18_26 
REMARK   15  A    between atoms: C18_26  and  C19_27 
REMARK   16  A    between atoms: C19_27  and  N4_28 
REMARK   17  A    between atoms: C24_33  and  N5_34 
ROOT
HETATM    1  C12 UNL     1      35.356  40.946  -6.084  1.00  0.00     0.062 A 
HETATM    2  C13 UNL     1      34.466  41.755  -6.760  1.00  0.00     0.169 A 
HETATM    3  N3  UNL     1      33.645  41.287  -7.710  1.00  0.00    -0.162 N 
HETATM    4  C24 UNL     1      33.669  39.989  -8.038  1.00  0.00     0.682 A 
HETATM    5  N6  UNL     1      34.519  39.146  -7.413  1.00  0.00    -0.156 N 
ATOM      6  H6  UNL     1      34.534  38.158  -7.665  1.00  0.00     0.187 HD
HETATM    7  C25 UNL     1      35.358  39.615  -6.443  1.00  0.00     0.270 A 
HETATM    8  O2  UNL     1      36.137  38.804  -5.881  1.00  0.00    -0.267 OA
ENDROOT
BRANCH   1   9
HETATM    9  C11 UNL     1      36.228  41.504  -5.053  1.00  0.00     0.049 C 
BRANCH   9  10
HETATM   10  C10 UNL     1      35.685  41.430  -3.645  1.00  0.00     0.005 C 
BRANCH  10  11
HETATM   11  C9  UNL     1      36.832  41.112  -2.746  1.00  0.00     0.000 C 
BRANCH  11  12
HETATM   12  C8  UNL     1      38.006  40.479  -3.404  1.00  0.00     0.000 C 
BRANCH  12  13
HETATM   13  C7  UNL     1      38.211  39.045  -3.046  1.00  0.00     0.007 C 
BRANCH  13  14
HETATM   14  C6  UNL     1      39.596  38.646  -3.505  1.00  0.00     0.076 C 
BRANCH  14  15
HETATM   15  C5  UNL     1      39.600  37.719  -4.648  1.00  0.00     0.082 A 
HETATM   16  N2  UNL     1      38.502  37.303  -5.304  1.00  0.00    -0.332 N 
HETATM   17  C4  UNL     1      38.631  36.449  -6.338  1.00  0.00     0.101 A 
ATOM     18  H2  UNL     1      37.578  37.632  -5.021  1.00  0.00     0.168 HD
HETATM   19  C3  UNL     1      39.863  35.985  -6.747  1.00  0.00     0.072 A 
HETATM   20  C2  UNL     1      40.987  36.414  -6.073  1.00  0.00     0.010 A 
HETATM   21  C1  UNL     1      42.351  35.935  -6.477  1.00  0.00     0.068 C 
HETATM   22  N7  UNL     1      40.804  37.263  -5.052  1.00  0.00    -0.350 N 
ATOM     23  H7  UNL     1      41.630  37.585  -4.547  1.00  0.00     0.167 HD
BRANCH  17  24
HETATM   24  N1  UNL     1      37.535  36.075  -6.945  1.00  0.00    -0.385 N 
ATOM     25  H12 UNL     1      36.919  35.435  -6.443  1.00  0.00     0.157 HD
ATOM     26  H11 UNL     1      37.310  36.414  -7.880  1.00  0.00     0.157 HD
ENDBRANCH  17  24
ENDBRANCH  14  15
ENDBRANCH  13  14
ENDBRANCH  12  13
ENDBRANCH  11  12
ENDBRANCH  10  11
ENDBRANCH   9  10
ENDBRANCH   1   9
BRANCH   2  27
HETATM   27  O1  UNL     1      34.434  43.099  -6.429  1.00  0.00    -0.345 OA
ATOM     28  H1  UNL     1      33.773  43.642  -6.842  1.00  0.00     0.219 HD
ENDBRANCH   2  27
BRANCH   3  29
HETATM   29  C14 UNL     1      32.728  42.161  -8.393  1.00  0.00     0.150 C 
BRANCH  29  30
HETATM   30  C15 UNL     1      33.435  42.609  -9.657  1.00  0.00     0.021 C 
BRANCH  30  31
HETATM   31  C16 UNL     1      32.457  43.104 -10.700  1.00  0.00     0.002 C 
BRANCH  31  32
HETATM   32  C17 UNL     1      32.740  42.511 -12.053  1.00  0.00     0.002 C 
BRANCH  32  33
HETATM   33  C18 UNL     1      32.724  43.612 -13.073  1.00  0.00     0.030 C 
BRANCH  33  34
HETATM   34  C19 UNL     1      31.372  43.827 -13.707  1.00  0.00     0.272 C 
BRANCH  34  35
HETATM   35  N4  UNL     1      31.462  44.235 -15.102  1.00  0.00     0.088 N 
HETATM   36  C20 UNL     1      32.833  44.611 -15.386  1.00  0.00     0.272 C 
HETATM   37  C21 UNL     1      33.048  44.241 -16.840  1.00  0.00     0.032 C 
HETATM   38  C22 UNL     1      32.307  42.932 -16.917  1.00  0.00     0.032 C 
HETATM   39  C23 UNL     1      31.135  43.145 -15.990  1.00  0.00     0.272 C 
ENDBRANCH  34  35
ENDBRANCH  33  34
ENDBRANCH  32  33
ENDBRANCH  31  32
ENDBRANCH  30  31
ENDBRANCH  29  30
ENDBRANCH   3  29
BRANCH   4  40
HETATM   40  N5  UNL     1      32.899  39.492  -8.944  1.00  0.00    -0.234 N 
ATOM     41  H52 UNL     1      32.044  40.002  -9.165  1.00  0.00     0.174 HD
ATOM     42  H51 UNL     1      33.120  38.625  -9.433  1.00  0.00     0.174 HD
ENDBRANCH   4  40
TORSDOF 17
ENDMDL
MODEL 3
REMARK VINA RESULT: -7.751815222      2.703     10.576
REMARK  17 active torsions:
REMARK  status: ('A' for Active; 'I' for Inactive)
REMARK    1  A    between atoms: C4_4  and  N1_5 
REMARK    2  A    between atoms: C5_10  and  C6_11 
REMARK    3  A    between atoms: C6_11  and  C7_12 
REMARK    4  A    between atoms: C7_12  and  C8_13 
REMARK    5  A    between atoms: C8_13  and  C9_14 
REMARK    6  A    between atoms: C9_14  and  C10_15 
REMARK    7  A    between atoms: C10_15  and  C11_16 
REMARK    8  A    between atoms: C11_16  and  C12_17 
REMARK    9  A    between atoms: C13_18  and  O1_19 
REMARK   10  A    between atoms: N3_21  and  C14_22 
REMARK   11  A    between atoms: C14_22  and  C15_23 
REMARK   12  A    between atoms: C15_23  and  C16_24 
REMARK   13  A    between atoms: C16_24  and  C17_25 
REMARK   14  A    between atoms: C17_25  and  C18_26 
REMARK   15  A    between atoms: C18_26  and  C19_27 
REMARK   16  A    between atoms: C19_27  and  N4_28 
REMARK   17  A    between atoms: C24_33  and  N5_34 
ROOT
HETATM    1  C12 UNL     1      32.892  43.271 -12.216  1.00  0.00     0.062 A 
HETATM    2  C13 UNL     1      32.345  42.202 -12.894  1.00  0.00     0.169 A 
HETATM    3  N3  UNL     1      31.974  42.276 -14.179  1.00  0.00    -0.162 N 
HETATM    4  C24 UNL     1      32.128  43.420 -14.857  1.00  0.00     0.682 A 
HETATM    5  N6  UNL     1      32.658  44.504 -14.249  1.00  0.00    -0.156 N 
ATOM      6  H6  UNL     1      32.773  45.374 -14.768  1.00  0.00     0.187 HD
HETATM    7  C25 UNL     1      33.039  44.437 -12.939  1.00  0.00     0.270 A 
HETATM    8  O2  UNL     1      33.528  45.462 -12.404  1.00  0.00    -0.267 OA
ENDROOT
BRANCH   1   9
HETATM    9  C11 UNL     1      33.285  43.138 -10.815  1.00  0.00     0.049 C 
BRANCH   9  10
HETATM   10  C10 UNL     1      32.158  43.269  -9.817  1.00  0.00     0.005 C 
BRANCH  10  11
HETATM   11  C9  UNL     1      32.385  42.244  -8.758  1.00  0.00     0.000 C 
BRANCH  11  12
HETATM   12  C8  UNL     1      33.809  41.921  -8.474  1.00  0.00     0.000 C 
BRANCH  12  13
HETATM   13  C7  UNL     1      34.023  41.134  -7.223  1.00  0.00     0.007 C 
BRANCH  13  14
HETATM   14  C6  UNL     1      34.412  42.102  -6.128  1.00  0.00     0.076 C 
BRANCH  14  15
HETATM   15  C5  UNL     1      35.414  41.569  -5.191  1.00  0.00     0.082 A 
HETATM   16  N2  UNL     1      35.972  40.348  -5.276  1.00  0.00    -0.332 N 
HETATM   17  C4  UNL     1      36.880  39.969  -4.355  1.00  0.00     0.101 A 
ATOM     18  H2  UNL     1      35.711  39.714  -6.031  1.00  0.00     0.168 HD
HETATM   19  C3  UNL     1      37.257  40.800  -3.322  1.00  0.00     0.072 A 
HETATM   20  C2  UNL     1      36.682  42.051  -3.238  1.00  0.00     0.010 A 
HETATM   21  C1  UNL     1      37.056  42.992  -2.130  1.00  0.00     0.068 C 
HETATM   22  N7  UNL     1      35.785  42.380  -4.178  1.00  0.00    -0.350 N 
ATOM     23  H7  UNL     1      35.355  43.303  -4.124  1.00  0.00     0.167 HD
BRANCH  17  24
HETATM   24  N1  UNL     1      37.396  38.774  -4.481  1.00  0.00    -0.385 N 
ATOM     25  H12 UNL     1      38.321  38.621  -4.078  1.00  0.00     0.157 HD
ATOM     26  H11 UNL     1      36.889  38.030  -4.960  1.00  0.00     0.157 HD
ENDBRANCH  17  24
ENDBRANCH  14  15
ENDBRANCH  13  14
ENDBRANCH  12  13
ENDBRANCH  11  12
ENDBRANCH  10  11
ENDBRANCH   9  10
ENDBRANCH   1   9
BRANCH   2  27
HETATM   27  O1  UNL     1      32.181  41.014 -12.202  1.00  0.00    -0.345 OA
ATOM     28  H1  UNL     1      31.743  40.298 -12.646  1.00  0.00     0.219 HD
ENDBRANCH   2  27
BRANCH   3  29
HETATM   29  C14 UNL     1      31.408  41.137 -14.854  1.00  0.00     0.150 C 
BRANCH  29  30
HETATM   30  C15 UNL     1      32.582  40.329 -15.372  1.00  0.00     0.021 C 
BRANCH  30  31
HETATM   31  C16 UNL     1      32.586  38.925 -14.808  1.00  0.00     0.002 C 
BRANCH  31  32
HETATM   32  C17 UNL     1      31.199  38.348 -14.741  1.00  0.00     0.002 C 
BRANCH  32  33
HETATM   33  C18 UNL     1      30.985  37.766 -13.374  1.00  0.00     0.030 C 
BRANCH  33  34
HETATM   34  C19 UNL     1      32.269  37.486 -12.631  1.00  0.00     0.272 C 
BRANCH  34  35
HETATM   35  N4  UNL     1      32.063  37.295 -11.203  1.00  0.00     0.088 N 
HETATM   36  C20 UNL     1      33.025  38.108 -10.484  1.00  0.00     0.272 C 
HETATM   37  C21 UNL     1      32.321  38.512  -9.205  1.00  0.00     0.032 C 
HETATM   38  C22 UNL     1      30.929  38.781  -9.714  1.00  0.00     0.032 C 
HETATM   39  C23 UNL     1      30.753  37.743 -10.796  1.00  0.00     0.272 C 
ENDBRANCH  34  35
ENDBRANCH  33  34
ENDBRANCH  32  33
ENDBRANCH  31  32
ENDBRANCH  30  31
ENDBRANCH  29  30
ENDBRANCH   3  29
BRANCH   4  40
HETATM   40  N5  UNL     1      31.787  43.541 -16.093  1.00  0.00    -0.234 N 
ATOM     41  H52 UNL     1      32.339  43.033 -16.785  1.00  0.00     0.174 HD
ATOM     42  H51 UNL     1      30.998  44.116 -16.389  1.00  0.00     0.174 HD
ENDBRANCH   4  40
TORSDOF 17
ENDMDL
MODEL 4
REMARK VINA RESULT: -7.695417733      1.937      2.947
REMARK  17 active torsions:
REMARK  status: ('A' for Active; 'I' for Inactive)
REMARK    1  A    between atoms: C4_4  and  N1_5 
REMARK    2  A    between atoms: C5_10  and  C6_11 
REMARK    3  A    between atoms: C6_11  and  C7_12 
REMARK    4  A    between atoms: C7_12  and  C8_13 
REMARK    5  A    between atoms: C8_13  and  C9_14 
REMARK    6  A    between atoms: C9_14  and  C10_15 
REMARK    7  A    between atoms: C10_15  and  C11_16 
REMARK    8  A    between atoms: C11_16  and  C12_17 
REMARK    9  A    between atoms: C13_18  and  O1_19 
REMARK   10  A    between atoms: N3_21  and  C14_22 
REMARK   11  A    between atoms: C14_22  and  C15_23 
REMARK   12  A    between atoms: C15_23  and  C16_24 
REMARK   13  A    between atoms: C16_24  and  C17_25 
REMARK   14  A    between atoms: C17_25  and  C18_26 
REMARK   15  A    between atoms: C18_26  and  C19_27 
REMARK   16  A    between atoms: C19_27  and  N4_28 
REMARK   17  A    between atoms: C24_33  and  N5_34 
ROOT
HETATM    1  C12 UNL     1      33.221  41.384  -9.476  1.00  0.00     0.062 A 
HETATM    2  C13 UNL     1      34.118  41.305  -8.431  1.00  0.00     0.169 A 
HETATM    3  N3  UNL     1      34.207  40.232  -7.637  1.00  0.00    -0.162 N 
HETATM    4  C24 UNL     1      33.405  39.178  -7.839  1.00  0.00     0.682 A 
HETATM    5  N6  UNL     1      32.505  39.194  -8.846  1.00  0.00    -0.156 N 
ATOM      6  H6  UNL     1      31.896  38.390  -8.998  1.00  0.00     0.187 HD
HETATM    7  C25 UNL     1      32.408  40.285  -9.662  1.00  0.00     0.270 A 
HETATM    8  O2  UNL     1      31.561  40.268 -10.589  1.00  0.00    -0.267 OA
ENDROOT
BRANCH   1   9
HETATM    9  C11 UNL     1      33.166  42.577 -10.317  1.00  0.00     0.049 C 
BRANCH   9  10
HETATM   10  C10 UNL     1      31.985  43.486 -10.068  1.00  0.00     0.005 C 
BRANCH  10  11
HETATM   11  C9  UNL     1      31.729  44.236 -11.332  1.00  0.00     0.000 C 
BRANCH  11  12
HETATM   12  C8  UNL     1      32.909  44.417 -12.219  1.00  0.00     0.000 C 
BRANCH  12  13
HETATM   13  C7  UNL     1      32.616  44.246 -13.673  1.00  0.00     0.007 C 
BRANCH  13  14
HETATM   14  C6  UNL     1      31.474  43.264 -13.803  1.00  0.00     0.076 C 
BRANCH  14  15
HETATM   15  C5  UNL     1      31.891  41.919 -14.233  1.00  0.00     0.082 A 
HETATM   16  N2  UNL     1      32.139  40.890 -13.402  1.00  0.00    -0.332 N 
HETATM   17  C4  UNL     1      32.518  39.703 -13.914  1.00  0.00     0.101 A 
ATOM     18  H2  UNL     1      32.042  41.008 -12.394  1.00  0.00     0.168 HD
HETATM   19  C3  UNL     1      32.659  39.508 -15.271  1.00  0.00     0.072 A 
HETATM   20  C2  UNL     1      32.403  40.565 -16.119  1.00  0.00     0.010 A 
HETATM   21  C1  UNL     1      32.545  40.406 -17.605  1.00  0.00     0.068 C 
HETATM   22  N7  UNL     1      32.030  41.725 -15.561  1.00  0.00    -0.350 N 
ATOM     23  H7  UNL     1      31.838  42.513 -16.180  1.00  0.00     0.167 HD
BRANCH  17  24
HETATM   24  N1  UNL     1      32.746  38.732 -13.067  1.00  0.00    -0.385 N 
ATOM     25  H12 UNL     1      32.881  37.798 -13.454  1.00  0.00     0.157 HD
ATOM     26  H11 UNL     1      32.788  38.909 -12.064  1.00  0.00     0.157 HD
ENDBRANCH  17  24
ENDBRANCH  14  15
ENDBRANCH  13  14
ENDBRANCH  12  13
ENDBRANCH  11  12
ENDBRANCH  10  11
ENDBRANCH   9  10
ENDBRANCH   1   9
BRANCH   2  27
HETATM   27  O1  UNL     1      34.952  42.390  -8.213  1.00  0.00    -0.345 OA
ATOM     28  H1  UNL     1      34.626  43.096  -7.668  1.00  0.00     0.219 HD
ENDBRANCH   2  27
BRANCH   3  29
HETATM   29  C14 UNL     1      35.157  40.185  -6.556  1.00  0.00     0.150 C 
BRANCH  29  30
HETATM   30  C15 UNL     1      34.687  41.206  -5.538  1.00  0.00     0.021 C 
BRANCH  30  31
HETATM   31  C16 UNL     1      35.850  41.887  -4.851  1.00  0.00     0.002 C 
BRANCH  31  32
HETATM   32  C17 UNL     1      36.769  40.893  -4.198  1.00  0.00     0.002 C 
BRANCH  32  33
HETATM   33  C18 UNL     1      37.405  41.539  -3.001  1.00  0.00     0.030 C 
BRANCH  33  34
HETATM   34  C19 UNL     1      36.801  42.877  -2.648  1.00  0.00     0.272 C 
BRANCH  34  35
HETATM   35  N4  UNL     1      36.465  42.988  -1.236  1.00  0.00     0.088 N 
HETATM   36  C20 UNL     1      36.237  41.657  -0.708  1.00  0.00     0.272 C 
HETATM   37  C21 UNL     1      36.689  41.724   0.736  1.00  0.00     0.032 C 
HETATM   38  C22 UNL     1      37.921  42.580   0.614  1.00  0.00     0.032 C 
HETATM   39  C23 UNL     1      37.555  43.555  -0.479  1.00  0.00     0.272 C 
ENDBRANCH  34  35
ENDBRANCH  33  34
ENDBRANCH  32  33
ENDBRANCH  31  32
ENDBRANCH  30  31
ENDBRANCH  29  30
ENDBRANCH   3  29
BRANCH   4  40
HETATM   40  N5  UNL     1      33.452  38.122  -7.102  1.00  0.00    -0.234 N 
ATOM     41  H52 UNL     1      33.705  38.245  -6.121  1.00  0.00     0.174 HD
ATOM     42  H51 UNL     1      33.249  37.192  -7.467  1.00  0.00     0.174 HD
ENDBRANCH   4  40
TORSDOF 17
ENDMDL
MODEL 5
REMARK VINA RESULT: -7.686477542      2.595      3.369
REMARK  17 active torsions:
REMARK  status: ('A' for Active; 'I' for Inactive)
REMARK    1  A    between atoms: C4_4  and  N1_5 
REMARK    2  A    between atoms: C5_10  and  C6_11 
REMARK    3  A    between atoms: C6_11  and  C7_12 
REMARK    4  A    between atoms: C7_12  and  C8_13 
REMARK    5  A    between atoms: C8_13  and  C9_14 
REMARK    6  A    between atoms: C9_14  and  C10_15 
REMARK    7  A    between atoms: C10_15  and  C11_16 
REMARK    8  A    between atoms: C11_16  and  C12_17 
REMARK    9  A    between atoms: C13_18  and  O1_19 
REMARK   10  A    between atoms: N3_21  and  C14_22 
REMARK   11  A    between atoms: C14_22  and  C15_23 
REMARK   12  A    between atoms: C15_23  and  C16_24 
REMARK   13  A    between atoms: C16_24  and  C17_25 
REMARK   14  A    between atoms: C17_25  and  C18_26 
REMARK   15  A    between atoms: C18_26  and  C19_27 
REMARK   16  A    between atoms: C19_27  and  N4_28 
REMARK   17  A    between atoms: C24_33  and  N5_34 
ROOT
HETATM    1  C12 UNL     1      33.976  41.247  -7.357  1.00  0.00     0.062 A 
HETATM    2  C13 UNL     1      34.743  41.800  -6.353  1.00  0.00     0.169 A 
HETATM    3  N3  UNL     1      35.613  41.081  -5.632  1.00  0.00    -0.162 N 
HETATM    4  C24 UNL     1      35.764  39.772  -5.871  1.00  0.00     0.682 A 
HETATM    5  N6  UNL     1      35.041  39.172  -6.842  1.00  0.00    -0.156 N 
ATOM      6  H6  UNL     1      35.158  38.175  -7.022  1.00  0.00     0.187 HD
HETATM    7  C25 UNL     1      34.152  39.898  -7.582  1.00  0.00     0.270 A 
HETATM    8  O2  UNL     1      33.496  39.309  -8.477  1.00  0.00    -0.267 OA
ENDROOT
BRANCH   1   9
HETATM    9  C11 UNL     1      33.044  42.075  -8.119  1.00  0.00     0.049 C 
BRANCH   9  10
HETATM   10  C10 UNL     1      33.481  42.405  -9.527  1.00  0.00     0.005 C 
BRANCH  10  11
HETATM   11  C9  UNL     1      32.349  43.121 -10.185  1.00  0.00     0.000 C 
BRANCH  11  12
HETATM   12  C8  UNL     1      32.330  43.060 -11.671  1.00  0.00     0.000 C 
BRANCH  12  13
HETATM   13  C7  UNL     1      32.349  44.394 -12.340  1.00  0.00     0.007 C 
BRANCH  13  14
HETATM   14  C6  UNL     1      33.174  44.268 -13.601  1.00  0.00     0.076 C 
BRANCH  14  15
HETATM   15  C5  UNL     1      32.451  44.647 -14.826  1.00  0.00     0.082 A 
HETATM   16  N2  UNL     1      33.012  45.239 -15.896  1.00  0.00    -0.332 N 
HETATM   17  C4  UNL     1      32.247  45.543 -16.963  1.00  0.00     0.101 A 
ATOM     18  H2  UNL     1      34.009  45.457 -15.900  1.00  0.00     0.168 HD
HETATM   19  C3  UNL     1      30.898  45.262 -16.992  1.00  0.00     0.072 A 
HETATM   20  C2  UNL     1      30.326  44.655 -15.893  1.00  0.00     0.010 A 
HETATM   21  C1  UNL     1      28.860  44.332 -15.873  1.00  0.00     0.068 C 
HETATM   22  N7  UNL     1      31.130  44.374 -14.858  1.00  0.00    -0.350 N 
ATOM     23  H7  UNL     1      30.716  43.925 -14.041  1.00  0.00     0.167 HD
BRANCH  17  24
HETATM   24  N1  UNL     1      32.838  46.115 -17.979  1.00  0.00    -0.385 N 
ATOM     25  H12 UNL     1      32.247  46.630 -18.633  1.00  0.00     0.157 HD
ATOM     26  H11 UNL     1      33.847  46.049 -18.106  1.00  0.00     0.157 HD
ENDBRANCH  17  24
ENDBRANCH  14  15
ENDBRANCH  13  14
ENDBRANCH  12  13
ENDBRANCH  11  12
ENDBRANCH  10  11
ENDBRANCH   9  10
ENDBRANCH   1   9
BRANCH   2  27
HETATM   27  O1  UNL     1      34.594  43.153  -6.097  1.00  0.00    -0.345 OA
ATOM     28  H1  UNL     1      33.926  43.624  -6.580  1.00  0.00     0.219 HD
ENDBRANCH   2  27
BRANCH   3  29
HETATM   29  C14 UNL     1      36.398  41.694  -4.592  1.00  0.00     0.150 C 
BRANCH  29  30
HETATM   30  C15 UNL     1      35.595  41.542  -3.314  1.00  0.00     0.021 C 
BRANCH  30  31
HETATM   31  C16 UNL     1      36.450  41.769  -2.087  1.00  0.00     0.002 C 
BRANCH  31  32
HETATM   32  C17 UNL     1      36.510  40.544  -1.217  1.00  0.00     0.002 C 
BRANCH  32  33
HETATM   33  C18 UNL     1      37.498  39.582  -1.809  1.00  0.00     0.030 C 
BRANCH  33  34
HETATM   34  C19 UNL     1      37.303  38.158  -1.348  1.00  0.00     0.272 C 
BRANCH  34  35
HETATM   35  N4  UNL     1      37.943  37.189  -2.226  1.00  0.00     0.088 N 
HETATM   36  C20 UNL     1      39.167  37.769  -2.743  1.00  0.00     0.272 C 
HETATM   37  C21 UNL     1      40.112  36.599  -2.921  1.00  0.00     0.032 C 
HETATM   38  C22 UNL     1      39.803  35.788  -1.691  1.00  0.00     0.032 C 
HETATM   39  C23 UNL     1      38.319  35.996  -1.507  1.00  0.00     0.272 C 
ENDBRANCH  34  35
ENDBRANCH  33  34
ENDBRANCH  32  33
ENDBRANCH  31  32
ENDBRANCH  30  31
ENDBRANCH  29  30
ENDBRANCH   3  29
BRANCH   4  40
HETATM   40  N5  UNL     1      36.587  39.039  -5.205  1.00  0.00    -0.234 N 
ATOM     41  H52 UNL     1      37.552  38.997  -5.534  1.00  0.00     0.174 HD
ATOM     42  H51 UNL     1      36.305  38.514  -4.377  1.00  0.00     0.174 HD
ENDBRANCH   4  40
TORSDOF 17
ENDMDL
