MODEL 1
REMARK VINA RESULT: -6.326054449      0.000      0.000
REMARK  19 active torsions:
REMARK  status: ('A' for Active; 'I' for Inactive)
REMARK    1  A    between atoms: N1_1  and  C1_4 
REMARK    2  A    between atoms: C2_7  and  C3_8 
REMARK    3  A    between atoms: C3_8  and  O1_9 
REMARK    4  A    between atoms: C3_8  and  O2_11 
REMARK    5  A    between atoms: C4_13  and  C5_14 
REMARK    6  A    between atoms: C5_14  and  C6_15 
REMARK    7  A    between atoms: C6_15  and  C7_16 
REMARK    8  A    between atoms: C7_16  and  C8_17 
REMARK    9  A    between atoms: C8_17  and  C9_18 
REMARK   10  A    between atoms: C9_18  and  N3_19 
REMARK   11  A    between atoms: N3_19  and  C10_21 
REMARK   12  A    between atoms: C10_21  and  N4_23 
REMARK   13  A    between atoms: N4_23  and  C11_25 
REMARK   14  A    between atoms: C11_25  and  C12_26 
REMARK   15  A    between atoms: C12_26  and  C13_27 
REMARK   16  A    between atoms: C13_27  and  C14_28 
REMARK   17  A    between atoms: C14_28  and  C15_29 
REMARK   18  A    between atoms: C15_29  and  C16_30 
REMARK   19  A    between atoms: C16_30  and  N5_31 
ROOT
HETATM    1  N3  UNL     1      30.690  44.289 -12.100  1.00  0.00    -0.367 N 
ATOM      2  H3  UNL     1      30.401  45.241 -12.326  1.00  0.00     0.161 HD
ENDROOT
BRANCH   1   3
HETATM    3  C9  UNL     1      31.487  44.024 -10.920  1.00  0.00     0.122 C 
BRANCH   3   4
HETATM    4  C8  UNL     1      32.879  43.587 -11.297  1.00  0.00     0.020 C 
BRANCH   4   5
HETATM    5  C7  UNL     1      33.497  42.813 -10.181  1.00  0.00     0.002 C 
BRANCH   5   6
HETATM    6  C6  UNL     1      32.472  42.458  -9.101  1.00  0.00     0.005 C 
BRANCH   6   7
HETATM    7  C5  UNL     1      33.072  42.377  -7.750  1.00  0.00     0.048 C 
BRANCH   7   8
HETATM    8  C4  UNL     1      33.841  41.130  -7.459  1.00  0.00     0.014 A 
HETATM    9  C2  UNL     1      34.804  40.829  -6.541  1.00  0.00     0.079 A 
HETATM   10  N2  UNL     1      35.340  39.633  -6.578  1.00  0.00    -0.335 N 
HETATM   11  C1  UNL     1      34.928  38.769  -7.495  1.00  0.00     0.143 A 
ATOM     12  H2  UNL     1      36.065  39.372  -5.909  1.00  0.00     0.168 HD
HETATM   13  S2  UNL     1      33.746  39.640  -8.349  1.00  0.00    -0.057 SA
BRANCH   9  14
HETATM   14  C3  UNL     1      35.198  41.833  -5.462  1.00  0.00     0.306 C 
BRANCH  14  15
HETATM   15  O1  UNL     1      34.963  41.404  -4.196  1.00  0.00    -0.366 OA
ATOM     16  H1  UNL     1      34.455  42.011  -3.671  1.00  0.00     0.213 HD
ENDBRANCH  14  15
BRANCH  14  17
HETATM   17  O2  UNL     1      36.559  42.172  -5.669  1.00  0.00    -0.366 OA
ATOM     18  H2  UNL     1      36.988  42.169  -4.821  1.00  0.00     0.213 HD
ENDBRANCH  14  17
ENDBRANCH   9  14
BRANCH  11  19
HETATM   19  N1  UNL     1      35.350  37.528  -7.683  1.00  0.00    -0.380 N 
ATOM     20  H12 UNL     1      34.898  36.650  -7.431  1.00  0.00     0.158 HD
ATOM     21  H11 UNL     1      36.219  37.227  -8.122  1.00  0.00     0.158 HD
ENDBRANCH  11  19
ENDBRANCH   7   8
ENDBRANCH   6   7
ENDBRANCH   5   6
ENDBRANCH   4   5
ENDBRANCH   3   4
ENDBRANCH   1   3
BRANCH   1  22
HETATM   22  C10 UNL     1      30.314  43.196 -12.947  1.00  0.00     0.167 C 
HETATM   23  S1  UNL     1      30.815  43.180 -14.513  1.00  0.00    -0.041 SA
BRANCH  22  24
HETATM   24  N4  UNL     1      29.526  42.150 -12.418  1.00  0.00    -0.367 N 
ATOM     25  H4  UNL     1      28.661  42.381 -11.927  1.00  0.00     0.161 HD
BRANCH  24  26
HETATM   26  C11 UNL     1      29.900  40.784 -12.549  1.00  0.00     0.122 C 
BRANCH  26  27
HETATM   27  C12 UNL     1      31.003  40.279 -11.700  1.00  0.00     0.020 C 
BRANCH  27  28
HETATM   28  C13 UNL     1      32.336  40.064 -12.346  1.00  0.00     0.002 C 
BRANCH  28  29
HETATM   29  C14 UNL     1      32.496  38.856 -13.171  1.00  0.00     0.002 C 
BRANCH  29  30
HETATM   30  C15 UNL     1      33.456  37.858 -12.628  1.00  0.00     0.020 C 
BRANCH  30  31
HETATM   31  C16 UNL     1      32.932  36.653 -11.952  1.00  0.00     0.121 C 
BRANCH  31  32
HETATM   32  N5  UNL     1      31.519  36.566 -11.878  1.00  0.00    -0.380 N 
HETATM   33  C17 UNL     1      30.807  36.644 -10.808  1.00  0.00     0.072 C 
HETATM   34  C18 UNL     1      31.500  36.843  -9.517  1.00  0.00     0.076 C 
HETATM   35  N6  UNL     1      29.397  36.536 -10.942  1.00  0.00    -0.380 N 
HETATM   36  C19 UNL     1      30.520  36.930  -8.363  1.00  0.00     0.009 C 
HETATM   37  C20 UNL     1      29.270  36.125  -8.599  1.00  0.00     0.020 C 
HETATM   38  C21 UNL     1      28.540  36.742  -9.793  1.00  0.00     0.121 C 
ATOM     39  H6  UNL     1      28.988  36.312 -11.849  1.00  0.00     0.160 HD
ATOM     40  H5  UNL     1      31.019  36.429 -12.756  1.00  0.00     0.160 HD
ENDBRANCH  31  32
ENDBRANCH  30  31
ENDBRANCH  29  30
ENDBRANCH  28  29
ENDBRANCH  27  28
ENDBRANCH  26  27
ENDBRANCH  24  26
ENDBRANCH  22  24
ENDBRANCH   1  22
TORSDOF 19
ENDMDL
MODEL 2
REMARK VINA RESULT: -6.325930338      4.767      9.560
REMARK  19 active torsions:
REMARK  status: ('A' for Active; 'I' for Inactive)
REMARK    1  A    between atoms: N1_1  and  C1_4 
REMARK    2  A    between atoms: C2_7  and  C3_8 
REMARK    3  A    between atoms: C3_8  and  O1_9 
REMARK    4  A    between atoms: C3_8  and  O2_11 
REMARK    5  A    between atoms: C4_13  and  C5_14 
REMARK    6  A    between atoms: C5_14  and  C6_15 
REMARK    7  A    between atoms: C6_15  and  C7_16 
REMARK    8  A    between atoms: C7_16  and  C8_17 
REMARK    9  A    between atoms: C8_17  and  C9_18 
REMARK   10  A    between atoms: C9_18  and  N3_19 
REMARK   11  A    between atoms: N3_19  and  C10_21 
REMARK   12  A    between atoms: C10_21  and  N4_23 
REMARK   13  A    between atoms: N4_23  and  C11_25 
REMARK   14  A    between atoms: C11_25  and  C12_26 
REMARK   15  A    between atoms: C12_26  and  C13_27 
REMARK   16  A    between atoms: C13_27  and  C14_28 
REMARK   17  A    between atoms: C14_28  and  C15_29 
REMARK   18  A    between atoms: C15_29  and  C16_30 
REMARK   19  A    between atoms: C16_30  and  N5_31 
ROOT
HETATM    1  N3  UNL     1      34.867  41.460  -7.378  1.00  0.00    -0.367 N 
ATOM      2  H3  UNL     1      35.453  42.282  -7.228  1.00  0.00     0.161 HD
ENDROOT
BRANCH   1   3
HETATM    3  C9  UNL     1      33.885  41.442  -8.442  1.00  0.00     0.122 C 
BRANCH   3   4
HETATM    4  C8  UNL     1      32.783  42.435  -8.175  1.00  0.00     0.020 C 
BRANCH   4   5
HETATM    5  C7  UNL     1      32.162  42.874  -9.459  1.00  0.00     0.002 C 
BRANCH   5   6
HETATM    6  C6  UNL     1      33.192  42.960 -10.587  1.00  0.00     0.005 C 
BRANCH   6   7
HETATM    7  C5  UNL     1      32.807  42.161 -11.772  1.00  0.00     0.048 C 
BRANCH   7   8
HETATM    8  C4  UNL     1      31.839  42.812 -12.705  1.00  0.00     0.014 A 
HETATM    9  C2  UNL     1      31.915  43.926 -13.488  1.00  0.00     0.079 A 
HETATM   10  N2  UNL     1      30.849  44.279 -14.164  1.00  0.00    -0.335 N 
HETATM   11  C1  UNL     1      29.749  43.547 -14.063  1.00  0.00     0.143 A 
ATOM     12  H2  UNL     1      30.866  45.108 -14.759  1.00  0.00     0.168 HD
HETATM   13  S2  UNL     1      30.199  42.311 -12.988  1.00  0.00    -0.057 SA
BRANCH   9  14
HETATM   14  C3  UNL     1      33.223  44.700 -13.625  1.00  0.00     0.306 C 
BRANCH  14  15
HETATM   15  O1  UNL     1      33.458  45.171 -14.876  1.00  0.00    -0.366 OA
ATOM     16  H1  UNL     1      32.671  45.409 -15.352  1.00  0.00     0.213 HD
ENDBRANCH  14  15
BRANCH  14  17
HETATM   17  O2  UNL     1      33.212  45.734 -12.655  1.00  0.00    -0.366 OA
ATOM     18  H2  UNL     1      32.345  46.123 -12.660  1.00  0.00     0.213 HD
ENDBRANCH  14  17
ENDBRANCH   9  14
BRANCH  11  19
HETATM   19  N1  UNL     1      28.586  43.747 -14.665  1.00  0.00    -0.380 N 
ATOM     20  H12 UNL     1      27.753  44.220 -14.314  1.00  0.00     0.158 HD
ATOM     21  H11 UNL     1      28.314  43.459 -15.604  1.00  0.00     0.158 HD
ENDBRANCH  11  19
ENDBRANCH   7   8
ENDBRANCH   6   7
ENDBRANCH   5   6
ENDBRANCH   4   5
ENDBRANCH   3   4
ENDBRANCH   1   3
BRANCH   1  22
HETATM   22  C10 UNL     1      35.005  40.307  -6.538  1.00  0.00     0.167 C 
HETATM   23  S1  UNL     1      34.987  38.809  -7.217  1.00  0.00    -0.041 SA
BRANCH  22  24
HETATM   24  N4  UNL     1      35.160  40.479  -5.145  1.00  0.00    -0.367 N 
ATOM     25  H4  UNL     1      34.814  39.754  -4.516  1.00  0.00     0.161 HD
BRANCH  24  26
HETATM   26  C11 UNL     1      35.784  41.632  -4.594  1.00  0.00     0.122 C 
BRANCH  26  27
HETATM   27  C12 UNL     1      37.185  41.512  -4.131  1.00  0.00     0.020 C 
BRANCH  27  28
HETATM   28  C13 UNL     1      37.542  40.327  -3.289  1.00  0.00     0.002 C 
BRANCH  28  29
HETATM   29  C14 UNL     1      38.541  39.394  -3.832  1.00  0.00     0.002 C 
BRANCH  29  30
HETATM   30  C15 UNL     1      37.977  38.300  -4.667  1.00  0.00     0.020 C 
BRANCH  30  31
HETATM   31  C16 UNL     1      38.639  36.978  -4.661  1.00  0.00     0.121 C 
BRANCH  31  32
HETATM   32  N5  UNL     1      39.596  36.777  -5.688  1.00  0.00    -0.380 N 
HETATM   33  C17 UNL     1      40.870  36.675  -5.531  1.00  0.00     0.072 C 
HETATM   34  C18 UNL     1      41.418  36.773  -4.161  1.00  0.00     0.076 C 
HETATM   35  N6  UNL     1      41.665  36.471  -6.689  1.00  0.00    -0.380 N 
HETATM   36  C19 UNL     1      42.926  36.616  -4.149  1.00  0.00     0.009 C 
HETATM   37  C20 UNL     1      43.574  37.112  -5.415  1.00  0.00     0.020 C 
HETATM   38  C21 UNL     1      43.086  36.224  -6.562  1.00  0.00     0.121 C 
ATOM     39  H6  UNL     1      41.235  36.500  -7.614  1.00  0.00     0.160 HD
ATOM     40  H5  UNL     1      39.241  36.706  -6.641  1.00  0.00     0.160 HD
ENDBRANCH  31  32
ENDBRANCH  30  31
ENDBRANCH  29  30
ENDBRANCH  28  29
ENDBRANCH  27  28
ENDBRANCH  26  27
ENDBRANCH  24  26
ENDBRANCH  22  24
ENDBRANCH   1  22
TORSDOF 19
ENDMDL
MODEL 3
REMARK VINA RESULT: -6.247851615      4.275      9.494
REMARK  19 active torsions:
REMARK  status: ('A' for Active; 'I' for Inactive)
REMARK    1  A    between atoms: N1_1  and  C1_4 
REMARK    2  A    between atoms: C2_7  and  C3_8 
REMARK    3  A    between atoms: C3_8  and  O1_9 
REMARK    4  A    between atoms: C3_8  and  O2_11 
REMARK    5  A    between atoms: C4_13  and  C5_14 
REMARK    6  A    between atoms: C5_14  and  C6_15 
REMARK    7  A    between atoms: C6_15  and  C7_16 
REMARK    8  A    between atoms: C7_16  and  C8_17 
REMARK    9  A    between atoms: C8_17  and  C9_18 
REMARK   10  A    between atoms: C9_18  and  N3_19 
REMARK   11  A    between atoms: N3_19  and  C10_21 
REMARK   12  A    between atoms: C10_21  and  N4_23 
REMARK   13  A    between atoms: N4_23  and  C11_25 
REMARK   14  A    between atoms: C11_25  and  C12_26 
REMARK   15  A    between atoms: C12_26  and  C13_27 
REMARK   16  A    between atoms: C13_27  and  C14_28 
REMARK   17  A    between atoms: C14_28  and  C15_29 
REMARK   18  A    between atoms: C15_29  and  C16_30 
REMARK   19  A    between atoms: C16_30  and  N5_31 
ROOT
HETATM    1  N3  UNL     1      37.515  35.708  -7.647  1.00  0.00    -0.367 N 
ATOM      2  H3  UNL     1      37.456  36.242  -6.779  1.00  0.00     0.161 HD
ENDROOT
BRANCH   1   3
HETATM    3  C9  UNL     1      36.438  35.759  -8.613  1.00  0.00     0.122 C 
BRANCH   3   4
HETATM    4  C8  UNL     1      36.696  36.819  -9.653  1.00  0.00     0.020 C 
BRANCH   4   5
HETATM    5  C7  UNL     1      35.543  37.764  -9.723  1.00  0.00     0.002 C 
BRANCH   5   6
HETATM    6  C6  UNL     1      35.342  38.511  -8.404  1.00  0.00     0.005 C 
BRANCH   6   7
HETATM    7  C5  UNL     1      33.917  38.798  -8.122  1.00  0.00     0.048 C 
BRANCH   7   8
HETATM    8  C4  UNL     1      33.475  40.200  -8.385  1.00  0.00     0.014 A 
HETATM    9  C2  UNL     1      33.734  41.385  -7.762  1.00  0.00     0.079 A 
HETATM   10  N2  UNL     1      33.133  42.461  -8.207  1.00  0.00    -0.335 N 
HETATM   11  C1  UNL     1      32.306  42.359  -9.237  1.00  0.00     0.143 A 
ATOM     12  H2  UNL     1      33.301  43.366  -7.765  1.00  0.00     0.168 HD
HETATM   13  S2  UNL     1      32.354  40.704  -9.615  1.00  0.00    -0.057 SA
BRANCH   9  14
HETATM   14  C3  UNL     1      34.746  41.465  -6.622  1.00  0.00     0.306 C 
BRANCH  14  15
HETATM   15  O1  UNL     1      35.990  41.842  -7.013  1.00  0.00    -0.366 OA
ATOM     16  H1  UNL     1      36.106  42.783  -7.073  1.00  0.00     0.213 HD
ENDBRANCH  14  15
BRANCH  14  17
HETATM   17  O2  UNL     1      34.209  42.328  -5.633  1.00  0.00    -0.366 OA
ATOM     18  H2  UNL     1      34.936  42.669  -5.125  1.00  0.00     0.213 HD
ENDBRANCH  14  17
ENDBRANCH   9  14
BRANCH  11  19
HETATM   19  N1  UNL     1      31.616  43.328  -9.818  1.00  0.00    -0.380 N 
ATOM     20  H12 UNL     1      30.832  43.260 -10.468  1.00  0.00     0.158 HD
ATOM     21  H11 UNL     1      31.748  44.334  -9.716  1.00  0.00     0.158 HD
ENDBRANCH  11  19
ENDBRANCH   7   8
ENDBRANCH   6   7
ENDBRANCH   5   6
ENDBRANCH   4   5
ENDBRANCH   3   4
ENDBRANCH   1   3
BRANCH   1  22
HETATM   22  C10 UNL     1      38.664  34.900  -7.926  1.00  0.00     0.167 C 
HETATM   23  S1  UNL     1      38.496  33.553  -8.854  1.00  0.00    -0.041 SA
BRANCH  22  24
HETATM   24  N4  UNL     1      39.921  35.278  -7.403  1.00  0.00    -0.367 N 
ATOM     25  H4  UNL     1      40.754  34.772  -7.704  1.00  0.00     0.161 HD
BRANCH  24  26
HETATM   26  C11 UNL     1      40.059  36.344  -6.472  1.00  0.00     0.122 C 
BRANCH  26  27
HETATM   27  C12 UNL     1      41.372  36.525  -5.810  1.00  0.00     0.020 C 
BRANCH  27  28
HETATM   28  C13 UNL     1      41.374  36.929  -4.369  1.00  0.00     0.002 C 
BRANCH  28  29
HETATM   29  C14 UNL     1      40.777  38.232  -4.035  1.00  0.00     0.002 C 
BRANCH  29  30
HETATM   30  C15 UNL     1      39.473  38.152  -3.326  1.00  0.00     0.020 C 
BRANCH  30  31
HETATM   31  C16 UNL     1      38.400  39.102  -3.687  1.00  0.00     0.121 C 
BRANCH  31  32
HETATM   32  N5  UNL     1      37.430  39.331  -2.679  1.00  0.00    -0.380 N 
HETATM   33  C17 UNL     1      36.996  40.478  -2.286  1.00  0.00     0.072 C 
HETATM   34  C18 UNL     1      37.543  41.692  -2.929  1.00  0.00     0.076 C 
HETATM   35  N6  UNL     1      36.016  40.499  -1.259  1.00  0.00    -0.380 N 
HETATM   36  C19 UNL     1      36.918  42.953  -2.366  1.00  0.00     0.009 C 
HETATM   37  C20 UNL     1      36.505  42.806  -0.925  1.00  0.00     0.020 C 
HETATM   38  C21 UNL     1      35.401  41.750  -0.866  1.00  0.00     0.121 C 
ATOM     39  H6  UNL     1      35.745  39.631  -0.797  1.00  0.00     0.160 HD
ATOM     40  H5  UNL     1      37.038  38.508  -2.221  1.00  0.00     0.160 HD
ENDBRANCH  31  32
ENDBRANCH  30  31
ENDBRANCH  29  30
ENDBRANCH  28  29
ENDBRANCH  27  28
ENDBRANCH  26  27
ENDBRANCH  24  26
ENDBRANCH  22  24
ENDBRANCH   1  22
TORSDOF 19
ENDMDL
MODEL 4
REMARK VINA RESULT: -6.200514260      5.749      9.243
REMARK  19 active torsions:
REMARK  status: ('A' for Active; 'I' for Inactive)
REMARK    1  A    between atoms: N1_1  and  C1_4 
REMARK    2  A    between atoms: C2_7  and  C3_8 
REMARK    3  A    between atoms: C3_8  and  O1_9 
REMARK    4  A    between atoms: C3_8  and  O2_11 
REMARK    5  A    between atoms: C4_13  and  C5_14 
REMARK    6  A    between atoms: C5_14  and  C6_15 
REMARK    7  A    between atoms: C6_15  and  C7_16 
REMARK    8  A    between atoms: C7_16  and  C8_17 
REMARK    9  A    between atoms: C8_17  and  C9_18 
REMARK   10  A    between atoms: C9_18  and  N3_19 
REMARK   11  A    between atoms: N3_19  and  C10_21 
REMARK   12  A    between atoms: C10_21  and  N4_23 
REMARK   13  A    between atoms: N4_23  and  C11_25 
REMARK   14  A    between atoms: C11_25  and  C12_26 
REMARK   15  A    between atoms: C12_26  and  C13_27 
REMARK   16  A    between atoms: C13_27  and  C14_28 
REMARK   17  A    between atoms: C14_28  and  C15_29 
REMARK   18  A    between atoms: C15_29  and  C16_30 
REMARK   19  A    between atoms: C16_30  and  N5_31 
ROOT
HETATM    1  N3  UNL     1      35.954  40.425  -1.577  1.00  0.00    -0.367 N 
ATOM      2  H3  UNL     1      35.081  40.163  -1.117  1.00  0.00     0.161 HD
ENDROOT
BRANCH   1   3
HETATM    3  C9  UNL     1      37.166  39.672  -1.336  1.00  0.00     0.122 C 
BRANCH   3   4
HETATM    4  C8  UNL     1      37.680  39.054  -2.612  1.00  0.00     0.020 C 
BRANCH   4   5
HETATM    5  C7  UNL     1      38.665  37.977  -2.304  1.00  0.00     0.002 C 
BRANCH   5   6
HETATM    6  C6  UNL     1      39.520  37.625  -3.522  1.00  0.00     0.005 C 
BRANCH   6   7
HETATM    7  C5  UNL     1      40.838  38.300  -3.510  1.00  0.00     0.048 C 
BRANCH   7   8
HETATM    8  C4  UNL     1      41.887  37.686  -4.378  1.00  0.00     0.014 A 
HETATM    9  C2  UNL     1      43.235  37.867  -4.471  1.00  0.00     0.079 A 
HETATM   10  N2  UNL     1      43.885  37.207  -5.398  1.00  0.00    -0.335 N 
HETATM   11  C1  UNL     1      43.214  36.393  -6.201  1.00  0.00     0.143 A 
ATOM     12  H2  UNL     1      44.894  37.318  -5.499  1.00  0.00     0.168 HD
HETATM   13  S2  UNL     1      41.612  36.541  -5.657  1.00  0.00    -0.057 SA
BRANCH   9  14
HETATM   14  C3  UNL     1      43.974  38.764  -3.481  1.00  0.00     0.306 C 
BRANCH  14  15
HETATM   15  O1  UNL     1      44.309  38.145  -2.320  1.00  0.00    -0.366 OA
ATOM     16  H1  UNL     1      43.589  37.681  -1.909  1.00  0.00     0.213 HD
ENDBRANCH  14  15
BRANCH  14  17
HETATM   17  O2  UNL     1      45.104  39.299  -4.149  1.00  0.00    -0.366 OA
ATOM     18  H2  UNL     1      44.923  39.276  -5.082  1.00  0.00     0.213 HD
ENDBRANCH  14  17
ENDBRANCH   9  14
BRANCH  11  19
HETATM   19  N1  UNL     1      43.697  35.651  -7.186  1.00  0.00    -0.380 N 
ATOM     20  H12 UNL     1      44.343  35.912  -7.931  1.00  0.00     0.158 HD
ATOM     21  H11 UNL     1      43.504  34.668  -7.376  1.00  0.00     0.158 HD
ENDBRANCH  11  19
ENDBRANCH   7   8
ENDBRANCH   6   7
ENDBRANCH   5   6
ENDBRANCH   4   5
ENDBRANCH   3   4
ENDBRANCH   1   3
BRANCH   1  22
HETATM   22  C10 UNL     1      35.995  41.545  -2.470  1.00  0.00     0.167 C 
HETATM   23  S1  UNL     1      36.990  42.810  -2.132  1.00  0.00    -0.041 SA
BRANCH  22  24
HETATM   24  N4  UNL     1      35.185  41.538  -3.627  1.00  0.00    -0.367 N 
ATOM     25  H4  UNL     1      34.170  41.556  -3.521  1.00  0.00     0.161 HD
BRANCH  24  26
HETATM   26  C11 UNL     1      35.741  41.506  -4.936  1.00  0.00     0.122 C 
BRANCH  26  27
HETATM   27  C12 UNL     1      35.364  40.385  -5.827  1.00  0.00     0.020 C 
BRANCH  27  28
HETATM   28  C13 UNL     1      34.664  40.719  -7.107  1.00  0.00     0.002 C 
BRANCH  28  29
HETATM   29  C14 UNL     1      33.728  41.854  -7.084  1.00  0.00     0.002 C 
BRANCH  29  30
HETATM   30  C15 UNL     1      32.867  41.971  -8.291  1.00  0.00     0.020 C 
BRANCH  30  31
HETATM   31  C16 UNL     1      33.449  42.510  -9.538  1.00  0.00     0.121 C 
BRANCH  31  32
HETATM   32  N5  UNL     1      32.959  41.928 -10.735  1.00  0.00    -0.380 N 
HETATM   33  C17 UNL     1      32.776  42.534 -11.857  1.00  0.00     0.072 C 
HETATM   34  C18 UNL     1      33.098  43.976 -11.936  1.00  0.00     0.076 C 
HETATM   35  N6  UNL     1      32.277  41.773 -12.946  1.00  0.00    -0.380 N 
HETATM   36  C19 UNL     1      32.842  44.531 -13.323  1.00  0.00     0.009 C 
HETATM   37  C20 UNL     1      31.726  43.817 -14.040  1.00  0.00     0.020 C 
HETATM   38  C21 UNL     1      32.170  42.370 -14.261  1.00  0.00     0.121 C 
ATOM     39  H6  UNL     1      31.992  40.804 -12.802  1.00  0.00     0.160 HD
ATOM     40  H5  UNL     1      32.730  40.935 -10.705  1.00  0.00     0.160 HD
ENDBRANCH  31  32
ENDBRANCH  30  31
ENDBRANCH  29  30
ENDBRANCH  28  29
ENDBRANCH  27  28
ENDBRANCH  26  27
ENDBRANCH  24  26
ENDBRANCH  22  24
ENDBRANCH   1  22
TORSDOF 19
ENDMDL
MODEL 5
REMARK VINA RESULT: -6.119882129      2.999      6.405
REMARK  19 active torsions:
REMARK  status: ('A' for Active; 'I' for Inactive)
REMARK    1  A    between atoms: N1_1  and  C1_4 
REMARK    2  A    between atoms: C2_7  and  C3_8 
REMARK    3  A    between atoms: C3_8  and  O1_9 
REMARK    4  A    between atoms: C3_8  and  O2_11 
REMARK    5  A    between atoms: C4_13  and  C5_14 
REMARK    6  A    between atoms: C5_14  and  C6_15 
REMARK    7  A    between atoms: C6_15  and  C7_16 
REMARK    8  A    between atoms: C7_16  and  C8_17 
REMARK    9  A    between atoms: C8_17  and  C9_18 
REMARK   10  A    between atoms: C9_18  and  N3_19 
REMARK   11  A    between atoms: N3_19  and  C10_21 
REMARK   12  A    between atoms: C10_21  and  N4_23 
REMARK   13  A    between atoms: N4_23  and  C11_25 
REMARK   14  A    between atoms: C11_25  and  C12_26 
REMARK   15  A    between atoms: C12_26  and  C13_27 
REMARK   16  A    between atoms: C13_27  and  C14_28 
REMARK   17  A    between atoms: C14_28  and  C15_29 
REMARK   18  A    between atoms: C15_29  and  C16_30 
REMARK   19  A    between atoms: C16_30  and  N5_31 
ROOT
HETATM    1  N3  UNL     1      33.870  42.254  -6.760  1.00  0.00    -0.367 N 
ATOM      2  H3  UNL     1      33.514  42.983  -6.140  1.00  0.00     0.161 HD
ENDROOT
BRANCH   1   3
HETATM    3  C9  UNL     1      33.273  42.042  -8.062  1.00  0.00     0.122 C 
BRANCH   3   4
HETATM    4  C8  UNL     1      32.190  43.055  -8.331  1.00  0.00     0.020 C 
BRANCH   4   5
HETATM    5  C7  UNL     1      31.989  43.219  -9.800  1.00  0.00     0.002 C 
BRANCH   5   6
HETATM    6  C6  UNL     1      33.172  42.671 -10.599  1.00  0.00     0.005 C 
BRANCH   6   7
HETATM    7  C5  UNL     1      32.750  41.949 -11.821  1.00  0.00     0.048 C 
BRANCH   7   8
HETATM    8  C4  UNL     1      31.776  42.670 -12.694  1.00  0.00     0.014 A 
HETATM    9  C2  UNL     1      31.844  43.843 -13.385  1.00  0.00     0.079 A 
HETATM   10  N2  UNL     1      30.774  44.246 -14.026  1.00  0.00    -0.335 N 
HETATM   11  C1  UNL     1      29.677  43.503 -13.980  1.00  0.00     0.143 A 
ATOM     12  H2  UNL     1      30.786  45.119 -14.552  1.00  0.00     0.168 HD
HETATM   13  S2  UNL     1      30.136  42.187 -13.010  1.00  0.00    -0.057 SA
BRANCH   9  14
HETATM   14  C3  UNL     1      33.149  44.630 -13.464  1.00  0.00     0.306 C 
BRANCH  14  15
HETATM   15  O1  UNL     1      33.454  45.070 -14.711  1.00  0.00    -0.366 OA
ATOM     16  H1  UNL     1      34.204  45.653 -14.743  1.00  0.00     0.213 HD
ENDBRANCH  14  15
BRANCH  14  17
HETATM   17  O2  UNL     1      33.067  45.690 -12.526  1.00  0.00    -0.366 OA
ATOM     18  H2  UNL     1      33.342  46.486 -12.967  1.00  0.00     0.213 HD
ENDBRANCH  14  17
ENDBRANCH   9  14
BRANCH  11  19
HETATM   19  N1  UNL     1      28.511  43.748 -14.559  1.00  0.00    -0.380 N 
ATOM     20  H12 UNL     1      28.285  43.800 -15.552  1.00  0.00     0.158 HD
ATOM     21  H11 UNL     1      27.617  43.930 -14.105  1.00  0.00     0.158 HD
ENDBRANCH  11  19
ENDBRANCH   7   8
ENDBRANCH   6   7
ENDBRANCH   5   6
ENDBRANCH   4   5
ENDBRANCH   3   4
ENDBRANCH   1   3
BRANCH   1  22
HETATM   22  C10 UNL     1      34.966  41.426  -6.354  1.00  0.00     0.167 C 
HETATM   23  S1  UNL     1      35.687  41.699  -4.901  1.00  0.00    -0.041 SA
BRANCH  22  24
HETATM   24  N4  UNL     1      35.403  40.388  -7.205  1.00  0.00    -0.367 N 
ATOM     25  H4  UNL     1      35.960  40.623  -8.027  1.00  0.00     0.161 HD
BRANCH  24  26
HETATM   26  C11 UNL     1      35.089  39.024  -6.952  1.00  0.00     0.122 C 
BRANCH  26  27
HETATM   27  C12 UNL     1      34.501  38.228  -8.054  1.00  0.00     0.020 C 
BRANCH  27  28
HETATM   28  C13 UNL     1      34.321  38.900  -9.379  1.00  0.00     0.002 C 
BRANCH  28  29
HETATM   29  C14 UNL     1      33.127  38.538 -10.160  1.00  0.00     0.002 C 
BRANCH  29  30
HETATM   30  C15 UNL     1      31.837  38.752  -9.452  1.00  0.00     0.020 C 
BRANCH  30  31
HETATM   31  C16 UNL     1      31.137  37.590  -8.868  1.00  0.00     0.121 C 
BRANCH  31  32
HETATM   32  N5  UNL     1      29.851  37.325  -9.405  1.00  0.00    -0.380 N 
HETATM   33  C17 UNL     1      29.023  36.430  -8.992  1.00  0.00     0.072 C 
HETATM   34  C18 UNL     1      29.422  35.580  -7.849  1.00  0.00     0.076 C 
HETATM   35  N6  UNL     1      27.777  36.321  -9.663  1.00  0.00    -0.380 N 
HETATM   36  C19 UNL     1      28.332  34.593  -7.479  1.00  0.00     0.009 C 
HETATM   37  C20 UNL     1      27.496  34.178  -8.661  1.00  0.00     0.020 C 
HETATM   38  C21 UNL     1      26.759  35.420  -9.164  1.00  0.00     0.121 C 
ATOM     39  H6  UNL     1      27.599  36.877 -10.499  1.00  0.00     0.160 HD
ATOM     40  H5  UNL     1      29.554  37.899 -10.194  1.00  0.00     0.160 HD
ENDBRANCH  31  32
ENDBRANCH  30  31
ENDBRANCH  29  30
ENDBRANCH  28  29
ENDBRANCH  27  28
ENDBRANCH  26  27
ENDBRANCH  24  26
ENDBRANCH  22  24
ENDBRANCH   1  22
TORSDOF 19
ENDMDL
