MODEL 1
REMARK VINA RESULT: -6.636035872      0.000      0.000
REMARK  14 active torsions:
REMARK  status: ('A' for Active; 'I' for Inactive)
REMARK    1  A    between atoms: C2_2  and  C3_3 
REMARK    2  A    between atoms: C3_3  and  C4_4 
REMARK    3  A    between atoms: C4_4  and  N1_5 
REMARK    4  A    between atoms: N1_5  and  C5_7 
REMARK    5  A    between atoms: C6_10  and  N3_11 
REMARK    6  A    between atoms: N6_22  and  C10_24 
REMARK    7  A    between atoms: C10_24  and  C11_25 
REMARK    8  A    between atoms: C11_25  and  N7_26 
REMARK    9  A    between atoms: C11_25  and  C12_30 
REMARK   10  A    between atoms: C12_30  and  C13_31 
REMARK   11  A    between atoms: C13_31  and  C14_32 
REMARK   12  A    between atoms: C14_32  and  N8_33 
REMARK   13  A    between atoms: N8_33  and  C15_34 
REMARK   14  A    between atoms: N8_33  and  C17_36 
ROOT
HETATM    1  C5  UNL     1      13.662  37.966  -8.549  1.00  0.00     0.680 A 
HETATM    2  N2  UNL     1      13.175  37.582  -7.391  1.00  0.00    -0.175 N 
ATOM      3  H2  UNL     1      13.429  36.654  -7.054  1.00  0.00     0.186 HD
HETATM    4  C6  UNL     1      12.348  38.342  -6.603  1.00  0.00     0.144 A 
HETATM    5  C7  UNL     1      12.021  39.588  -7.079  1.00  0.00     0.112 A 
HETATM    6  N4  UNL     1      11.220  40.419  -6.387  1.00  0.00    -0.303 N 
ATOM      7  H4  UNL     1      10.838  40.127  -5.487  1.00  0.00     0.171 HD
HETATM    8  C8  UNL     1      10.923  41.634  -6.881  1.00  0.00     0.326 A 
HETATM    9  O1  UNL     1      10.152  42.391  -6.183  1.00  0.00    -0.247 OA
HETATM   10  N5  UNL     1      11.401  42.036  -8.040  1.00  0.00    -0.293 N 
ATOM     11  H5  UNL     1      11.144  42.966  -8.370  1.00  0.00     0.172 HD
HETATM   12  C9  UNL     1      12.236  41.265  -8.841  1.00  0.00     0.135 A 
HETATM   13  N6  UNL     1      12.623  41.718  -9.893  1.00  0.00    -0.372 N 
ATOM     14  H6  UNL     1      12.182  42.637  -9.897  1.00  0.00     0.161 HD
HETATM   15  C19 UNL     1      12.532  39.998  -8.300  1.00  0.00     0.123 A 
HETATM   16  N9  UNL     1      13.335  39.209  -9.021  1.00  0.00    -0.186 N 
ATOM     17  H9  UNL     1      13.701  39.530  -9.917  1.00  0.00     0.184 HD
ENDROOT
BRANCH  13  18
HETATM   18  C10 UNL     1      13.283  41.728 -11.050  1.00  0.00     0.154 C 
BRANCH  18  19
HETATM   19  C11 UNL     1      14.549  42.651 -11.049  1.00  0.00     0.201 C 
BRANCH  19  20
HETATM   20  N7  UNL     1      14.091  43.953 -10.660  1.00  0.00    -0.073 N 
ATOM     21  H73 UNL     1      14.490  44.707 -11.220  1.00  0.00     0.274 HD
ATOM     22  H72 UNL     1      13.114  44.127 -10.896  1.00  0.00     0.274 HD
ATOM     23  H71 UNL     1      14.291  44.038  -9.663  1.00  0.00     0.274 HD
ENDBRANCH  19  20
BRANCH  19  24
HETATM   24  C12 UNL     1      15.512  41.978 -10.165  1.00  0.00     0.039 C 
BRANCH  24  25
HETATM   25  C13 UNL     1      16.086  40.664 -10.544  1.00  0.00     0.047 C 
BRANCH  25  26
HETATM   26  C14 UNL     1      16.790  40.709 -11.853  1.00  0.00     0.063 C 
BRANCH  26  27
HETATM   27  N8  UNL     1      16.518  39.659 -12.743  1.00  0.00    -0.375 N 
BRANCH  27  28
HETATM   28  C15 UNL     1      15.704  39.913 -13.863  1.00  0.00     0.058 C 
HETATM   29  C16 UNL     1      14.262  39.514 -13.775  1.00  0.00     0.055 C 
ENDBRANCH  27  28
BRANCH  27  30
HETATM   30  C17 UNL     1      17.580  38.755 -13.045  1.00  0.00     0.122 C 
HETATM   31  C18 UNL     1      17.168  37.308 -13.081  1.00  0.00     0.027 C 
ENDBRANCH  27  30
ENDBRANCH  26  27
ENDBRANCH  25  26
ENDBRANCH  24  25
ENDBRANCH  19  24
ENDBRANCH  18  19
ENDBRANCH  13  18
BRANCH   4  32
HETATM   32  N3  UNL     1      11.930  37.883  -5.506  1.00  0.00    -0.383 N 
ATOM     33  H32 UNL     1      12.434  37.187  -4.957  1.00  0.00     0.157 HD
ATOM     34  H31 UNL     1      11.042  38.210  -5.123  1.00  0.00     0.157 HD
ENDBRANCH   4  32
BRANCH   1  35
HETATM   35  N1  UNL     1      14.435  37.290  -9.320  1.00  0.00    -0.226 N 
ATOM     36  H1  UNL     1      15.124  36.672  -8.891  1.00  0.00     0.177 HD
BRANCH  35  37
HETATM   37  C4  UNL     1      14.382  37.357 -10.734  1.00  0.00     0.138 C 
BRANCH  37  38
HETATM   38  C3  UNL     1      13.171  36.615 -11.305  1.00  0.00     0.020 C 
BRANCH  38  39
HETATM   39  C2  UNL     1      13.745  35.539 -12.220  1.00  0.00    -0.003 C 
HETATM   40  C1  UNL     1      13.379  35.880 -13.660  1.00  0.00     0.005 C 
ENDBRANCH  38  39
ENDBRANCH  37  38
ENDBRANCH  35  37
ENDBRANCH   1  35
TORSDOF 14
ENDMDL
MODEL 2
REMARK VINA RESULT: -6.609073682      0.887      1.784
REMARK  14 active torsions:
REMARK  status: ('A' for Active; 'I' for Inactive)
REMARK    1  A    between atoms: C2_2  and  C3_3 
REMARK    2  A    between atoms: C3_3  and  C4_4 
REMARK    3  A    between atoms: C4_4  and  N1_5 
REMARK    4  A    between atoms: N1_5  and  C5_7 
REMARK    5  A    between atoms: C6_10  and  N3_11 
REMARK    6  A    between atoms: N6_22  and  C10_24 
REMARK    7  A    between atoms: C10_24  and  C11_25 
REMARK    8  A    between atoms: C11_25  and  N7_26 
REMARK    9  A    between atoms: C11_25  and  C12_30 
REMARK   10  A    between atoms: C12_30  and  C13_31 
REMARK   11  A    between atoms: C13_31  and  C14_32 
REMARK   12  A    between atoms: C14_32  and  N8_33 
REMARK   13  A    between atoms: N8_33  and  C15_34 
REMARK   14  A    between atoms: N8_33  and  C17_36 
ROOT
HETATM    1  C5  UNL     1      13.960  38.339  -9.064  1.00  0.00     0.680 A 
HETATM    2  N2  UNL     1      13.444  37.812  -7.977  1.00  0.00    -0.175 N 
ATOM      3  H2  UNL     1      13.702  36.852  -7.746  1.00  0.00     0.186 HD
HETATM    4  C6  UNL     1      12.584  38.462  -7.129  1.00  0.00     0.144 A 
HETATM    5  C7  UNL     1      12.254  39.753  -7.461  1.00  0.00     0.112 A 
HETATM    6  N4  UNL     1      11.420  40.485  -6.698  1.00  0.00    -0.303 N 
ATOM      7  H4  UNL     1      11.016  40.082  -5.852  1.00  0.00     0.171 HD
HETATM    8  C8  UNL     1      11.120  41.748  -7.051  1.00  0.00     0.326 A 
HETATM    9  O1  UNL     1      10.319  42.406  -6.291  1.00  0.00    -0.247 OA
HETATM   10  N5  UNL     1      11.627  42.292  -8.137  1.00  0.00    -0.293 N 
ATOM     11  H5  UNL     1      11.367  43.254  -8.359  1.00  0.00     0.172 HD
HETATM   12  C9  UNL     1      12.496  41.633  -8.999  1.00  0.00     0.135 A 
HETATM   13  N6  UNL     1      12.907  42.215  -9.975  1.00  0.00    -0.372 N 
ATOM     14  H6  UNL     1      12.454  43.123  -9.882  1.00  0.00     0.161 HD
HETATM   15  C19 UNL     1      12.795  40.314  -8.606  1.00  0.00     0.123 A 
HETATM   16  N9  UNL     1      13.630  39.627  -9.392  1.00  0.00    -0.186 N 
ATOM     17  H9  UNL     1      14.018  40.058 -10.231  1.00  0.00     0.184 HD
ENDROOT
BRANCH  13  18
HETATM   18  C10 UNL     1      13.602  42.372 -11.101  1.00  0.00     0.154 C 
BRANCH  18  19
HETATM   19  C11 UNL     1      12.773  42.093 -12.401  1.00  0.00     0.201 C 
BRANCH  19  20
HETATM   20  N7  UNL     1      12.315  43.370 -12.864  1.00  0.00    -0.073 N 
ATOM     21  H73 UNL     1      11.329  43.378 -13.124  1.00  0.00     0.274 HD
ATOM     22  H72 UNL     1      12.254  44.072 -12.126  1.00  0.00     0.274 HD
ATOM     23  H71 UNL     1      12.939  43.635 -13.626  1.00  0.00     0.274 HD
ENDBRANCH  19  20
BRANCH  19  24
HETATM   24  C12 UNL     1      13.680  41.337 -13.278  1.00  0.00     0.039 C 
BRANCH  24  25
HETATM   25  C13 UNL     1      14.131  39.977 -12.897  1.00  0.00     0.047 C 
BRANCH  25  26
HETATM   26  C14 UNL     1      15.449  39.629 -13.492  1.00  0.00     0.063 C 
BRANCH  26  27
HETATM   27  N8  UNL     1      16.528  39.530 -12.601  1.00  0.00    -0.375 N 
BRANCH  27  28
HETATM   28  C15 UNL     1      17.503  38.539 -12.823  1.00  0.00     0.058 C 
HETATM   29  C16 UNL     1      17.022  37.157 -13.149  1.00  0.00     0.055 C 
ENDBRANCH  27  28
BRANCH  27  30
HETATM   30  C17 UNL     1      17.098  40.744 -12.115  1.00  0.00     0.122 C 
HETATM   31  C18 UNL     1      17.011  40.914 -10.622  1.00  0.00     0.027 C 
ENDBRANCH  27  30
ENDBRANCH  26  27
ENDBRANCH  25  26
ENDBRANCH  24  25
ENDBRANCH  19  24
ENDBRANCH  18  19
ENDBRANCH  13  18
BRANCH   4  32
HETATM   32  N3  UNL     1      12.140  37.869  -6.109  1.00  0.00    -0.383 N 
ATOM     33  H32 UNL     1      12.735  37.506  -5.364  1.00  0.00     0.157 HD
ATOM     34  H31 UNL     1      11.135  37.732  -5.997  1.00  0.00     0.157 HD
ENDBRANCH   4  32
BRANCH   1  35
HETATM   35  N1  UNL     1      14.765  37.770  -9.886  1.00  0.00    -0.226 N 
ATOM     36  H1  UNL     1      15.669  38.210 -10.059  1.00  0.00     0.177 HD
BRANCH  35  37
HETATM   37  C4  UNL     1      14.465  36.563 -10.565  1.00  0.00     0.138 C 
BRANCH  37  38
HETATM   38  C3  UNL     1      13.231  36.693 -11.462  1.00  0.00     0.020 C 
BRANCH  38  39
HETATM   39  C2  UNL     1      13.319  35.534 -12.449  1.00  0.00    -0.003 C 
HETATM   40  C1  UNL     1      13.493  36.104 -13.852  1.00  0.00     0.005 C 
ENDBRANCH  38  39
ENDBRANCH  37  38
ENDBRANCH  35  37
ENDBRANCH   1  35
TORSDOF 14
ENDMDL
MODEL 3
REMARK VINA RESULT: -6.602970488      2.819      7.559
REMARK  14 active torsions:
REMARK  status: ('A' for Active; 'I' for Inactive)
REMARK    1  A    between atoms: C2_2  and  C3_3 
REMARK    2  A    between atoms: C3_3  and  C4_4 
REMARK    3  A    between atoms: C4_4  and  N1_5 
REMARK    4  A    between atoms: N1_5  and  C5_7 
REMARK    5  A    between atoms: C6_10  and  N3_11 
REMARK    6  A    between atoms: N6_22  and  C10_24 
REMARK    7  A    between atoms: C10_24  and  C11_25 
REMARK    8  A    between atoms: C11_25  and  N7_26 
REMARK    9  A    between atoms: C11_25  and  C12_30 
REMARK   10  A    between atoms: C12_30  and  C13_31 
REMARK   11  A    between atoms: C13_31  and  C14_32 
REMARK   12  A    between atoms: C14_32  and  N8_33 
REMARK   13  A    between atoms: N8_33  and  C15_34 
REMARK   14  A    between atoms: N8_33  and  C17_36 
ROOT
HETATM    1  C5  UNL     1      13.485  38.558  -9.140  1.00  0.00     0.680 A 
HETATM    2  N2  UNL     1      13.690  39.530 -10.000  1.00  0.00    -0.175 N 
ATOM      3  H2  UNL     1      14.268  39.327 -10.815  1.00  0.00     0.186 HD
HETATM    4  C6  UNL     1      13.181  40.798  -9.878  1.00  0.00     0.144 A 
HETATM    5  C7  UNL     1      12.405  41.044  -8.772  1.00  0.00     0.112 A 
HETATM    6  N4  UNL     1      11.852  42.253  -8.555  1.00  0.00    -0.303 N 
ATOM      7  H4  UNL     1      12.008  43.011  -9.219  1.00  0.00     0.171 HD
HETATM    8  C8  UNL     1      11.095  42.458  -7.462  1.00  0.00     0.326 A 
HETATM    9  O1  UNL     1      10.589  43.630  -7.298  1.00  0.00    -0.247 OA
HETATM   10  N5  UNL     1      10.879  41.497  -6.589  1.00  0.00    -0.293 N 
ATOM     11  H5  UNL     1      10.298  41.707  -5.777  1.00  0.00     0.172 HD
HETATM   12  C9  UNL     1      11.398  40.213  -6.709  1.00  0.00     0.135 A 
HETATM   13  N6  UNL     1      11.148  39.397  -5.854  1.00  0.00    -0.372 N 
ATOM     14  H6  UNL     1      10.563  39.937  -5.217  1.00  0.00     0.161 HD
HETATM   15  C19 UNL     1      12.186  40.023  -7.862  1.00  0.00     0.123 A 
HETATM   16  N9  UNL     1      12.711  38.807  -8.038  1.00  0.00    -0.186 N 
ATOM     17  H9  UNL     1      12.537  38.068  -7.356  1.00  0.00     0.184 HD
ENDROOT
BRANCH  13  18
HETATM   18  C10 UNL     1      11.185  38.210  -5.249  1.00  0.00     0.154 C 
BRANCH  18  19
HETATM   19  C11 UNL     1      10.446  38.180  -3.868  1.00  0.00     0.201 C 
BRANCH  19  20
HETATM   20  N7  UNL     1      11.257  38.945  -2.967  1.00  0.00    -0.073 N 
ATOM     21  H73 UNL     1      11.928  38.381  -2.445  1.00  0.00     0.274 HD
ATOM     22  H72 UNL     1      11.937  39.541  -3.438  1.00  0.00     0.274 HD
ATOM     23  H71 UNL     1      10.609  39.461  -2.371  1.00  0.00     0.274 HD
ENDBRANCH  19  20
BRANCH  19  24
HETATM   24  C12 UNL     1       9.090  38.673  -4.148  1.00  0.00     0.039 C 
BRANCH  24  25
HETATM   25  C13 UNL     1       8.463  39.687  -3.266  1.00  0.00     0.047 C 
BRANCH  25  26
HETATM   26  C14 UNL     1       8.389  41.028  -3.905  1.00  0.00     0.063 C 
BRANCH  26  27
HETATM   27  N8  UNL     1       7.245  41.790  -3.623  1.00  0.00    -0.375 N 
BRANCH  27  28
HETATM   28  C15 UNL     1       7.199  42.526  -2.425  1.00  0.00     0.058 C 
HETATM   29  C16 UNL     1       8.500  43.018  -1.865  1.00  0.00     0.055 C 
ENDBRANCH  27  28
BRANCH  27  30
HETATM   30  C17 UNL     1       6.633  42.488  -4.706  1.00  0.00     0.122 C 
HETATM   31  C18 UNL     1       7.589  43.305  -5.533  1.00  0.00     0.027 C 
ENDBRANCH  27  30
ENDBRANCH  26  27
ENDBRANCH  25  26
ENDBRANCH  24  25
ENDBRANCH  19  24
ENDBRANCH  18  19
ENDBRANCH  13  18
BRANCH   4  32
HETATM   32  N3  UNL     1      13.436  41.664 -10.758  1.00  0.00    -0.383 N 
ATOM     33  H32 UNL     1      13.219  41.544 -11.747  1.00  0.00     0.157 HD
ATOM     34  H31 UNL     1      13.883  42.542 -10.492  1.00  0.00     0.157 HD
ENDBRANCH   4  32
BRANCH   1  35
HETATM   35  N1  UNL     1      13.942  37.361  -9.210  1.00  0.00    -0.226 N 
ATOM     36  H1  UNL     1      14.052  36.834  -8.343  1.00  0.00     0.177 HD
BRANCH  35  37
HETATM   37  C4  UNL     1      14.302  36.732 -10.428  1.00  0.00     0.138 C 
BRANCH  37  38
HETATM   38  C3  UNL     1      13.110  36.581 -11.377  1.00  0.00     0.020 C 
BRANCH  38  39
HETATM   39  C2  UNL     1      13.707  36.546 -12.781  1.00  0.00    -0.003 C 
HETATM   40  C1  UNL     1      13.987  37.977 -13.225  1.00  0.00     0.005 C 
ENDBRANCH  38  39
ENDBRANCH  37  38
ENDBRANCH  35  37
ENDBRANCH   1  35
TORSDOF 14
ENDMDL
MODEL 4
REMARK VINA RESULT: -6.560250733      3.573      8.565
REMARK  14 active torsions:
REMARK  status: ('A' for Active; 'I' for Inactive)
REMARK    1  A    between atoms: C2_2  and  C3_3 
REMARK    2  A    between atoms: C3_3  and  C4_4 
REMARK    3  A    between atoms: C4_4  and  N1_5 
REMARK    4  A    between atoms: N1_5  and  C5_7 
REMARK    5  A    between atoms: C6_10  and  N3_11 
REMARK    6  A    between atoms: N6_22  and  C10_24 
REMARK    7  A    between atoms: C10_24  and  C11_25 
REMARK    8  A    between atoms: C11_25  and  N7_26 
REMARK    9  A    between atoms: C11_25  and  C12_30 
REMARK   10  A    between atoms: C12_30  and  C13_31 
REMARK   11  A    between atoms: C13_31  and  C14_32 
REMARK   12  A    between atoms: C14_32  and  N8_33 
REMARK   13  A    between atoms: N8_33  and  C15_34 
REMARK   14  A    between atoms: N8_33  and  C17_36 
ROOT
HETATM    1  C5  UNL     1      13.402  42.203  -9.945  1.00  0.00     0.680 A 
HETATM    2  N2  UNL     1      13.966  42.002 -11.115  1.00  0.00    -0.175 N 
ATOM      3  H2  UNL     1      14.308  42.817 -11.623  1.00  0.00     0.186 HD
HETATM    4  C6  UNL     1      14.126  40.772 -11.701  1.00  0.00     0.144 A 
HETATM    5  C7  UNL     1      13.657  39.690 -10.997  1.00  0.00     0.112 A 
HETATM    6  N4  UNL     1      13.765  38.437 -11.477  1.00  0.00    -0.303 N 
ATOM      7  H4  UNL     1      14.201  38.274 -12.384  1.00  0.00     0.171 HD
HETATM    8  C8  UNL     1      13.298  37.400 -10.758  1.00  0.00     0.326 A 
HETATM    9  O1  UNL     1      13.423  36.222 -11.259  1.00  0.00    -0.247 OA
HETATM   10  N5  UNL     1      12.729  37.582  -9.585  1.00  0.00    -0.293 N 
ATOM     11  H5  UNL     1      12.391  36.761  -9.082  1.00  0.00     0.172 HD
HETATM   12  C9  UNL     1      12.563  38.828  -8.992  1.00  0.00     0.135 A 
HETATM   13  N6  UNL     1      12.025  38.897  -7.912  1.00  0.00    -0.372 N 
ATOM     14  H6  UNL     1      11.824  37.916  -7.718  1.00  0.00     0.161 HD
HETATM   15  C19 UNL     1      13.062  39.896  -9.763  1.00  0.00     0.123 A 
HETATM   16  N9  UNL     1      12.935  41.122  -9.245  1.00  0.00    -0.186 N 
ATOM     17  H9  UNL     1      12.494  41.253  -8.335  1.00  0.00     0.184 HD
ENDROOT
BRANCH  13  18
HETATM   18  C10 UNL     1      11.538  39.494  -6.825  1.00  0.00     0.154 C 
BRANCH  18  19
HETATM   19  C11 UNL     1      10.919  38.503  -5.781  1.00  0.00     0.201 C 
BRANCH  19  20
HETATM   20  N7  UNL     1      11.996  37.665  -5.341  1.00  0.00    -0.073 N 
ATOM     21  H73 UNL     1      12.818  37.710  -5.944  1.00  0.00     0.274 HD
ATOM     22  H72 UNL     1      12.448  37.997  -4.490  1.00  0.00     0.274 HD
ATOM     23  H71 UNL     1      11.606  36.726  -5.254  1.00  0.00     0.274 HD
ENDBRANCH  19  20
BRANCH  19  24
HETATM   24  C12 UNL     1      10.272  39.360  -4.777  1.00  0.00     0.039 C 
BRANCH  24  25
HETATM   25  C13 UNL     1       9.042  38.906  -4.083  1.00  0.00     0.047 C 
BRANCH  25  26
HETATM   26  C14 UNL     1       9.003  39.335  -2.659  1.00  0.00     0.063 C 
BRANCH  26  27
HETATM   27  N8  UNL     1       9.156  38.324  -1.699  1.00  0.00    -0.375 N 
BRANCH  27  28
HETATM   28  C15 UNL     1       9.281  36.991  -2.132  1.00  0.00     0.058 C 
HETATM   29  C16 UNL     1       9.324  35.923  -1.080  1.00  0.00     0.055 C 
ENDBRANCH  27  28
BRANCH  27  30
HETATM   30  C17 UNL     1       9.986  38.602  -0.572  1.00  0.00     0.122 C 
HETATM   31  C18 UNL     1      11.401  38.973  -0.924  1.00  0.00     0.027 C 
ENDBRANCH  27  30
ENDBRANCH  26  27
ENDBRANCH  25  26
ENDBRANCH  24  25
ENDBRANCH  19  24
ENDBRANCH  18  19
ENDBRANCH  13  18
BRANCH   4  32
HETATM   32  N3  UNL     1      14.680  40.682 -12.830  1.00  0.00    -0.383 N 
ATOM     33  H32 UNL     1      14.409  40.000 -13.538  1.00  0.00     0.157 HD
ATOM     34  H31 UNL     1      15.442  41.315 -13.074  1.00  0.00     0.157 HD
ENDBRANCH   4  32
BRANCH   1  35
HETATM   35  N1  UNL     1      13.228  43.332  -9.360  1.00  0.00    -0.226 N 
ATOM     36  H1  UNL     1      12.273  43.655  -9.207  1.00  0.00     0.177 HD
BRANCH  35  37
HETATM   37  C4  UNL     1      14.294  44.153  -8.914  1.00  0.00     0.138 C 
BRANCH  37  38
HETATM   38  C3  UNL     1      15.155  43.462  -7.855  1.00  0.00     0.020 C 
BRANCH  38  39
HETATM   39  C2  UNL     1      16.588  43.897  -8.145  1.00  0.00    -0.003 C 
HETATM   40  C1  UNL     1      16.973  43.406  -9.535  1.00  0.00     0.005 C 
ENDBRANCH  38  39
ENDBRANCH  37  38
ENDBRANCH  35  37
ENDBRANCH   1  35
TORSDOF 14
ENDMDL
MODEL 5
REMARK VINA RESULT: -6.494779015      3.608      7.887
REMARK  14 active torsions:
REMARK  status: ('A' for Active; 'I' for Inactive)
REMARK    1  A    between atoms: C2_2  and  C3_3 
REMARK    2  A    between atoms: C3_3  and  C4_4 
REMARK    3  A    between atoms: C4_4  and  N1_5 
REMARK    4  A    between atoms: N1_5  and  C5_7 
REMARK    5  A    between atoms: C6_10  and  N3_11 
REMARK    6  A    between atoms: N6_22  and  C10_24 
REMARK    7  A    between atoms: C10_24  and  C11_25 
REMARK    8  A    between atoms: C11_25  and  N7_26 
REMARK    9  A    between atoms: C11_25  and  C12_30 
REMARK   10  A    between atoms: C12_30  and  C13_31 
REMARK   11  A    between atoms: C13_31  and  C14_32 
REMARK   12  A    between atoms: C14_32  and  N8_33 
REMARK   13  A    between atoms: N8_33  and  C15_34 
REMARK   14  A    between atoms: N8_33  and  C17_36 
ROOT
HETATM    1  C5  UNL     1      13.333  38.393 -10.042  1.00  0.00     0.680 A 
HETATM    2  N2  UNL     1      14.273  39.158 -10.550  1.00  0.00    -0.175 N 
ATOM      3  H2  UNL     1      14.771  38.814 -11.371  1.00  0.00     0.186 HD
HETATM    4  C6  UNL     1      14.632  40.385 -10.054  1.00  0.00     0.144 A 
HETATM    5  C7  UNL     1      13.945  40.826  -8.950  1.00  0.00     0.112 A 
HETATM    6  N4  UNL     1      14.212  42.017  -8.383  1.00  0.00    -0.303 N 
ATOM      7  H4  UNL     1      14.941  42.615  -8.772  1.00  0.00     0.171 HD
HETATM    8  C8  UNL     1      13.518  42.419  -7.303  1.00  0.00     0.326 A 
HETATM    9  O1  UNL     1      13.810  43.564  -6.797  1.00  0.00    -0.247 OA
HETATM   10  N5  UNL     1      12.573  41.666  -6.779  1.00  0.00    -0.293 N 
ATOM     11  H5  UNL     1      12.077  42.018  -5.959  1.00  0.00     0.172 HD
HETATM   12  C9  UNL     1      12.212  40.420  -7.278  1.00  0.00     0.135 A 
HETATM   13  N6  UNL     1      11.333  39.799  -6.727  1.00  0.00    -0.372 N 
ATOM     14  H6  UNL     1      11.075  40.432  -5.971  1.00  0.00     0.161 HD
HETATM   15  C19 UNL     1      12.952  40.024  -8.409  1.00  0.00     0.123 A 
HETATM   16  N9  UNL     1      12.650  38.835  -8.940  1.00  0.00    -0.186 N 
ATOM     17  H9  UNL     1      11.915  38.260  -8.528  1.00  0.00     0.184 HD
ENDROOT
BRANCH  13  18
HETATM   18  C10 UNL     1      10.502  38.778  -6.522  1.00  0.00     0.154 C 
BRANCH  18  19
HETATM   19  C11 UNL     1      10.389  38.345  -5.021  1.00  0.00     0.201 C 
BRANCH  19  20
HETATM   20  N7  UNL     1      11.733  38.144  -4.563  1.00  0.00    -0.073 N 
ATOM     21  H73 UNL     1      11.895  38.489  -3.616  1.00  0.00     0.274 HD
ATOM     22  H72 UNL     1      11.957  37.166  -4.378  1.00  0.00     0.274 HD
ATOM     23  H71 UNL     1      12.338  38.575  -5.262  1.00  0.00     0.274 HD
ENDBRANCH  19  20
BRANCH  19  24
HETATM   24  C12 UNL     1       9.603  39.406  -4.375  1.00  0.00     0.039 C 
BRANCH  24  25
HETATM   25  C13 UNL     1       8.795  39.112  -3.166  1.00  0.00     0.047 C 
BRANCH  25  26
HETATM   26  C14 UNL     1       9.559  39.325  -1.908  1.00  0.00     0.063 C 
BRANCH  26  27
HETATM   27  N8  UNL     1       9.488  38.297  -0.955  1.00  0.00    -0.375 N 
BRANCH  27  28
HETATM   28  C15 UNL     1      10.037  37.041  -1.271  1.00  0.00     0.058 C 
HETATM   29  C16 UNL     1       9.117  35.857  -1.239  1.00  0.00     0.055 C 
ENDBRANCH  27  28
BRANCH  27  30
HETATM   30  C17 UNL     1       9.701  38.648   0.411  1.00  0.00     0.122 C 
HETATM   31  C18 UNL     1       8.609  38.192   1.342  1.00  0.00     0.027 C 
ENDBRANCH  27  30
ENDBRANCH  26  27
ENDBRANCH  25  26
ENDBRANCH  24  25
ENDBRANCH  19  24
ENDBRANCH  18  19
ENDBRANCH  13  18
BRANCH   4  32
HETATM   32  N3  UNL     1      15.550  41.044 -10.613  1.00  0.00    -0.383 N 
ATOM     33  H32 UNL     1      16.492  41.132 -10.233  1.00  0.00     0.157 HD
ATOM     34  H31 UNL     1      15.367  41.524 -11.495  1.00  0.00     0.157 HD
ENDBRANCH   4  32
BRANCH   1  35
HETATM   35  N1  UNL     1      12.966  37.240 -10.469  1.00  0.00    -0.226 N 
ATOM     36  H1  UNL     1      12.035  36.906 -10.218  1.00  0.00     0.177 HD
BRANCH  35  37
HETATM   37  C4  UNL     1      13.786  36.406 -11.270  1.00  0.00     0.138 C 
BRANCH  37  38
HETATM   38  C3  UNL     1      13.021  35.802 -12.450  1.00  0.00     0.020 C 
BRANCH  38  39
HETATM   39  C2  UNL     1      13.908  36.027 -13.671  1.00  0.00    -0.003 C 
HETATM   40  C1  UNL     1      14.102  37.526 -13.860  1.00  0.00     0.005 C 
ENDBRANCH  38  39
ENDBRANCH  37  38
ENDBRANCH  35  37
ENDBRANCH   1  35
TORSDOF 14
ENDMDL
