MODEL 1
REMARK VINA RESULT: -7.238062532      0.000      0.000
REMARK  14 active torsions:
REMARK  status: ('A' for Active; 'I' for Inactive)
REMARK    1  A    between atoms: N1_2  and  C2_4 
REMARK    2  A    between atoms: C3_7  and  N3_8 
REMARK    3  A    between atoms: C7_16  and  S1_17 
REMARK    4  A    between atoms: S1_17  and  C8_18 
REMARK    5  A    between atoms: C8_18  and  C9_19 
REMARK    6  A    between atoms: C9_19  and  C10_20 
REMARK    7  A    between atoms: C10_20  and  C11_21 
REMARK    8  A    between atoms: C11_21  and  C12_22 
REMARK    9  A    between atoms: C12_22  and  N5_23 
REMARK   10  A    between atoms: N5_23  and  C14_25 
REMARK   11  A    between atoms: C14_25  and  C15_26 
REMARK       I    between atoms: C15_26  and  N6_28 
REMARK   12  A    between atoms: N6_28  and  C16_30 
REMARK   13  A    between atoms: C16_30  and  C17_31 
REMARK   14  A    between atoms: C17_31  and  N7_32 
ROOT
HETATM    1  C2  UNL     1      10.233  38.603  -3.791  1.00  0.00     0.145 A 
HETATM    2  N2  UNL     1       9.416  39.604  -3.416  1.00  0.00    -0.175 N 
ATOM      3  H2  UNL     1       8.879  39.526  -2.552  1.00  0.00     0.186 HD
HETATM    4  C3  UNL     1       9.305  40.717  -4.183  1.00  0.00     0.678 A 
HETATM    5  N4  UNL     1      10.001  40.836  -5.317  1.00  0.00    -0.189 N 
ATOM      6  H4  UNL     1       9.899  41.682  -5.876  1.00  0.00     0.184 HD
HETATM    7  C4  UNL     1      10.840  39.857  -5.744  1.00  0.00     0.088 A 
HETATM    8  C5  UNL     1      11.650  39.737  -6.846  1.00  0.00     0.001 A 
HETATM    9  C6  UNL     1      11.812  40.727  -7.919  1.00  0.00     0.054 C 
HETATM   10  C7  UNL     1      12.270  38.494  -6.727  1.00  0.00     0.078 A 
HETATM   11  N8  UNL     1      11.843  37.906  -5.601  1.00  0.00    -0.345 N 
ATOM     12  H8  UNL     1      12.135  36.988  -5.266  1.00  0.00     0.167 HD
HETATM   13  C18 UNL     1      10.959  38.725  -4.973  1.00  0.00     0.106 A 
ENDROOT
BRANCH  10  14
HETATM   14  S1  UNL     1      13.414  37.849  -7.909  1.00  0.00    -0.112 SA
BRANCH  14  15
HETATM   15  C8  UNL     1      13.016  38.300  -9.610  1.00  0.00     0.081 C 
BRANCH  15  16
HETATM   16  C9  UNL     1      13.082  37.065 -10.503  1.00  0.00     0.010 C 
BRANCH  16  17
HETATM   17  C10 UNL     1      14.497  36.529 -10.487  1.00  0.00     0.002 C 
BRANCH  17  18
HETATM   18  C11 UNL     1      14.805  35.669 -11.680  1.00  0.00     0.020 C 
BRANCH  18  19
HETATM   19  C12 UNL     1      13.878  35.959 -12.825  1.00  0.00     0.122 C 
BRANCH  19  20
HETATM   20  N5  UNL     1      14.450  36.763 -13.838  1.00  0.00    -0.390 N 
HETATM   21  C13 UNL     1      14.127  38.136 -13.792  1.00  0.00     0.149 C 
BRANCH  20  22
HETATM   22  C14 UNL     1      15.768  36.488 -14.255  1.00  0.00     0.160 C 
BRANCH  22  23
HETATM   23  C15 UNL     1      15.937  36.135 -15.679  1.00  0.00     0.256 C 
HETATM   24  O1  UNL     1      16.261  37.020 -16.493  1.00  0.00    -0.267 OA
HETATM   25  N6  UNL     1      15.738  34.810 -16.135  1.00  0.00    -0.355 N 
ATOM     26  H6  UNL     1      15.476  34.103 -15.448  1.00  0.00     0.162 HD
BRANCH  25  27
HETATM   27  C16 UNL     1      15.882  34.398 -17.504  1.00  0.00     0.150 C 
BRANCH  27  28
HETATM   28  C17 UNL     1      14.731  33.567 -18.002  1.00  0.00     0.249 C 
BRANCH  28  29
HETATM   29  N7  UNL     1      13.754  33.343 -16.952  1.00  0.00    -0.078 N 
ATOM     30  H73 UNL     1      13.221  32.488 -17.112  1.00  0.00     0.274 HD
ATOM     31  H72 UNL     1      14.201  33.085 -16.072  1.00  0.00     0.274 HD
ATOM     32  H71 UNL     1      13.142  34.151 -16.839  1.00  0.00     0.274 HD
ENDBRANCH  28  29
ENDBRANCH  27  28
ENDBRANCH  25  27
ENDBRANCH  22  23
ENDBRANCH  20  22
ENDBRANCH  19  20
ENDBRANCH  18  19
ENDBRANCH  17  18
ENDBRANCH  16  17
ENDBRANCH  15  16
ENDBRANCH  14  15
ENDBRANCH  10  14
BRANCH   1  33
HETATM   33  N1  UNL     1      10.372  37.529  -3.090  1.00  0.00    -0.378 N 
HETATM   34  C1  UNL     1       9.346  37.119  -2.179  1.00  0.00     0.147 C 
ATOM     35  H1  UNL     1      11.219  36.968  -3.185  1.00  0.00     0.160 HD
ENDBRANCH   1  33
BRANCH   4  36
HETATM   36  N3  UNL     1       8.513  41.654  -3.791  1.00  0.00    -0.234 N 
ATOM     37  H32 UNL     1       8.865  42.450  -3.259  1.00  0.00     0.174 HD
ATOM     38  H31 UNL     1       7.523  41.583  -4.027  1.00  0.00     0.174 HD
ENDBRANCH   4  36
TORSDOF 14
ENDMDL
MODEL 2
REMARK VINA RESULT: -7.179151613      3.104     10.282
REMARK  14 active torsions:
REMARK  status: ('A' for Active; 'I' for Inactive)
REMARK    1  A    between atoms: N1_2  and  C2_4 
REMARK    2  A    between atoms: C3_7  and  N3_8 
REMARK    3  A    between atoms: C7_16  and  S1_17 
REMARK    4  A    between atoms: S1_17  and  C8_18 
REMARK    5  A    between atoms: C8_18  and  C9_19 
REMARK    6  A    between atoms: C9_19  and  C10_20 
REMARK    7  A    between atoms: C10_20  and  C11_21 
REMARK    8  A    between atoms: C11_21  and  C12_22 
REMARK    9  A    between atoms: C12_22  and  N5_23 
REMARK   10  A    between atoms: N5_23  and  C14_25 
REMARK   11  A    between atoms: C14_25  and  C15_26 
REMARK       I    between atoms: C15_26  and  N6_28 
REMARK   12  A    between atoms: N6_28  and  C16_30 
REMARK   13  A    between atoms: C16_30  and  C17_31 
REMARK   14  A    between atoms: C17_31  and  N7_32 
ROOT
HETATM    1  C2  UNL     1      13.961  36.181 -13.215  1.00  0.00     0.145 A 
HETATM    2  N2  UNL     1      13.850  35.255 -14.184  1.00  0.00    -0.175 N 
ATOM      3  H2  UNL     1      13.759  34.269 -13.937  1.00  0.00     0.186 HD
HETATM    4  C3  UNL     1      13.857  35.627 -15.488  1.00  0.00     0.678 A 
HETATM    5  N4  UNL     1      13.975  36.913 -15.829  1.00  0.00    -0.189 N 
ATOM      6  H4  UNL     1      13.978  37.167 -16.816  1.00  0.00     0.184 HD
HETATM    7  C4  UNL     1      14.091  37.891 -14.893  1.00  0.00     0.088 A 
HETATM    8  C5  UNL     1      14.221  39.255 -14.980  1.00  0.00     0.001 A 
HETATM    9  C6  UNL     1      14.272  40.048 -16.215  1.00  0.00     0.054 C 
HETATM   10  C7  UNL     1      14.294  39.713 -13.664  1.00  0.00     0.078 A 
HETATM   11  N8  UNL     1      14.210  38.661 -12.838  1.00  0.00    -0.345 N 
ATOM     12  H8  UNL     1      14.237  38.707 -11.819  1.00  0.00     0.167 HD
HETATM   13  C18 UNL     1      14.084  37.523 -13.569  1.00  0.00     0.106 A 
ENDROOT
BRANCH  10  14
HETATM   14  S1  UNL     1      14.480  41.414 -13.225  1.00  0.00    -0.112 SA
BRANCH  14  15
HETATM   15  C8  UNL     1      13.141  42.036 -12.187  1.00  0.00     0.081 C 
BRANCH  15  16
HETATM   16  C9  UNL     1      13.360  41.598 -10.742  1.00  0.00     0.010 C 
BRANCH  16  17
HETATM   17  C10 UNL     1      12.126  41.940  -9.937  1.00  0.00     0.002 C 
BRANCH  17  18
HETATM   18  C11 UNL     1      12.038  41.168  -8.651  1.00  0.00     0.020 C 
BRANCH  18  19
HETATM   19  C12 UNL     1      13.151  40.166  -8.531  1.00  0.00     0.122 C 
BRANCH  19  20
HETATM   20  N5  UNL     1      12.710  38.845  -8.285  1.00  0.00    -0.390 N 
HETATM   21  C13 UNL     1      13.070  37.884  -9.253  1.00  0.00     0.149 C 
BRANCH  20  22
HETATM   22  C14 UNL     1      12.715  38.368  -6.959  1.00  0.00     0.160 C 
BRANCH  22  23
HETATM   23  C15 UNL     1      11.415  38.385  -6.258  1.00  0.00     0.256 C 
HETATM   24  O1  UNL     1      10.369  38.536  -6.917  1.00  0.00    -0.267 OA
HETATM   25  N6  UNL     1      11.337  38.234  -4.853  1.00  0.00    -0.355 N 
ATOM     26  H6  UNL     1      12.207  38.110  -4.337  1.00  0.00     0.162 HD
BRANCH  25  27
HETATM   27  C16 UNL     1      10.108  38.244  -4.108  1.00  0.00     0.150 C 
BRANCH  27  28
HETATM   28  C17 UNL     1      10.313  38.248  -2.618  1.00  0.00     0.249 C 
BRANCH  28  29
HETATM   29  N7  UNL     1      11.459  39.061  -2.249  1.00  0.00    -0.078 N 
ATOM     30  H73 UNL     1      12.056  39.254  -3.053  1.00  0.00     0.274 HD
ATOM     31  H72 UNL     1      11.184  40.017  -2.025  1.00  0.00     0.274 HD
ATOM     32  H71 UNL     1      11.983  38.633  -1.485  1.00  0.00     0.274 HD
ENDBRANCH  28  29
ENDBRANCH  27  28
ENDBRANCH  25  27
ENDBRANCH  22  23
ENDBRANCH  20  22
ENDBRANCH  19  20
ENDBRANCH  18  19
ENDBRANCH  17  18
ENDBRANCH  16  17
ENDBRANCH  15  16
ENDBRANCH  14  15
ENDBRANCH  10  14
BRANCH   1  33
HETATM   33  N1  UNL     1      13.954  35.872 -11.963  1.00  0.00    -0.378 N 
HETATM   34  C1  UNL     1      15.184  35.653 -11.263  1.00  0.00     0.147 C 
ATOM     35  H1  UNL     1      13.066  35.783 -11.467  1.00  0.00     0.160 HD
ENDBRANCH   1  33
BRANCH   4  36
HETATM   36  N3  UNL     1      13.749  34.711 -16.387  1.00  0.00    -0.234 N 
ATOM     37  H32 UNL     1      13.768  33.724 -16.134  1.00  0.00     0.174 HD
ATOM     38  H31 UNL     1      13.642  34.998 -17.361  1.00  0.00     0.174 HD
ENDBRANCH   4  36
TORSDOF 14
ENDMDL
MODEL 3
REMARK VINA RESULT: -7.140018452      1.821      3.757
REMARK  14 active torsions:
REMARK  status: ('A' for Active; 'I' for Inactive)
REMARK    1  A    between atoms: N1_2  and  C2_4 
REMARK    2  A    between atoms: C3_7  and  N3_8 
REMARK    3  A    between atoms: C7_16  and  S1_17 
REMARK    4  A    between atoms: S1_17  and  C8_18 
REMARK    5  A    between atoms: C8_18  and  C9_19 
REMARK    6  A    between atoms: C9_19  and  C10_20 
REMARK    7  A    between atoms: C10_20  and  C11_21 
REMARK    8  A    between atoms: C11_21  and  C12_22 
REMARK    9  A    between atoms: C12_22  and  N5_23 
REMARK   10  A    between atoms: N5_23  and  C14_25 
REMARK   11  A    between atoms: C14_25  and  C15_26 
REMARK       I    between atoms: C15_26  and  N6_28 
REMARK   12  A    between atoms: N6_28  and  C16_30 
REMARK   13  A    between atoms: C16_30  and  C17_31 
REMARK   14  A    between atoms: C17_31  and  N7_32 
ROOT
HETATM    1  C2  UNL     1      10.206  38.588  -3.827  1.00  0.00     0.145 A 
HETATM    2  N2  UNL     1       9.394  39.600  -3.471  1.00  0.00    -0.175 N 
ATOM      3  H2  UNL     1       8.839  39.530  -2.619  1.00  0.00     0.186 HD
HETATM    4  C3  UNL     1       9.312  40.712  -4.242  1.00  0.00     0.678 A 
HETATM    5  N4  UNL     1      10.033  40.820  -5.362  1.00  0.00    -0.189 N 
ATOM      6  H4  UNL     1       9.953  41.667  -5.924  1.00  0.00     0.184 HD
HETATM    7  C4  UNL     1      10.868  39.830  -5.769  1.00  0.00     0.088 A 
HETATM    8  C5  UNL     1      11.700  39.698  -6.855  1.00  0.00     0.001 A 
HETATM    9  C6  UNL     1      11.896  40.684  -7.926  1.00  0.00     0.054 C 
HETATM   10  C7  UNL     1      12.302  38.448  -6.720  1.00  0.00     0.078 A 
HETATM   11  N8  UNL     1      11.845  37.868  -5.602  1.00  0.00    -0.345 N 
ATOM     12  H8  UNL     1      12.119  36.947  -5.260  1.00  0.00     0.167 HD
HETATM   13  C18 UNL     1      10.958  38.699  -4.994  1.00  0.00     0.106 A 
ENDROOT
BRANCH  10  14
HETATM   14  S1  UNL     1      13.462  37.787  -7.877  1.00  0.00    -0.112 SA
BRANCH  14  15
HETATM   15  C8  UNL     1      12.840  37.746  -9.571  1.00  0.00     0.081 C 
BRANCH  15  16
HETATM   16  C9  UNL     1      13.848  37.045 -10.476  1.00  0.00     0.010 C 
BRANCH  16  17
HETATM   17  C10 UNL     1      13.101  36.378 -11.610  1.00  0.00     0.002 C 
BRANCH  17  18
HETATM   18  C11 UNL     1      14.017  35.701 -12.590  1.00  0.00     0.020 C 
BRANCH  18  19
HETATM   19  C12 UNL     1      15.250  36.518 -12.850  1.00  0.00     0.122 C 
BRANCH  19  20
HETATM   20  N5  UNL     1      15.248  37.177 -14.101  1.00  0.00    -0.390 N 
HETATM   21  C13 UNL     1      15.167  36.344 -15.236  1.00  0.00     0.149 C 
BRANCH  20  22
HETATM   22  C14 UNL     1      14.553  38.397 -14.221  1.00  0.00     0.160 C 
BRANCH  22  23
HETATM   23  C15 UNL     1      14.992  39.485 -13.322  1.00  0.00     0.256 C 
HETATM   24  O1  UNL     1      16.162  39.903 -13.396  1.00  0.00    -0.267 OA
HETATM   25  N6  UNL     1      14.105  40.059 -12.380  1.00  0.00    -0.355 N 
ATOM     26  H6  UNL     1      13.152  39.701 -12.341  1.00  0.00     0.162 HD
BRANCH  25  27
HETATM   27  C16 UNL     1      14.465  41.116 -11.474  1.00  0.00     0.150 C 
BRANCH  27  28
HETATM   28  C17 UNL     1      14.945  40.619 -10.138  1.00  0.00     0.249 C 
BRANCH  28  29
HETATM   29  N7  UNL     1      16.346  40.238 -10.192  1.00  0.00    -0.078 N 
ATOM     30  H73 UNL     1      16.536  39.620 -10.981  1.00  0.00     0.274 HD
ATOM     31  H72 UNL     1      16.937  41.023 -10.463  1.00  0.00     0.274 HD
ATOM     32  H71 UNL     1      16.649  39.826  -9.310  1.00  0.00     0.274 HD
ENDBRANCH  28  29
ENDBRANCH  27  28
ENDBRANCH  25  27
ENDBRANCH  22  23
ENDBRANCH  20  22
ENDBRANCH  19  20
ENDBRANCH  18  19
ENDBRANCH  17  18
ENDBRANCH  16  17
ENDBRANCH  15  16
ENDBRANCH  14  15
ENDBRANCH  10  14
BRANCH   1  33
HETATM   33  N1  UNL     1      10.318  37.514  -3.121  1.00  0.00    -0.378 N 
HETATM   34  C1  UNL     1       9.318  37.175  -2.154  1.00  0.00     0.147 C 
ATOM     35  H1  UNL     1      11.124  36.902  -3.253  1.00  0.00     0.160 HD
ENDBRANCH   1  33
BRANCH   4  36
HETATM   36  N3  UNL     1       8.524  41.660  -3.869  1.00  0.00    -0.234 N 
ATOM     37  H32 UNL     1       7.604  41.453  -3.480  1.00  0.00     0.174 HD
ATOM     38  H31 UNL     1       8.842  42.624  -3.970  1.00  0.00     0.174 HD
ENDBRANCH   4  36
TORSDOF 14
ENDMDL
MODEL 4
REMARK VINA RESULT: -7.112030759      3.505      9.437
REMARK  14 active torsions:
REMARK  status: ('A' for Active; 'I' for Inactive)
REMARK    1  A    between atoms: N1_2  and  C2_4 
REMARK    2  A    between atoms: C3_7  and  N3_8 
REMARK    3  A    between atoms: C7_16  and  S1_17 
REMARK    4  A    between atoms: S1_17  and  C8_18 
REMARK    5  A    between atoms: C8_18  and  C9_19 
REMARK    6  A    between atoms: C9_19  and  C10_20 
REMARK    7  A    between atoms: C10_20  and  C11_21 
REMARK    8  A    between atoms: C11_21  and  C12_22 
REMARK    9  A    between atoms: C12_22  and  N5_23 
REMARK   10  A    between atoms: N5_23  and  C14_25 
REMARK   11  A    between atoms: C14_25  and  C15_26 
REMARK       I    between atoms: C15_26  and  N6_28 
REMARK   12  A    between atoms: N6_28  and  C16_30 
REMARK   13  A    between atoms: C16_30  and  C17_31 
REMARK   14  A    between atoms: C17_31  and  N7_32 
ROOT
HETATM    1  C2  UNL     1      13.295  37.560 -10.764  1.00  0.00     0.145 A 
HETATM    2  N2  UNL     1      13.303  36.453 -11.528  1.00  0.00    -0.175 N 
ATOM      3  H2  UNL     1      13.066  35.550 -11.117  1.00  0.00     0.186 HD
HETATM    4  C3  UNL     1      13.626  36.533 -12.842  1.00  0.00     0.678 A 
HETATM    5  N4  UNL     1      13.939  37.708 -13.396  1.00  0.00    -0.189 N 
ATOM      6  H4  UNL     1      14.178  37.742 -14.387  1.00  0.00     0.184 HD
HETATM    7  C4  UNL     1      13.947  38.857 -12.674  1.00  0.00     0.088 A 
HETATM    8  C5  UNL     1      14.225  40.162 -12.998  1.00  0.00     0.001 A 
HETATM    9  C6  UNL     1      14.617  40.665 -14.321  1.00  0.00     0.054 C 
HETATM   10  C7  UNL     1      14.060  40.889 -11.819  1.00  0.00     0.078 A 
HETATM   11  N8  UNL     1      13.699  40.047 -10.842  1.00  0.00    -0.345 N 
ATOM     12  H8  UNL     1      13.512  40.311  -9.874  1.00  0.00     0.167 HD
HETATM   13  C18 UNL     1      13.621  38.786 -11.340  1.00  0.00     0.106 A 
ENDROOT
BRANCH  10  14
HETATM   14  S1  UNL     1      14.313  42.634 -11.697  1.00  0.00    -0.112 SA
BRANCH  14  15
HETATM   15  C8  UNL     1      15.578  43.090 -10.494  1.00  0.00     0.081 C 
BRANCH  15  16
HETATM   16  C9  UNL     1      14.998  44.071  -9.480  1.00  0.00     0.010 C 
BRANCH  16  17
HETATM   17  C10 UNL     1      15.417  43.640  -8.092  1.00  0.00     0.002 C 
BRANCH  17  18
HETATM   18  C11 UNL     1      14.384  42.788  -7.411  1.00  0.00     0.020 C 
BRANCH  18  19
HETATM   19  C12 UNL     1      12.993  43.157  -7.841  1.00  0.00     0.122 C 
BRANCH  19  20
HETATM   20  N5  UNL     1      12.106  42.059  -7.922  1.00  0.00    -0.390 N 
HETATM   21  C13 UNL     1      11.306  41.996  -9.082  1.00  0.00     0.149 C 
BRANCH  20  22
HETATM   22  C14 UNL     1      12.537  40.806  -7.441  1.00  0.00     0.160 C 
BRANCH  22  23
HETATM   23  C15 UNL     1      11.497  39.955  -6.826  1.00  0.00     0.256 C 
HETATM   24  O1  UNL     1      10.980  39.043  -7.497  1.00  0.00    -0.267 OA
HETATM   25  N6  UNL     1      11.080  40.159  -5.489  1.00  0.00    -0.355 N 
ATOM     26  H6  UNL     1      11.521  40.911  -4.960  1.00  0.00     0.162 HD
BRANCH  25  27
HETATM   27  C16 UNL     1      10.074  39.372  -4.829  1.00  0.00     0.150 C 
BRANCH  27  28
HETATM   28  C17 UNL     1      10.641  38.372  -3.858  1.00  0.00     0.249 C 
BRANCH  28  29
HETATM   29  N7  UNL     1      11.357  39.034  -2.783  1.00  0.00    -0.078 N 
ATOM     30  H73 UNL     1      11.700  39.951  -3.069  1.00  0.00     0.274 HD
ATOM     31  H72 UNL     1      10.726  39.329  -2.038  1.00  0.00     0.274 HD
ATOM     32  H71 UNL     1      12.110  38.446  -2.426  1.00  0.00     0.274 HD
ENDBRANCH  28  29
ENDBRANCH  27  28
ENDBRANCH  25  27
ENDBRANCH  22  23
ENDBRANCH  20  22
ENDBRANCH  19  20
ENDBRANCH  18  19
ENDBRANCH  17  18
ENDBRANCH  16  17
ENDBRANCH  15  16
ENDBRANCH  14  15
ENDBRANCH  10  14
BRANCH   1  33
HETATM   33  N1  UNL     1      12.990  37.530  -9.511  1.00  0.00    -0.378 N 
HETATM   34  C1  UNL     1      14.017  37.518  -8.514  1.00  0.00     0.147 C 
ATOM     35  H1  UNL     1      12.009  37.514  -9.228  1.00  0.00     0.160 HD
ENDBRANCH   1  33
BRANCH   4  36
HETATM   36  N3  UNL     1      13.623  35.452 -13.541  1.00  0.00    -0.234 N 
ATOM     37  H32 UNL     1      14.265  34.688 -13.328  1.00  0.00     0.174 HD
ATOM     38  H31 UNL     1      12.962  35.375 -14.314  1.00  0.00     0.174 HD
ENDBRANCH   4  36
TORSDOF 14
ENDMDL
MODEL 5
REMARK VINA RESULT: -7.071572753      3.521      9.573
REMARK  14 active torsions:
REMARK  status: ('A' for Active; 'I' for Inactive)
REMARK    1  A    between atoms: N1_2  and  C2_4 
REMARK    2  A    between atoms: C3_7  and  N3_8 
REMARK    3  A    between atoms: C7_16  and  S1_17 
REMARK    4  A    between atoms: S1_17  and  C8_18 
REMARK    5  A    between atoms: C8_18  and  C9_19 
REMARK    6  A    between atoms: C9_19  and  C10_20 
REMARK    7  A    between atoms: C10_20  and  C11_21 
REMARK    8  A    between atoms: C11_21  and  C12_22 
REMARK    9  A    between atoms: C12_22  and  N5_23 
REMARK   10  A    between atoms: N5_23  and  C14_25 
REMARK   11  A    between atoms: C14_25  and  C15_26 
REMARK       I    between atoms: C15_26  and  N6_28 
REMARK   12  A    between atoms: N6_28  and  C16_30 
REMARK   13  A    between atoms: C16_30  and  C17_31 
REMARK   14  A    between atoms: C17_31  and  N7_32 
ROOT
HETATM    1  C2  UNL     1      13.357  37.665 -10.722  1.00  0.00     0.145 A 
HETATM    2  N2  UNL     1      13.357  36.374 -11.098  1.00  0.00    -0.175 N 
ATOM      3  H2  UNL     1      13.119  35.647 -10.423  1.00  0.00     0.186 HD
HETATM    4  C3  UNL     1      13.671  36.035 -12.373  1.00  0.00     0.678 A 
HETATM    5  N4  UNL     1      13.985  36.974 -13.270  1.00  0.00    -0.189 N 
ATOM      6  H4  UNL     1      14.217  36.693 -14.222  1.00  0.00     0.184 HD
HETATM    7  C4  UNL     1      14.002  38.292 -12.946  1.00  0.00     0.088 A 
HETATM    8  C5  UNL     1      14.283  39.427 -13.666  1.00  0.00     0.001 A 
HETATM    9  C6  UNL     1      14.667  39.486 -15.083  1.00  0.00     0.054 C 
HETATM   10  C7  UNL     1      14.128  40.489 -12.775  1.00  0.00     0.078 A 
HETATM   11  N8  UNL     1      13.770  39.999 -11.580  1.00  0.00    -0.345 N 
ATOM     12  H8  UNL     1      13.590  40.555 -10.744  1.00  0.00     0.167 HD
HETATM   13  C18 UNL     1      13.684  38.646 -11.656  1.00  0.00     0.106 A 
ENDROOT
BRANCH  10  14
HETATM   14  S1  UNL     1      14.388  42.182 -13.210  1.00  0.00    -0.112 SA
BRANCH  14  15
HETATM   15  C8  UNL     1      12.909  43.201 -13.036  1.00  0.00     0.081 C 
BRANCH  15  16
HETATM   16  C9  UNL     1      12.982  44.002 -11.739  1.00  0.00     0.010 C 
BRANCH  16  17
HETATM   17  C10 UNL     1      11.628  43.959 -11.064  1.00  0.00     0.002 C 
BRANCH  17  18
HETATM   18  C11 UNL     1      11.712  43.550  -9.621  1.00  0.00     0.020 C 
BRANCH  18  19
HETATM   19  C12 UNL     1      11.373  42.099  -9.437  1.00  0.00     0.122 C 
BRANCH  19  20
HETATM   20  N5  UNL     1      12.113  41.461  -8.415  1.00  0.00    -0.390 N 
HETATM   21  C13 UNL     1      13.511  41.649  -8.458  1.00  0.00     0.149 C 
BRANCH  20  22
HETATM   22  C14 UNL     1      11.571  41.415  -7.116  1.00  0.00     0.160 C 
BRANCH  22  23
HETATM   23  C15 UNL     1      11.182  40.078  -6.622  1.00  0.00     0.256 C 
HETATM   24  O1  UNL     1      10.966  39.165  -7.441  1.00  0.00    -0.267 OA
HETATM   25  N6  UNL     1      11.051  39.817  -5.237  1.00  0.00    -0.355 N 
ATOM     26  H6  UNL     1      11.235  40.580  -4.588  1.00  0.00     0.162 HD
BRANCH  25  27
HETATM   27  C16 UNL     1      10.674  38.542  -4.690  1.00  0.00     0.150 C 
BRANCH  27  28
HETATM   28  C17 UNL     1      10.287  38.608  -3.238  1.00  0.00     0.249 C 
BRANCH  28  29
HETATM   29  N7  UNL     1      11.436  38.906  -2.401  1.00  0.00    -0.078 N 
ATOM     30  H73 UNL     1      11.153  39.231  -1.477  1.00  0.00     0.274 HD
ATOM     31  H72 UNL     1      11.928  38.056  -2.124  1.00  0.00     0.274 HD
ATOM     32  H71 UNL     1      12.062  39.569  -2.858  1.00  0.00     0.274 HD
ENDBRANCH  28  29
ENDBRANCH  27  28
ENDBRANCH  25  27
ENDBRANCH  22  23
ENDBRANCH  20  22
ENDBRANCH  19  20
ENDBRANCH  18  19
ENDBRANCH  17  18
ENDBRANCH  16  17
ENDBRANCH  15  16
ENDBRANCH  14  15
ENDBRANCH  10  14
BRANCH   1  33
HETATM   33  N1  UNL     1      13.060  38.033  -9.521  1.00  0.00    -0.378 N 
HETATM   34  C1  UNL     1      13.910  37.680  -8.424  1.00  0.00     0.147 C 
ATOM     35  H1  UNL     1      12.215  38.578  -9.353  1.00  0.00     0.160 HD
ENDBRANCH   1  33
BRANCH   4  36
HETATM   36  N3  UNL     1      13.660  34.788 -12.696  1.00  0.00    -0.234 N 
ATOM     37  H32 UNL     1      13.920  34.070 -12.021  1.00  0.00     0.174 HD
ATOM     38  H31 UNL     1      13.383  34.535 -13.645  1.00  0.00     0.174 HD
ENDBRANCH   4  36
TORSDOF 14
ENDMDL
