MODEL 1
REMARK VINA RESULT: -7.556251637      0.000      0.000
REMARK  17 active torsions:
REMARK  status: ('A' for Active; 'I' for Inactive)
REMARK    1  A    between atoms: C2_2  and  C3_3 
REMARK    2  A    between atoms: C3_3  and  N1_5 
REMARK    3  A    between atoms: C3_3  and  C5_9 
REMARK    4  A    between atoms: C5_9  and  N2_10 
REMARK    5  A    between atoms: N2_10  and  O1_11 
REMARK    6  A    between atoms: N2_10  and  C6_13 
REMARK    7  A    between atoms: C6_13  and  C7_14 
REMARK    8  A    between atoms: C7_14  and  C8_15 
REMARK    9  A    between atoms: C8_15  and  C9_16 
REMARK   10  A    between atoms: C9_16  and  C10_17 
REMARK   11  A    between atoms: C10_17  and  C11_18 
REMARK   12  A    between atoms: C11_18  and  N3_19 
REMARK   13  A    between atoms: N3_19  and  C12_21 
REMARK   14  A    between atoms: C12_21  and  C13_22 
REMARK   15  A    between atoms: C17_29  and  N5_30 
REMARK   16  A    between atoms: C18_34  and  O2_35 
REMARK   17  A    between atoms: C19_37  and  O3_38 
ROOT
HETATM    1  N3  UNL     1      13.638  41.097  -8.809  1.00  0.00    -0.382 N 
ATOM      2  H3  UNL     1      14.610  41.371  -8.949  1.00  0.00     0.164 HD
ENDROOT
BRANCH   1   3
HETATM    3  C11 UNL     1      12.955  41.730  -7.775  1.00  0.00     0.060 C 
BRANCH   3   4
HETATM    4  C10 UNL     1      11.490  41.365  -7.666  1.00  0.00     0.044 C 
BRANCH   4   5
HETATM    5  C9  UNL     1      11.281  40.531  -6.438  1.00  0.00     0.005 C 
BRANCH   5   6
HETATM    6  C8  UNL     1      11.466  39.065  -6.660  1.00  0.00     0.002 C 
BRANCH   6   7
HETATM    7  C7  UNL     1      11.153  38.259  -5.387  1.00  0.00     0.022 C 
BRANCH   7   8
HETATM    8  C6  UNL     1      10.244  39.122  -4.578  1.00  0.00     0.155 C 
BRANCH   8   9
HETATM    9  N2  UNL     1       9.124  38.469  -3.997  1.00  0.00    -0.274 N 
BRANCH   9  10
HETATM   10  C5  UNL     1       8.793  38.713  -2.653  1.00  0.00     0.127 C 
BRANCH  10  11
HETATM   11  C3  UNL     1       9.387  37.850  -1.610  1.00  0.00     0.153 C 
HETATM   12  C4  UNL     1       8.402  37.022  -0.818  1.00  0.00     0.052 C 
BRANCH  11  13
HETATM   13  C2  UNL     1      10.337  38.563  -0.696  1.00  0.00     0.039 C 
HETATM   14  C1  UNL     1       9.781  38.610   0.728  1.00  0.00     0.008 C 
ENDBRANCH  11  13
BRANCH  11  15
HETATM   15  N1  UNL     1      10.210  36.846  -2.332  1.00  0.00    -0.066 N 
ATOM     16  H13 UNL     1      11.120  36.676  -1.903  1.00  0.00     0.275 HD
ATOM     17  H12 UNL     1       9.859  35.892  -2.251  1.00  0.00     0.275 HD
ATOM     18  H11 UNL     1      10.267  37.182  -3.293  1.00  0.00     0.275 HD
ENDBRANCH  11  15
ENDBRANCH  10  11
ENDBRANCH   9  10
BRANCH   9  19
HETATM   19  O1  UNL     1       8.489  37.722  -4.656  1.00  0.00    -0.288 OA
ATOM     20  H1  UNL     1       7.638  37.970  -4.996  1.00  0.00     0.244 HD
ENDBRANCH   9  19
ENDBRANCH   8   9
ENDBRANCH   7   8
ENDBRANCH   6   7
ENDBRANCH   5   6
ENDBRANCH   4   5
ENDBRANCH   3   4
ENDBRANCH   1   3
BRANCH   1  21
HETATM   21  C12 UNL     1      13.141  40.143  -9.660  1.00  0.00     0.067 C 
BRANCH  21  22
HETATM   22  C13 UNL     1      13.999  38.957  -9.905  1.00  0.00     0.058 C 
HETATM   23  C14 UNL     1      14.052  37.904  -8.858  1.00  0.00     0.243 C 
HETATM   24  N4  UNL     1      14.599  36.751  -9.617  1.00  0.00    -0.070 N 
HETATM   25  C15 UNL     1      13.772  36.769 -10.776  1.00  0.00     0.195 C 
ATOM     26  H42 UNL     1      15.603  36.782  -9.795  1.00  0.00     0.277 HD
ATOM     27  H41 UNL     1      14.624  35.866  -9.111  1.00  0.00     0.277 HD
HETATM   28  C16 UNL     1      14.407  35.981 -11.905  1.00  0.00     0.069 C 
HETATM   29  C20 UNL     1      13.540  38.194 -11.142  1.00  0.00     0.058 C 
HETATM   30  C17 UNL     1      13.851  36.401 -13.252  1.00  0.00     0.216 C 
HETATM   31  C18 UNL     1      14.092  37.852 -13.558  1.00  0.00     0.177 C 
HETATM   32  C19 UNL     1      14.385  38.655 -12.303  1.00  0.00     0.155 C 
BRANCH  30  33
HETATM   33  N5  UNL     1      14.467  35.559 -14.263  1.00  0.00    -0.072 N 
ATOM     34  H53 UNL     1      15.265  35.030 -13.908  1.00  0.00     0.274 HD
ATOM     35  H52 UNL     1      13.886  34.763 -14.525  1.00  0.00     0.274 HD
ATOM     36  H51 UNL     1      14.707  36.155 -15.055  1.00  0.00     0.274 HD
ENDBRANCH  30  33
BRANCH  31  37
HETATM   37  O2  UNL     1      15.213  38.006 -14.381  1.00  0.00    -0.391 OA
ATOM     38  H2  UNL     1      15.895  37.390 -14.141  1.00  0.00     0.210 HD
ENDBRANCH  31  37
BRANCH  32  39
HETATM   39  O3  UNL     1      15.725  38.598 -11.947  1.00  0.00    -0.392 OA
ATOM     40  H3  UNL     1      16.135  39.455 -11.963  1.00  0.00     0.210 HD
ENDBRANCH  32  39
ENDBRANCH  21  22
ENDBRANCH   1  21
TORSDOF 17
ENDMDL
MODEL 2
REMARK VINA RESULT: -7.172187761      1.672      2.735
REMARK  17 active torsions:
REMARK  status: ('A' for Active; 'I' for Inactive)
REMARK    1  A    between atoms: C2_2  and  C3_3 
REMARK    2  A    between atoms: C3_3  and  N1_5 
REMARK    3  A    between atoms: C3_3  and  C5_9 
REMARK    4  A    between atoms: C5_9  and  N2_10 
REMARK    5  A    between atoms: N2_10  and  O1_11 
REMARK    6  A    between atoms: N2_10  and  C6_13 
REMARK    7  A    between atoms: C6_13  and  C7_14 
REMARK    8  A    between atoms: C7_14  and  C8_15 
REMARK    9  A    between atoms: C8_15  and  C9_16 
REMARK   10  A    between atoms: C9_16  and  C10_17 
REMARK   11  A    between atoms: C10_17  and  C11_18 
REMARK   12  A    between atoms: C11_18  and  N3_19 
REMARK   13  A    between atoms: N3_19  and  C12_21 
REMARK   14  A    between atoms: C12_21  and  C13_22 
REMARK   15  A    between atoms: C17_29  and  N5_30 
REMARK   16  A    between atoms: C18_34  and  O2_35 
REMARK   17  A    between atoms: C19_37  and  O3_38 
ROOT
HETATM    1  N3  UNL     1      13.914  37.134  -9.637  1.00  0.00    -0.382 N 
ATOM      2  H3  UNL     1      14.621  36.414  -9.492  1.00  0.00     0.164 HD
ENDROOT
BRANCH   1   3
HETATM    3  C11 UNL     1      13.714  38.030  -8.592  1.00  0.00     0.060 C 
BRANCH   3   4
HETATM    4  C10 UNL     1      13.218  39.396  -9.014  1.00  0.00     0.044 C 
BRANCH   4   5
HETATM    5  C9  UNL     1      12.184  39.868  -8.035  1.00  0.00     0.005 C 
BRANCH   5   6
HETATM    6  C8  UNL     1      11.712  38.808  -7.092  1.00  0.00     0.002 C 
BRANCH   6   7
HETATM    7  C7  UNL     1      11.053  39.419  -5.843  1.00  0.00     0.022 C 
BRANCH   7   8
HETATM    8  C6  UNL     1      10.639  38.261  -5.000  1.00  0.00     0.155 C 
BRANCH   8   9
HETATM    9  N2  UNL     1       9.424  38.422  -4.279  1.00  0.00    -0.274 N 
BRANCH   9  10
HETATM   10  C5  UNL     1       9.396  39.233  -3.132  1.00  0.00     0.127 C 
BRANCH  10  11
HETATM   11  C3  UNL     1      10.022  38.728  -1.892  1.00  0.00     0.153 C 
HETATM   12  C4  UNL     1       9.848  37.248  -1.636  1.00  0.00     0.052 C 
BRANCH  11  13
HETATM   13  C2  UNL     1       9.678  39.521  -0.667  1.00  0.00     0.039 C 
HETATM   14  C1  UNL     1       9.647  38.620   0.567  1.00  0.00     0.008 C 
ENDBRANCH  11  13
BRANCH  11  15
HETATM   15  N1  UNL     1      11.486  38.897  -2.076  1.00  0.00    -0.066 N 
ATOM     16  H13 UNL     1      11.808  38.683  -3.020  1.00  0.00     0.275 HD
ATOM     17  H12 UNL     1      11.790  39.870  -2.064  1.00  0.00     0.275 HD
ATOM     18  H11 UNL     1      11.919  38.323  -1.354  1.00  0.00     0.275 HD
ENDBRANCH  11  15
ENDBRANCH  10  11
ENDBRANCH   9  10
BRANCH   9  19
HETATM   19  O1  UNL     1       8.456  37.863  -4.655  1.00  0.00    -0.288 OA
ATOM     20  H1  UNL     1       8.322  37.677  -5.577  1.00  0.00     0.244 HD
ENDBRANCH   9  19
ENDBRANCH   8   9
ENDBRANCH   7   8
ENDBRANCH   6   7
ENDBRANCH   5   6
ENDBRANCH   4   5
ENDBRANCH   3   4
ENDBRANCH   1   3
BRANCH   1  21
HETATM   21  C12 UNL     1      13.260  37.118 -10.843  1.00  0.00     0.067 C 
BRANCH  21  22
HETATM   22  C13 UNL     1      13.901  36.348 -11.938  1.00  0.00     0.058 C 
HETATM   23  C14 UNL     1      13.043  35.457 -12.761  1.00  0.00     0.243 C 
HETATM   24  N4  UNL     1      13.894  35.243 -13.959  1.00  0.00    -0.070 N 
HETATM   25  C15 UNL     1      14.284  36.579 -14.261  1.00  0.00     0.195 C 
ATOM     26  H42 UNL     1      14.660  34.580 -13.838  1.00  0.00     0.277 HD
ATOM     27  H41 UNL     1      13.453  34.732 -14.724  1.00  0.00     0.277 HD
HETATM   28  C16 UNL     1      15.504  36.594 -15.162  1.00  0.00     0.069 C 
HETATM   29  C20 UNL     1      14.526  37.280 -12.970  1.00  0.00     0.058 C 
HETATM   30  C17 UNL     1      16.237  37.918 -15.073  1.00  0.00     0.216 C 
HETATM   31  C18 UNL     1      16.728  38.224 -13.686  1.00  0.00     0.177 C 
HETATM   32  C19 UNL     1      15.989  37.419 -12.633  1.00  0.00     0.155 C 
BRANCH  30  33
HETATM   33  N5  UNL     1      17.350  37.867 -16.006  1.00  0.00    -0.072 N 
ATOM     34  H53 UNL     1      17.059  37.981 -16.977  1.00  0.00     0.274 HD
ATOM     35  H52 UNL     1      17.953  38.687 -15.950  1.00  0.00     0.274 HD
ATOM     36  H51 UNL     1      17.850  36.993 -15.841  1.00  0.00     0.274 HD
ENDBRANCH  30  33
BRANCH  31  37
HETATM   37  O2  UNL     1      18.079  37.883 -13.551  1.00  0.00    -0.391 OA
ATOM     38  H2  UNL     1      18.172  37.037 -13.129  1.00  0.00     0.210 HD
ENDBRANCH  31  37
BRANCH  32  39
HETATM   39  O3  UNL     1      16.542  36.158 -12.455  1.00  0.00    -0.392 OA
ATOM     40  H3  UNL     1      17.242  36.162 -11.814  1.00  0.00     0.210 HD
ENDBRANCH  32  39
ENDBRANCH  21  22
ENDBRANCH   1  21
TORSDOF 17
ENDMDL
MODEL 3
REMARK VINA RESULT: -6.959639671      1.708      2.707
REMARK  17 active torsions:
REMARK  status: ('A' for Active; 'I' for Inactive)
REMARK    1  A    between atoms: C2_2  and  C3_3 
REMARK    2  A    between atoms: C3_3  and  N1_5 
REMARK    3  A    between atoms: C3_3  and  C5_9 
REMARK    4  A    between atoms: C5_9  and  N2_10 
REMARK    5  A    between atoms: N2_10  and  O1_11 
REMARK    6  A    between atoms: N2_10  and  C6_13 
REMARK    7  A    between atoms: C6_13  and  C7_14 
REMARK    8  A    between atoms: C7_14  and  C8_15 
REMARK    9  A    between atoms: C8_15  and  C9_16 
REMARK   10  A    between atoms: C9_16  and  C10_17 
REMARK   11  A    between atoms: C10_17  and  C11_18 
REMARK   12  A    between atoms: C11_18  and  N3_19 
REMARK   13  A    between atoms: N3_19  and  C12_21 
REMARK   14  A    between atoms: C12_21  and  C13_22 
REMARK   15  A    between atoms: C17_29  and  N5_30 
REMARK   16  A    between atoms: C18_34  and  O2_35 
REMARK   17  A    between atoms: C19_37  and  O3_38 
ROOT
HETATM    1  N3  UNL     1      14.110  37.161  -9.405  1.00  0.00    -0.382 N 
ATOM      2  H3  UNL     1      15.026  36.715  -9.437  1.00  0.00     0.164 HD
ENDROOT
BRANCH   1   3
HETATM    3  C11 UNL     1      13.741  37.738  -8.194  1.00  0.00     0.060 C 
BRANCH   3   4
HETATM    4  C10 UNL     1      12.556  38.677  -8.275  1.00  0.00     0.044 C 
BRANCH   4   5
HETATM    5  C9  UNL     1      11.758  38.572  -7.009  1.00  0.00     0.005 C 
BRANCH   5   6
HETATM    6  C8  UNL     1      11.632  39.860  -6.261  1.00  0.00     0.002 C 
BRANCH   6   7
HETATM    7  C7  UNL     1      10.371  39.879  -5.381  1.00  0.00     0.022 C 
BRANCH   7   8
HETATM    8  C6  UNL     1      10.387  38.592  -4.627  1.00  0.00     0.155 C 
BRANCH   8   9
HETATM    9  N2  UNL     1      10.481  38.703  -3.213  1.00  0.00    -0.274 N 
BRANCH   9  10
HETATM   10  C5  UNL     1       9.354  38.440  -2.416  1.00  0.00     0.127 C 
BRANCH  10  11
HETATM   11  C3  UNL     1       9.524  37.619  -1.199  1.00  0.00     0.153 C 
HETATM   12  C4  UNL     1       8.296  36.857  -0.756  1.00  0.00     0.052 C 
BRANCH  11  13
HETATM   13  C2  UNL     1      10.133  38.357  -0.045  1.00  0.00     0.039 C 
HETATM   14  C1  UNL     1       9.200  38.332   1.165  1.00  0.00     0.008 C 
ENDBRANCH  11  13
BRANCH  11  15
HETATM   15  N1  UNL     1      10.503  36.561  -1.554  1.00  0.00    -0.066 N 
ATOM     16  H13 UNL     1      11.417  36.922  -1.829  1.00  0.00     0.275 HD
ATOM     17  H12 UNL     1      10.826  36.016  -0.755  1.00  0.00     0.275 HD
ATOM     18  H11 UNL     1      10.049  36.002  -2.276  1.00  0.00     0.275 HD
ENDBRANCH  11  15
ENDBRANCH  10  11
ENDBRANCH   9  10
BRANCH   9  19
HETATM   19  O1  UNL     1      11.508  39.025  -2.730  1.00  0.00    -0.288 OA
ATOM     20  H1  UNL     1      11.696  39.935  -2.536  1.00  0.00     0.244 HD
ENDBRANCH   9  19
ENDBRANCH   8   9
ENDBRANCH   7   8
ENDBRANCH   6   7
ENDBRANCH   5   6
ENDBRANCH   4   5
ENDBRANCH   3   4
ENDBRANCH   1   3
BRANCH   1  21
HETATM   21  C12 UNL     1      13.370  37.128 -10.560  1.00  0.00     0.067 C 
BRANCH  21  22
HETATM   22  C13 UNL     1      13.960  36.395 -11.707  1.00  0.00     0.058 C 
HETATM   23  C14 UNL     1      13.089  35.455 -12.459  1.00  0.00     0.243 C 
HETATM   24  N4  UNL     1      13.847  35.288 -13.725  1.00  0.00    -0.070 N 
HETATM   25  C15 UNL     1      14.134  36.643 -14.054  1.00  0.00     0.195 C 
ATOM     26  H42 UNL     1      14.658  34.670 -13.671  1.00  0.00     0.277 HD
ATOM     27  H41 UNL     1      13.373  34.752 -14.452  1.00  0.00     0.277 HD
HETATM   28  C16 UNL     1      15.271  36.728 -15.054  1.00  0.00     0.069 C 
HETATM   29  C20 UNL     1      14.442  37.359 -12.785  1.00  0.00     0.058 C 
HETATM   30  C17 UNL     1      15.932  38.091 -15.022  1.00  0.00     0.216 C 
HETATM   31  C18 UNL     1      16.519  38.427 -13.680  1.00  0.00     0.177 C 
HETATM   32  C19 UNL     1      15.918  37.582 -12.572  1.00  0.00     0.155 C 
BRANCH  30  33
HETATM   33  N5  UNL     1      16.963  38.102 -16.046  1.00  0.00    -0.072 N 
ATOM     34  H53 UNL     1      17.883  38.353 -15.681  1.00  0.00     0.274 HD
ATOM     35  H52 UNL     1      17.202  37.169 -16.379  1.00  0.00     0.274 HD
ATOM     36  H51 UNL     1      16.650  38.723 -16.792  1.00  0.00     0.274 HD
ENDBRANCH  30  33
BRANCH  31  37
HETATM   37  O2  UNL     1      17.894  38.163 -13.660  1.00  0.00    -0.391 OA
ATOM     38  H2  UNL     1      18.359  38.838 -13.179  1.00  0.00     0.210 HD
ENDBRANCH  31  37
BRANCH  32  39
HETATM   39  O3  UNL     1      16.555  36.355 -12.445  1.00  0.00    -0.392 OA
ATOM     40  H3  UNL     1      17.113  36.164 -13.190  1.00  0.00     0.210 HD
ENDBRANCH  32  39
ENDBRANCH  21  22
ENDBRANCH   1  21
TORSDOF 17
ENDMDL
MODEL 4
REMARK VINA RESULT: -6.889802497      1.776      2.809
REMARK  17 active torsions:
REMARK  status: ('A' for Active; 'I' for Inactive)
REMARK    1  A    between atoms: C2_2  and  C3_3 
REMARK    2  A    between atoms: C3_3  and  N1_5 
REMARK    3  A    between atoms: C3_3  and  C5_9 
REMARK    4  A    between atoms: C5_9  and  N2_10 
REMARK    5  A    between atoms: N2_10  and  O1_11 
REMARK    6  A    between atoms: N2_10  and  C6_13 
REMARK    7  A    between atoms: C6_13  and  C7_14 
REMARK    8  A    between atoms: C7_14  and  C8_15 
REMARK    9  A    between atoms: C8_15  and  C9_16 
REMARK   10  A    between atoms: C9_16  and  C10_17 
REMARK   11  A    between atoms: C10_17  and  C11_18 
REMARK   12  A    between atoms: C11_18  and  N3_19 
REMARK   13  A    between atoms: N3_19  and  C12_21 
REMARK   14  A    between atoms: C12_21  and  C13_22 
REMARK   15  A    between atoms: C17_29  and  N5_30 
REMARK   16  A    between atoms: C18_34  and  O2_35 
REMARK   17  A    between atoms: C19_37  and  O3_38 
ROOT
HETATM    1  N3  UNL     1      14.848  38.545 -10.441  1.00  0.00    -0.382 N 
ATOM      2  H3  UNL     1      15.024  37.717  -9.871  1.00  0.00     0.164 HD
ENDROOT
BRANCH   1   3
HETATM    3  C11 UNL     1      14.408  39.681  -9.770  1.00  0.00     0.060 C 
BRANCH   3   4
HETATM    4  C10 UNL     1      12.998  39.591  -9.227  1.00  0.00     0.044 C 
BRANCH   4   5
HETATM    5  C9  UNL     1      12.779  38.224  -8.650  1.00  0.00     0.005 C 
BRANCH   5   6
HETATM    6  C8  UNL     1      12.712  38.198  -7.158  1.00  0.00     0.002 C 
BRANCH   6   7
HETATM    7  C7  UNL     1      11.449  38.907  -6.639  1.00  0.00     0.022 C 
BRANCH   7   8
HETATM    8  C6  UNL     1      11.113  38.240  -5.349  1.00  0.00     0.155 C 
BRANCH   8   9
HETATM    9  N2  UNL     1      10.178  38.921  -4.523  1.00  0.00    -0.274 N 
BRANCH   9  10
HETATM   10  C5  UNL     1       9.595  38.254  -3.432  1.00  0.00     0.127 C 
BRANCH  10  11
HETATM   11  C3  UNL     1       9.897  38.731  -2.066  1.00  0.00     0.153 C 
HETATM   12  C4  UNL     1      11.365  38.913  -1.755  1.00  0.00     0.052 C 
BRANCH  11  13
HETATM   13  C2  UNL     1       9.219  37.949  -0.982  1.00  0.00     0.039 C 
HETATM   14  C1  UNL     1       9.594  38.499   0.394  1.00  0.00     0.008 C 
ENDBRANCH  11  13
BRANCH  11  15
HETATM   15  N1  UNL     1       9.332  40.102  -1.979  1.00  0.00    -0.066 N 
ATOM     16  H13 UNL     1       8.676  40.227  -1.209  1.00  0.00     0.275 HD
ATOM     17  H12 UNL     1      10.006  40.805  -1.678  1.00  0.00     0.275 HD
ATOM     18  H11 UNL     1       8.928  40.288  -2.897  1.00  0.00     0.275 HD
ENDBRANCH  11  15
ENDBRANCH  10  11
ENDBRANCH   9  10
BRANCH   9  19
HETATM   19  O1  UNL     1       9.899  40.040  -4.774  1.00  0.00    -0.288 OA
ATOM     20  H1  UNL     1      10.296  40.762  -4.301  1.00  0.00     0.244 HD
ENDBRANCH   9  19
ENDBRANCH   8   9
ENDBRANCH   7   8
ENDBRANCH   6   7
ENDBRANCH   5   6
ENDBRANCH   4   5
ENDBRANCH   3   4
ENDBRANCH   1   3
BRANCH   1  21
HETATM   21  C12 UNL     1      15.069  38.420 -11.789  1.00  0.00     0.067 C 
BRANCH  21  22
HETATM   22  C13 UNL     1      14.894  37.065 -12.369  1.00  0.00     0.058 C 
HETATM   23  C14 UNL     1      14.079  36.080 -11.612  1.00  0.00     0.243 C 
HETATM   24  N4  UNL     1      13.767  35.077 -12.662  1.00  0.00    -0.070 N 
HETATM   25  C15 UNL     1      13.330  35.919 -13.724  1.00  0.00     0.195 C 
ATOM     26  H42 UNL     1      14.527  34.437 -12.895  1.00  0.00     0.277 HD
ATOM     27  H41 UNL     1      13.113  34.344 -12.387  1.00  0.00     0.277 HD
HETATM   28  C16 UNL     1      13.377  35.184 -15.050  1.00  0.00     0.069 C 
HETATM   29  C20 UNL     1      14.191  37.134 -13.720  1.00  0.00     0.058 C 
HETATM   30  C17 UNL     1      13.434  36.153 -16.215  1.00  0.00     0.216 C 
HETATM   31  C18 UNL     1      14.643  37.043 -16.178  1.00  0.00     0.177 C 
HETATM   32  C19 UNL     1      15.253  37.113 -14.790  1.00  0.00     0.155 C 
BRANCH  30  33
HETATM   33  N5  UNL     1      13.416  35.369 -17.438  1.00  0.00    -0.072 N 
ATOM     34  H53 UNL     1      14.040  34.562 -17.402  1.00  0.00     0.274 HD
ATOM     35  H52 UNL     1      12.543  34.857 -17.569  1.00  0.00     0.274 HD
ATOM     36  H51 UNL     1      13.627  36.000 -18.211  1.00  0.00     0.274 HD
ENDBRANCH  30  33
BRANCH  31  37
HETATM   37  O2  UNL     1      15.650  36.547 -17.015  1.00  0.00    -0.391 OA
ATOM     38  H2  UNL     1      16.456  37.034 -16.896  1.00  0.00     0.210 HD
ENDBRANCH  31  37
BRANCH  32  39
HETATM   39  O3  UNL     1      16.128  36.063 -14.550  1.00  0.00    -0.392 OA
ATOM     40  H3  UNL     1      15.771  35.229 -14.830  1.00  0.00     0.210 HD
ENDBRANCH  32  39
ENDBRANCH  21  22
ENDBRANCH   1  21
TORSDOF 17
ENDMDL
MODEL 5
REMARK VINA RESULT: -6.824750565      1.563      2.852
REMARK  17 active torsions:
REMARK  status: ('A' for Active; 'I' for Inactive)
REMARK    1  A    between atoms: C2_2  and  C3_3 
REMARK    2  A    between atoms: C3_3  and  N1_5 
REMARK    3  A    between atoms: C3_3  and  C5_9 
REMARK    4  A    between atoms: C5_9  and  N2_10 
REMARK    5  A    between atoms: N2_10  and  O1_11 
REMARK    6  A    between atoms: N2_10  and  C6_13 
REMARK    7  A    between atoms: C6_13  and  C7_14 
REMARK    8  A    between atoms: C7_14  and  C8_15 
REMARK    9  A    between atoms: C8_15  and  C9_16 
REMARK   10  A    between atoms: C9_16  and  C10_17 
REMARK   11  A    between atoms: C10_17  and  C11_18 
REMARK   12  A    between atoms: C11_18  and  N3_19 
REMARK   13  A    between atoms: N3_19  and  C12_21 
REMARK   14  A    between atoms: C12_21  and  C13_22 
REMARK   15  A    between atoms: C17_29  and  N5_30 
REMARK   16  A    between atoms: C18_34  and  O2_35 
REMARK   17  A    between atoms: C19_37  and  O3_38 
ROOT
HETATM    1  N3  UNL     1      13.602  37.448  -9.408  1.00  0.00    -0.382 N 
ATOM      2  H3  UNL     1      13.910  36.645  -8.860  1.00  0.00     0.164 HD
ENDROOT
BRANCH   1   3
HETATM    3  C11 UNL     1      13.871  38.705  -8.876  1.00  0.00     0.060 C 
BRANCH   3   4
HETATM    4  C10 UNL     1      13.201  39.855  -9.597  1.00  0.00     0.044 C 
BRANCH   4   5
HETATM    5  C9  UNL     1      12.258  40.544  -8.655  1.00  0.00     0.005 C 
BRANCH   5   6
HETATM    6  C8  UNL     1      12.642  40.424  -7.215  1.00  0.00     0.002 C 
BRANCH   6   7
HETATM    7  C7  UNL     1      11.406  40.253  -6.316  1.00  0.00     0.022 C 
BRANCH   7   8
HETATM    8  C6  UNL     1      11.125  38.788  -6.291  1.00  0.00     0.155 C 
BRANCH   8   9
HETATM    9  N2  UNL     1      10.372  38.320  -5.181  1.00  0.00    -0.274 N 
BRANCH   9  10
HETATM   10  C5  UNL     1      10.959  38.282  -3.905  1.00  0.00     0.127 C 
BRANCH  10  11
HETATM   11  C3  UNL     1      10.123  38.605  -2.730  1.00  0.00     0.153 C 
HETATM   12  C4  UNL     1      10.881  39.024  -1.491  1.00  0.00     0.052 C 
BRANCH  11  13
HETATM   13  C2  UNL     1       9.104  37.557  -2.399  1.00  0.00     0.039 C 
HETATM   14  C1  UNL     1       9.697  36.505  -1.463  1.00  0.00     0.008 C 
ENDBRANCH  11  13
BRANCH  11  15
HETATM   15  N1  UNL     1       9.342  39.812  -3.106  1.00  0.00    -0.066 N 
ATOM     16  H13 UNL     1       8.508  39.956  -2.536  1.00  0.00     0.275 HD
ATOM     17  H12 UNL     1       9.803  40.690  -2.866  1.00  0.00     0.275 HD
ATOM     18  H11 UNL     1       9.146  39.710  -4.101  1.00  0.00     0.275 HD
ENDBRANCH  11  15
ENDBRANCH  10  11
ENDBRANCH   9  10
BRANCH   9  19
HETATM   19  O1  UNL     1       9.261  37.960  -5.352  1.00  0.00    -0.288 OA
ATOM     20  H1  UNL     1       8.668  38.449  -5.910  1.00  0.00     0.244 HD
ENDBRANCH   9  19
ENDBRANCH   8   9
ENDBRANCH   7   8
ENDBRANCH   6   7
ENDBRANCH   5   6
ENDBRANCH   4   5
ENDBRANCH   3   4
ENDBRANCH   1   3
BRANCH   1  21
HETATM   21  C12 UNL     1      12.967  37.176 -10.593  1.00  0.00     0.067 C 
BRANCH  21  22
HETATM   22  C13 UNL     1      13.783  36.532 -11.653  1.00  0.00     0.058 C 
HETATM   23  C14 UNL     1      13.159  35.448 -12.455  1.00  0.00     0.243 C 
HETATM   24  N4  UNL     1      14.059  35.389 -13.634  1.00  0.00    -0.070 N 
HETATM   25  C15 UNL     1      14.151  36.768 -13.978  1.00  0.00     0.195 C 
ATOM     26  H42 UNL     1      14.950  34.916 -13.481  1.00  0.00     0.277 HD
ATOM     27  H41 UNL     1      13.756  34.770 -14.386  1.00  0.00     0.277 HD
HETATM   28  C16 UNL     1      15.355  37.024 -14.865  1.00  0.00     0.069 C 
HETATM   29  C20 UNL     1      14.207  37.546 -12.710  1.00  0.00     0.058 C 
HETATM   30  C17 UNL     1      15.777  38.480 -14.814  1.00  0.00     0.216 C 
HETATM   31  C18 UNL     1      16.161  38.930 -13.433  1.00  0.00     0.177 C 
HETATM   32  C19 UNL     1      15.597  38.015 -12.361  1.00  0.00     0.155 C 
BRANCH  30  33
HETATM   33  N5  UNL     1      16.891  38.646 -15.731  1.00  0.00    -0.072 N 
ATOM     34  H53 UNL     1      17.019  39.613 -16.030  1.00  0.00     0.274 HD
ATOM     35  H52 UNL     1      17.798  38.523 -15.281  1.00  0.00     0.274 HD
ATOM     36  H51 UNL     1      16.744  38.006 -16.512  1.00  0.00     0.274 HD
ENDBRANCH  30  33
BRANCH  31  37
HETATM   37  O2  UNL     1      17.551  38.900 -13.270  1.00  0.00    -0.391 OA
ATOM     38  H2  UNL     1      17.894  39.776 -13.144  1.00  0.00     0.210 HD
ENDBRANCH  31  37
BRANCH  32  39
HETATM   39  O3  UNL     1      16.411  36.914 -12.133  1.00  0.00    -0.392 OA
ATOM     40  H3  UNL     1      16.387  36.296 -12.854  1.00  0.00     0.210 HD
ENDBRANCH  32  39
ENDBRANCH  21  22
ENDBRANCH   1  21
TORSDOF 17
ENDMDL
