MODEL 1
REMARK VINA RESULT: -6.790274288      0.000      0.000
REMARK  14 active torsions:
REMARK  status: ('A' for Active; 'I' for Inactive)
REMARK    1  A    between atoms: C2_2  and  C3_3 
REMARK    2  A    between atoms: C3_3  and  N1_4 
REMARK    3  A    between atoms: N1_4  and  C4_5 
REMARK    4  A    between atoms: N1_4  and  C14_27 
REMARK    5  A    between atoms: C4_5  and  C5_6 
REMARK    6  A    between atoms: C5_6  and  C6_7 
REMARK    7  A    between atoms: C6_7  and  O1_8 
REMARK    8  A    between atoms: O1_8  and  C7_9 
REMARK    9  A    between atoms: C8_10  and  C9_11 
REMARK   10  A    between atoms: C9_11  and  O2_12 
REMARK   11  A    between atoms: C10_17  and  C11_18 
REMARK   12  A    between atoms: C11_18  and  O3_19 
REMARK   13  A    between atoms: C12_21  and  O4_22 
REMARK   14  A    between atoms: C13_24  and  O5_25 
ROOT
HETATM    1  C7  UNL     1      12.721  40.254  -7.713  1.00  0.00     0.185 C 
HETATM    2  C8  UNL     1      11.375  40.876  -7.500  1.00  0.00     0.241 C 
HETATM    3  N2  UNL     1      11.036  40.748  -6.079  1.00  0.00    -0.058 N 
ATOM      4  H21 UNL     1      10.249  41.331  -5.793  1.00  0.00     0.278 HD
ATOM      5  H22 UNL     1      11.729  41.161  -5.455  1.00  0.00     0.278 HD
HETATM    6  C10 UNL     1      10.818  39.328  -5.848  1.00  0.00     0.240 C 
HETATM    7  C12 UNL     1      12.065  38.524  -6.130  1.00  0.00     0.182 C 
HETATM    8  C13 UNL     1      12.444  38.728  -7.596  1.00  0.00     0.180 C 
ENDROOT
BRANCH   1   9
HETATM    9  O1  UNL     1      13.262  40.555  -8.920  1.00  0.00    -0.381 OA
BRANCH   9  10
HETATM   10  C6  UNL     1      14.389  41.314  -8.959  1.00  0.00     0.173 C 
BRANCH  10  11
HETATM   11  C5  UNL     1      14.880  41.735 -10.322  1.00  0.00     0.070 C 
BRANCH  11  12
HETATM   12  C4  UNL     1      15.726  40.563 -10.810  1.00  0.00     0.060 C 
BRANCH  12  13
HETATM   13  N1  UNL     1      15.134  39.864 -11.873  1.00  0.00    -0.389 N 
BRANCH  13  14
HETATM   14  C3  UNL     1      14.132  40.535 -12.616  1.00  0.00     0.122 C 
BRANCH  14  15
HETATM   15  C2  UNL     1      14.390  40.976 -13.988  1.00  0.00     0.015 C 
HETATM   16  C1  UNL     1      13.717  40.315 -15.120  1.00  0.00     0.006 C 
ENDBRANCH  14  15
ENDBRANCH  13  14
BRANCH  13  17
HETATM   17  C14 UNL     1      14.915  38.461 -11.724  1.00  0.00     0.083 C 
HETATM   18  C15 UNL     1      15.662  37.558 -12.605  1.00  0.00     0.025 C 
HETATM   19  C16 UNL     1      15.038  37.168 -13.895  1.00  0.00     0.002 C 
HETATM   20  C17 UNL     1      13.725  36.458 -13.769  1.00  0.00     0.000 C 
HETATM   21  C18 UNL     1      13.520  35.779 -12.460  1.00  0.00     0.000 C 
HETATM   22  C19 UNL     1      13.338  36.650 -11.276  1.00  0.00     0.002 C 
HETATM   23  C20 UNL     1      13.441  38.114 -11.602  1.00  0.00     0.025 C 
ENDBRANCH  13  17
ENDBRANCH  12  13
ENDBRANCH  11  12
ENDBRANCH  10  11
ENDBRANCH   9  10
ENDBRANCH   1   9
BRANCH   2  24
HETATM   24  C9  UNL     1      11.194  42.254  -8.005  1.00  0.00     0.199 C 
BRANCH  24  25
HETATM   25  O2  UNL     1      10.902  42.260  -9.363  1.00  0.00    -0.399 OA
ATOM     26  H2  UNL     1      11.534  41.749  -9.855  1.00  0.00     0.209 HD
ENDBRANCH  24  25
ENDBRANCH   2  24
BRANCH   8  27
HETATM   27  O5  UNL     1      13.535  37.988  -7.966  1.00  0.00    -0.390 OA
ATOM     28  H5  UNL     1      13.284  37.127  -8.277  1.00  0.00     0.210 HD
ENDBRANCH   8  27
BRANCH   7  29
HETATM   29  O4  UNL     1      11.831  37.190  -5.909  1.00  0.00    -0.391 OA
ATOM     30  H4  UNL     1      11.433  36.794  -6.675  1.00  0.00     0.210 HD
ENDBRANCH   7  29
BRANCH   6  31
HETATM   31  C11 UNL     1      10.354  39.066  -4.448  1.00  0.00     0.199 C 
BRANCH  31  32
HETATM   32  O3  UNL     1      11.445  38.941  -3.613  1.00  0.00    -0.399 OA
ATOM     33  H3  UNL     1      11.405  39.604  -2.934  1.00  0.00     0.209 HD
ENDBRANCH  31  32
ENDBRANCH   6  31
TORSDOF 14
ENDMDL
MODEL 2
REMARK VINA RESULT: -6.775019228      0.849      1.384
REMARK  14 active torsions:
REMARK  status: ('A' for Active; 'I' for Inactive)
REMARK    1  A    between atoms: C2_2  and  C3_3 
REMARK    2  A    between atoms: C3_3  and  N1_4 
REMARK    3  A    between atoms: N1_4  and  C4_5 
REMARK    4  A    between atoms: N1_4  and  C14_27 
REMARK    5  A    between atoms: C4_5  and  C5_6 
REMARK    6  A    between atoms: C5_6  and  C6_7 
REMARK    7  A    between atoms: C6_7  and  O1_8 
REMARK    8  A    between atoms: O1_8  and  C7_9 
REMARK    9  A    between atoms: C8_10  and  C9_11 
REMARK   10  A    between atoms: C9_11  and  O2_12 
REMARK   11  A    between atoms: C10_17  and  C11_18 
REMARK   12  A    between atoms: C11_18  and  O3_19 
REMARK   13  A    between atoms: C12_21  and  O4_22 
REMARK   14  A    between atoms: C13_24  and  O5_25 
ROOT
HETATM    1  C7  UNL     1      12.494  40.337  -7.496  1.00  0.00     0.185 C 
HETATM    2  C8  UNL     1      11.162  40.945  -7.180  1.00  0.00     0.241 C 
HETATM    3  N2  UNL     1      10.913  40.774  -5.745  1.00  0.00    -0.058 N 
ATOM      4  H21 UNL     1      10.144  41.345  -5.394  1.00  0.00     0.278 HD
ATOM      5  H22 UNL     1      11.642  41.173  -5.155  1.00  0.00     0.278 HD
HETATM    6  C10 UNL     1      10.716  39.347  -5.543  1.00  0.00     0.240 C 
HETATM    7  C12 UNL     1      11.945  38.558  -5.926  1.00  0.00     0.182 C 
HETATM    8  C13 UNL     1      12.231  38.806  -7.407  1.00  0.00     0.180 C 
ENDROOT
BRANCH   1   9
HETATM    9  O1  UNL     1      12.957  40.675  -8.725  1.00  0.00    -0.381 OA
BRANCH   9  10
HETATM   10  C6  UNL     1      14.201  41.213  -8.828  1.00  0.00     0.173 C 
BRANCH  10  11
HETATM   11  C5  UNL     1      15.033  40.783 -10.011  1.00  0.00     0.070 C 
BRANCH  11  12
HETATM   12  C4  UNL     1      14.023  40.545 -11.131  1.00  0.00     0.060 C 
BRANCH  12  13
HETATM   13  N1  UNL     1      14.497  39.671 -12.121  1.00  0.00    -0.389 N 
BRANCH  13  14
HETATM   14  C3  UNL     1      15.032  40.249 -13.298  1.00  0.00     0.122 C 
BRANCH  14  15
HETATM   15  C2  UNL     1      14.313  41.316 -13.998  1.00  0.00     0.015 C 
HETATM   16  C1  UNL     1      13.436  40.995 -15.139  1.00  0.00     0.006 C 
ENDBRANCH  14  15
ENDBRANCH  13  14
BRANCH  13  17
HETATM   17  C14 UNL     1      13.799  38.444 -12.334  1.00  0.00     0.083 C 
HETATM   18  C15 UNL     1      13.404  37.671 -11.153  1.00  0.00     0.025 C 
HETATM   19  C16 UNL     1      14.348  36.645 -10.643  1.00  0.00     0.002 C 
HETATM   20  C17 UNL     1      14.686  35.561 -11.620  1.00  0.00     0.000 C 
HETATM   21  C18 UNL     1      13.664  35.355 -12.683  1.00  0.00     0.000 C 
HETATM   22  C19 UNL     1      13.521  36.432 -13.691  1.00  0.00     0.002 C 
HETATM   23  C20 UNL     1      14.427  37.603 -13.432  1.00  0.00     0.025 C 
ENDBRANCH  13  17
ENDBRANCH  12  13
ENDBRANCH  11  12
ENDBRANCH  10  11
ENDBRANCH   9  10
ENDBRANCH   1   9
BRANCH   2  24
HETATM   24  C9  UNL     1      10.944  42.336  -7.633  1.00  0.00     0.199 C 
BRANCH  24  25
HETATM   25  O2  UNL     1      11.981  43.168  -7.228  1.00  0.00    -0.399 OA
ATOM     26  H2  UNL     1      12.801  42.925  -7.642  1.00  0.00     0.209 HD
ENDBRANCH  24  25
ENDBRANCH   2  24
BRANCH   8  27
HETATM   27  O5  UNL     1      13.298  38.083  -7.866  1.00  0.00    -0.390 OA
ATOM     28  H5  UNL     1      14.119  38.419  -7.527  1.00  0.00     0.210 HD
ENDBRANCH   8  27
BRANCH   7  29
HETATM   29  O4  UNL     1      11.730  37.217  -5.730  1.00  0.00    -0.391 OA
ATOM     30  H4  UNL     1      12.534  36.730  -5.870  1.00  0.00     0.210 HD
ENDBRANCH   7  29
BRANCH   6  31
HETATM   31  C11 UNL     1      10.341  39.042  -4.125  1.00  0.00     0.199 C 
BRANCH  31  32
HETATM   32  O3  UNL     1      11.480  38.967  -3.350  1.00  0.00    -0.399 OA
ATOM     33  H3  UNL     1      11.594  39.778  -2.870  1.00  0.00     0.209 HD
ENDBRANCH  31  32
ENDBRANCH   6  31
TORSDOF 14
ENDMDL
MODEL 3
REMARK VINA RESULT: -6.754492503      1.100      1.706
REMARK  14 active torsions:
REMARK  status: ('A' for Active; 'I' for Inactive)
REMARK    1  A    between atoms: C2_2  and  C3_3 
REMARK    2  A    between atoms: C3_3  and  N1_4 
REMARK    3  A    between atoms: N1_4  and  C4_5 
REMARK    4  A    between atoms: N1_4  and  C14_27 
REMARK    5  A    between atoms: C4_5  and  C5_6 
REMARK    6  A    between atoms: C5_6  and  C6_7 
REMARK    7  A    between atoms: C6_7  and  O1_8 
REMARK    8  A    between atoms: O1_8  and  C7_9 
REMARK    9  A    between atoms: C8_10  and  C9_11 
REMARK   10  A    between atoms: C9_11  and  O2_12 
REMARK   11  A    between atoms: C10_17  and  C11_18 
REMARK   12  A    between atoms: C11_18  and  O3_19 
REMARK   13  A    between atoms: C12_21  and  O4_22 
REMARK   14  A    between atoms: C13_24  and  O5_25 
ROOT
HETATM    1  C7  UNL     1      12.506  40.316  -7.492  1.00  0.00     0.185 C 
HETATM    2  C8  UNL     1      11.175  40.932  -7.188  1.00  0.00     0.241 C 
HETATM    3  N2  UNL     1      10.919  40.777  -5.753  1.00  0.00    -0.058 N 
ATOM      4  H21 UNL     1      10.151  41.355  -5.411  1.00  0.00     0.278 HD
ATOM      5  H22 UNL     1      11.648  41.179  -5.163  1.00  0.00     0.278 HD
HETATM    6  C10 UNL     1      10.715  39.353  -5.536  1.00  0.00     0.240 C 
HETATM    7  C12 UNL     1      11.943  38.555  -5.906  1.00  0.00     0.182 C 
HETATM    8  C13 UNL     1      12.236  38.787  -7.388  1.00  0.00     0.180 C 
ENDROOT
BRANCH   1   9
HETATM    9  O1  UNL     1      12.975  40.639  -8.723  1.00  0.00    -0.381 OA
BRANCH   9  10
HETATM   10  C6  UNL     1      14.205  41.209  -8.823  1.00  0.00     0.173 C 
BRANCH  10  11
HETATM   11  C5  UNL     1      15.092  40.723  -9.943  1.00  0.00     0.070 C 
BRANCH  11  12
HETATM   12  C4  UNL     1      14.162  40.590 -11.145  1.00  0.00     0.060 C 
BRANCH  12  13
HETATM   13  N1  UNL     1      14.635  39.686 -12.108  1.00  0.00    -0.389 N 
BRANCH  13  14
HETATM   14  C3  UNL     1      15.252  40.229 -13.263  1.00  0.00     0.122 C 
BRANCH  14  15
HETATM   15  C2  UNL     1      16.690  40.504 -13.281  1.00  0.00     0.015 C 
HETATM   16  C1  UNL     1      17.631  39.582 -12.620  1.00  0.00     0.006 C 
ENDBRANCH  14  15
ENDBRANCH  13  14
BRANCH  13  17
HETATM   17  C14 UNL     1      13.887  38.494 -12.347  1.00  0.00     0.083 C 
HETATM   18  C15 UNL     1      13.438  37.727 -11.181  1.00  0.00     0.025 C 
HETATM   19  C16 UNL     1      14.327  36.654 -10.668  1.00  0.00     0.002 C 
HETATM   20  C17 UNL     1      14.632  35.567 -11.652  1.00  0.00     0.000 C 
HETATM   21  C18 UNL     1      13.620  35.418 -12.734  1.00  0.00     0.000 C 
HETATM   22  C19 UNL     1      13.542  36.511 -13.731  1.00  0.00     0.002 C 
HETATM   23  C20 UNL     1      14.495  37.638 -13.444  1.00  0.00     0.025 C 
ENDBRANCH  13  17
ENDBRANCH  12  13
ENDBRANCH  11  12
ENDBRANCH  10  11
ENDBRANCH   9  10
ENDBRANCH   1   9
BRANCH   2  24
HETATM   24  C9  UNL     1      10.965  42.320  -7.656  1.00  0.00     0.199 C 
BRANCH  24  25
HETATM   25  O2  UNL     1      11.989  43.157  -7.232  1.00  0.00    -0.399 OA
ATOM     26  H2  UNL     1      11.891  44.032  -7.589  1.00  0.00     0.209 HD
ENDBRANCH  24  25
ENDBRANCH   2  24
BRANCH   8  27
HETATM   27  O5  UNL     1      13.302  38.055  -7.835  1.00  0.00    -0.390 OA
ATOM     28  H5  UNL     1      13.499  38.243  -8.745  1.00  0.00     0.210 HD
ENDBRANCH   8  27
BRANCH   7  29
HETATM   29  O4  UNL     1      11.722  37.217  -5.697  1.00  0.00    -0.391 OA
ATOM     30  H4  UNL     1      10.963  36.928  -6.190  1.00  0.00     0.210 HD
ENDBRANCH   7  29
BRANCH   6  31
HETATM   31  C11 UNL     1      10.334  39.064  -4.117  1.00  0.00     0.199 C 
BRANCH  31  32
HETATM   32  O3  UNL     1      11.468  38.998  -3.336  1.00  0.00    -0.399 OA
ATOM     33  H3  UNL     1      11.800  39.875  -3.179  1.00  0.00     0.209 HD
ENDBRANCH  31  32
ENDBRANCH   6  31
TORSDOF 14
ENDMDL
MODEL 4
REMARK VINA RESULT: -6.465401434      1.018      2.339
REMARK  14 active torsions:
REMARK  status: ('A' for Active; 'I' for Inactive)
REMARK    1  A    between atoms: C2_2  and  C3_3 
REMARK    2  A    between atoms: C3_3  and  N1_4 
REMARK    3  A    between atoms: N1_4  and  C4_5 
REMARK    4  A    between atoms: N1_4  and  C14_27 
REMARK    5  A    between atoms: C4_5  and  C5_6 
REMARK    6  A    between atoms: C5_6  and  C6_7 
REMARK    7  A    between atoms: C6_7  and  O1_8 
REMARK    8  A    between atoms: O1_8  and  C7_9 
REMARK    9  A    between atoms: C8_10  and  C9_11 
REMARK   10  A    between atoms: C9_11  and  O2_12 
REMARK   11  A    between atoms: C10_17  and  C11_18 
REMARK   12  A    between atoms: C11_18  and  O3_19 
REMARK   13  A    between atoms: C12_21  and  O4_22 
REMARK   14  A    between atoms: C13_24  and  O5_25 
ROOT
HETATM    1  C7  UNL     1      12.541  40.059  -7.709  1.00  0.00     0.185 C 
HETATM    2  C8  UNL     1      11.264  40.783  -7.411  1.00  0.00     0.241 C 
HETATM    3  N2  UNL     1      11.035  40.725  -5.964  1.00  0.00    -0.058 N 
ATOM      4  H21 UNL     1      10.318  41.373  -5.638  1.00  0.00     0.278 HD
ATOM      5  H22 UNL     1      11.805  41.107  -5.414  1.00  0.00     0.278 HD
HETATM    6  C10 UNL     1      10.740  39.333  -5.662  1.00  0.00     0.240 C 
HETATM    7  C12 UNL     1      11.900  38.432  -6.014  1.00  0.00     0.182 C 
HETATM    8  C13 UNL     1      12.170  38.561  -7.512  1.00  0.00     0.180 C 
ENDROOT
BRANCH   1   9
HETATM    9  O1  UNL     1      12.999  40.281  -8.966  1.00  0.00    -0.381 OA
BRANCH   9  10
HETATM   10  C6  UNL     1      14.231  40.833  -9.122  1.00  0.00     0.173 C 
BRANCH  10  11
HETATM   11  C5  UNL     1      15.110  40.243 -10.198  1.00  0.00     0.070 C 
BRANCH  11  12
HETATM   12  C4  UNL     1      14.188  40.066 -11.400  1.00  0.00     0.060 C 
BRANCH  12  13
HETATM   13  N1  UNL     1      14.382  38.846 -12.067  1.00  0.00    -0.389 N 
BRANCH  13  14
HETATM   14  C3  UNL     1      14.268  37.660 -11.299  1.00  0.00     0.122 C 
BRANCH  14  15
HETATM   15  C2  UNL     1      13.174  36.718 -11.541  1.00  0.00     0.015 C 
HETATM   16  C1  UNL     1      13.351  35.602 -12.487  1.00  0.00     0.006 C 
ENDBRANCH  14  15
ENDBRANCH  13  14
BRANCH  13  17
HETATM   17  C14 UNL     1      15.364  38.785 -13.101  1.00  0.00     0.083 C 
HETATM   18  C15 UNL     1      14.900  38.881 -14.488  1.00  0.00     0.025 C 
HETATM   19  C16 UNL     1      14.571  37.621 -15.202  1.00  0.00     0.002 C 
HETATM   20  C17 UNL     1      15.708  36.653 -15.324  1.00  0.00     0.000 C 
HETATM   21  C18 UNL     1      17.056  37.278 -15.232  1.00  0.00     0.000 C 
HETATM   22  C19 UNL     1      17.455  37.817 -13.912  1.00  0.00     0.002 C 
HETATM   23  C20 UNL     1      16.379  37.679 -12.871  1.00  0.00     0.025 C 
ENDBRANCH  13  17
ENDBRANCH  12  13
ENDBRANCH  11  12
ENDBRANCH  10  11
ENDBRANCH   9  10
ENDBRANCH   1   9
BRANCH   2  24
HETATM   24  C9  UNL     1      11.137  42.154  -7.952  1.00  0.00     0.199 C 
BRANCH  24  25
HETATM   25  O2  UNL     1      10.864  42.137  -9.313  1.00  0.00    -0.399 OA
ATOM     26  H2  UNL     1      10.369  42.904  -9.577  1.00  0.00     0.209 HD
ENDBRANCH  24  25
ENDBRANCH   2  24
BRANCH   8  27
HETATM   27  O5  UNL     1      13.172  37.733  -7.941  1.00  0.00    -0.390 OA
ATOM     28  H5  UNL     1      13.064  37.496  -8.854  1.00  0.00     0.210 HD
ENDBRANCH   8  27
BRANCH   7  29
HETATM   29  O4  UNL     1      11.593  37.126  -5.724  1.00  0.00    -0.391 OA
ATOM     30  H4  UNL     1      12.375  36.588  -5.761  1.00  0.00     0.210 HD
ENDBRANCH   7  29
BRANCH   6  31
HETATM   31  C11 UNL     1      10.377  39.150  -4.221  1.00  0.00     0.199 C 
BRANCH  31  32
HETATM   32  O3  UNL     1      11.507  38.843  -3.493  1.00  0.00    -0.399 OA
ATOM     33  H3  UNL     1      11.864  38.015  -3.791  1.00  0.00     0.209 HD
ENDBRANCH  31  32
ENDBRANCH   6  31
TORSDOF 14
ENDMDL
MODEL 5
REMARK VINA RESULT: -6.276325798      2.170      3.685
REMARK  14 active torsions:
REMARK  status: ('A' for Active; 'I' for Inactive)
REMARK    1  A    between atoms: C2_2  and  C3_3 
REMARK    2  A    between atoms: C3_3  and  N1_4 
REMARK    3  A    between atoms: N1_4  and  C4_5 
REMARK    4  A    between atoms: N1_4  and  C14_27 
REMARK    5  A    between atoms: C4_5  and  C5_6 
REMARK    6  A    between atoms: C5_6  and  C6_7 
REMARK    7  A    between atoms: C6_7  and  O1_8 
REMARK    8  A    between atoms: O1_8  and  C7_9 
REMARK    9  A    between atoms: C8_10  and  C9_11 
REMARK   10  A    between atoms: C9_11  and  O2_12 
REMARK   11  A    between atoms: C10_17  and  C11_18 
REMARK   12  A    between atoms: C11_18  and  O3_19 
REMARK   13  A    between atoms: C12_21  and  O4_22 
REMARK   14  A    between atoms: C13_24  and  O5_25 
ROOT
HETATM    1  C7  UNL     1      10.325  39.973  -4.827  1.00  0.00     0.185 C 
HETATM    2  C8  UNL     1       9.080  40.516  -4.194  1.00  0.00     0.241 C 
HETATM    3  N2  UNL     1       9.244  40.448  -2.738  1.00  0.00    -0.058 N 
ATOM      4  H21 UNL     1       8.552  40.995  -2.225  1.00  0.00     0.278 HD
ATOM      5  H22 UNL     1      10.069  40.942  -2.397  1.00  0.00     0.278 HD
HETATM    6  C10 UNL     1       9.232  39.033  -2.402  1.00  0.00     0.240 C 
HETATM    7  C12 UNL     1      10.375  38.298  -3.060  1.00  0.00     0.182 C 
HETATM    8  C13 UNL     1      10.228  38.441  -4.574  1.00  0.00     0.180 C 
ENDROOT
BRANCH   1   9
HETATM    9  O1  UNL     1      10.407  40.238  -6.154  1.00  0.00    -0.381 OA
BRANCH   9  10
HETATM   10  C6  UNL     1      11.584  40.699  -6.655  1.00  0.00     0.173 C 
BRANCH  10  11
HETATM   11  C5  UNL     1      11.786  40.573  -8.145  1.00  0.00     0.070 C 
BRANCH  11  12
HETATM   12  C4  UNL     1      12.975  39.628  -8.298  1.00  0.00     0.060 C 
BRANCH  12  13
HETATM   13  N1  UNL     1      13.661  39.800  -9.510  1.00  0.00    -0.389 N 
BRANCH  13  14
HETATM   14  C3  UNL     1      13.902  41.129  -9.938  1.00  0.00     0.122 C 
BRANCH  14  15
HETATM   15  C2  UNL     1      15.061  41.874  -9.442  1.00  0.00     0.015 C 
HETATM   16  C1  UNL     1      16.379  41.707 -10.079  1.00  0.00     0.006 C 
ENDBRANCH  14  15
ENDBRANCH  13  14
BRANCH  13  17
HETATM   17  C14 UNL     1      13.410  38.877 -10.570  1.00  0.00     0.083 C 
HETATM   18  C15 UNL     1      13.211  37.469 -10.214  1.00  0.00     0.025 C 
HETATM   19  C16 UNL     1      14.402  36.582 -10.187  1.00  0.00     0.002 C 
HETATM   20  C17 UNL     1      15.131  36.470 -11.490  1.00  0.00     0.000 C 
HETATM   21  C18 UNL     1      14.299  36.778 -12.686  1.00  0.00     0.000 C 
HETATM   22  C19 UNL     1      13.881  38.187 -12.865  1.00  0.00     0.002 C 
HETATM   23  C20 UNL     1      14.343  39.083 -11.750  1.00  0.00     0.025 C 
ENDBRANCH  13  17
ENDBRANCH  12  13
ENDBRANCH  11  12
ENDBRANCH  10  11
ENDBRANCH   9  10
ENDBRANCH   1   9
BRANCH   2  24
HETATM   24  C9  UNL     1       8.630  41.848  -4.654  1.00  0.00     0.199 C 
BRANCH  24  25
HETATM   25  O2  UNL     1       8.934  42.834  -3.724  1.00  0.00    -0.399 OA
ATOM     26  H2  UNL     1       8.168  43.082  -3.219  1.00  0.00     0.209 HD
ENDBRANCH  24  25
ENDBRANCH   2  24
BRANCH   8  27
HETATM   27  O5  UNL     1      11.190  37.754  -5.264  1.00  0.00    -0.390 OA
ATOM     28  H5  UNL     1      11.419  38.192  -6.074  1.00  0.00     0.210 HD
ENDBRANCH   8  27
BRANCH   7  29
HETATM   29  O4  UNL     1      10.337  36.966  -2.729  1.00  0.00    -0.391 OA
ATOM     30  H4  UNL     1      10.988  36.485  -3.225  1.00  0.00     0.210 HD
ENDBRANCH   7  29
BRANCH   6  31
HETATM   31  C11 UNL     1       9.282  38.823  -0.919  1.00  0.00     0.199 C 
BRANCH  31  32
HETATM   32  O3  UNL     1      10.595  38.776  -0.502  1.00  0.00    -0.399 OA
ATOM     33  H3  UNL     1      10.831  37.880  -0.291  1.00  0.00     0.209 HD
ENDBRANCH  31  32
ENDBRANCH   6  31
TORSDOF 14
ENDMDL
