MODEL 1
REMARK VINA RESULT: -7.732005220      0.000      0.000
REMARK  17 active torsions:
REMARK  status: ('A' for Active; 'I' for Inactive)
REMARK       I    between atoms: C1_4  and  N3_6 
REMARK    1  A    between atoms: N3_6  and  C2_8 
REMARK    2  A    between atoms: C2_8  and  C3_9 
REMARK    3  A    between atoms: C3_9  and  C4_10 
REMARK    4  A    between atoms: C4_10  and  O1_11 
REMARK    5  A    between atoms: C4_10  and  C5_13 
REMARK    6  A    between atoms: C5_13  and  S1_14 
REMARK    7  A    between atoms: S1_14  and  C6_15 
REMARK    8  A    between atoms: C6_15  and  C7_16 
REMARK    9  A    between atoms: C7_16  and  O2_17 
REMARK   10  A    between atoms: C7_16  and  N4_19 
REMARK   11  A    between atoms: N4_19  and  C8_20 
REMARK   12  A    between atoms: C10_22  and  N5_23 
REMARK   13  A    between atoms: C16_31  and  N7_32 
REMARK   14  A    between atoms: N7_32  and  C17_34 
REMARK   15  A    between atoms: C17_34  and  C18_35 
REMARK   16  A    between atoms: C18_35  and  C19_36 
REMARK   17  A    between atoms: C19_36  and  O3_37 
ROOT
HETATM    1  C8  UNL     1      10.296  39.774  -5.175  1.00  0.00     0.199 A 
HETATM    2  C9  UNL     1      10.218  39.004  -4.000  1.00  0.00     0.113 A 
HETATM    3  C10 UNL     1       9.477  39.371  -2.906  1.00  0.00     0.123 A 
HETATM    4  N6  UNL     1       8.786  40.518  -2.944  1.00  0.00    -0.177 N 
ATOM      5  H6  UNL     1       8.226  40.813  -2.144  1.00  0.00     0.185 HD
HETATM    6  C16 UNL     1       8.843  41.287  -4.073  1.00  0.00     0.682 A 
HETATM    7  N8  UNL     1       9.561  40.935  -5.136  1.00  0.00    -0.164 N 
ATOM      8  H8  UNL     1       9.566  41.549  -5.951  1.00  0.00     0.187 HD
ENDROOT
BRANCH   1   9
HETATM    9  N4  UNL     1      10.907  39.476  -6.119  1.00  0.00    -0.366 NA
BRANCH   9  10
HETATM   10  C7  UNL     1      11.574  39.072  -7.150  1.00  0.00     0.201 C 
BRANCH  10  11
HETATM   11  C6  UNL     1      12.749  39.875  -7.698  1.00  0.00     0.174 C 
BRANCH  11  12
HETATM   12  S1  UNL     1      13.129  39.445  -9.387  1.00  0.00    -0.157 SA
BRANCH  12  13
HETATM   13  C5  UNL     1      14.238  38.057  -9.585  1.00  0.00     0.106 C 
BRANCH  13  14
HETATM   14  C4  UNL     1      13.764  37.119 -10.673  1.00  0.00     0.129 C 
BRANCH  14  15
HETATM   15  C3  UNL     1      14.790  36.092 -11.056  1.00  0.00     0.052 C 
BRANCH  15  16
HETATM   16  C2  UNL     1      15.088  36.194 -12.512  1.00  0.00     0.125 C 
BRANCH  16  17
HETATM   17  N3  UNL     1      14.135  35.419 -13.321  1.00  0.00    -0.365 N 
HETATM   18  C1  UNL     1      13.782  36.005 -14.575  1.00  0.00     0.181 C 
HETATM   19  N1  UNL     1      13.206  35.293 -15.509  1.00  0.00    -0.374 N 
HETATM   20  N2  UNL     1      14.024  37.362 -14.891  1.00  0.00    -0.064 NA
ATOM     21  H12 UNL     1      12.954  35.711 -16.404  1.00  0.00     0.158 HD
ATOM     22  H11 UNL     1      13.031  34.314 -15.281  1.00  0.00     0.158 HD
ATOM     23  H3  UNL     1      13.752  34.527 -13.009  1.00  0.00     0.162 HD
ENDBRANCH  16  17
ENDBRANCH  15  16
ENDBRANCH  14  15
BRANCH  14  24
HETATM   24  O1  UNL     1      13.251  37.817 -11.746  1.00  0.00    -0.395 OA
ATOM     25  H1  UNL     1      13.751  38.592 -11.972  1.00  0.00     0.210 HD
ENDBRANCH  14  24
ENDBRANCH  13  14
ENDBRANCH  12  13
ENDBRANCH  11  12
ENDBRANCH  10  11
BRANCH  10  26
HETATM   26  O2  UNL     1      11.355  37.980  -7.833  1.00  0.00    -0.338 OA
ATOM     27  H2  UNL     1      10.695  37.427  -7.431  1.00  0.00     0.220 HD
ENDBRANCH  10  26
ENDBRANCH   9  10
ENDBRANCH   1   9
BRANCH   3  28
HETATM   28  N5  UNL     1       9.496  38.502  -1.781  1.00  0.00    -0.367 N 
HETATM   29  C11 UNL     1       9.811  39.067  -0.508  1.00  0.00     0.124 C 
HETATM   30  C12 UNL     1       9.388  38.224   0.657  1.00  0.00     0.020 C 
HETATM   31  C13 UNL     1       8.424  37.129   0.266  1.00  0.00     0.003 C 
HETATM   32  C14 UNL     1       9.104  36.287  -0.780  1.00  0.00     0.020 C 
HETATM   33  C15 UNL     1       9.194  37.108  -2.040  1.00  0.00     0.124 C 
ENDBRANCH   3  28
BRANCH   6  34
HETATM   34  N7  UNL     1       8.154  42.357  -4.042  1.00  0.00    -0.226 N 
ATOM     35  H7  UNL     1       8.406  43.118  -4.672  1.00  0.00     0.177 HD
BRANCH  34  36
HETATM   36  C17 UNL     1       7.042  42.541  -3.162  1.00  0.00     0.140 C 
BRANCH  36  37
HETATM   37  C18 UNL     1       7.271  43.892  -2.466  1.00  0.00     0.046 C 
BRANCH  37  38
HETATM   38  C19 UNL     1       8.011  43.587  -1.177  1.00  0.00     0.165 C 
BRANCH  38  39
HETATM   39  O3  UNL     1       9.330  43.201  -1.428  1.00  0.00    -0.401 OA
ATOM     40  H3  UNL     1       9.879  43.332  -0.664  1.00  0.00     0.209 HD
ENDBRANCH  38  39
ENDBRANCH  37  38
ENDBRANCH  36  37
ENDBRANCH  34  36
ENDBRANCH   6  34
TORSDOF 17
ENDMDL
MODEL 2
REMARK VINA RESULT: -7.673832141      1.646      1.919
REMARK  17 active torsions:
REMARK  status: ('A' for Active; 'I' for Inactive)
REMARK       I    between atoms: C1_4  and  N3_6 
REMARK    1  A    between atoms: N3_6  and  C2_8 
REMARK    2  A    between atoms: C2_8  and  C3_9 
REMARK    3  A    between atoms: C3_9  and  C4_10 
REMARK    4  A    between atoms: C4_10  and  O1_11 
REMARK    5  A    between atoms: C4_10  and  C5_13 
REMARK    6  A    between atoms: C5_13  and  S1_14 
REMARK    7  A    between atoms: S1_14  and  C6_15 
REMARK    8  A    between atoms: C6_15  and  C7_16 
REMARK    9  A    between atoms: C7_16  and  O2_17 
REMARK   10  A    between atoms: C7_16  and  N4_19 
REMARK   11  A    between atoms: N4_19  and  C8_20 
REMARK   12  A    between atoms: C10_22  and  N5_23 
REMARK   13  A    between atoms: C16_31  and  N7_32 
REMARK   14  A    between atoms: N7_32  and  C17_34 
REMARK   15  A    between atoms: C17_34  and  C18_35 
REMARK   16  A    between atoms: C18_35  and  C19_36 
REMARK   17  A    between atoms: C19_36  and  O3_37 
ROOT
HETATM    1  C8  UNL     1      10.319  39.646  -5.105  1.00  0.00     0.199 A 
HETATM    2  C9  UNL     1      10.220  38.904  -3.914  1.00  0.00     0.113 A 
HETATM    3  C10 UNL     1       9.514  39.330  -2.818  1.00  0.00     0.123 A 
HETATM    4  N6  UNL     1       8.880  40.508  -2.870  1.00  0.00    -0.177 N 
ATOM      5  H6  UNL     1       8.348  40.847  -2.069  1.00  0.00     0.185 HD
HETATM    6  C16 UNL     1       8.958  41.250  -4.016  1.00  0.00     0.682 A 
HETATM    7  N8  UNL     1       9.642  40.843  -5.080  1.00  0.00    -0.164 N 
ATOM      8  H8  UNL     1       9.666  41.439  -5.908  1.00  0.00     0.187 HD
ENDROOT
BRANCH   1   9
HETATM    9  N4  UNL     1      10.901  39.299  -6.052  1.00  0.00    -0.366 NA
BRANCH   9  10
HETATM   10  C7  UNL     1      11.560  38.848  -7.068  1.00  0.00     0.201 C 
BRANCH  10  11
HETATM   11  C6  UNL     1      12.944  39.386  -7.416  1.00  0.00     0.174 C 
BRANCH  11  12
HETATM   12  S1  UNL     1      12.928  40.370  -8.904  1.00  0.00    -0.157 SA
BRANCH  12  13
HETATM   13  C5  UNL     1      13.310  39.481 -10.407  1.00  0.00     0.106 C 
BRANCH  13  14
HETATM   14  C4  UNL     1      13.832  38.092 -10.113  1.00  0.00     0.129 C 
BRANCH  14  15
HETATM   15  C3  UNL     1      15.003  37.708 -10.970  1.00  0.00     0.052 C 
BRANCH  15  16
HETATM   16  C2  UNL     1      15.006  36.235 -11.191  1.00  0.00     0.125 C 
BRANCH  16  17
HETATM   17  N3  UNL     1      15.028  35.897 -12.622  1.00  0.00    -0.365 N 
HETATM   18  C1  UNL     1      13.756  35.597 -13.198  1.00  0.00     0.181 C 
HETATM   19  N1  UNL     1      13.593  35.589 -14.495  1.00  0.00    -0.374 N 
HETATM   20  N2  UNL     1      12.610  35.295 -12.428  1.00  0.00    -0.064 NA
ATOM     21  H12 UNL     1      12.685  35.376 -14.907  1.00  0.00     0.158 HD
ATOM     22  H11 UNL     1      14.420  35.807 -15.051  1.00  0.00     0.158 HD
ATOM     23  H3  UNL     1      15.891  35.876 -13.165  1.00  0.00     0.162 HD
ENDBRANCH  16  17
ENDBRANCH  15  16
ENDBRANCH  14  15
BRANCH  14  24
HETATM   24  O1  UNL     1      12.814  37.164 -10.117  1.00  0.00    -0.395 OA
ATOM     25  H1  UNL     1      12.297  37.160  -9.320  1.00  0.00     0.210 HD
ENDBRANCH  14  24
ENDBRANCH  13  14
ENDBRANCH  12  13
ENDBRANCH  11  12
ENDBRANCH  10  11
BRANCH  10  26
HETATM   26  O2  UNL     1      11.162  37.919  -7.896  1.00  0.00    -0.338 OA
ATOM     27  H2  UNL     1      10.884  37.129  -7.448  1.00  0.00     0.220 HD
ENDBRANCH  10  26
ENDBRANCH   9  10
ENDBRANCH   1   9
BRANCH   3  28
HETATM   28  N5  UNL     1       9.507  38.483  -1.675  1.00  0.00    -0.367 N 
HETATM   29  C11 UNL     1       9.775  39.077  -0.405  1.00  0.00     0.124 C 
HETATM   30  C12 UNL     1       9.325  38.252   0.763  1.00  0.00     0.020 C 
HETATM   31  C13 UNL     1       8.386  37.138   0.364  1.00  0.00     0.003 C 
HETATM   32  C14 UNL     1       9.108  36.284  -0.644  1.00  0.00     0.020 C 
HETATM   33  C15 UNL     1       9.230  37.081  -1.916  1.00  0.00     0.124 C 
ENDBRANCH   3  28
BRANCH   6  34
HETATM   34  N7  UNL     1       8.323  42.354  -3.997  1.00  0.00    -0.226 N 
ATOM     35  H7  UNL     1       8.190  42.824  -3.102  1.00  0.00     0.177 HD
BRANCH  34  36
HETATM   36  C17 UNL     1       7.789  42.964  -5.174  1.00  0.00     0.140 C 
BRANCH  36  37
HETATM   37  C18 UNL     1       6.271  43.055  -4.952  1.00  0.00     0.046 C 
BRANCH  37  38
HETATM   38  C19 UNL     1       5.727  43.918  -6.075  1.00  0.00     0.165 C 
BRANCH  38  39
HETATM   39  O3  UNL     1       6.621  43.977  -7.147  1.00  0.00    -0.401 OA
ATOM     40  H3  UNL     1       7.015  44.838  -7.222  1.00  0.00     0.209 HD
ENDBRANCH  38  39
ENDBRANCH  37  38
ENDBRANCH  36  37
ENDBRANCH  34  36
ENDBRANCH   6  34
TORSDOF 17
ENDMDL
MODEL 3
REMARK VINA RESULT: -7.673776846      0.880      1.082
REMARK  17 active torsions:
REMARK  status: ('A' for Active; 'I' for Inactive)
REMARK       I    between atoms: C1_4  and  N3_6 
REMARK    1  A    between atoms: N3_6  and  C2_8 
REMARK    2  A    between atoms: C2_8  and  C3_9 
REMARK    3  A    between atoms: C3_9  and  C4_10 
REMARK    4  A    between atoms: C4_10  and  O1_11 
REMARK    5  A    between atoms: C4_10  and  C5_13 
REMARK    6  A    between atoms: C5_13  and  S1_14 
REMARK    7  A    between atoms: S1_14  and  C6_15 
REMARK    8  A    between atoms: C6_15  and  C7_16 
REMARK    9  A    between atoms: C7_16  and  O2_17 
REMARK   10  A    between atoms: C7_16  and  N4_19 
REMARK   11  A    between atoms: N4_19  and  C8_20 
REMARK   12  A    between atoms: C10_22  and  N5_23 
REMARK   13  A    between atoms: C16_31  and  N7_32 
REMARK   14  A    between atoms: N7_32  and  C17_34 
REMARK   15  A    between atoms: C17_34  and  C18_35 
REMARK   16  A    between atoms: C18_35  and  C19_36 
REMARK   17  A    between atoms: C19_36  and  O3_37 
ROOT
HETATM    1  C8  UNL     1      10.357  39.662  -5.200  1.00  0.00     0.199 A 
HETATM    2  C9  UNL     1      10.273  38.941  -3.994  1.00  0.00     0.113 A 
HETATM    3  C10 UNL     1       9.502  39.339  -2.932  1.00  0.00     0.123 A 
HETATM    4  N6  UNL     1       8.787  40.466  -3.033  1.00  0.00    -0.177 N 
ATOM      5  H6  UNL     1       8.205  40.783  -2.257  1.00  0.00     0.185 HD
HETATM    6  C16 UNL     1       8.849  41.186  -4.193  1.00  0.00     0.682 A 
HETATM    7  N8  UNL     1       9.595  40.806  -5.225  1.00  0.00    -0.164 N 
ATOM      8  H8  UNL     1       9.603  41.384  -6.066  1.00  0.00     0.187 HD
ENDROOT
BRANCH   1   9
HETATM    9  N4  UNL     1      10.993  39.337  -6.119  1.00  0.00    -0.366 NA
BRANCH   9  10
HETATM   10  C7  UNL     1      11.654  38.915  -7.146  1.00  0.00     0.201 C 
BRANCH  10  11
HETATM   11  C6  UNL     1      12.952  39.588  -7.583  1.00  0.00     0.174 C 
BRANCH  11  12
HETATM   12  S1  UNL     1      12.735  40.579  -9.050  1.00  0.00    -0.157 SA
BRANCH  12  13
HETATM   13  C5  UNL     1      13.470  39.907 -10.535  1.00  0.00     0.106 C 
BRANCH  13  14
HETATM   14  C4  UNL     1      13.907  38.473 -10.338  1.00  0.00     0.129 C 
BRANCH  14  15
HETATM   15  C3  UNL     1      14.965  38.038 -11.312  1.00  0.00     0.052 C 
BRANCH  15  16
HETATM   16  C2  UNL     1      15.033  36.551 -11.353  1.00  0.00     0.125 C 
BRANCH  16  17
HETATM   17  N3  UNL     1      15.040  36.042 -12.733  1.00  0.00    -0.365 N 
HETATM   18  C1  UNL     1      13.765  35.656 -13.248  1.00  0.00     0.181 C 
HETATM   19  N1  UNL     1      13.584  35.489 -14.532  1.00  0.00    -0.374 N 
HETATM   20  N2  UNL     1      12.635  35.433 -12.428  1.00  0.00    -0.064 NA
ATOM     21  H12 UNL     1      12.673  35.214 -14.900  1.00  0.00     0.158 HD
ATOM     22  H11 UNL     1      14.399  35.650 -15.123  1.00  0.00     0.158 HD
ATOM     23  H3  UNL     1      15.896  35.968 -13.283  1.00  0.00     0.162 HD
ENDBRANCH  16  17
ENDBRANCH  15  16
ENDBRANCH  14  15
BRANCH  14  24
HETATM   24  O1  UNL     1      12.824  37.623 -10.281  1.00  0.00    -0.395 OA
ATOM     25  H1  UNL     1      12.655  37.276  -9.413  1.00  0.00     0.210 HD
ENDBRANCH  14  24
ENDBRANCH  13  14
ENDBRANCH  12  13
ENDBRANCH  11  12
ENDBRANCH  10  11
BRANCH  10  26
HETATM   26  O2  UNL     1      11.330  37.911  -7.916  1.00  0.00    -0.338 OA
ATOM     27  H2  UNL     1      10.788  37.271  -7.468  1.00  0.00     0.220 HD
ENDBRANCH  10  26
ENDBRANCH   9  10
ENDBRANCH   1   9
BRANCH   3  28
HETATM   28  N5  UNL     1       9.519  38.520  -1.769  1.00  0.00    -0.367 N 
HETATM   29  C11 UNL     1       9.885  39.128  -0.531  1.00  0.00     0.124 C 
HETATM   30  C12 UNL     1       9.462  38.353   0.680  1.00  0.00     0.020 C 
HETATM   31  C13 UNL     1       8.451  37.277   0.361  1.00  0.00     0.003 C 
HETATM   32  C14 UNL     1       9.075  36.366  -0.662  1.00  0.00     0.020 C 
HETATM   33  C15 UNL     1       9.163  37.127  -1.959  1.00  0.00     0.124 C 
ENDBRANCH   3  28
BRANCH   6  34
HETATM   34  N7  UNL     1       8.136  42.241  -4.221  1.00  0.00    -0.226 N 
ATOM     35  H7  UNL     1       7.242  42.213  -4.711  1.00  0.00     0.177 HD
BRANCH  34  36
HETATM   36  C17 UNL     1       8.532  43.464  -3.596  1.00  0.00     0.140 C 
BRANCH  36  37
HETATM   37  C18 UNL     1       7.466  43.759  -2.528  1.00  0.00     0.046 C 
BRANCH  37  38
HETATM   38  C19 UNL     1       8.131  43.515  -1.186  1.00  0.00     0.165 C 
BRANCH  38  39
HETATM   39  O3  UNL     1       9.392  42.937  -1.342  1.00  0.00    -0.401 OA
ATOM     40  H3  UNL     1       9.946  43.108  -0.589  1.00  0.00     0.209 HD
ENDBRANCH  38  39
ENDBRANCH  37  38
ENDBRANCH  36  37
ENDBRANCH  34  36
ENDBRANCH   6  34
TORSDOF 17
ENDMDL
MODEL 4
REMARK VINA RESULT: -7.633201543      1.041      1.331
REMARK  17 active torsions:
REMARK  status: ('A' for Active; 'I' for Inactive)
REMARK       I    between atoms: C1_4  and  N3_6 
REMARK    1  A    between atoms: N3_6  and  C2_8 
REMARK    2  A    between atoms: C2_8  and  C3_9 
REMARK    3  A    between atoms: C3_9  and  C4_10 
REMARK    4  A    between atoms: C4_10  and  O1_11 
REMARK    5  A    between atoms: C4_10  and  C5_13 
REMARK    6  A    between atoms: C5_13  and  S1_14 
REMARK    7  A    between atoms: S1_14  and  C6_15 
REMARK    8  A    between atoms: C6_15  and  C7_16 
REMARK    9  A    between atoms: C7_16  and  O2_17 
REMARK   10  A    between atoms: C7_16  and  N4_19 
REMARK   11  A    between atoms: N4_19  and  C8_20 
REMARK   12  A    between atoms: C10_22  and  N5_23 
REMARK   13  A    between atoms: C16_31  and  N7_32 
REMARK   14  A    between atoms: N7_32  and  C17_34 
REMARK   15  A    between atoms: C17_34  and  C18_35 
REMARK   16  A    between atoms: C18_35  and  C19_36 
REMARK   17  A    between atoms: C19_36  and  O3_37 
ROOT
HETATM    1  C8  UNL     1      10.340  39.787  -5.243  1.00  0.00     0.199 A 
HETATM    2  C9  UNL     1      10.275  39.025  -4.062  1.00  0.00     0.113 A 
HETATM    3  C10 UNL     1       9.503  39.371  -2.983  1.00  0.00     0.123 A 
HETATM    4  N6  UNL     1       8.767  40.489  -3.042  1.00  0.00    -0.177 N 
ATOM      5  H6  UNL     1       8.184  40.769  -2.253  1.00  0.00     0.185 HD
HETATM    6  C16 UNL     1       8.811  41.249  -4.177  1.00  0.00     0.682 A 
HETATM    7  N8  UNL     1       9.558  40.918  -5.225  1.00  0.00    -0.164 N 
ATOM      8  H8  UNL     1       9.551  41.524  -6.046  1.00  0.00     0.187 HD
ENDROOT
BRANCH   1   9
HETATM    9  N4  UNL     1      10.977  39.505  -6.175  1.00  0.00    -0.366 NA
BRANCH   9  10
HETATM   10  C7  UNL     1      11.686  39.121  -7.185  1.00  0.00     0.201 C 
BRANCH  10  11
HETATM   11  C6  UNL     1      12.856  39.957  -7.695  1.00  0.00     0.174 C 
BRANCH  11  12
HETATM   12  S1  UNL     1      12.986  39.916  -9.474  1.00  0.00    -0.157 SA
BRANCH  12  13
HETATM   13  C5  UNL     1      14.482  39.171 -10.108  1.00  0.00     0.106 C 
BRANCH  13  14
HETATM   14  C4  UNL     1      14.380  37.663 -10.143  1.00  0.00     0.129 C 
BRANCH  14  15
HETATM   15  C3  UNL     1      13.163  37.169 -10.870  1.00  0.00     0.052 C 
BRANCH  15  16
HETATM   16  C2  UNL     1      13.555  36.135 -11.868  1.00  0.00     0.125 C 
BRANCH  16  17
HETATM   17  N3  UNL     1      15.012  35.933 -11.902  1.00  0.00    -0.365 N 
HETATM   18  C1  UNL     1      15.652  36.314 -13.120  1.00  0.00     0.181 C 
HETATM   19  N1  UNL     1      16.949  36.480 -13.172  1.00  0.00    -0.374 N 
HETATM   20  N2  UNL     1      14.951  36.534 -14.327  1.00  0.00    -0.064 NA
ATOM     21  H12 UNL     1      17.406  36.753 -14.042  1.00  0.00     0.158 HD
ATOM     22  H11 UNL     1      17.455  36.321 -12.301  1.00  0.00     0.158 HD
ATOM     23  H3  UNL     1      15.528  35.547 -11.112  1.00  0.00     0.162 HD
ENDBRANCH  16  17
ENDBRANCH  15  16
ENDBRANCH  14  15
BRANCH  14  24
HETATM   24  O1  UNL     1      14.531  37.123  -8.884  1.00  0.00    -0.395 OA
ATOM     25  H1  UNL     1      14.036  37.577  -8.211  1.00  0.00     0.210 HD
ENDBRANCH  14  24
ENDBRANCH  13  14
ENDBRANCH  12  13
ENDBRANCH  11  12
ENDBRANCH  10  11
BRANCH  10  26
HETATM   26  O2  UNL     1      11.517  38.026  -7.876  1.00  0.00    -0.338 OA
ATOM     27  H2  UNL     1      10.665  37.631  -7.728  1.00  0.00     0.220 HD
ENDBRANCH  10  26
ENDBRANCH   9  10
ENDBRANCH   1   9
BRANCH   3  28
HETATM   28  N5  UNL     1       9.540  38.514  -1.850  1.00  0.00    -0.367 N 
HETATM   29  C11 UNL     1       9.810  39.102  -0.577  1.00  0.00     0.124 C 
HETATM   30  C12 UNL     1       9.403  38.252   0.589  1.00  0.00     0.020 C 
HETATM   31  C13 UNL     1       8.493  37.115   0.193  1.00  0.00     0.003 C 
HETATM   32  C14 UNL     1       9.224  36.293  -0.835  1.00  0.00     0.020 C 
HETATM   33  C15 UNL     1       9.301  37.106  -2.100  1.00  0.00     0.124 C 
ENDBRANCH   3  28
BRANCH   6  34
HETATM   34  N7  UNL     1       8.079  42.292  -4.166  1.00  0.00    -0.226 N 
ATOM     35  H7  UNL     1       7.143  42.235  -4.566  1.00  0.00     0.177 HD
BRANCH  34  36
HETATM   36  C17 UNL     1       8.511  43.539  -3.616  1.00  0.00     0.140 C 
BRANCH  36  37
HETATM   37  C18 UNL     1       7.465  43.921  -2.557  1.00  0.00     0.046 C 
BRANCH  37  38
HETATM   38  C19 UNL     1       8.015  43.445  -1.226  1.00  0.00     0.165 C 
BRANCH  38  39
HETATM   39  O3  UNL     1       9.334  43.003  -1.350  1.00  0.00    -0.401 OA
ATOM     40  H3  UNL     1       9.757  43.386  -2.110  1.00  0.00     0.209 HD
ENDBRANCH  38  39
ENDBRANCH  37  38
ENDBRANCH  36  37
ENDBRANCH  34  36
ENDBRANCH   6  34
TORSDOF 17
ENDMDL
MODEL 5
REMARK VINA RESULT: -7.618414576      3.787      5.308
REMARK  17 active torsions:
REMARK  status: ('A' for Active; 'I' for Inactive)
REMARK       I    between atoms: C1_4  and  N3_6 
REMARK    1  A    between atoms: N3_6  and  C2_8 
REMARK    2  A    between atoms: C2_8  and  C3_9 
REMARK    3  A    between atoms: C3_9  and  C4_10 
REMARK    4  A    between atoms: C4_10  and  O1_11 
REMARK    5  A    between atoms: C4_10  and  C5_13 
REMARK    6  A    between atoms: C5_13  and  S1_14 
REMARK    7  A    between atoms: S1_14  and  C6_15 
REMARK    8  A    between atoms: C6_15  and  C7_16 
REMARK    9  A    between atoms: C7_16  and  O2_17 
REMARK   10  A    between atoms: C7_16  and  N4_19 
REMARK   11  A    between atoms: N4_19  and  C8_20 
REMARK   12  A    between atoms: C10_22  and  N5_23 
REMARK   13  A    between atoms: C16_31  and  N7_32 
REMARK   14  A    between atoms: N7_32  and  C17_34 
REMARK   15  A    between atoms: C17_34  and  C18_35 
REMARK   16  A    between atoms: C18_35  and  C19_36 
REMARK   17  A    between atoms: C19_36  and  O3_37 
ROOT
HETATM    1  C8  UNL     1      10.359  39.636  -5.229  1.00  0.00     0.199 A 
HETATM    2  C9  UNL     1      10.261  38.890  -4.040  1.00  0.00     0.113 A 
HETATM    3  C10 UNL     1       9.553  39.311  -2.943  1.00  0.00     0.123 A 
HETATM    4  N6  UNL     1       8.916  40.488  -2.992  1.00  0.00    -0.177 N 
ATOM      5  H6  UNL     1       8.383  40.824  -2.190  1.00  0.00     0.185 HD
HETATM    6  C16 UNL     1       8.994  41.234  -4.136  1.00  0.00     0.682 A 
HETATM    7  N8  UNL     1       9.679  40.831  -5.201  1.00  0.00    -0.164 N 
ATOM      8  H8  UNL     1       9.702  41.429  -6.027  1.00  0.00     0.187 HD
ENDROOT
BRANCH   1   9
HETATM    9  N4  UNL     1      10.942  39.293  -6.176  1.00  0.00    -0.366 NA
BRANCH   9  10
HETATM   10  C7  UNL     1      11.624  38.860  -7.185  1.00  0.00     0.201 C 
BRANCH  10  11
HETATM   11  C6  UNL     1      12.985  39.455  -7.534  1.00  0.00     0.174 C 
BRANCH  11  12
HETATM   12  S1  UNL     1      13.045  40.057  -9.212  1.00  0.00    -0.157 SA
BRANCH  12  13
HETATM   13  C5  UNL     1      12.595  41.774  -9.419  1.00  0.00     0.106 C 
BRANCH  13  14
HETATM   14  C4  UNL     1      11.141  42.013  -9.078  1.00  0.00     0.129 C 
BRANCH  14  15
HETATM   15  C3  UNL     1      10.506  43.086  -9.915  1.00  0.00     0.052 C 
BRANCH  15  16
HETATM   16  C2  UNL     1      10.037  44.196  -9.041  1.00  0.00     0.125 C 
BRANCH  16  17
HETATM   17  N3  UNL     1       8.609  44.068  -8.713  1.00  0.00    -0.365 N 
HETATM   18  C1  UNL     1       8.290  44.174  -7.325  1.00  0.00     0.181 C 
HETATM   19  N1  UNL     1       7.060  44.390  -6.934  1.00  0.00    -0.374 N 
HETATM   20  N2  UNL     1       9.254  44.057  -6.298  1.00  0.00    -0.064 NA
ATOM     21  H12 UNL     1       6.833  44.466  -5.943  1.00  0.00     0.158 HD
ATOM     22  H11 UNL     1       6.364  44.475  -7.675  1.00  0.00     0.158 HD
ATOM     23  H3  UNL     1       7.897  43.914  -9.426  1.00  0.00     0.162 HD
ENDBRANCH  16  17
ENDBRANCH  15  16
ENDBRANCH  14  15
BRANCH  14  24
HETATM   24  O1  UNL     1      10.968  42.191  -7.723  1.00  0.00    -0.395 OA
ATOM     25  H1  UNL     1      10.397  41.547  -7.322  1.00  0.00     0.210 HD
ENDBRANCH  14  24
ENDBRANCH  13  14
ENDBRANCH  12  13
ENDBRANCH  11  12
ENDBRANCH  10  11
BRANCH  10  26
HETATM   26  O2  UNL     1      11.272  37.906  -8.004  1.00  0.00    -0.338 OA
ATOM     27  H2  UNL     1      11.483  37.042  -7.667  1.00  0.00     0.220 HD
ENDBRANCH  10  26
ENDBRANCH   9  10
ENDBRANCH   1   9
BRANCH   3  28
HETATM   28  N5  UNL     1       9.547  38.461  -1.803  1.00  0.00    -0.367 N 
HETATM   29  C11 UNL     1       9.797  39.055  -0.528  1.00  0.00     0.124 C 
HETATM   30  C12 UNL     1       9.347  38.221   0.633  1.00  0.00     0.020 C 
HETATM   31  C13 UNL     1       8.426  37.097   0.224  1.00  0.00     0.003 C 
HETATM   32  C14 UNL     1       9.167  36.254  -0.780  1.00  0.00     0.020 C 
HETATM   33  C15 UNL     1       9.289  37.056  -2.049  1.00  0.00     0.124 C 
ENDBRANCH   3  28
BRANCH   6  34
HETATM   34  N7  UNL     1       8.357  42.336  -4.114  1.00  0.00    -0.226 N 
ATOM     35  H7  UNL     1       8.748  43.135  -4.612  1.00  0.00     0.177 HD
BRANCH  34  36
HETATM   36  C17 UNL     1       7.117  42.505  -3.422  1.00  0.00     0.140 C 
BRANCH  36  37
HETATM   37  C18 UNL     1       7.244  43.821  -2.638  1.00  0.00     0.046 C 
BRANCH  37  38
HETATM   38  C19 UNL     1       7.892  43.465  -1.313  1.00  0.00     0.165 C 
BRANCH  38  39
HETATM   39  O3  UNL     1       9.259  43.223  -1.465  1.00  0.00    -0.401 OA
ATOM     40  H3  UNL     1       9.462  42.303  -1.350  1.00  0.00     0.209 HD
ENDBRANCH  38  39
ENDBRANCH  37  38
ENDBRANCH  36  37
ENDBRANCH  34  36
ENDBRANCH   6  34
TORSDOF 17
ENDMDL
