MODEL 1
REMARK VINA RESULT: -7.980294048      0.000      0.000
REMARK  16 active torsions:
REMARK  status: ('A' for Active; 'I' for Inactive)
REMARK    1  A    between atoms: C3_3  and  C4_4 
REMARK    2  A    between atoms: C4_4  and  C5_5 
REMARK    3  A    between atoms: C5_5  and  C6_6 
REMARK    4  A    between atoms: C6_6  and  C7_7 
REMARK    5  A    between atoms: C7_7  and  C8_8 
REMARK    6  A    between atoms: C8_8  and  C9_9 
REMARK    7  A    between atoms: C9_9  and  C10_10 
REMARK    8  A    between atoms: C10_10  and  C11_11 
REMARK    9  A    between atoms: C11_11  and  N1_12 
REMARK       I    between atoms: N1_12  and  C12_14 
REMARK       I    between atoms: C12_14  and  N2_16 
REMARK   10  A    between atoms: N2_16  and  C13_18 
REMARK   11  A    between atoms: C14_23  and  C15_24 
REMARK   12  A    between atoms: C15_24  and  O2_25 
REMARK   13  A    between atoms: C15_24  and  C16_27 
REMARK   14  A    between atoms: C18_29  and  O3_30 
REMARK   15  A    between atoms: C19_32  and  C20_33 
REMARK   16  A    between atoms: C20_33  and  O4_34 
ROOT
HETATM    1  C1  UNL     1      14.057  37.944  -8.683  1.00  0.00     0.012 C 
HETATM    2  C2  UNL     1      13.562  37.611  -9.734  1.00  0.00    -0.117 C 
HETATM    3  C3  UNL     1      12.946  37.193 -11.007  1.00  0.00     0.093 C 
ENDROOT
BRANCH   3   4
HETATM    4  C4  UNL     1      13.922  36.290 -11.694  1.00  0.00     0.012 C 
BRANCH   4   5
HETATM    5  C5  UNL     1      13.333  35.764 -13.004  1.00  0.00     0.001 C 
BRANCH   5   6
HETATM    6  C6  UNL     1      14.228  36.202 -14.126  1.00  0.00     0.000 C 
BRANCH   6   7
HETATM    7  C7  UNL     1      14.206  37.718 -14.325  1.00  0.00     0.000 C 
BRANCH   7   8
HETATM    8  C8  UNL     1      15.619  38.204 -14.374  1.00  0.00     0.000 C 
BRANCH   8   9
HETATM    9  C9  UNL     1      15.761  39.636 -13.782  1.00  0.00     0.002 C 
BRANCH   9  10
HETATM   10  C10 UNL     1      15.086  39.746 -12.493  1.00  0.00     0.020 C 
BRANCH  10  11
HETATM   11  C11 UNL     1      14.081  40.766 -12.220  1.00  0.00     0.124 C 
BRANCH  11  12
HETATM   12  N1  UNL     1      13.926  41.204 -10.881  1.00  0.00    -0.343 N 
HETATM   13  C12 UNL     1      12.925  42.046 -10.396  1.00  0.00     0.321 C 
HETATM   14  O1  UNL     1      12.006  42.504 -11.080  1.00  0.00    -0.247 OA
HETATM   15  N2  UNL     1      12.961  42.413  -8.990  1.00  0.00    -0.289 N 
ATOM     16  H2  UNL     1      13.349  43.298  -8.666  1.00  0.00     0.172 HD
ATOM     17  H1  UNL     1      14.614  40.871 -10.206  1.00  0.00     0.164 HD
BRANCH  15  18
HETATM   18  C13 UNL     1      12.466  41.537  -8.179  1.00  0.00     0.193 A 
HETATM   19  N3  UNL     1      11.571  40.602  -8.543  1.00  0.00    -0.279 N 
HETATM   20  N4  UNL     1      11.083  39.719  -7.688  1.00  0.00    -0.285 N 
ATOM     21  H3  UNL     1      11.256  40.572  -9.514  1.00  0.00     0.189 HD
HETATM   22  C14 UNL     1      11.445  39.688  -6.388  1.00  0.00     0.130 A 
ATOM     23  H4  UNL     1      10.406  39.033  -8.024  1.00  0.00     0.188 HD
HETATM   24  N6  UNL     1      12.340  40.607  -5.981  1.00  0.00    -0.307 N 
HETATM   25  C21 UNL     1      12.845  41.512  -6.838  1.00  0.00     0.292 A 
ATOM     26  H6  UNL     1      12.640  40.617  -5.007  1.00  0.00     0.170 HD
HETATM   27  O5  UNL     1      13.681  42.365  -6.443  1.00  0.00    -0.264 OA
BRANCH  22  28
HETATM   28  C15 UNL     1      10.872  38.675  -5.454  1.00  0.00     0.217 C 
BRANCH  28  29
HETATM   29  O2  UNL     1       9.733  38.068  -5.963  1.00  0.00    -0.386 OA
ATOM     30  H2  UNL     1       9.208  37.656  -5.287  1.00  0.00     0.210 HD
ENDBRANCH  28  29
BRANCH  28  31
HETATM   31  C16 UNL     1      10.542  39.390  -4.167  1.00  0.00     0.225 C 
HETATM   32  C17 UNL     1       9.040  39.344  -3.885  1.00  0.00     0.070 C 
HETATM   33  C18 UNL     1       9.010  39.713  -2.417  1.00  0.00     0.153 C 
HETATM   34  C19 UNL     1      10.287  39.133  -1.893  1.00  0.00     0.238 C 
HETATM   35  N5  UNL     1      11.085  38.742  -3.013  1.00  0.00    -0.059 N 
ATOM     36  H52 UNL     1      11.155  37.731  -3.120  1.00  0.00     0.278 HD
ATOM     37  H51 UNL     1      12.079  38.929  -2.880  1.00  0.00     0.278 HD
BRANCH  33  38
HETATM   38  O3  UNL     1       9.090  41.101  -2.315  1.00  0.00    -0.393 OA
ATOM     39  H3  UNL     1       9.088  41.332  -1.393  1.00  0.00     0.210 HD
ENDBRANCH  33  38
BRANCH  34  40
HETATM   40  C20 UNL     1       9.921  37.851  -1.136  1.00  0.00     0.199 C 
BRANCH  40  41
HETATM   41  O4  UNL     1      10.339  36.768  -1.920  1.00  0.00    -0.399 OA
ATOM     42  H4  UNL     1      11.183  36.996  -2.291  1.00  0.00     0.209 HD
ENDBRANCH  40  41
ENDBRANCH  34  40
ENDBRANCH  28  31
ENDBRANCH  22  28
ENDBRANCH  15  18
ENDBRANCH  11  12
ENDBRANCH  10  11
ENDBRANCH   9  10
ENDBRANCH   8   9
ENDBRANCH   7   8
ENDBRANCH   6   7
ENDBRANCH   5   6
ENDBRANCH   4   5
ENDBRANCH   3   4
TORSDOF 16
ENDMDL
MODEL 2
REMARK VINA RESULT: -7.451797759      0.926      2.122
REMARK  16 active torsions:
REMARK  status: ('A' for Active; 'I' for Inactive)
REMARK    1  A    between atoms: C3_3  and  C4_4 
REMARK    2  A    between atoms: C4_4  and  C5_5 
REMARK    3  A    between atoms: C5_5  and  C6_6 
REMARK    4  A    between atoms: C6_6  and  C7_7 
REMARK    5  A    between atoms: C7_7  and  C8_8 
REMARK    6  A    between atoms: C8_8  and  C9_9 
REMARK    7  A    between atoms: C9_9  and  C10_10 
REMARK    8  A    between atoms: C10_10  and  C11_11 
REMARK    9  A    between atoms: C11_11  and  N1_12 
REMARK       I    between atoms: N1_12  and  C12_14 
REMARK       I    between atoms: C12_14  and  N2_16 
REMARK   10  A    between atoms: N2_16  and  C13_18 
REMARK   11  A    between atoms: C14_23  and  C15_24 
REMARK   12  A    between atoms: C15_24  and  O2_25 
REMARK   13  A    between atoms: C15_24  and  C16_27 
REMARK   14  A    between atoms: C18_29  and  O3_30 
REMARK   15  A    between atoms: C19_32  and  C20_33 
REMARK   16  A    between atoms: C20_33  and  O4_34 
ROOT
HETATM    1  C1  UNL     1      14.564  37.778 -14.822  1.00  0.00     0.012 C 
HETATM    2  C2  UNL     1      13.965  36.944 -14.185  1.00  0.00    -0.117 C 
HETATM    3  C3  UNL     1      13.218  35.939 -13.407  1.00  0.00     0.093 C 
ENDROOT
BRANCH   3   4
HETATM    4  C4  UNL     1      13.844  35.879 -12.048  1.00  0.00     0.012 C 
BRANCH   4   5
HETATM    5  C5  UNL     1      13.098  36.794 -11.075  1.00  0.00     0.001 C 
BRANCH   5   6
HETATM    6  C6  UNL     1      14.091  37.329 -10.085  1.00  0.00     0.000 C 
BRANCH   6   7
HETATM    7  C7  UNL     1      14.110  38.857 -10.054  1.00  0.00     0.000 C 
BRANCH   7   8
HETATM    8  C8  UNL     1      14.195  39.353 -11.462  1.00  0.00     0.000 C 
BRANCH   8   9
HETATM    9  C9  UNL     1      15.661  39.670 -11.878  1.00  0.00     0.002 C 
BRANCH   9  10
HETATM   10  C10 UNL     1      16.252  40.680 -11.006  1.00  0.00     0.020 C 
BRANCH  10  11
HETATM   11  C11 UNL     1      15.759  42.050 -10.949  1.00  0.00     0.124 C 
BRANCH  11  12
HETATM   12  N1  UNL     1      14.866  42.392  -9.903  1.00  0.00    -0.343 N 
HETATM   13  C12 UNL     1      13.513  42.706 -10.038  1.00  0.00     0.321 C 
HETATM   14  O1  UNL     1      12.898  42.697 -11.108  1.00  0.00    -0.247 OA
HETATM   15  N2  UNL     1      12.772  43.069  -8.841  1.00  0.00    -0.289 N 
ATOM     16  H2  UNL     1      12.592  44.039  -8.584  1.00  0.00     0.172 HD
ATOM     17  H1  UNL     1      15.250  42.410  -8.958  1.00  0.00     0.164 HD
BRANCH  15  18
HETATM   18  C13 UNL     1      12.357  42.076  -8.127  1.00  0.00     0.193 A 
HETATM   19  N3  UNL     1      11.378  41.237  -8.508  1.00  0.00    -0.279 N 
HETATM   20  N4  UNL     1      10.977  40.229  -7.752  1.00  0.00    -0.285 N 
ATOM     21  H3  UNL     1      10.928  41.384  -9.412  1.00  0.00     0.189 HD
HETATM   22  C14 UNL     1      11.518  39.964  -6.545  1.00  0.00     0.130 A 
ATOM     23  H4  UNL     1      10.228  39.626  -8.096  1.00  0.00     0.188 HD
HETATM   24  N6  UNL     1      12.502  40.780  -6.125  1.00  0.00    -0.307 N 
HETATM   25  C21 UNL     1      12.922  41.810  -6.881  1.00  0.00     0.292 A 
ATOM     26  H6  UNL     1      12.938  40.614  -5.218  1.00  0.00     0.170 HD
HETATM   27  O5  UNL     1      13.843  42.563  -6.475  1.00  0.00    -0.264 OA
BRANCH  22  28
HETATM   28  C15 UNL     1      11.037  38.816  -5.722  1.00  0.00     0.217 C 
BRANCH  28  29
HETATM   29  O2  UNL     1       9.960  38.161  -6.300  1.00  0.00    -0.386 OA
ATOM     30  H2  UNL     1      10.221  37.385  -6.780  1.00  0.00     0.210 HD
ENDBRANCH  28  29
BRANCH  28  31
HETATM   31  C16 UNL     1      10.641  39.367  -4.374  1.00  0.00     0.225 C 
HETATM   32  C17 UNL     1       9.127  39.291  -4.176  1.00  0.00     0.070 C 
HETATM   33  C18 UNL     1       9.021  39.476  -2.677  1.00  0.00     0.153 C 
HETATM   34  C19 UNL     1      10.272  38.831  -2.165  1.00  0.00     0.238 C 
HETATM   35  N5  UNL     1      11.127  38.579  -3.284  1.00  0.00    -0.059 N 
ATOM     36  H52 UNL     1      11.206  37.589  -3.511  1.00  0.00     0.278 HD
ATOM     37  H51 UNL     1      12.112  38.745  -3.079  1.00  0.00     0.278 HD
BRANCH  33  38
HETATM   38  O3  UNL     1       9.092  40.840  -2.400  1.00  0.00    -0.393 OA
ATOM     39  H3  UNL     1       9.272  40.946  -1.473  1.00  0.00     0.210 HD
ENDBRANCH  33  38
BRANCH  34  40
HETATM   40  C20 UNL     1       9.873  37.466  -1.592  1.00  0.00     0.199 C 
BRANCH  40  41
HETATM   41  O4  UNL     1       9.102  36.814  -2.563  1.00  0.00    -0.399 OA
ATOM     42  H4  UNL     1       8.978  37.422  -3.282  1.00  0.00     0.209 HD
ENDBRANCH  40  41
ENDBRANCH  34  40
ENDBRANCH  28  31
ENDBRANCH  22  28
ENDBRANCH  15  18
ENDBRANCH  11  12
ENDBRANCH  10  11
ENDBRANCH   9  10
ENDBRANCH   8   9
ENDBRANCH   7   8
ENDBRANCH   6   7
ENDBRANCH   5   6
ENDBRANCH   4   5
ENDBRANCH   3   4
TORSDOF 16
ENDMDL
MODEL 3
REMARK VINA RESULT: -7.019647892      3.620      6.966
REMARK  16 active torsions:
REMARK  status: ('A' for Active; 'I' for Inactive)
REMARK    1  A    between atoms: C3_3  and  C4_4 
REMARK    2  A    between atoms: C4_4  and  C5_5 
REMARK    3  A    between atoms: C5_5  and  C6_6 
REMARK    4  A    between atoms: C6_6  and  C7_7 
REMARK    5  A    between atoms: C7_7  and  C8_8 
REMARK    6  A    between atoms: C8_8  and  C9_9 
REMARK    7  A    between atoms: C9_9  and  C10_10 
REMARK    8  A    between atoms: C10_10  and  C11_11 
REMARK    9  A    between atoms: C11_11  and  N1_12 
REMARK       I    between atoms: N1_12  and  C12_14 
REMARK       I    between atoms: C12_14  and  N2_16 
REMARK   10  A    between atoms: N2_16  and  C13_18 
REMARK   11  A    between atoms: C14_23  and  C15_24 
REMARK   12  A    between atoms: C15_24  and  O2_25 
REMARK   13  A    between atoms: C15_24  and  C16_27 
REMARK   14  A    between atoms: C18_29  and  O3_30 
REMARK   15  A    between atoms: C19_32  and  C20_33 
REMARK   16  A    between atoms: C20_33  and  O4_34 
ROOT
HETATM    1  C1  UNL     1       4.046  42.427  -4.048  1.00  0.00     0.012 C 
HETATM    2  C2  UNL     1       4.966  42.911  -3.432  1.00  0.00    -0.117 C 
HETATM    3  C3  UNL     1       6.093  43.513  -2.695  1.00  0.00     0.093 C 
ENDROOT
BRANCH   3   4
HETATM    4  C4  UNL     1       7.209  42.516  -2.703  1.00  0.00     0.012 C 
BRANCH   4   5
HETATM    5  C5  UNL     1       8.426  43.082  -3.439  1.00  0.00     0.001 C 
BRANCH   5   6
HETATM    6  C6  UNL     1       8.422  42.534  -4.835  1.00  0.00     0.000 C 
BRANCH   6   7
HETATM    7  C7  UNL     1       7.759  43.488  -5.829  1.00  0.00     0.000 C 
BRANCH   7   8
HETATM    8  C8  UNL     1       8.707  44.611  -6.103  1.00  0.00     0.000 C 
BRANCH   8   9
HETATM    9  C9  UNL     1       9.145  44.652  -7.595  1.00  0.00     0.002 C 
BRANCH   9  10
HETATM   10  C10 UNL     1      10.497  45.182  -7.736  1.00  0.00     0.020 C 
BRANCH  10  11
HETATM   11  C11 UNL     1      11.411  44.729  -8.776  1.00  0.00     0.124 C 
BRANCH  11  12
HETATM   12  N1  UNL     1      11.861  43.385  -8.726  1.00  0.00    -0.343 N 
HETATM   13  C12 UNL     1      12.947  42.903  -7.995  1.00  0.00     0.321 C 
HETATM   14  O1  UNL     1      13.654  43.594  -7.258  1.00  0.00    -0.247 OA
HETATM   15  N2  UNL     1      13.274  41.490  -8.107  1.00  0.00    -0.289 N 
ATOM     16  H2  UNL     1      14.009  41.147  -8.724  1.00  0.00     0.172 HD
ATOM     17  H1  UNL     1      11.339  42.704  -9.279  1.00  0.00     0.164 HD
BRANCH  15  18
HETATM   18  C13 UNL     1      12.567  40.702  -7.368  1.00  0.00     0.193 A 
HETATM   19  N3  UNL     1      12.159  41.007  -6.124  1.00  0.00    -0.279 N 
HETATM   20  N4  UNL     1      11.434  40.176  -5.393  1.00  0.00    -0.285 N 
ATOM     21  H3  UNL     1      12.417  41.911  -5.729  1.00  0.00     0.189 HD
HETATM   22  C14 UNL     1      11.049  38.961  -5.839  1.00  0.00     0.130 A 
ATOM     23  H4  UNL     1      11.155  40.464  -4.455  1.00  0.00     0.188 HD
HETATM   24  N6  UNL     1      11.436  38.616  -7.080  1.00  0.00    -0.307 N 
HETATM   25  C21 UNL     1      12.173  39.449  -7.836  1.00  0.00     0.292 A 
ATOM     26  H6  UNL     1      11.165  37.706  -7.455  1.00  0.00     0.170 HD
HETATM   27  O5  UNL     1      12.526  39.112  -8.995  1.00  0.00    -0.264 OA
BRANCH  22  28
HETATM   28  C15 UNL     1      10.231  38.052  -4.983  1.00  0.00     0.217 C 
BRANCH  28  29
HETATM   29  O2  UNL     1       8.909  37.981  -5.395  1.00  0.00    -0.386 OA
ATOM     30  H2  UNL     1       8.592  37.088  -5.450  1.00  0.00     0.210 HD
ENDBRANCH  28  29
BRANCH  28  31
HETATM   31  C16 UNL     1      10.304  38.582  -3.572  1.00  0.00     0.225 C 
HETATM   32  C17 UNL     1       9.011  39.305  -3.193  1.00  0.00     0.070 C 
HETATM   33  C18 UNL     1       9.140  39.356  -1.685  1.00  0.00     0.153 C 
HETATM   34  C19 UNL     1       9.877  38.093  -1.363  1.00  0.00     0.238 C 
HETATM   35  N5  UNL     1      10.369  37.545  -2.589  1.00  0.00    -0.059 N 
ATOM     36  H52 UNL     1       9.880  36.696  -2.872  1.00  0.00     0.278 HD
ATOM     37  H51 UNL     1      11.299  37.137  -2.500  1.00  0.00     0.278 HD
BRANCH  33  38
HETATM   38  O3  UNL     1       9.961  40.433  -1.354  1.00  0.00    -0.393 OA
ATOM     39  H3  UNL     1      10.861  40.131  -1.353  1.00  0.00     0.210 HD
ENDBRANCH  33  38
BRANCH  34  40
HETATM   40  C20 UNL     1       8.848  37.100  -0.811  1.00  0.00     0.199 C 
BRANCH  40  41
HETATM   41  O4  UNL     1       8.587  36.163  -1.819  1.00  0.00    -0.399 OA
ATOM     42  H4  UNL     1       8.724  35.300  -1.447  1.00  0.00     0.209 HD
ENDBRANCH  40  41
ENDBRANCH  34  40
ENDBRANCH  28  31
ENDBRANCH  22  28
ENDBRANCH  15  18
ENDBRANCH  11  12
ENDBRANCH  10  11
ENDBRANCH   9  10
ENDBRANCH   8   9
ENDBRANCH   7   8
ENDBRANCH   6   7
ENDBRANCH   5   6
ENDBRANCH   4   5
ENDBRANCH   3   4
TORSDOF 16
ENDMDL
MODEL 4
REMARK VINA RESULT: -6.865713159      1.743      3.282
REMARK  16 active torsions:
REMARK  status: ('A' for Active; 'I' for Inactive)
REMARK    1  A    between atoms: C3_3  and  C4_4 
REMARK    2  A    between atoms: C4_4  and  C5_5 
REMARK    3  A    between atoms: C5_5  and  C6_6 
REMARK    4  A    between atoms: C6_6  and  C7_7 
REMARK    5  A    between atoms: C7_7  and  C8_8 
REMARK    6  A    between atoms: C8_8  and  C9_9 
REMARK    7  A    between atoms: C9_9  and  C10_10 
REMARK    8  A    between atoms: C10_10  and  C11_11 
REMARK    9  A    between atoms: C11_11  and  N1_12 
REMARK       I    between atoms: N1_12  and  C12_14 
REMARK       I    between atoms: C12_14  and  N2_16 
REMARK   10  A    between atoms: N2_16  and  C13_18 
REMARK   11  A    between atoms: C14_23  and  C15_24 
REMARK   12  A    between atoms: C15_24  and  O2_25 
REMARK   13  A    between atoms: C15_24  and  C16_27 
REMARK   14  A    between atoms: C18_29  and  O3_30 
REMARK   15  A    between atoms: C19_32  and  C20_33 
REMARK   16  A    between atoms: C20_33  and  O4_34 
ROOT
HETATM    1  C1  UNL     1      13.266  36.961 -11.232  1.00  0.00     0.012 C 
HETATM    2  C2  UNL     1      13.716  37.355 -12.281  1.00  0.00    -0.117 C 
HETATM    3  C3  UNL     1      14.279  37.822 -13.562  1.00  0.00     0.093 C 
ENDROOT
BRANCH   3   4
HETATM    4  C4  UNL     1      14.998  39.106 -13.286  1.00  0.00     0.012 C 
BRANCH   4   5
HETATM    5  C5  UNL     1      14.008  40.271 -13.228  1.00  0.00     0.001 C 
BRANCH   5   6
HETATM    6  C6  UNL     1      14.014  40.817 -11.831  1.00  0.00     0.000 C 
BRANCH   6   7
HETATM    7  C7  UNL     1      14.925  42.036 -11.690  1.00  0.00     0.000 C 
BRANCH   7   8
HETATM    8  C8  UNL     1      14.075  43.222 -11.367  1.00  0.00     0.000 C 
BRANCH   8   9
HETATM    9  C9  UNL     1      12.618  43.051 -11.887  1.00  0.00     0.002 C 
BRANCH   9  10
HETATM   10  C10 UNL     1      11.663  43.729 -11.018  1.00  0.00     0.020 C 
BRANCH  10  11
HETATM   11  C11 UNL     1      10.934  43.034  -9.964  1.00  0.00     0.124 C 
BRANCH  11  12
HETATM   12  N1  UNL     1      11.547  41.904  -9.367  1.00  0.00    -0.343 N 
HETATM   13  C12 UNL     1      12.566  41.922  -8.413  1.00  0.00     0.321 C 
HETATM   14  O1  UNL     1      13.055  42.947  -7.934  1.00  0.00    -0.247 OA
HETATM   15  N2  UNL     1      13.091  40.647  -7.950  1.00  0.00    -0.289 N 
ATOM     16  H2  UNL     1      13.950  40.243  -8.322  1.00  0.00     0.172 HD
ATOM     17  H1  UNL     1      11.210  40.988  -9.663  1.00  0.00     0.164 HD
BRANCH  15  18
HETATM   18  C13 UNL     1      12.393  40.064  -7.034  1.00  0.00     0.193 A 
HETATM   19  N3  UNL     1      11.571  40.715  -6.191  1.00  0.00    -0.279 N 
HETATM   20  N4  UNL     1      10.868  40.087  -5.262  1.00  0.00    -0.285 N 
ATOM     21  H3  UNL     1      11.486  41.729  -6.270  1.00  0.00     0.189 HD
HETATM   22  C14 UNL     1      10.922  38.749  -5.090  1.00  0.00     0.130 A 
ATOM     23  H4  UNL     1      10.262  40.636  -4.652  1.00  0.00     0.188 HD
HETATM   24  N6  UNL     1      11.732  38.059  -5.913  1.00  0.00    -0.307 N 
HETATM   25  C21 UNL     1      12.453  38.682  -6.862  1.00  0.00     0.292 A 
ATOM     26  H6  UNL     1      11.800  37.046  -5.816  1.00  0.00     0.170 HD
HETATM   27  O5  UNL     1      13.206  38.023  -7.624  1.00  0.00    -0.264 OA
BRANCH  22  28
HETATM   28  C15 UNL     1      10.113  38.078  -4.030  1.00  0.00     0.217 C 
BRANCH  28  29
HETATM   29  O2  UNL     1       8.753  38.112  -4.298  1.00  0.00    -0.386 OA
ATOM     30  H2  UNL     1       8.429  37.288  -4.641  1.00  0.00     0.210 HD
ENDBRANCH  28  29
BRANCH  28  31
HETATM   31  C16 UNL     1      10.400  38.790  -2.731  1.00  0.00     0.225 C 
HETATM   32  C17 UNL     1       9.186  39.598  -2.271  1.00  0.00     0.070 C 
HETATM   33  C18 UNL     1       9.538  39.848  -0.820  1.00  0.00     0.153 C 
HETATM   34  C19 UNL     1      10.300  38.616  -0.437  1.00  0.00     0.238 C 
HETATM   35  N5  UNL     1      10.598  37.893  -1.635  1.00  0.00    -0.059 N 
ATOM     36  H52 UNL     1      10.062  37.030  -1.724  1.00  0.00     0.278 HD
ATOM     37  H51 UNL     1      11.526  37.472  -1.626  1.00  0.00     0.278 HD
BRANCH  33  38
HETATM   38  O3  UNL     1      10.411  40.933  -0.763  1.00  0.00    -0.393 OA
ATOM     39  H3  UNL     1      10.745  41.092  -1.639  1.00  0.00     0.210 HD
ENDBRANCH  33  38
BRANCH  34  40
HETATM   40  C20 UNL     1       9.352  37.740   0.390  1.00  0.00     0.199 C 
BRANCH  40  41
HETATM   41  O4  UNL     1       8.757  38.563   1.355  1.00  0.00    -0.399 OA
ATOM     42  H4  UNL     1       9.220  39.391   1.345  1.00  0.00     0.209 HD
ENDBRANCH  40  41
ENDBRANCH  34  40
ENDBRANCH  28  31
ENDBRANCH  22  28
ENDBRANCH  15  18
ENDBRANCH  11  12
ENDBRANCH  10  11
ENDBRANCH   9  10
ENDBRANCH   8   9
ENDBRANCH   7   8
ENDBRANCH   6   7
ENDBRANCH   5   6
ENDBRANCH   4   5
ENDBRANCH   3   4
TORSDOF 16
ENDMDL
MODEL 5
REMARK VINA RESULT: -6.788103524      1.360      1.943
REMARK  16 active torsions:
REMARK  status: ('A' for Active; 'I' for Inactive)
REMARK    1  A    between atoms: C3_3  and  C4_4 
REMARK    2  A    between atoms: C4_4  and  C5_5 
REMARK    3  A    between atoms: C5_5  and  C6_6 
REMARK    4  A    between atoms: C6_6  and  C7_7 
REMARK    5  A    between atoms: C7_7  and  C8_8 
REMARK    6  A    between atoms: C8_8  and  C9_9 
REMARK    7  A    between atoms: C9_9  and  C10_10 
REMARK    8  A    between atoms: C10_10  and  C11_11 
REMARK    9  A    between atoms: C11_11  and  N1_12 
REMARK       I    between atoms: N1_12  and  C12_14 
REMARK       I    between atoms: C12_14  and  N2_16 
REMARK   10  A    between atoms: N2_16  and  C13_18 
REMARK   11  A    between atoms: C14_23  and  C15_24 
REMARK   12  A    between atoms: C15_24  and  O2_25 
REMARK   13  A    between atoms: C15_24  and  C16_27 
REMARK   14  A    between atoms: C18_29  and  O3_30 
REMARK   15  A    between atoms: C19_32  and  C20_33 
REMARK   16  A    between atoms: C20_33  and  O4_34 
ROOT
HETATM    1  C1  UNL     1      13.071  38.144  -9.264  1.00  0.00     0.012 C 
HETATM    2  C2  UNL     1      13.536  37.418 -10.111  1.00  0.00    -0.117 C 
HETATM    3  C3  UNL     1      14.118  36.542 -11.145  1.00  0.00     0.093 C 
ENDROOT
BRANCH   3   4
HETATM    4  C4  UNL     1      13.394  36.828 -12.424  1.00  0.00     0.012 C 
BRANCH   4   5
HETATM    5  C5  UNL     1      14.248  37.713 -13.334  1.00  0.00     0.001 C 
BRANCH   5   6
HETATM    6  C6  UNL     1      13.828  39.138 -13.123  1.00  0.00     0.000 C 
BRANCH   6   7
HETATM    7  C7  UNL     1      15.015  40.102 -13.154  1.00  0.00     0.000 C 
BRANCH   7   8
HETATM    8  C8  UNL     1      16.058  39.590 -12.213  1.00  0.00     0.000 C 
BRANCH   8   9
HETATM    9  C9  UNL     1      15.828  40.097 -10.760  1.00  0.00     0.002 C 
BRANCH   9  10
HETATM   10  C10 UNL     1      16.771  41.154 -10.412  1.00  0.00     0.020 C 
BRANCH  10  11
HETATM   11  C11 UNL     1      16.365  42.544 -10.252  1.00  0.00     0.124 C 
BRANCH  11  12
HETATM   12  N1  UNL     1      15.279  42.823  -9.386  1.00  0.00    -0.343 N 
HETATM   13  C12 UNL     1      13.941  42.972  -9.756  1.00  0.00     0.321 C 
HETATM   14  O1  UNL     1      13.518  42.847 -10.908  1.00  0.00    -0.247 OA
HETATM   15  N2  UNL     1      12.976  43.297  -8.718  1.00  0.00    -0.289 N 
ATOM     16  H2  UNL     1      12.652  44.249  -8.552  1.00  0.00     0.172 HD
ATOM     17  H1  UNL     1      15.495  42.925  -8.394  1.00  0.00     0.164 HD
BRANCH  15  18
HETATM   18  C13 UNL     1      12.558  42.293  -8.021  1.00  0.00     0.193 A 
HETATM   19  N3  UNL     1      13.209  41.801  -6.952  1.00  0.00    -0.279 N 
HETATM   20  N4  UNL     1      12.753  40.771  -6.259  1.00  0.00    -0.285 N 
ATOM     21  H3  UNL     1      14.085  42.238  -6.665  1.00  0.00     0.189 HD
HETATM   22  C14 UNL     1      11.603  40.137  -6.570  1.00  0.00     0.130 A 
ATOM     23  H4  UNL     1      13.292  40.443  -5.457  1.00  0.00     0.188 HD
HETATM   24  N6  UNL     1      10.919  40.597  -7.633  1.00  0.00    -0.307 N 
HETATM   25  C21 UNL     1      11.369  41.643  -8.349  1.00  0.00     0.292 A 
ATOM     26  H6  UNL     1      10.045  40.145  -7.901  1.00  0.00     0.170 HD
HETATM   27  O5  UNL     1      10.718  42.063  -9.340  1.00  0.00    -0.264 OA
BRANCH  22  28
HETATM   28  C15 UNL     1      11.122  38.977  -5.762  1.00  0.00     0.217 C 
BRANCH  28  29
HETATM   29  O2  UNL     1      10.080  38.298  -6.375  1.00  0.00    -0.386 OA
ATOM     30  H2  UNL     1      10.384  37.606  -6.949  1.00  0.00     0.210 HD
ENDBRANCH  28  29
BRANCH  28  31
HETATM   31  C16 UNL     1      10.671  39.519  -4.428  1.00  0.00     0.225 C 
HETATM   32  C17 UNL     1       9.145  39.504  -4.320  1.00  0.00     0.070 C 
HETATM   33  C18 UNL     1       8.959  39.664  -2.827  1.00  0.00     0.153 C 
HETATM   34  C19 UNL     1      10.150  38.956  -2.257  1.00  0.00     0.238 C 
HETATM   35  N5  UNL     1      11.058  38.690  -3.329  1.00  0.00    -0.059 N 
ATOM     36  H52 UNL     1      11.109  37.701  -3.573  1.00  0.00     0.278 HD
ATOM     37  H51 UNL     1      12.035  38.810  -3.063  1.00  0.00     0.278 HD
BRANCH  33  38
HETATM   38  O3  UNL     1       9.070  41.018  -2.516  1.00  0.00    -0.393 OA
ATOM     39  H3  UNL     1       8.760  41.145  -1.627  1.00  0.00     0.210 HD
ENDBRANCH  33  38
BRANCH  34  40
HETATM   40  C20 UNL     1       9.661  37.599  -1.738  1.00  0.00     0.199 C 
BRANCH  40  41
HETATM   41  O4  UNL     1       9.036  36.943  -2.806  1.00  0.00    -0.399 OA
ATOM     42  H4  UNL     1       8.209  37.382  -2.964  1.00  0.00     0.209 HD
ENDBRANCH  40  41
ENDBRANCH  34  40
ENDBRANCH  28  31
ENDBRANCH  22  28
ENDBRANCH  15  18
ENDBRANCH  11  12
ENDBRANCH  10  11
ENDBRANCH   9  10
ENDBRANCH   8   9
ENDBRANCH   7   8
ENDBRANCH   6   7
ENDBRANCH   5   6
ENDBRANCH   4   5
ENDBRANCH   3   4
TORSDOF 16
ENDMDL
