MODEL 1
REMARK VINA RESULT: -6.976362801      0.000      0.000
REMARK  2 active torsions:
REMARK  status: ('A' for Active; 'I' for Inactive)
REMARK    1  A    between atoms: C2_2  and  C3_3 
REMARK    2  A    between atoms: C3_3  and  C4_4 
ROOT
HETATM    1  C4  UNL     1     -27.231  -8.565  27.332  1.00  0.00     0.144 C 
HETATM    2  O1  UNL     1     -26.274  -7.650  27.016  1.00  0.00    -0.223 OA
HETATM    3  O2  UNL     1     -25.414  -7.852  26.129  1.00  0.00    -0.239 OA
HETATM    4  C5  UNL     1     -25.571  -8.593  25.016  1.00  0.00     0.215 C 
HETATM    5  C6  UNL     1     -26.585  -9.604  25.151  1.00  0.00     0.027 C 
HETATM    6  C7  UNL     1     -26.335 -11.050  24.827  1.00  0.00     0.010 C 
HETATM    7  C8  UNL     1     -27.343 -11.802  25.730  1.00  0.00     0.034 C 
HETATM    8  C9  UNL     1     -27.929 -10.705  26.487  1.00  0.00     0.144 C 
HETATM    9  O3  UNL     1     -28.677 -10.885  27.628  1.00  0.00    -0.314 OA
HETATM   10  C10 UNL     1     -28.767  -9.871  28.575  1.00  0.00     0.274 C 
HETATM   11  O4  UNL     1     -29.783  -9.691  29.255  1.00  0.00    -0.264 OA
HETATM   12  C11 UNL     1     -27.567  -9.000  28.740  1.00  0.00     0.113 C 
HETATM   13  C12 UNL     1     -27.472  -8.088  29.872  1.00  0.00     0.031 C 
HETATM   14  C13 UNL     1     -26.474  -8.389  30.996  1.00  0.00    -0.010 C 
HETATM   15  C14 UNL     1     -27.096  -8.835  32.253  1.00  0.00     0.010 C 
HETATM   16  C15 UNL     1     -25.204  -9.159  30.608  1.00  0.00     0.025 C 
HETATM   17  C16 UNL     1     -25.318 -10.662  30.623  1.00  0.00     0.127 C 
HETATM   18  C17 UNL     1     -24.629 -11.186  29.356  1.00  0.00     0.037 C 
HETATM   19  C18 UNL     1     -24.627 -10.045  28.323  1.00  0.00    -0.004 C 
HETATM   20  C19 UNL     1     -25.440 -10.353  27.063  1.00  0.00     0.021 C 
HETATM   21  C20 UNL     1     -26.725  -9.773  26.698  1.00  0.00     0.032 C 
HETATM   22  C21 UNL     1     -25.390  -9.153  29.099  1.00  0.00     0.027 C 
HETATM   23  C22 UNL     1     -26.615 -10.007  29.182  1.00  0.00     0.148 C 
HETATM   24  O5  UNL     1     -26.727 -10.585  30.447  1.00  0.00    -0.378 OA
ENDROOT
BRANCH   1  25
HETATM   25  C3  UNL     1     -28.430  -7.793  27.013  1.00  0.00     0.015 C 
BRANCH  25  26
HETATM   26  C2  UNL     1     -28.415  -6.334  26.857  1.00  0.00    -0.011 C 
HETATM   27  C1  UNL     1     -29.156  -5.563  27.616  1.00  0.00     0.011 C 
ENDBRANCH  25  26
ENDBRANCH   1  25
TORSDOF 2
ENDMDL
MODEL 2
REMARK VINA RESULT: -6.725744979      1.626      3.664
REMARK  2 active torsions:
REMARK  status: ('A' for Active; 'I' for Inactive)
REMARK    1  A    between atoms: C2_2  and  C3_3 
REMARK    2  A    between atoms: C3_3  and  C4_4 
ROOT
HETATM    1  C4  UNL     1     -26.246  -8.828  26.946  1.00  0.00     0.144 C 
HETATM    2  O1  UNL     1     -25.273  -8.512  27.844  1.00  0.00    -0.223 OA
HETATM    3  O2  UNL     1     -24.778  -9.354  28.628  1.00  0.00    -0.239 OA
HETATM    4  C5  UNL     1     -24.625 -10.670  28.395  1.00  0.00     0.215 C 
HETATM    5  C6  UNL     1     -25.557 -11.184  27.428  1.00  0.00     0.027 C 
HETATM    6  C7  UNL     1     -26.417 -12.388  27.690  1.00  0.00     0.010 C 
HETATM    7  C8  UNL     1     -27.653 -12.152  26.789  1.00  0.00     0.034 C 
HETATM    8  C9  UNL     1     -27.365 -10.835  26.240  1.00  0.00     0.144 C 
HETATM    9  O3  UNL     1     -28.304 -10.058  25.601  1.00  0.00    -0.314 OA
HETATM   10  C10 UNL     1     -28.164  -8.676  25.566  1.00  0.00     0.274 C 
HETATM   11  O4  UNL     1     -28.552  -7.997  24.609  1.00  0.00    -0.264 OA
HETATM   12  C11 UNL     1     -27.518  -8.036  26.749  1.00  0.00     0.113 C 
HETATM   13  C12 UNL     1     -27.560  -6.590  26.917  1.00  0.00     0.031 C 
HETATM   14  C13 UNL     1     -28.439  -5.988  28.019  1.00  0.00    -0.010 C 
HETATM   15  C14 UNL     1     -29.645  -5.304  27.524  1.00  0.00     0.010 C 
HETATM   16  C15 UNL     1     -28.666  -6.846  29.272  1.00  0.00     0.025 C 
HETATM   17  C16 UNL     1     -29.818  -7.814  29.204  1.00  0.00     0.127 C 
HETATM   18  C17 UNL     1     -29.333  -9.146  29.793  1.00  0.00     0.037 C 
HETATM   19  C18 UNL     1     -27.799  -9.176  29.670  1.00  0.00    -0.004 C 
HETATM   20  C19 UNL     1     -27.275 -10.289  28.758  1.00  0.00     0.021 C 
HETATM   21  C20 UNL     1     -26.703 -10.122  27.429  1.00  0.00     0.032 C 
HETATM   22  C21 UNL     1     -27.693  -7.970  28.953  1.00  0.00     0.027 C 
HETATM   23  C22 UNL     1     -28.489  -8.409  27.765  1.00  0.00     0.148 C 
HETATM   24  O5  UNL     1     -29.758  -7.829  27.783  1.00  0.00    -0.378 OA
ENDROOT
BRANCH   1  25
HETATM   25  C3  UNL     1     -25.551  -8.506  25.702  1.00  0.00     0.015 C 
BRANCH  25  26
HETATM   26  C2  UNL     1     -24.326  -7.698  25.664  1.00  0.00    -0.011 C 
HETATM   27  C1  UNL     1     -24.315  -6.508  25.112  1.00  0.00     0.011 C 
ENDBRANCH  25  26
ENDBRANCH   1  25
TORSDOF 2
ENDMDL
MODEL 3
REMARK VINA RESULT: -6.724039133      1.885      4.964
REMARK  2 active torsions:
REMARK  status: ('A' for Active; 'I' for Inactive)
REMARK    1  A    between atoms: C2_2  and  C3_3 
REMARK    2  A    between atoms: C3_3  and  C4_4 
ROOT
HETATM    1  C4  UNL     1     -26.229 -10.373  27.738  1.00  0.00     0.144 C 
HETATM    2  O1  UNL     1     -26.194  -9.796  28.971  1.00  0.00    -0.223 OA
HETATM    3  O2  UNL     1     -27.159  -9.844  29.767  1.00  0.00    -0.239 OA
HETATM    4  C5  UNL     1     -28.060 -10.838  29.871  1.00  0.00     0.215 C 
HETATM    5  C6  UNL     1     -28.207 -11.596  28.657  1.00  0.00     0.027 C 
HETATM    6  C7  UNL     1     -29.543 -11.852  28.019  1.00  0.00     0.010 C 
HETATM    7  C8  UNL     1     -29.199 -12.031  26.521  1.00  0.00     0.034 C 
HETATM    8  C9  UNL     1     -27.770 -11.756  26.516  1.00  0.00     0.144 C 
HETATM    9  O3  UNL     1     -27.049 -11.505  25.371  1.00  0.00    -0.314 OA
HETATM   10  C10 UNL     1     -25.877 -10.761  25.429  1.00  0.00     0.274 C 
HETATM   11  O4  UNL     1     -24.924 -10.970  24.670  1.00  0.00    -0.264 OA
HETATM   12  C11 UNL     1     -25.816  -9.683  26.459  1.00  0.00     0.113 C 
HETATM   13  C12 UNL     1     -24.747  -8.694  26.426  1.00  0.00     0.031 C 
HETATM   14  C13 UNL     1     -25.071  -7.252  26.022  1.00  0.00    -0.010 C 
HETATM   15  C14 UNL     1     -24.571  -6.869  24.692  1.00  0.00     0.010 C 
HETATM   16  C15 UNL     1     -26.485  -6.744  26.339  1.00  0.00     0.025 C 
HETATM   17  C16 UNL     1     -27.532  -7.025  25.293  1.00  0.00     0.127 C 
HETATM   18  C17 UNL     1     -28.793  -7.505  26.024  1.00  0.00     0.037 C 
HETATM   19  C18 UNL     1     -28.352  -8.067  27.388  1.00  0.00    -0.004 C 
HETATM   20  C19 UNL     1     -28.634  -9.562  27.560  1.00  0.00     0.021 C 
HETATM   21  C20 UNL     1     -27.649 -10.634  27.560  1.00  0.00     0.032 C 
HETATM   22  C21 UNL     1     -26.971  -7.931  27.155  1.00  0.00     0.027 C 
HETATM   23  C22 UNL     1     -26.907  -8.850  25.978  1.00  0.00     0.148 C 
HETATM   24  O5  UNL     1     -26.779  -8.124  24.794  1.00  0.00    -0.378 OA
ENDROOT
BRANCH   1  25
HETATM   25  C3  UNL     1     -25.130 -11.326  27.878  1.00  0.00     0.015 C 
BRANCH  25  26
HETATM   26  C2  UNL     1     -24.537 -11.669  29.176  1.00  0.00    -0.011 C 
HETATM   27  C1  UNL     1     -24.649 -12.877  29.675  1.00  0.00     0.011 C 
ENDBRANCH  25  26
ENDBRANCH   1  25
TORSDOF 2
ENDMDL
MODEL 4
REMARK VINA RESULT: -6.636233772      1.734      4.804
REMARK  2 active torsions:
REMARK  status: ('A' for Active; 'I' for Inactive)
REMARK    1  A    between atoms: C2_2  and  C3_3 
REMARK    2  A    between atoms: C3_3  and  C4_4 
ROOT
HETATM    1  C4  UNL     1     -26.631  -9.239  29.019  1.00  0.00     0.144 C 
HETATM    2  O1  UNL     1     -26.814  -8.051  29.660  1.00  0.00    -0.223 OA
HETATM    3  O2  UNL     1     -27.929  -7.684  30.095  1.00  0.00    -0.239 OA
HETATM    4  C5  UNL     1     -28.912  -8.483  30.551  1.00  0.00     0.215 C 
HETATM    5  C6  UNL     1     -28.856  -9.813  30.005  1.00  0.00     0.027 C 
HETATM    6  C7  UNL     1     -30.040 -10.471  29.353  1.00  0.00     0.010 C 
HETATM    7  C8  UNL     1     -29.396 -11.468  28.359  1.00  0.00     0.034 C 
HETATM    8  C9  UNL     1     -27.981 -11.162  28.517  1.00  0.00     0.144 C 
HETATM    9  O3  UNL     1     -27.012 -11.583  27.635  1.00  0.00    -0.314 OA
HETATM   10  C10 UNL     1     -25.821 -10.876  27.512  1.00  0.00     0.274 C 
HETATM   11  O4  UNL     1     -24.748 -11.431  27.252  1.00  0.00    -0.264 OA
HETATM   12  C11 UNL     1     -25.895  -9.399  27.709  1.00  0.00     0.113 C 
HETATM   13  C12 UNL     1     -24.764  -8.553  27.351  1.00  0.00     0.031 C 
HETATM   14  C13 UNL     1     -24.872  -7.637  26.126  1.00  0.00    -0.010 C 
HETATM   15  C14 UNL     1     -24.065  -8.071  24.974  1.00  0.00     0.010 C 
HETATM   16  C15 UNL     1     -26.272  -7.125  25.764  1.00  0.00     0.025 C 
HETATM   17  C16 UNL     1     -27.089  -8.024  24.872  1.00  0.00     0.127 C 
HETATM   18  C17 UNL     1     -28.514  -8.062  25.441  1.00  0.00     0.037 C 
HETATM   19  C18 UNL     1     -28.427  -7.698  26.934  1.00  0.00    -0.004 C 
HETATM   20  C19 UNL     1     -28.863  -8.827  27.871  1.00  0.00     0.021 C 
HETATM   21  C20 UNL     1     -27.995  -9.638  28.712  1.00  0.00     0.032 C 
HETATM   22  C21 UNL     1     -27.022  -7.641  26.982  1.00  0.00     0.027 C 
HETATM   23  C22 UNL     1     -26.782  -9.068  26.605  1.00  0.00     0.148 C 
HETATM   24  O5  UNL     1     -26.340  -9.160  25.285  1.00  0.00    -0.378 OA
ENDROOT
BRANCH   1  25
HETATM   25  C3  UNL     1     -25.672  -9.865  29.927  1.00  0.00     0.015 C 
BRANCH  25  26
HETATM   26  C2  UNL     1     -24.951  -9.114  30.961  1.00  0.00    -0.011 C 
HETATM   27  C1  UNL     1     -24.533  -9.700  32.058  1.00  0.00     0.011 C 
ENDBRANCH  25  26
ENDBRANCH   1  25
TORSDOF 2
ENDMDL
MODEL 5
REMARK VINA RESULT: -6.545915931      1.630      4.277
REMARK  2 active torsions:
REMARK  status: ('A' for Active; 'I' for Inactive)
REMARK    1  A    between atoms: C2_2  and  C3_3 
REMARK    2  A    between atoms: C3_3  and  C4_4 
ROOT
HETATM    1  C4  UNL     1     -28.383 -10.660  28.167  1.00  0.00     0.144 C 
HETATM    2  O1  UNL     1     -29.421 -11.098  27.401  1.00  0.00    -0.223 OA
HETATM    3  O2  UNL     1     -29.435 -12.229  26.865  1.00  0.00    -0.239 OA
HETATM    4  C5  UNL     1     -28.856 -13.347  27.342  1.00  0.00     0.215 C 
HETATM    5  C6  UNL     1     -27.745 -13.078  28.216  1.00  0.00     0.027 C 
HETATM    6  C7  UNL     1     -26.393 -13.705  28.024  1.00  0.00     0.010 C 
HETATM    7  C8  UNL     1     -25.425 -12.676  28.655  1.00  0.00     0.034 C 
HETATM    8  C9  UNL     1     -26.338 -11.599  29.011  1.00  0.00     0.144 C 
HETATM    9  O3  UNL     1     -25.920 -10.330  29.343  1.00  0.00    -0.314 OA
HETATM   10  C10 UNL     1     -26.769  -9.244  29.164  1.00  0.00     0.274 C 
HETATM   11  O4  UNL     1     -26.750  -8.261  29.913  1.00  0.00    -0.264 OA
HETATM   12  C11 UNL     1     -27.715  -9.314  28.012  1.00  0.00     0.113 C 
HETATM   13  C12 UNL     1     -28.453  -8.130  27.595  1.00  0.00     0.031 C 
HETATM   14  C13 UNL     1     -28.083  -7.441  26.277  1.00  0.00    -0.010 C 
HETATM   15  C14 UNL     1     -27.399  -6.148  26.441  1.00  0.00     0.010 C 
HETATM   16  C15 UNL     1     -27.502  -8.330  25.169  1.00  0.00     0.025 C 
HETATM   17  C16 UNL     1     -26.010  -8.538  25.209  1.00  0.00     0.127 C 
HETATM   18  C17 UNL     1     -25.746 -10.026  24.945  1.00  0.00     0.037 C 
HETATM   19  C18 UNL     1     -27.024 -10.797  25.324  1.00  0.00    -0.004 C 
HETATM   20  C19 UNL     1     -26.832 -11.775  26.486  1.00  0.00     0.021 C 
HETATM   21  C20 UNL     1     -27.336 -11.617  27.843  1.00  0.00     0.032 C 
HETATM   22  C21 UNL     1     -27.714  -9.682  25.832  1.00  0.00     0.027 C 
HETATM   23  C22 UNL     1     -26.747  -9.369  26.928  1.00  0.00     0.148 C 
HETATM   24  O5  UNL     1     -25.980  -8.250  26.602  1.00  0.00    -0.378 OA
ENDROOT
BRANCH   1  25
HETATM   25  C3  UNL     1     -29.079 -10.454  29.435  1.00  0.00     0.015 C 
BRANCH  25  26
HETATM   26  C2  UNL     1     -30.541 -10.384  29.536  1.00  0.00    -0.011 C 
HETATM   27  C1  UNL     1     -31.128  -9.481  30.285  1.00  0.00     0.011 C 
ENDBRANCH  25  26
ENDBRANCH   1  25
TORSDOF 2
ENDMDL
