MODEL 1
REMARK VINA RESULT: -6.664109622      0.000      0.000
REMARK  2 active torsions:
REMARK  status: ('A' for Active; 'I' for Inactive)
REMARK    1  A    between atoms: O1_2  and  C2_3 
REMARK    2  A    between atoms: C23_26  and  O3_27 
ROOT
HETATM    1  C2  UNL     1     -25.380 -11.845  28.670  1.00  0.00     0.151 C 
HETATM    2  C3  UNL     1     -26.174 -11.792  30.008  1.00  0.00     0.113 C 
HETATM    3  C4  UNL     1     -27.585 -11.835  29.334  1.00  0.00     0.033 C 
HETATM    4  C5  UNL     1     -27.790 -10.432  29.276  1.00  0.00     0.007 C 
HETATM    5  C6  UNL     1     -28.600  -9.382  28.727  1.00  0.00     0.026 C 
HETATM    6  C7  UNL     1     -28.507  -8.179  29.697  1.00  0.00     0.009 C 
HETATM    7  C8  UNL     1     -28.323  -8.471  31.135  1.00  0.00     0.014 C 
HETATM    8  C9  UNL     1     -27.179  -8.826  31.922  1.00  0.00    -0.016 C 
HETATM    9  C10 UNL     1     -27.868  -9.063  33.336  1.00  0.00     0.020 C 
HETATM   10  C11 UNL     1     -26.314  -7.655  32.434  1.00  0.00     0.020 C 
HETATM   11  C12 UNL     1     -26.420 -10.124  31.866  1.00  0.00     0.067 C 
HETATM   12  N1  UNL     1     -25.860 -10.647  30.732  1.00  0.00    -0.385 N 
HETATM   13  C13 UNL     1     -24.875  -9.757  30.199  1.00  0.00     0.123 C 
HETATM   14  C14 UNL     1     -25.652  -8.962  29.139  1.00  0.00     0.033 C 
HETATM   15  C15 UNL     1     -26.680  -9.808  28.606  1.00  0.00     0.005 C 
HETATM   16  C16 UNL     1     -25.869 -10.818  27.744  1.00  0.00     0.060 C 
HETATM   17  C17 UNL     1     -26.625 -11.038  26.535  1.00  0.00     0.159 C 
HETATM   18  O2  UNL     1     -27.861 -10.424  26.747  1.00  0.00    -0.371 OA
HETATM   19  C18 UNL     1     -27.646  -9.333  27.576  1.00  0.00     0.074 C 
HETATM   20  C19 UNL     1     -27.402  -8.065  26.878  1.00  0.00     0.040 C 
HETATM   21  C20 UNL     1     -27.334  -8.334  25.416  1.00  0.00     0.010 C 
HETATM   22  C21 UNL     1     -26.146  -9.093  24.935  1.00  0.00     0.013 C 
HETATM   23  C22 UNL     1     -24.836  -8.365  25.226  1.00  0.00     0.012 C 
HETATM   24  C23 UNL     1     -26.077 -10.523  25.242  1.00  0.00     0.151 C 
ENDROOT
BRANCH   1  25
HETATM   25  O1  UNL     1     -25.758 -13.100  28.133  1.00  0.00    -0.388 OA
HETATM   26  C1  UNL     1     -25.053 -14.139  28.735  1.00  0.00     0.202 C 
ENDBRANCH   1  25
BRANCH  24  27
HETATM   27  O3  UNL     1     -26.704 -11.248  24.197  1.00  0.00    -0.393 OA
ATOM     28  H3  UNL     1     -27.366 -10.683  23.818  1.00  0.00     0.210 HD
ENDBRANCH  24  27
TORSDOF 2
ENDMDL
MODEL 2
REMARK VINA RESULT: -6.660676733      0.992      1.065
REMARK  2 active torsions:
REMARK  status: ('A' for Active; 'I' for Inactive)
REMARK    1  A    between atoms: O1_2  and  C2_3 
REMARK    2  A    between atoms: C23_26  and  O3_27 
ROOT
HETATM    1  C2  UNL     1     -25.366 -11.469  28.881  1.00  0.00     0.151 C 
HETATM    2  C3  UNL     1     -26.554 -11.630  29.872  1.00  0.00     0.113 C 
HETATM    3  C4  UNL     1     -27.623 -11.914  28.765  1.00  0.00     0.033 C 
HETATM    4  C5  UNL     1     -28.068 -10.576  28.609  1.00  0.00     0.007 C 
HETATM    5  C6  UNL     1     -28.838  -9.679  27.796  1.00  0.00     0.026 C 
HETATM    6  C7  UNL     1     -29.313  -8.525  28.712  1.00  0.00     0.009 C 
HETATM    7  C8  UNL     1     -29.566  -8.839  30.135  1.00  0.00     0.014 C 
HETATM    8  C9  UNL     1     -28.703  -9.002  31.268  1.00  0.00    -0.016 C 
HETATM    9  C10 UNL     1     -29.763  -9.430  32.374  1.00  0.00     0.020 C 
HETATM   10  C11 UNL     1     -28.307  -7.710  32.013  1.00  0.00     0.020 C 
HETATM   11  C12 UNL     1     -27.729 -10.125  31.500  1.00  0.00     0.067 C 
HETATM   12  N1  UNL     1     -26.732 -10.479  30.633  1.00  0.00    -0.385 N 
HETATM   13  C13 UNL     1     -25.821  -9.393  30.440  1.00  0.00     0.123 C 
HETATM   14  C14 UNL     1     -26.340  -8.717  29.164  1.00  0.00     0.033 C 
HETATM   15  C15 UNL     1     -26.944  -9.720  28.336  1.00  0.00     0.005 C 
HETATM   16  C16 UNL     1     -25.710 -10.516  27.820  1.00  0.00     0.060 C 
HETATM   17  C17 UNL     1     -25.960 -10.823  26.433  1.00  0.00     0.159 C 
HETATM   18  O2  UNL     1     -27.292 -10.469  26.203  1.00  0.00    -0.371 OA
HETATM   19  C18 UNL     1     -27.584  -9.395  27.030  1.00  0.00     0.074 C 
HETATM   20  C19 UNL     1     -27.376  -8.074  26.426  1.00  0.00     0.040 C 
HETATM   21  C20 UNL     1     -26.773  -8.260  25.078  1.00  0.00     0.010 C 
HETATM   22  C21 UNL     1     -25.367  -8.753  25.042  1.00  0.00     0.013 C 
HETATM   23  C22 UNL     1     -24.400  -7.799  25.738  1.00  0.00     0.012 C 
HETATM   24  C23 UNL     1     -25.125 -10.155  25.387  1.00  0.00     0.151 C 
ENDROOT
BRANCH   1  25
HETATM   25  O1  UNL     1     -25.289 -12.749  28.277  1.00  0.00    -0.388 OA
HETATM   26  C1  UNL     1     -24.731 -13.682  29.146  1.00  0.00     0.202 C 
ENDBRANCH   1  25
BRANCH  24  27
HETATM   27  O3  UNL     1     -25.212 -10.940  24.210  1.00  0.00    -0.393 OA
ATOM     28  H3  UNL     1     -24.814 -10.441  23.506  1.00  0.00     0.210 HD
ENDBRANCH  24  27
TORSDOF 2
ENDMDL
MODEL 3
REMARK VINA RESULT: -6.450304856      1.729      3.991
REMARK  2 active torsions:
REMARK  status: ('A' for Active; 'I' for Inactive)
REMARK    1  A    between atoms: O1_2  and  C2_3 
REMARK    2  A    between atoms: C23_26  and  O3_27 
ROOT
HETATM    1  C2  UNL     1     -27.467  -8.879  27.264  1.00  0.00     0.151 C 
HETATM    2  C3  UNL     1     -26.343  -8.387  28.222  1.00  0.00     0.113 C 
HETATM    3  C4  UNL     1     -25.204  -9.211  27.536  1.00  0.00     0.033 C 
HETATM    4  C5  UNL     1     -25.284 -10.350  28.378  1.00  0.00     0.007 C 
HETATM    5  C6  UNL     1     -24.872 -11.713  28.558  1.00  0.00     0.026 C 
HETATM    6  C7  UNL     1     -24.897 -12.001  30.079  1.00  0.00     0.009 C 
HETATM    7  C8  UNL     1     -24.601 -10.878  30.994  1.00  0.00     0.014 C 
HETATM    8  C9  UNL     1     -25.384  -9.780  31.480  1.00  0.00    -0.016 C 
HETATM    9  C10 UNL     1     -24.284  -8.995  32.319  1.00  0.00     0.020 C 
HETATM   10  C11 UNL     1     -26.261 -10.064  32.717  1.00  0.00     0.020 C 
HETATM   11  C12 UNL     1     -25.878  -8.607  30.678  1.00  0.00     0.067 C 
HETATM   12  N1  UNL     1     -26.637  -8.706  29.544  1.00  0.00    -0.385 N 
HETATM   13  C13 UNL     1     -27.878  -9.360  29.824  1.00  0.00     0.123 C 
HETATM   14  C14 UNL     1     -27.600 -10.824  29.456  1.00  0.00     0.033 C 
HETATM   15  C15 UNL     1     -26.634 -10.846  28.396  1.00  0.00     0.005 C 
HETATM   16  C16 UNL     1     -27.462 -10.343  27.178  1.00  0.00     0.060 C 
HETATM   17  C17 UNL     1     -27.062 -11.139  26.043  1.00  0.00     0.159 C 
HETATM   18  O2  UNL     1     -25.950 -11.870  26.468  1.00  0.00    -0.371 OA
HETATM   19  C18 UNL     1     -26.111 -12.118  27.823  1.00  0.00     0.074 C 
HETATM   20  C19 UNL     1     -26.773 -13.388  28.145  1.00  0.00     0.040 C 
HETATM   21  C20 UNL     1     -27.211 -14.029  26.875  1.00  0.00     0.010 C 
HETATM   22  C21 UNL     1     -28.329 -13.365  26.147  1.00  0.00     0.013 C 
HETATM   23  C22 UNL     1     -29.608 -13.307  26.979  1.00  0.00     0.012 C 
HETATM   24  C23 UNL     1     -28.045 -12.104  25.460  1.00  0.00     0.151 C 
ENDROOT
BRANCH   1  25
HETATM   25  O1  UNL     1     -27.038  -8.390  26.005  1.00  0.00    -0.388 OA
HETATM   26  C1  UNL     1     -28.017  -7.595  25.415  1.00  0.00     0.202 C 
ENDBRANCH   1  25
BRANCH  24  27
HETATM   27  O3  UNL     1     -27.626 -12.387  24.136  1.00  0.00    -0.393 OA
ATOM     28  H3  UNL     1     -26.909 -11.798  23.933  1.00  0.00     0.210 HD
ENDBRANCH  24  27
TORSDOF 2
ENDMDL
MODEL 4
REMARK VINA RESULT: -6.434457261      2.401      5.004
REMARK  2 active torsions:
REMARK  status: ('A' for Active; 'I' for Inactive)
REMARK    1  A    between atoms: O1_2  and  C2_3 
REMARK    2  A    between atoms: C23_26  and  O3_27 
ROOT
HETATM    1  C2  UNL     1     -28.479 -12.622  27.218  1.00  0.00     0.151 C 
HETATM    2  C3  UNL     1     -28.319 -11.509  26.142  1.00  0.00     0.113 C 
HETATM    3  C4  UNL     1     -26.842 -11.875  25.781  1.00  0.00     0.033 C 
HETATM    4  C5  UNL     1     -26.216 -10.964  26.670  1.00  0.00     0.007 C 
HETATM    5  C6  UNL     1     -24.978 -10.580  27.284  1.00  0.00     0.026 C 
HETATM    6  C7  UNL     1     -25.085  -9.075  27.629  1.00  0.00     0.009 C 
HETATM    7  C8  UNL     1     -25.914  -8.227  26.745  1.00  0.00     0.014 C 
HETATM    8  C9  UNL     1     -27.327  -8.011  26.642  1.00  0.00    -0.016 C 
HETATM    9  C10 UNL     1     -27.376  -7.046  25.378  1.00  0.00     0.020 C 
HETATM   10  C11 UNL     1     -27.925  -6.952  27.592  1.00  0.00     0.020 C 
HETATM   11  C12 UNL     1     -28.353  -9.000  26.160  1.00  0.00     0.067 C 
HETATM   12  N1  UNL     1     -28.536 -10.249  26.689  1.00  0.00    -0.385 N 
HETATM   13  C13 UNL     1     -28.900 -10.163  28.070  1.00  0.00     0.123 C 
HETATM   14  C14 UNL     1     -27.560 -10.330  28.801  1.00  0.00     0.033 C 
HETATM   15  C15 UNL     1     -26.714 -11.170  28.004  1.00  0.00     0.005 C 
HETATM   16  C16 UNL     1     -27.371 -12.569  28.178  1.00  0.00     0.060 C 
HETATM   17  C17 UNL     1     -26.297 -13.523  28.307  1.00  0.00     0.159 C 
HETATM   18  O2  UNL     1     -25.129 -12.819  28.004  1.00  0.00    -0.371 OA
HETATM   19  C18 UNL     1     -25.320 -11.506  28.409  1.00  0.00     0.074 C 
HETATM   20  C19 UNL     1     -24.865 -11.207  29.771  1.00  0.00     0.040 C 
HETATM   21  C20 UNL     1     -24.413 -12.474  30.409  1.00  0.00     0.010 C 
HETATM   22  C21 UNL     1     -25.474 -13.468  30.735  1.00  0.00     0.013 C 
HETATM   23  C22 UNL     1     -26.501 -12.917  31.721  1.00  0.00     0.012 C 
HETATM   24  C23 UNL     1     -26.091 -14.199  29.626  1.00  0.00     0.151 C 
ENDROOT
BRANCH   1  25
HETATM   25  O1  UNL     1     -28.316 -13.810  26.463  1.00  0.00    -0.388 OA
HETATM   26  C1  UNL     1     -29.547 -14.366  26.127  1.00  0.00     0.202 C 
ENDBRANCH   1  25
BRANCH  24  27
HETATM   27  O3  UNL     1     -25.347 -15.381  29.385  1.00  0.00    -0.393 OA
ATOM     28  H3  UNL     1     -25.554 -15.993  30.080  1.00  0.00     0.210 HD
ENDBRANCH  24  27
TORSDOF 2
ENDMDL
MODEL 5
REMARK VINA RESULT: -6.212982224      2.225      4.872
REMARK  2 active torsions:
REMARK  status: ('A' for Active; 'I' for Inactive)
REMARK    1  A    between atoms: O1_2  and  C2_3 
REMARK    2  A    between atoms: C23_26  and  O3_27 
ROOT
HETATM    1  C2  UNL     1     -26.009 -10.640  29.997  1.00  0.00     0.151 C 
HETATM    2  C3  UNL     1     -25.519  -9.329  29.317  1.00  0.00     0.113 C 
HETATM    3  C4  UNL     1     -26.894  -8.590  29.430  1.00  0.00     0.033 C 
HETATM    4  C5  UNL     1     -27.388  -8.949  28.149  1.00  0.00     0.007 C 
HETATM    5  C6  UNL     1     -28.544  -8.985  27.300  1.00  0.00     0.026 C 
HETATM    6  C7  UNL     1     -28.039  -8.951  25.837  1.00  0.00     0.009 C 
HETATM    7  C8  UNL     1     -26.784  -8.218  25.563  1.00  0.00     0.014 C 
HETATM    8  C9  UNL     1     -25.400  -8.552  25.731  1.00  0.00    -0.016 C 
HETATM    9  C10 UNL     1     -24.721  -7.180  25.299  1.00  0.00     0.020 C 
HETATM   10  C11 UNL     1     -24.747  -9.347  24.581  1.00  0.00     0.020 C 
HETATM   11  C12 UNL     1     -24.670  -8.718  27.036  1.00  0.00     0.067 C 
HETATM   12  N1  UNL     1     -25.046  -9.577  28.033  1.00  0.00    -0.385 N 
HETATM   13  C13 UNL     1     -25.033 -10.929  27.565  1.00  0.00     0.123 C 
HETATM   14  C14 UNL     1     -26.491 -11.176  27.153  1.00  0.00     0.033 C 
HETATM   15  C15 UNL     1     -27.338 -10.379  27.994  1.00  0.00     0.005 C 
HETATM   16  C16 UNL     1     -27.242 -11.116  29.360  1.00  0.00     0.060 C 
HETATM   17  C17 UNL     1     -28.566 -11.109  29.934  1.00  0.00     0.159 C 
HETATM   18  O2  UNL     1     -29.322 -10.257  29.125  1.00  0.00    -0.371 OA
HETATM   19  C18 UNL     1     -28.819 -10.354  27.836  1.00  0.00     0.074 C 
HETATM   20  C19 UNL     1     -29.478 -11.355  26.990  1.00  0.00     0.040 C 
HETATM   21  C20 UNL     1     -30.465 -12.100  27.818  1.00  0.00     0.010 C 
HETATM   22  C21 UNL     1     -29.908 -13.011  28.857  1.00  0.00     0.013 C 
HETATM   23  C22 UNL     1     -29.039 -14.113  28.256  1.00  0.00     0.012 C 
HETATM   24  C23 UNL     1     -29.307 -12.404  30.047  1.00  0.00     0.151 C 
ENDROOT
BRANCH   1  25
HETATM   25  O1  UNL     1     -26.358 -10.203  31.299  1.00  0.00    -0.388 OA
HETATM   26  C1  UNL     1     -25.434 -10.644  32.242  1.00  0.00     0.202 C 
ENDBRANCH   1  25
BRANCH  24  27
HETATM   27  O3  UNL     1     -30.311 -12.232  31.032  1.00  0.00    -0.393 OA
ATOM     28  H3  UNL     1     -30.641 -13.095  31.254  1.00  0.00     0.210 HD
ENDBRANCH  24  27
TORSDOF 2
ENDMDL
