MODEL 1
REMARK VINA RESULT: -8.290520061      0.000      0.000
REMARK  5 active torsions:
REMARK  status: ('A' for Active; 'I' for Inactive)
REMARK    1  A    between atoms: N1_6  and  C6_7 
REMARK    2  A    between atoms: C9_10  and  C10_11 
REMARK       I    between atoms: C10_11  and  N2_13 
REMARK    3  A    between atoms: N2_13  and  C11_15 
REMARK    4  A    between atoms: C14_18  and  C15_20 
REMARK    5  A    between atoms: C15_20  and  N3_21 
REMARK       I    between atoms: N3_21  and  C16_23 
ROOT
HETATM    1  C10 UNL     1      18.060 -24.349 -42.321  1.00  0.00     0.258 C 
HETATM    2  O1  UNL     1      18.124 -25.177 -43.261  1.00  0.00    -0.267 OA
HETATM    3  N2  UNL     1      19.023 -23.318 -42.196  1.00  0.00    -0.352 N 
ATOM      4  H2  UNL     1      18.947 -22.660 -41.421  1.00  0.00     0.163 HD
ENDROOT
BRANCH   3   5
HETATM    5  C11 UNL     1      20.109 -23.173 -43.135  1.00  0.00     0.085 C 
HETATM    6  C12 UNL     1      21.318 -22.528 -42.545  1.00  0.00     0.028 C 
HETATM    7  C13 UNL     1      21.398 -21.051 -42.741  1.00  0.00     0.047 C 
HETATM    8  C14 UNL     1      21.200 -20.605 -44.158  1.00  0.00     0.119 C 
HETATM    9  F1  UNL     1      20.094 -19.778 -44.204  1.00  0.00    -0.241 F 
HETATM   10  C17 UNL     1      20.893 -21.822 -45.006  1.00  0.00     0.047 C 
HETATM   11  C18 UNL     1      19.630 -22.447 -44.399  1.00  0.00     0.028 C 
BRANCH   8  12
HETATM   12  C15 UNL     1      22.410 -19.874 -44.705  1.00  0.00     0.165 C 
BRANCH  12  13
HETATM   13  N3  UNL     1      23.517 -20.803 -44.814  1.00  0.00    -0.362 N 
HETATM   14  C16 UNL     1      24.847 -20.295 -44.748  1.00  0.00     0.181 C 
HETATM   15  N4  UNL     1      25.340 -20.090 -43.590  1.00  0.00    -0.374 N 
HETATM   16  N5  UNL     1      25.619 -20.018 -45.898  1.00  0.00    -0.064 NA
ATOM     17  H42 UNL     1      24.782 -20.291 -42.760  1.00  0.00     0.158 HD
ATOM     18  H41 UNL     1      26.292 -19.727 -43.543  1.00  0.00     0.158 HD
ATOM     19  H3  UNL     1      23.347 -21.802 -44.934  1.00  0.00     0.162 HD
ENDBRANCH  12  13
ENDBRANCH   8  12
ENDBRANCH   3   5
BRANCH   1  20
HETATM   20  C9  UNL     1      16.955 -24.498 -41.368  1.00  0.00     0.074 A 
HETATM   21  C8  UNL     1      15.815 -25.232 -41.541  1.00  0.00     0.027 A 
HETATM   22  C7  UNL     1      14.922 -25.242 -40.548  1.00  0.00     0.038 A 
HETATM   23  C6  UNL     1      15.205 -24.517 -39.423  1.00  0.00     0.073 A 
HETATM   24  S1  UNL     1      16.749 -23.837 -39.814  1.00  0.00    -0.067 SA
BRANCH  23  25
HETATM   25  N1  UNL     1      14.442 -24.353 -38.230  1.00  0.00    -0.367 N 
HETATM   26  C5  UNL     1      14.433 -25.401 -37.252  1.00  0.00     0.128 C 
HETATM   27  C4  UNL     1      14.961 -24.730 -35.970  1.00  0.00     0.047 C 
HETATM   28  C3  UNL     1      13.984 -23.656 -35.653  1.00  0.00    -0.021 C 
HETATM   29  C2  UNL     1      13.388 -22.915 -36.574  1.00  0.00    -0.065 C 
HETATM   30  C1  UNL     1      12.404 -21.836 -36.187  1.00  0.00     0.045 C 
HETATM   31  C19 UNL     1      13.690 -23.146 -38.007  1.00  0.00     0.109 C 
HETATM   32  C20 UNL     1      12.443 -23.090 -38.864  1.00  0.00     0.037 C 
ENDBRANCH  23  25
ENDBRANCH   1  20
TORSDOF 5
ENDMDL
MODEL 2
REMARK VINA RESULT: -8.160537838      1.663      1.993
REMARK  5 active torsions:
REMARK  status: ('A' for Active; 'I' for Inactive)
REMARK    1  A    between atoms: N1_6  and  C6_7 
REMARK    2  A    between atoms: C9_10  and  C10_11 
REMARK       I    between atoms: C10_11  and  N2_13 
REMARK    3  A    between atoms: N2_13  and  C11_15 
REMARK    4  A    between atoms: C14_18  and  C15_20 
REMARK    5  A    between atoms: C15_20  and  N3_21 
REMARK       I    between atoms: N3_21  and  C16_23 
ROOT
HETATM    1  C10 UNL     1      19.097 -23.698 -42.348  1.00  0.00     0.258 C 
HETATM    2  O1  UNL     1      19.097 -24.625 -43.191  1.00  0.00    -0.267 OA
HETATM    3  N2  UNL     1      20.091 -22.689 -42.378  1.00  0.00    -0.352 N 
ATOM      4  H2  UNL     1      20.066 -21.947 -41.679  1.00  0.00     0.163 HD
ENDROOT
BRANCH   3   5
HETATM    5  C11 UNL     1      21.137 -22.682 -43.372  1.00  0.00     0.085 C 
HETATM    6  C12 UNL     1      22.448 -22.202 -42.845  1.00  0.00     0.028 C 
HETATM    7  C13 UNL     1      22.709 -20.747 -43.049  1.00  0.00     0.047 C 
HETATM    8  C14 UNL     1      22.498 -20.273 -44.455  1.00  0.00     0.119 C 
HETATM    9  F1  UNL     1      21.509 -19.309 -44.446  1.00  0.00    -0.241 F 
HETATM   10  C17 UNL     1      21.994 -21.436 -45.283  1.00  0.00     0.047 C 
HETATM   11  C18 UNL     1      20.693 -21.895 -44.611  1.00  0.00     0.028 C 
BRANCH   8  12
HETATM   12  C15 UNL     1      23.764 -19.703 -45.064  1.00  0.00     0.165 C 
BRANCH  12  13
HETATM   13  N3  UNL     1      24.018 -18.394 -44.495  1.00  0.00    -0.362 N 
HETATM   14  C16 UNL     1      24.582 -17.383 -45.326  1.00  0.00     0.181 C 
HETATM   15  N4  UNL     1      23.785 -16.727 -46.075  1.00  0.00    -0.374 N 
HETATM   16  N5  UNL     1      25.964 -17.091 -45.348  1.00  0.00    -0.064 NA
ATOM     17  H42 UNL     1      22.787 -16.938 -46.059  1.00  0.00     0.158 HD
ATOM     18  H41 UNL     1      24.189 -16.003 -46.670  1.00  0.00     0.158 HD
ATOM     19  H3  UNL     1      23.797 -18.201 -43.519  1.00  0.00     0.162 HD
ENDBRANCH  12  13
ENDBRANCH   8  12
ENDBRANCH   3   5
BRANCH   1  20
HETATM   20  C9  UNL     1      18.032 -23.706 -41.338  1.00  0.00     0.074 A 
HETATM   21  C8  UNL     1      17.997 -22.987 -40.176  1.00  0.00     0.027 A 
HETATM   22  C7  UNL     1      16.932 -23.133 -39.383  1.00  0.00     0.038 A 
HETATM   23  C6  UNL     1      15.946 -23.992 -39.785  1.00  0.00     0.073 A 
HETATM   24  S1  UNL     1      16.568 -24.572 -41.293  1.00  0.00    -0.067 SA
BRANCH  23  25
HETATM   25  N1  UNL     1      14.720 -24.333 -39.144  1.00  0.00    -0.367 N 
HETATM   26  C5  UNL     1      14.217 -25.671 -39.255  1.00  0.00     0.128 C 
HETATM   27  C4  UNL     1      14.105 -26.158 -37.798  1.00  0.00     0.047 C 
HETATM   28  C3  UNL     1      13.131 -25.244 -37.148  1.00  0.00    -0.021 C 
HETATM   29  C2  UNL     1      13.062 -23.947 -37.405  1.00  0.00    -0.065 C 
HETATM   30  C1  UNL     1      12.048 -23.069 -36.708  1.00  0.00     0.045 C 
HETATM   31  C19 UNL     1      13.992 -23.345 -38.390  1.00  0.00     0.109 C 
HETATM   32  C20 UNL     1      13.295 -22.348 -39.291  1.00  0.00     0.037 C 
ENDBRANCH  23  25
ENDBRANCH   1  20
TORSDOF 5
ENDMDL
MODEL 3
REMARK VINA RESULT: -8.135074039      2.692      3.612
REMARK  5 active torsions:
REMARK  status: ('A' for Active; 'I' for Inactive)
REMARK    1  A    between atoms: N1_6  and  C6_7 
REMARK    2  A    between atoms: C9_10  and  C10_11 
REMARK       I    between atoms: C10_11  and  N2_13 
REMARK    3  A    between atoms: N2_13  and  C11_15 
REMARK    4  A    between atoms: C14_18  and  C15_20 
REMARK    5  A    between atoms: C15_20  and  N3_21 
REMARK       I    between atoms: N3_21  and  C16_23 
ROOT
HETATM    1  C10 UNL     1      18.454 -24.496 -44.757  1.00  0.00     0.258 C 
HETATM    2  O1  UNL     1      18.527 -24.343 -45.999  1.00  0.00    -0.267 OA
HETATM    3  N2  UNL     1      19.395 -23.884 -43.893  1.00  0.00    -0.352 N 
ATOM      4  H2  UNL     1      19.311 -24.028 -42.887  1.00  0.00     0.163 HD
ENDROOT
BRANCH   3   5
HETATM    5  C11 UNL     1      20.468 -23.063 -44.398  1.00  0.00     0.085 C 
HETATM    6  C12 UNL     1      21.680 -23.076 -43.528  1.00  0.00     0.028 C 
HETATM    7  C13 UNL     1      21.750 -21.964 -42.535  1.00  0.00     0.047 C 
HETATM    8  C14 UNL     1      21.532 -20.601 -43.118  1.00  0.00     0.119 C 
HETATM    9  F1  UNL     1      20.421 -20.042 -42.517  1.00  0.00    -0.241 F 
HETATM   10  C17 UNL     1      21.223 -20.754 -44.593  1.00  0.00     0.047 C 
HETATM   11  C18 UNL     1      19.971 -21.638 -44.669  1.00  0.00     0.028 C 
BRANCH   8  12
HETATM   12  C15 UNL     1      22.731 -19.695 -42.924  1.00  0.00     0.165 C 
BRANCH  12  13
HETATM   13  N3  UNL     1      23.927 -20.506 -42.811  1.00  0.00    -0.362 N 
HETATM   14  C16 UNL     1      24.806 -20.591 -43.929  1.00  0.00     0.181 C 
HETATM   15  N4  UNL     1      25.652 -19.650 -44.083  1.00  0.00    -0.374 N 
HETATM   16  N5  UNL     1      24.772 -21.660 -44.852  1.00  0.00    -0.064 NA
ATOM     17  H42 UNL     1      25.677 -18.878 -43.416  1.00  0.00     0.158 HD
ATOM     18  H41 UNL     1      26.282 -19.710 -44.884  1.00  0.00     0.158 HD
ATOM     19  H3  UNL     1      24.135 -21.007 -41.947  1.00  0.00     0.162 HD
ENDBRANCH  12  13
ENDBRANCH   8  12
ENDBRANCH   3   5
BRANCH   1  20
HETATM   20  C9  UNL     1      17.361 -25.331 -44.246  1.00  0.00     0.074 A 
HETATM   21  C8  UNL     1      16.629 -26.247 -44.950  1.00  0.00     0.027 A 
HETATM   22  C7  UNL     1      15.670 -26.912 -44.300  1.00  0.00     0.038 A 
HETATM   23  C6  UNL     1      15.481 -26.634 -42.975  1.00  0.00     0.073 A 
HETATM   24  S1  UNL     1      16.686 -25.423 -42.687  1.00  0.00    -0.067 SA
BRANCH  23  25
HETATM   25  N1  UNL     1      14.544 -27.186 -42.053  1.00  0.00    -0.367 N 
HETATM   26  C5  UNL     1      13.713 -28.279 -42.466  1.00  0.00     0.128 C 
HETATM   27  C4  UNL     1      14.039 -29.404 -41.465  1.00  0.00     0.047 C 
HETATM   28  C3  UNL     1      13.651 -28.874 -40.133  1.00  0.00    -0.021 C 
HETATM   29  C2  UNL     1      13.823 -27.613 -39.769  1.00  0.00    -0.065 C 
HETATM   30  C1  UNL     1      13.408 -27.136 -38.396  1.00  0.00     0.045 C 
HETATM   31  C19 UNL     1      14.433 -26.653 -40.720  1.00  0.00     0.109 C 
HETATM   32  C20 UNL     1      13.728 -25.314 -40.704  1.00  0.00     0.037 C 
ENDBRANCH  23  25
ENDBRANCH   1  20
TORSDOF 5
ENDMDL
MODEL 4
REMARK VINA RESULT: -8.054064616      3.146      4.199
REMARK  5 active torsions:
REMARK  status: ('A' for Active; 'I' for Inactive)
REMARK    1  A    between atoms: N1_6  and  C6_7 
REMARK    2  A    between atoms: C9_10  and  C10_11 
REMARK       I    between atoms: C10_11  and  N2_13 
REMARK    3  A    between atoms: N2_13  and  C11_15 
REMARK    4  A    between atoms: C14_18  and  C15_20 
REMARK    5  A    between atoms: C15_20  and  N3_21 
REMARK       I    between atoms: N3_21  and  C16_23 
ROOT
HETATM    1  C10 UNL     1      19.646 -22.522 -42.270  1.00  0.00     0.258 C 
HETATM    2  O1  UNL     1      19.428 -21.730 -41.323  1.00  0.00    -0.267 OA
HETATM    3  N2  UNL     1      20.781 -22.364 -43.103  1.00  0.00    -0.352 N 
ATOM      4  H2  UNL     1      20.931 -23.023 -43.866  1.00  0.00     0.163 HD
ENDROOT
BRANCH   3   5
HETATM    5  C11 UNL     1      21.729 -21.296 -42.900  1.00  0.00     0.085 C 
HETATM    6  C12 UNL     1      21.804 -20.346 -44.048  1.00  0.00     0.028 C 
HETATM    7  C13 UNL     1      22.873 -20.651 -45.044  1.00  0.00     0.047 C 
HETATM    8  C14 UNL     1      24.231 -20.866 -44.446  1.00  0.00     0.119 C 
HETATM    9  F1  UNL     1      24.645 -22.147 -44.755  1.00  0.00    -0.241 F 
HETATM   10  C17 UNL     1      24.111 -20.778 -42.939  1.00  0.00     0.047 C 
HETATM   11  C18 UNL     1      23.106 -21.865 -42.535  1.00  0.00     0.028 C 
BRANCH   8  12
HETATM   12  C15 UNL     1      25.247 -19.862 -44.953  1.00  0.00     0.165 C 
BRANCH  12  13
HETATM   13  N3  UNL     1      24.556 -18.806 -45.666  1.00  0.00    -0.362 N 
HETATM   14  C16 UNL     1      25.143 -17.508 -45.705  1.00  0.00     0.181 C 
HETATM   15  N4  UNL     1      26.041 -17.297 -46.585  1.00  0.00    -0.374 N 
HETATM   16  N5  UNL     1      24.770 -16.471 -44.821  1.00  0.00    -0.064 NA
ATOM     17  H42 UNL     1      26.310 -18.046 -47.223  1.00  0.00     0.158 HD
ATOM     18  H41 UNL     1      26.461 -16.367 -46.613  1.00  0.00     0.158 HD
ATOM     19  H3  UNL     1      23.667 -18.989 -46.132  1.00  0.00     0.162 HD
ENDBRANCH  12  13
ENDBRANCH   8  12
ENDBRANCH   3   5
BRANCH   1  20
HETATM   20  C9  UNL     1      18.680 -23.608 -42.475  1.00  0.00     0.074 A 
HETATM   21  C8  UNL     1      18.566 -24.408 -43.578  1.00  0.00     0.027 A 
HETATM   22  C7  UNL     1      17.617 -25.347 -43.572  1.00  0.00     0.038 A 
HETATM   23  C6  UNL     1      16.820 -25.448 -42.465  1.00  0.00     0.073 A 
HETATM   24  S1  UNL     1      17.452 -24.192 -41.454  1.00  0.00    -0.067 SA
BRANCH  23  25
HETATM   25  N1  UNL     1      15.747 -26.346 -42.194  1.00  0.00    -0.367 N 
HETATM   26  C5  UNL     1      15.630 -27.552 -42.961  1.00  0.00     0.128 C 
HETATM   27  C4  UNL     1      15.683 -28.677 -41.910  1.00  0.00     0.047 C 
HETATM   28  C3  UNL     1      14.508 -28.453 -41.029  1.00  0.00    -0.021 C 
HETATM   29  C2  UNL     1      14.080 -27.253 -40.672  1.00  0.00    -0.065 C 
HETATM   30  C1  UNL     1      12.877 -27.092 -39.771  1.00  0.00     0.045 C 
HETATM   31  C19 UNL     1      14.790 -26.047 -41.161  1.00  0.00     0.109 C 
HETATM   32  C20 UNL     1      13.829 -24.955 -41.580  1.00  0.00     0.037 C 
ENDBRANCH  23  25
ENDBRANCH   1  20
TORSDOF 5
ENDMDL
MODEL 5
REMARK VINA RESULT: -8.053221625      3.023      4.051
REMARK  5 active torsions:
REMARK  status: ('A' for Active; 'I' for Inactive)
REMARK    1  A    between atoms: N1_6  and  C6_7 
REMARK    2  A    between atoms: C9_10  and  C10_11 
REMARK       I    between atoms: C10_11  and  N2_13 
REMARK    3  A    between atoms: N2_13  and  C11_15 
REMARK    4  A    between atoms: C14_18  and  C15_20 
REMARK    5  A    between atoms: C15_20  and  N3_21 
REMARK       I    between atoms: N3_21  and  C16_23 
ROOT
HETATM    1  C10 UNL     1      18.443 -23.622 -41.573  1.00  0.00     0.258 C 
HETATM    2  O1  UNL     1      18.616 -23.273 -40.382  1.00  0.00    -0.267 OA
HETATM    3  N2  UNL     1      19.302 -23.157 -42.599  1.00  0.00    -0.352 N 
ATOM      4  H2  UNL     1      19.135 -23.457 -43.559  1.00  0.00     0.163 HD
ENDROOT
BRANCH   3   5
HETATM    5  C11 UNL     1      20.405 -22.270 -42.322  1.00  0.00     0.085 C 
HETATM    6  C12 UNL     1      20.086 -20.834 -42.572  1.00  0.00     0.028 C 
HETATM    7  C13 UNL     1      20.466 -20.336 -43.926  1.00  0.00     0.047 C 
HETATM    8  C14 UNL     1      21.878 -20.640 -44.323  1.00  0.00     0.119 C 
HETATM    9  F1  UNL     1      21.853 -21.422 -45.461  1.00  0.00    -0.241 F 
HETATM   10  C17 UNL     1      22.520 -21.458 -43.222  1.00  0.00     0.047 C 
HETATM   11  C18 UNL     1      21.658 -22.720 -43.083  1.00  0.00     0.028 C 
BRANCH   8  12
HETATM   12  C15 UNL     1      22.685 -19.383 -44.582  1.00  0.00     0.165 C 
BRANCH  12  13
HETATM   13  N3  UNL     1      24.084 -19.652 -44.310  1.00  0.00    -0.362 N 
HETATM   14  C16 UNL     1      25.068 -19.126 -45.197  1.00  0.00     0.181 C 
HETATM   15  N4  UNL     1      25.430 -17.917 -45.020  1.00  0.00    -0.374 N 
HETATM   16  N5  UNL     1      25.642 -19.884 -46.242  1.00  0.00    -0.064 NA
ATOM     17  H42 UNL     1      25.016 -17.370 -44.266  1.00  0.00     0.158 HD
ATOM     18  H41 UNL     1      26.135 -17.540 -45.655  1.00  0.00     0.158 HD
ATOM     19  H3  UNL     1      24.358 -20.206 -43.500  1.00  0.00     0.162 HD
ENDBRANCH  12  13
ENDBRANCH   8  12
ENDBRANCH   3   5
BRANCH   1  20
HETATM   20  C9  UNL     1      17.320 -24.524 -41.853  1.00  0.00     0.074 A 
HETATM   21  C8  UNL     1      17.184 -25.356 -42.930  1.00  0.00     0.027 A 
HETATM   22  C7  UNL     1      16.080 -26.105 -43.004  1.00  0.00     0.038 A 
HETATM   23  C6  UNL     1      15.159 -25.992 -42.000  1.00  0.00     0.073 A 
HETATM   24  S1  UNL     1      15.895 -24.812 -40.969  1.00  0.00    -0.067 SA
BRANCH  23  25
HETATM   25  N1  UNL     1      13.912 -26.661 -41.829  1.00  0.00    -0.367 N 
HETATM   26  C5  UNL     1      12.741 -26.141 -42.474  1.00  0.00     0.128 C 
HETATM   27  C4  UNL     1      12.249 -27.299 -43.361  1.00  0.00     0.047 C 
HETATM   28  C3  UNL     1      11.931 -28.409 -42.426  1.00  0.00    -0.021 C 
HETATM   29  C2  UNL     1      12.643 -28.680 -41.344  1.00  0.00    -0.065 C 
HETATM   30  C1  UNL     1      12.268 -29.825 -40.432  1.00  0.00     0.045 C 
HETATM   31  C19 UNL     1      13.828 -27.849 -41.021  1.00  0.00     0.109 C 
HETATM   32  C20 UNL     1      13.911 -27.533 -39.543  1.00  0.00     0.037 C 
ENDBRANCH  23  25
ENDBRANCH   1  20
TORSDOF 5
ENDMDL
