MODEL 1
REMARK VINA RESULT: -8.389471015      0.000      0.000
REMARK  9 active torsions:
REMARK  status: ('A' for Active; 'I' for Inactive)
REMARK    1  A    between atoms: C2_2  and  C5_5 
REMARK    2  A    between atoms: C5_5  and  N1_6 
REMARK    3  A    between atoms: C8_12  and  C9_13 
REMARK    4  A    between atoms: C9_13  and  N2_14 
REMARK    5  A    between atoms: N2_14  and  C10_16 
REMARK    6  A    between atoms: C11_19  and  C12_20 
REMARK    7  A    between atoms: C12_20  and  C13_21 
REMARK    8  A    between atoms: C13_21  and  C14_22 
REMARK    9  A    between atoms: C22_32  and  N5_33 
ROOT
HETATM    1  C10 UNL     1      18.290 -23.109 -40.941  1.00  0.00     0.679 A 
HETATM    2  N3  UNL     1      19.159 -22.205 -41.372  1.00  0.00    -0.194 N 
ATOM      3  H3  UNL     1      19.412 -21.447 -40.739  1.00  0.00     0.184 HD
HETATM    4  C11 UNL     1      19.734 -22.224 -42.601  1.00  0.00     0.051 A 
HETATM    5  C20 UNL     1      19.385 -23.254 -43.447  1.00  0.00     0.111 A 
HETATM    6  C21 UNL     1      19.955 -23.328 -44.761  1.00  0.00     0.105 C 
HETATM    7  N4  UNL     1      20.398 -23.381 -45.827  1.00  0.00    -0.191 NA
HETATM    8  C22 UNL     1      18.476 -24.215 -43.020  1.00  0.00     0.137 A 
HETATM    9  N6  UNL     1      17.961 -24.115 -41.790  1.00  0.00    -0.176 N 
ATOM     10  H6  UNL     1      17.295 -24.822 -41.479  1.00  0.00     0.186 HD
ENDROOT
BRANCH   4  11
HETATM   11  C12 UNL     1      20.700 -21.159 -42.971  1.00  0.00     0.064 C 
BRANCH  11  12
HETATM   12  C13 UNL     1      22.091 -21.621 -42.668  1.00  0.00     0.044 C 
BRANCH  12  13
HETATM   13  C14 UNL     1      23.056 -20.783 -43.418  1.00  0.00    -0.058 A 
HETATM   14  C15 UNL     1      24.404 -21.084 -43.380  1.00  0.00     0.010 A 
HETATM   15  C16 UNL     1      25.261 -20.283 -44.088  1.00  0.00     0.043 A 
HETATM   16  C17 UNL     1      24.823 -19.195 -44.833  1.00  0.00     0.116 A 
HETATM   17  F1  UNL     1      25.733 -18.446 -45.509  1.00  0.00    -0.206 F 
HETATM   18  C18 UNL     1      23.480 -18.917 -44.854  1.00  0.00     0.043 A 
HETATM   19  C19 UNL     1      22.608 -19.717 -44.145  1.00  0.00     0.010 A 
ENDBRANCH  12  13
ENDBRANCH  11  12
ENDBRANCH   4  11
BRANCH   8  20
HETATM   20  N5  UNL     1      18.133 -25.191 -43.795  1.00  0.00    -0.384 N 
ATOM     21  H52 UNL     1      18.242 -25.109 -44.805  1.00  0.00     0.157 HD
ATOM     22  H51 UNL     1      17.748 -26.053 -43.409  1.00  0.00     0.157 HD
ENDBRANCH   8  20
BRANCH   1  23
HETATM   23  N2  UNL     1      17.765 -23.062 -39.764  1.00  0.00    -0.226 N 
ATOM     24  H2  UNL     1      18.036 -22.338 -39.099  1.00  0.00     0.177 HD
BRANCH  23  25
HETATM   25  C9  UNL     1      16.780 -24.065 -39.414  1.00  0.00     0.142 C 
BRANCH  25  26
HETATM   26  C8  UNL     1      15.933 -23.454 -38.288  1.00  0.00     0.004 C 
HETATM   27  C7  UNL     1      14.492 -23.733 -38.612  1.00  0.00     0.009 C 
HETATM   28  C6  UNL     1      13.682 -23.258 -37.401  1.00  0.00     0.040 C 
HETATM   29  C5  UNL     1      13.908 -24.294 -36.321  1.00  0.00     0.130 C 
HETATM   30  C24 UNL     1      15.294 -24.827 -36.278  1.00  0.00     0.040 C 
HETATM   31  C23 UNL     1      16.318 -23.964 -36.944  1.00  0.00     0.009 C 
BRANCH  29  32
HETATM   32  C2  UNL     1      13.424 -23.759 -34.995  1.00  0.00    -0.018 C 
HETATM   33  C1  UNL     1      13.758 -22.305 -34.790  1.00  0.00     0.017 C 
HETATM   34  C3  UNL     1      11.915 -23.886 -34.893  1.00  0.00     0.017 C 
HETATM   35  C4  UNL     1      14.006 -24.523 -33.828  1.00  0.00     0.017 C 
ENDBRANCH  29  32
BRANCH  29  36
HETATM   36  N1  UNL     1      13.009 -25.412 -36.654  1.00  0.00    -0.070 N 
ATOM     37  H13 UNL     1      12.188 -25.469 -36.051  1.00  0.00     0.275 HD
ATOM     38  H12 UNL     1      12.507 -25.284 -37.533  1.00  0.00     0.275 HD
ATOM     39  H11 UNL     1      13.588 -26.251 -36.634  1.00  0.00     0.275 HD
ENDBRANCH  29  36
ENDBRANCH  25  26
ENDBRANCH  23  25
ENDBRANCH   1  23
TORSDOF 9
ENDMDL
MODEL 2
REMARK VINA RESULT: -8.336184999      3.553      9.873
REMARK  9 active torsions:
REMARK  status: ('A' for Active; 'I' for Inactive)
REMARK    1  A    between atoms: C2_2  and  C5_5 
REMARK    2  A    between atoms: C5_5  and  N1_6 
REMARK    3  A    between atoms: C8_12  and  C9_13 
REMARK    4  A    between atoms: C9_13  and  N2_14 
REMARK    5  A    between atoms: N2_14  and  C10_16 
REMARK    6  A    between atoms: C11_19  and  C12_20 
REMARK    7  A    between atoms: C12_20  and  C13_21 
REMARK    8  A    between atoms: C13_21  and  C14_22 
REMARK    9  A    between atoms: C22_32  and  N5_33 
ROOT
HETATM    1  C10 UNL     1      18.299 -24.761 -44.173  1.00  0.00     0.679 A 
HETATM    2  N3  UNL     1      17.543 -25.177 -43.166  1.00  0.00    -0.194 N 
ATOM      3  H3  UNL     1      17.861 -24.980 -42.218  1.00  0.00     0.184 HD
HETATM    4  C11 UNL     1      16.373 -25.848 -43.316  1.00  0.00     0.051 A 
HETATM    5  C20 UNL     1      15.954 -26.109 -44.604  1.00  0.00     0.111 A 
HETATM    6  C21 UNL     1      14.728 -26.817 -44.829  1.00  0.00     0.105 C 
HETATM    7  N4  UNL     1      13.750 -27.404 -45.016  1.00  0.00    -0.191 NA
HETATM    8  C22 UNL     1      16.728 -25.684 -45.677  1.00  0.00     0.137 A 
HETATM    9  N6  UNL     1      17.867 -25.028 -45.431  1.00  0.00    -0.176 N 
ATOM     10  H6  UNL     1      18.434 -24.716 -46.221  1.00  0.00     0.186 HD
ENDROOT
BRANCH   4  11
HETATM   11  C12 UNL     1      15.607 -26.259 -42.113  1.00  0.00     0.064 C 
BRANCH  11  12
HETATM   12  C13 UNL     1      14.773 -25.111 -41.638  1.00  0.00     0.044 C 
BRANCH  12  13
HETATM   13  C14 UNL     1      15.192 -24.740 -40.265  1.00  0.00    -0.058 A 
HETATM   14  C15 UNL     1      14.407 -25.096 -39.186  1.00  0.00     0.010 A 
HETATM   15  C16 UNL     1      14.832 -24.733 -37.935  1.00  0.00     0.043 A 
HETATM   16  C17 UNL     1      16.011 -24.029 -37.722  1.00  0.00     0.116 A 
HETATM   17  F1  UNL     1      16.368 -23.704 -36.452  1.00  0.00    -0.206 F 
HETATM   18  C18 UNL     1      16.773 -23.688 -38.811  1.00  0.00     0.043 A 
HETATM   19  C19 UNL     1      16.355 -24.049 -40.074  1.00  0.00     0.010 A 
ENDBRANCH  12  13
ENDBRANCH  11  12
ENDBRANCH   4  11
BRANCH   8  20
HETATM   20  N5  UNL     1      16.357 -25.915 -46.892  1.00  0.00    -0.384 N 
ATOM     21  H52 UNL     1      15.373 -26.076 -47.109  1.00  0.00     0.157 HD
ATOM     22  H51 UNL     1      17.038 -25.942 -47.650  1.00  0.00     0.157 HD
ENDBRANCH   8  20
BRANCH   1  23
HETATM   23  N2  UNL     1      19.405 -24.123 -43.992  1.00  0.00    -0.226 N 
ATOM     24  H2  UNL     1      20.302 -24.561 -44.201  1.00  0.00     0.177 HD
BRANCH  23  25
HETATM   25  C9  UNL     1      19.337 -22.767 -43.485  1.00  0.00     0.142 C 
BRANCH  25  26
HETATM   26  C8  UNL     1      20.402 -21.971 -44.254  1.00  0.00     0.004 C 
HETATM   27  C7  UNL     1      20.351 -20.557 -43.749  1.00  0.00     0.009 C 
HETATM   28  C6  UNL     1      21.523 -19.825 -44.411  1.00  0.00     0.040 C 
HETATM   29  C5  UNL     1      22.768 -20.308 -43.699  1.00  0.00     0.130 C 
HETATM   30  C24 UNL     1      22.739 -21.752 -43.349  1.00  0.00     0.040 C 
HETATM   31  C23 UNL     1      21.760 -22.567 -44.130  1.00  0.00     0.009 C 
BRANCH  29  32
HETATM   32  C2  UNL     1      23.992 -19.902 -44.484  1.00  0.00    -0.018 C 
HETATM   33  C1  UNL     1      24.025 -20.491 -45.870  1.00  0.00     0.017 C 
HETATM   34  C3  UNL     1      24.041 -18.393 -44.643  1.00  0.00     0.017 C 
HETATM   35  C4  UNL     1      25.272 -20.309 -43.791  1.00  0.00     0.017 C 
ENDBRANCH  29  32
BRANCH  29  36
HETATM   36  N1  UNL     1      22.825 -19.543 -42.443  1.00  0.00    -0.070 N 
ATOM     37  H13 UNL     1      23.574 -18.850 -42.420  1.00  0.00     0.275 HD
ATOM     38  H12 UNL     1      22.051 -18.889 -42.327  1.00  0.00     0.275 HD
ATOM     39  H11 UNL     1      22.888 -20.236 -41.697  1.00  0.00     0.275 HD
ENDBRANCH  29  36
ENDBRANCH  25  26
ENDBRANCH  23  25
ENDBRANCH   1  23
TORSDOF 9
ENDMDL
MODEL 3
REMARK VINA RESULT: -8.316370799      2.081      3.093
REMARK  9 active torsions:
REMARK  status: ('A' for Active; 'I' for Inactive)
REMARK    1  A    between atoms: C2_2  and  C5_5 
REMARK    2  A    between atoms: C5_5  and  N1_6 
REMARK    3  A    between atoms: C8_12  and  C9_13 
REMARK    4  A    between atoms: C9_13  and  N2_14 
REMARK    5  A    between atoms: N2_14  and  C10_16 
REMARK    6  A    between atoms: C11_19  and  C12_20 
REMARK    7  A    between atoms: C12_20  and  C13_21 
REMARK    8  A    between atoms: C13_21  and  C14_22 
REMARK    9  A    between atoms: C22_32  and  N5_33 
ROOT
HETATM    1  C10 UNL     1      15.893 -25.039 -41.067  1.00  0.00     0.679 A 
HETATM    2  N3  UNL     1      16.928 -24.542 -41.730  1.00  0.00    -0.194 N 
ATOM      3  H3  UNL     1      17.395 -23.723 -41.340  1.00  0.00     0.184 HD
HETATM    4  C11 UNL     1      17.407 -25.051 -42.892  1.00  0.00     0.051 A 
HETATM    5  C20 UNL     1      16.767 -26.158 -43.409  1.00  0.00     0.111 A 
HETATM    6  C21 UNL     1      17.222 -26.742 -44.636  1.00  0.00     0.105 C 
HETATM    7  N4  UNL     1      17.574 -27.205 -45.636  1.00  0.00    -0.191 NA
HETATM    8  C22 UNL     1      15.679 -26.699 -42.734  1.00  0.00     0.137 A 
HETATM    9  N6  UNL     1      15.278 -26.129 -41.592  1.00  0.00    -0.176 N 
ATOM     10  H6  UNL     1      14.480 -26.528 -41.099  1.00  0.00     0.186 HD
ENDROOT
BRANCH   4  11
HETATM   11  C12 UNL     1      18.578 -24.413 -43.542  1.00  0.00     0.064 C 
BRANCH  11  12
HETATM   12  C13 UNL     1      19.412 -23.730 -42.504  1.00  0.00     0.044 C 
BRANCH  12  13
HETATM   13  C14 UNL     1      20.052 -22.534 -43.104  1.00  0.00    -0.058 A 
HETATM   14  C15 UNL     1      19.972 -21.314 -42.460  1.00  0.00     0.010 A 
HETATM   15  C16 UNL     1      20.578 -20.236 -43.049  1.00  0.00     0.043 A 
HETATM   16  C17 UNL     1      21.260 -20.330 -44.256  1.00  0.00     0.116 A 
HETATM   17  F1  UNL     1      21.835 -19.216 -44.780  1.00  0.00    -0.206 F 
HETATM   18  C18 UNL     1      21.324 -21.552 -44.875  1.00  0.00     0.043 A 
HETATM   19  C19 UNL     1      20.719 -22.645 -44.291  1.00  0.00     0.010 A 
ENDBRANCH  12  13
ENDBRANCH  11  12
ENDBRANCH   4  11
BRANCH   8  20
HETATM   20  N5  UNL     1      15.063 -27.736 -43.197  1.00  0.00    -0.384 N 
ATOM     21  H52 UNL     1      15.455 -28.669 -43.068  1.00  0.00     0.157 HD
ATOM     22  H51 UNL     1      14.180 -27.639 -43.697  1.00  0.00     0.157 HD
ENDBRANCH   8  20
BRANCH   1  23
HETATM   23  N2  UNL     1      15.467 -24.530 -39.962  1.00  0.00    -0.226 N 
ATOM     24  H2  UNL     1      14.511 -24.690 -39.645  1.00  0.00     0.177 HD
BRANCH  23  25
HETATM   25  C9  UNL     1      16.384 -23.723 -39.182  1.00  0.00     0.142 C 
BRANCH  25  26
HETATM   26  C8  UNL     1      15.607 -23.279 -37.935  1.00  0.00     0.004 C 
HETATM   27  C7  UNL     1      14.149 -23.517 -38.210  1.00  0.00     0.009 C 
HETATM   28  C6  UNL     1      13.412 -23.218 -36.900  1.00  0.00     0.040 C 
HETATM   29  C5  UNL     1      13.697 -24.392 -35.988  1.00  0.00     0.130 C 
HETATM   30  C24 UNL     1      15.082 -24.919 -36.100  1.00  0.00     0.040 C 
HETATM   31  C23 UNL     1      16.068 -23.967 -36.699  1.00  0.00     0.009 C 
BRANCH  29  32
HETATM   32  C2  UNL     1      13.293 -24.048 -34.575  1.00  0.00    -0.018 C 
HETATM   33  C1  UNL     1      14.075 -24.810 -33.537  1.00  0.00     0.017 C 
HETATM   34  C3  UNL     1      13.522 -22.572 -34.305  1.00  0.00     0.017 C 
HETATM   35  C4  UNL     1      11.828 -24.316 -34.321  1.00  0.00     0.017 C 
ENDBRANCH  29  32
BRANCH  29  36
HETATM   36  N1  UNL     1      12.776 -25.457 -36.420  1.00  0.00    -0.070 N 
ATOM     37  H13 UNL     1      13.133 -26.398 -36.250  1.00  0.00     0.275 HD
ATOM     38  H12 UNL     1      11.942 -25.536 -35.839  1.00  0.00     0.275 HD
ATOM     39  H11 UNL     1      12.573 -25.269 -37.401  1.00  0.00     0.275 HD
ENDBRANCH  29  36
ENDBRANCH  25  26
ENDBRANCH  23  25
ENDBRANCH   1  23
TORSDOF 9
ENDMDL
MODEL 4
REMARK VINA RESULT: -8.307934526      3.564     10.030
REMARK  9 active torsions:
REMARK  status: ('A' for Active; 'I' for Inactive)
REMARK    1  A    between atoms: C2_2  and  C5_5 
REMARK    2  A    between atoms: C5_5  and  N1_6 
REMARK    3  A    between atoms: C8_12  and  C9_13 
REMARK    4  A    between atoms: C9_13  and  N2_14 
REMARK    5  A    between atoms: N2_14  and  C10_16 
REMARK    6  A    between atoms: C11_19  and  C12_20 
REMARK    7  A    between atoms: C12_20  and  C13_21 
REMARK    8  A    between atoms: C13_21  and  C14_22 
REMARK    9  A    between atoms: C22_32  and  N5_33 
ROOT
HETATM    1  C10 UNL     1      18.148 -24.856 -44.031  1.00  0.00     0.679 A 
HETATM    2  N3  UNL     1      17.507 -24.706 -42.880  1.00  0.00    -0.194 N 
ATOM      3  H3  UNL     1      17.814 -23.959 -42.258  1.00  0.00     0.184 HD
HETATM    4  C11 UNL     1      16.468 -25.480 -42.477  1.00  0.00     0.051 A 
HETATM    5  C20 UNL     1      16.062 -26.486 -43.328  1.00  0.00     0.111 A 
HETATM    6  C21 UNL     1      14.973 -27.341 -42.958  1.00  0.00     0.105 C 
HETATM    7  N4  UNL     1      14.107 -28.046 -42.656  1.00  0.00    -0.191 NA
HETATM    8  C22 UNL     1      16.717 -26.666 -44.540  1.00  0.00     0.137 A 
HETATM    9  N6  UNL     1      17.731 -25.852 -44.853  1.00  0.00    -0.176 N 
ATOM     10  H6  UNL     1      18.210 -25.986 -45.744  1.00  0.00     0.186 HD
ENDROOT
BRANCH   4  11
HETATM   11  C12 UNL     1      15.823 -25.213 -41.167  1.00  0.00     0.064 C 
BRANCH  11  12
HETATM   12  C13 UNL     1      16.636 -24.211 -40.408  1.00  0.00     0.044 C 
BRANCH  12  13
HETATM   13  C14 UNL     1      15.870 -23.766 -39.218  1.00  0.00    -0.058 A 
HETATM   14  C15 UNL     1      14.592 -23.263 -39.371  1.00  0.00     0.010 A 
HETATM   15  C16 UNL     1      13.921 -22.863 -38.246  1.00  0.00     0.043 A 
HETATM   16  C17 UNL     1      14.477 -22.947 -36.975  1.00  0.00     0.116 A 
HETATM   17  F1  UNL     1      13.750 -22.530 -35.906  1.00  0.00    -0.206 F 
HETATM   18  C18 UNL     1      15.747 -23.450 -36.851  1.00  0.00     0.043 A 
HETATM   19  C19 UNL     1      16.432 -23.856 -37.977  1.00  0.00     0.010 A 
ENDBRANCH  12  13
ENDBRANCH  11  12
ENDBRANCH   4  11
BRANCH   8  20
HETATM   20  N5  UNL     1      16.355 -27.602 -45.355  1.00  0.00    -0.384 N 
ATOM     21  H52 UNL     1      15.956 -28.469 -44.998  1.00  0.00     0.157 HD
ATOM     22  H51 UNL     1      16.463 -27.487 -46.362  1.00  0.00     0.157 HD
ENDBRANCH   8  20
BRANCH   1  23
HETATM   23  N2  UNL     1      19.130 -24.099 -44.383  1.00  0.00    -0.226 N 
ATOM     24  H2  UNL     1      19.644 -24.274 -45.246  1.00  0.00     0.177 HD
BRANCH  23  25
HETATM   25  C9  UNL     1      19.482 -22.991 -43.518  1.00  0.00     0.142 C 
BRANCH  25  26
HETATM   26  C8  UNL     1      20.530 -22.170 -44.283  1.00  0.00     0.004 C 
HETATM   27  C7  UNL     1      20.382 -20.739 -43.847  1.00  0.00     0.009 C 
HETATM   28  C6  UNL     1      21.536 -19.972 -44.500  1.00  0.00     0.040 C 
HETATM   29  C5  UNL     1      22.777 -20.350 -43.721  1.00  0.00     0.130 C 
HETATM   30  C24 UNL     1      22.815 -21.776 -43.304  1.00  0.00     0.040 C 
HETATM   31  C23 UNL     1      21.914 -22.680 -44.083  1.00  0.00     0.009 C 
BRANCH  29  32
HETATM   32  C2  UNL     1      24.007 -19.910 -44.478  1.00  0.00    -0.018 C 
HETATM   33  C1  UNL     1      24.064 -20.460 -45.879  1.00  0.00     0.017 C 
HETATM   34  C3  UNL     1      24.040 -18.397 -44.595  1.00  0.00     0.017 C 
HETATM   35  C4  UNL     1      25.281 -20.322 -43.780  1.00  0.00     0.017 C 
ENDBRANCH  29  32
BRANCH  29  36
HETATM   36  N1  UNL     1      22.742 -19.527 -42.500  1.00  0.00    -0.070 N 
ATOM     37  H13 UNL     1      23.594 -19.589 -41.942  1.00  0.00     0.275 HD
ATOM     38  H12 UNL     1      22.787 -18.525 -42.682  1.00  0.00     0.275 HD
ATOM     39  H11 UNL     1      21.902 -19.813 -41.996  1.00  0.00     0.275 HD
ENDBRANCH  29  36
ENDBRANCH  25  26
ENDBRANCH  23  25
ENDBRANCH   1  23
TORSDOF 9
ENDMDL
MODEL 5
REMARK VINA RESULT: -8.235857965      3.637      9.835
REMARK  9 active torsions:
REMARK  status: ('A' for Active; 'I' for Inactive)
REMARK    1  A    between atoms: C2_2  and  C5_5 
REMARK    2  A    between atoms: C5_5  and  N1_6 
REMARK    3  A    between atoms: C8_12  and  C9_13 
REMARK    4  A    between atoms: C9_13  and  N2_14 
REMARK    5  A    between atoms: N2_14  and  C10_16 
REMARK    6  A    between atoms: C11_19  and  C12_20 
REMARK    7  A    between atoms: C12_20  and  C13_21 
REMARK    8  A    between atoms: C13_21  and  C14_22 
REMARK    9  A    between atoms: C22_32  and  N5_33 
ROOT
HETATM    1  C10 UNL     1      18.540 -24.491 -44.753  1.00  0.00     0.679 A 
HETATM    2  N3  UNL     1      17.904 -24.941 -43.680  1.00  0.00    -0.194 N 
ATOM      3  H3  UNL     1      18.193 -24.583 -42.770  1.00  0.00     0.184 HD
HETATM    4  C11 UNL     1      16.893 -25.845 -43.714  1.00  0.00     0.051 A 
HETATM    5  C20 UNL     1      16.511 -26.321 -44.950  1.00  0.00     0.111 A 
HETATM    6  C21 UNL     1      15.452 -27.281 -45.053  1.00  0.00     0.105 C 
HETATM    7  N4  UNL     1      14.610 -28.070 -45.140  1.00  0.00    -0.191 NA
HETATM    8  C22 UNL     1      17.162 -25.866 -46.091  1.00  0.00     0.137 A 
HETATM    9  N6  UNL     1      18.147 -24.972 -45.960  1.00  0.00    -0.176 N 
ATOM     10  H6  UNL     1      18.623 -24.640 -46.799  1.00  0.00     0.186 HD
ENDROOT
BRANCH   4  11
HETATM   11  C12 UNL     1      16.251 -26.271 -42.445  1.00  0.00     0.064 C 
BRANCH  11  12
HETATM   12  C13 UNL     1      15.237 -25.250 -42.034  1.00  0.00     0.044 C 
BRANCH  12  13
HETATM   13  C14 UNL     1      15.568 -24.755 -40.676  1.00  0.00    -0.058 A 
HETATM   14  C15 UNL     1      14.689 -24.970 -39.632  1.00  0.00     0.010 A 
HETATM   15  C16 UNL     1      15.034 -24.497 -38.394  1.00  0.00     0.043 A 
HETATM   16  C17 UNL     1      16.223 -23.817 -38.159  1.00  0.00     0.116 A 
HETATM   17  F1  UNL     1      16.497 -23.376 -36.903  1.00  0.00    -0.206 F 
HETATM   18  C18 UNL     1      17.079 -23.617 -39.212  1.00  0.00     0.043 A 
HETATM   19  C19 UNL     1      16.742 -24.090 -40.463  1.00  0.00     0.010 A 
ENDBRANCH  12  13
ENDBRANCH  11  12
ENDBRANCH   4  11
BRANCH   8  20
HETATM   20  N5  UNL     1      16.822 -26.297 -47.261  1.00  0.00    -0.384 N 
ATOM     21  H52 UNL     1      16.130 -27.040 -47.356  1.00  0.00     0.157 HD
ATOM     22  H51 UNL     1      17.239 -25.902 -48.104  1.00  0.00     0.157 HD
ENDBRANCH   8  20
BRANCH   1  23
HETATM   23  N2  UNL     1      19.495 -23.629 -44.683  1.00  0.00    -0.226 N 
ATOM     24  H2  UNL     1      20.315 -23.705 -45.285  1.00  0.00     0.177 HD
BRANCH  23  25
HETATM   25  C9  UNL     1      19.371 -22.547 -43.726  1.00  0.00     0.142 C 
BRANCH  25  26
HETATM   26  C8  UNL     1      20.334 -21.448 -44.198  1.00  0.00     0.004 C 
HETATM   27  C7  UNL     1      20.832 -20.735 -42.973  1.00  0.00     0.009 C 
HETATM   28  C6  UNL     1      21.907 -19.756 -43.456  1.00  0.00     0.040 C 
HETATM   29  C5  UNL     1      23.122 -20.599 -43.775  1.00  0.00     0.130 C 
HETATM   30  C24 UNL     1      22.799 -21.906 -44.405  1.00  0.00     0.040 C 
HETATM   31  C23 UNL     1      21.444 -21.982 -45.033  1.00  0.00     0.009 C 
BRANCH  29  32
HETATM   32  C2  UNL     1      24.117 -19.780 -44.561  1.00  0.00    -0.018 C 
HETATM   33  C1  UNL     1      23.800 -18.307 -44.558  1.00  0.00     0.017 C 
HETATM   34  C3  UNL     1      25.508 -19.934 -43.974  1.00  0.00     0.017 C 
HETATM   35  C4  UNL     1      24.201 -20.219 -46.004  1.00  0.00     0.017 C 
ENDBRANCH  29  32
BRANCH  29  36
HETATM   36  N1  UNL     1      23.763 -20.873 -42.478  1.00  0.00    -0.070 N 
ATOM     37  H13 UNL     1      24.782 -20.816 -42.507  1.00  0.00     0.275 HD
ATOM     38  H12 UNL     1      23.618 -20.136 -41.788  1.00  0.00     0.275 HD
ATOM     39  H11 UNL     1      23.414 -21.784 -42.182  1.00  0.00     0.275 HD
ENDBRANCH  29  36
ENDBRANCH  25  26
ENDBRANCH  23  25
ENDBRANCH   1  23
TORSDOF 9
ENDMDL
