MODEL 1
REMARK VINA RESULT: -7.528395452      0.000      0.000
REMARK  10 active torsions:
REMARK  status: ('A' for Active; 'I' for Inactive)
REMARK    1  A    between atoms: C4_4  and  C5_5 
REMARK    2  A    between atoms: C5_5  and  C6_6 
REMARK    3  A    between atoms: C7_7  and  O1_8 
REMARK    4  A    between atoms: C9_11  and  O2_12 
REMARK    5  A    between atoms: C10_14  and  C11_15 
REMARK    6  A    between atoms: C11_15  and  O3_16 
REMARK    7  A    between atoms: C12_18  and  C13_19 
REMARK    8  A    between atoms: C13_19  and  C14_20 
REMARK    9  A    between atoms: C14_20  and  C15_21 
REMARK   10  A    between atoms: C21_27  and  O4_28 
ROOT
HETATM    1  C11 UNL     1      19.569 -26.066 -48.650  1.00  0.00     0.058 C 
HETATM    2  C12 UNL     1      19.976 -24.870 -48.260  1.00  0.00     0.088 C 
ENDROOT
BRANCH   1   3
HETATM    3  C10 UNL     1      18.687 -26.912 -47.837  1.00  0.00     0.078 C 
HETATM    4  C6  UNL     1      17.236 -26.568 -47.942  1.00  0.00     0.031 C 
HETATM    5  C7  UNL     1      16.510 -27.863 -47.689  1.00  0.00     0.125 C 
HETATM    6  C8  UNL     1      17.388 -28.878 -48.382  1.00  0.00     0.064 C 
HETATM    7  C9  UNL     1      18.802 -28.373 -48.213  1.00  0.00     0.131 C 
BRANCH   4   8
HETATM    8  C5  UNL     1      16.822 -25.942 -49.254  1.00  0.00     0.035 C 
BRANCH   8   9
HETATM    9  C4  UNL     1      16.185 -24.609 -48.995  1.00  0.00    -0.024 C 
HETATM   10  C2  UNL     1      16.552 -23.486 -49.584  1.00  0.00    -0.091 C 
HETATM   11  C1  UNL     1      15.857 -22.182 -49.268  1.00  0.00     0.042 C 
HETATM   12  C3  UNL     1      17.665 -23.412 -50.575  1.00  0.00     0.042 C 
ENDBRANCH   8   9
ENDBRANCH   4   8
BRANCH   5  13
HETATM   13  O1  UNL     1      16.495 -28.129 -46.333  1.00  0.00    -0.395 OA
ATOM     14  H1  UNL     1      17.107 -28.829 -46.138  1.00  0.00     0.210 HD
ENDBRANCH   5  13
BRANCH   7  15
HETATM   15  O2  UNL     1      19.505 -28.579 -49.373  1.00  0.00    -0.395 OA
ATOM     16  H2  UNL     1      20.420 -28.370 -49.231  1.00  0.00     0.210 HD
ENDBRANCH   7  15
ENDBRANCH   1   3
BRANCH   1  17
HETATM   17  O3  UNL     1      20.029 -26.510 -49.914  1.00  0.00    -0.364 OA
ATOM     18  H3  UNL     1      20.388 -25.894 -50.542  1.00  0.00     0.217 HD
ENDBRANCH   1  17
BRANCH   2  19
HETATM   19  C13 UNL     1      19.663 -24.224 -47.051  1.00  0.00    -0.125 C 
BRANCH  19  20
HETATM   20  C14 UNL     1      19.397 -23.673 -46.016  1.00  0.00     0.062 C 
BRANCH  20  21
HETATM   21  C15 UNL     1      20.183 -22.765 -45.155  1.00  0.00    -0.053 C 
HETATM   22  C16 UNL     1      21.514 -22.713 -45.016  1.00  0.00    -0.009 C 
HETATM   23  C17 UNL     1      21.854 -21.637 -44.047  1.00  0.00    -0.015 C 
HETATM   24  C18 UNL     1      21.951 -20.351 -44.834  1.00  0.00     0.020 C 
HETATM   25  C19 UNL     1      23.151 -21.830 -43.327  1.00  0.00     0.016 C 
HETATM   26  C23 UNL     1      20.679 -21.677 -43.140  1.00  0.00     0.004 C 
HETATM   27  C20 UNL     1      23.180 -23.057 -42.491  1.00  0.00     0.036 C 
HETATM   28  C21 UNL     1      21.921 -23.419 -41.780  1.00  0.00     0.153 C 
HETATM   29  C22 UNL     1      20.641 -22.923 -42.319  1.00  0.00     0.208 C 
HETATM   30  F1  UNL     1      19.989 -23.977 -42.970  1.00  0.00    -0.246 F 
HETATM   31  C24 UNL     1      20.437 -20.476 -42.298  1.00  0.00     0.020 C 
HETATM   32  C25 UNL     1      19.559 -21.809 -44.210  1.00  0.00     0.052 C 
BRANCH  28  33
HETATM   33  O4  UNL     1      21.880 -24.851 -41.805  1.00  0.00    -0.393 OA
ATOM     34  H4  UNL     1      22.129 -25.119 -40.929  1.00  0.00     0.210 HD
ENDBRANCH  28  33
ENDBRANCH  20  21
ENDBRANCH  19  20
ENDBRANCH   2  19
TORSDOF 10
ENDMDL
MODEL 2
REMARK VINA RESULT: -7.412487272      2.643      8.135
REMARK  10 active torsions:
REMARK  status: ('A' for Active; 'I' for Inactive)
REMARK    1  A    between atoms: C4_4  and  C5_5 
REMARK    2  A    between atoms: C5_5  and  C6_6 
REMARK    3  A    between atoms: C7_7  and  O1_8 
REMARK    4  A    between atoms: C9_11  and  O2_12 
REMARK    5  A    between atoms: C10_14  and  C11_15 
REMARK    6  A    between atoms: C11_15  and  O3_16 
REMARK    7  A    between atoms: C12_18  and  C13_19 
REMARK    8  A    between atoms: C13_19  and  C14_20 
REMARK    9  A    between atoms: C14_20  and  C15_21 
REMARK   10  A    between atoms: C21_27  and  O4_28 
ROOT
HETATM    1  C11 UNL     1      20.651 -22.205 -43.903  1.00  0.00     0.058 C 
HETATM    2  C12 UNL     1      19.789 -22.218 -44.906  1.00  0.00     0.088 C 
ENDROOT
BRANCH   1   3
HETATM    3  C10 UNL     1      21.425 -23.386 -43.502  1.00  0.00     0.078 C 
HETATM    4  C6  UNL     1      22.907 -23.191 -43.537  1.00  0.00     0.031 C 
HETATM    5  C7  UNL     1      23.446 -24.123 -42.485  1.00  0.00     0.125 C 
HETATM    6  C8  UNL     1      22.413 -24.021 -41.388  1.00  0.00     0.064 C 
HETATM    7  C9  UNL     1      21.091 -23.827 -42.094  1.00  0.00     0.131 C 
BRANCH   4   8
HETATM    8  C5  UNL     1      23.369 -21.769 -43.315  1.00  0.00     0.035 C 
BRANCH   8   9
HETATM    9  C4  UNL     1      24.183 -21.317 -44.491  1.00  0.00    -0.024 C 
HETATM   10  C2  UNL     1      24.210 -20.074 -44.938  1.00  0.00    -0.091 C 
HETATM   11  C1  UNL     1      25.058 -19.699 -46.131  1.00  0.00     0.042 C 
HETATM   12  C3  UNL     1      23.414 -18.970 -44.326  1.00  0.00     0.042 C 
ENDBRANCH   8   9
ENDBRANCH   4   8
BRANCH   5  13
HETATM   13  O1  UNL     1      23.461 -25.416 -42.974  1.00  0.00    -0.395 OA
ATOM     14  H1  UNL     1      22.809 -25.937 -42.520  1.00  0.00     0.210 HD
ENDBRANCH   5  13
BRANCH   7  15
HETATM   15  O2  UNL     1      20.334 -22.913 -41.406  1.00  0.00    -0.395 OA
ATOM     16  H2  UNL     1      19.535 -22.736 -41.888  1.00  0.00     0.210 HD
ENDBRANCH   7  15
ENDBRANCH   1   3
BRANCH   1  17
HETATM   17  O3  UNL     1      20.801 -20.976 -43.214  1.00  0.00    -0.364 OA
ATOM     18  H3  UNL     1      20.089 -20.625 -42.692  1.00  0.00     0.217 HD
ENDBRANCH   1  17
BRANCH   2  19
HETATM   19  C13 UNL     1      19.464 -23.313 -45.726  1.00  0.00    -0.125 C 
BRANCH  19  20
HETATM   20  C14 UNL     1      19.186 -24.251 -46.425  1.00  0.00     0.062 C 
BRANCH  20  21
HETATM   21  C15 UNL     1      18.462 -24.338 -47.711  1.00  0.00    -0.053 C 
HETATM   22  C16 UNL     1      17.739 -23.385 -48.313  1.00  0.00    -0.009 C 
HETATM   23  C17 UNL     1      17.203 -23.924 -49.591  1.00  0.00    -0.015 C 
HETATM   24  C18 UNL     1      18.262 -23.694 -50.644  1.00  0.00     0.020 C 
HETATM   25  C19 UNL     1      15.941 -23.274 -50.064  1.00  0.00     0.016 C 
HETATM   26  C23 UNL     1      17.021 -25.358 -49.251  1.00  0.00     0.004 C 
HETATM   27  C20 UNL     1      14.805 -23.446 -49.123  1.00  0.00     0.036 C 
HETATM   28  C21 UNL     1      14.700 -24.760 -48.425  1.00  0.00     0.153 C 
HETATM   29  C22 UNL     1      15.922 -25.570 -48.264  1.00  0.00     0.208 C 
HETATM   30  F1  UNL     1      16.360 -25.464 -46.940  1.00  0.00    -0.246 F 
HETATM   31  C24 UNL     1      16.909 -26.310 -50.388  1.00  0.00     0.020 C 
HETATM   32  C25 UNL     1      18.358 -25.593 -48.493  1.00  0.00     0.052 C 
BRANCH  28  33
HETATM   33  O4  UNL     1      14.210 -24.446 -47.117  1.00  0.00    -0.393 OA
ATOM     34  H4  UNL     1      14.410 -25.210 -46.589  1.00  0.00     0.210 HD
ENDBRANCH  28  33
ENDBRANCH  20  21
ENDBRANCH  19  20
ENDBRANCH   2  19
TORSDOF 10
ENDMDL
MODEL 3
REMARK VINA RESULT: -7.392814135      2.014      7.994
REMARK  10 active torsions:
REMARK  status: ('A' for Active; 'I' for Inactive)
REMARK    1  A    between atoms: C4_4  and  C5_5 
REMARK    2  A    between atoms: C5_5  and  C6_6 
REMARK    3  A    between atoms: C7_7  and  O1_8 
REMARK    4  A    between atoms: C9_11  and  O2_12 
REMARK    5  A    between atoms: C10_14  and  C11_15 
REMARK    6  A    between atoms: C11_15  and  O3_16 
REMARK    7  A    between atoms: C12_18  and  C13_19 
REMARK    8  A    between atoms: C13_19  and  C14_20 
REMARK    9  A    between atoms: C14_20  and  C15_21 
REMARK   10  A    between atoms: C21_27  and  O4_28 
ROOT
HETATM    1  C11 UNL     1      20.640 -22.329 -43.503  1.00  0.00     0.058 C 
HETATM    2  C12 UNL     1      19.967 -22.166 -44.629  1.00  0.00     0.088 C 
ENDROOT
BRANCH   1   3
HETATM    3  C10 UNL     1      21.481 -23.503 -43.241  1.00  0.00     0.078 C 
HETATM    4  C6  UNL     1      22.951 -23.238 -43.322  1.00  0.00     0.031 C 
HETATM    5  C7  UNL     1      23.578 -24.230 -42.381  1.00  0.00     0.125 C 
HETATM    6  C8  UNL     1      22.594 -24.271 -41.235  1.00  0.00     0.064 C 
HETATM    7  C9  UNL     1      21.234 -24.079 -41.864  1.00  0.00     0.131 C 
BRANCH   4   8
HETATM    8  C5  UNL     1      23.362 -21.820 -42.996  1.00  0.00     0.035 C 
BRANCH   8   9
HETATM    9  C4  UNL     1      24.205 -21.274 -44.111  1.00  0.00    -0.024 C 
HETATM   10  C2  UNL     1      23.902 -20.192 -44.806  1.00  0.00    -0.091 C 
HETATM   11  C1  UNL     1      24.806 -19.706 -45.914  1.00  0.00     0.042 C 
HETATM   12  C3  UNL     1      22.665 -19.391 -44.568  1.00  0.00     0.042 C 
ENDBRANCH   8   9
ENDBRANCH   4   8
BRANCH   5  13
HETATM   13  O1  UNL     1      23.625 -25.475 -42.982  1.00  0.00    -0.395 OA
ATOM     14  H1  UNL     1      22.962 -25.526 -43.661  1.00  0.00     0.210 HD
ENDBRANCH   5  13
BRANCH   7  15
HETATM   15  O2  UNL     1      20.472 -23.263 -41.066  1.00  0.00    -0.395 OA
ATOM     16  H2  UNL     1      19.723 -22.946 -41.558  1.00  0.00     0.210 HD
ENDBRANCH   7  15
ENDBRANCH   1   3
BRANCH   1  17
HETATM   17  O3  UNL     1      20.513 -21.303 -42.535  1.00  0.00    -0.364 OA
ATOM     18  H3  UNL     1      20.921 -20.456 -42.672  1.00  0.00     0.217 HD
ENDBRANCH   1  17
BRANCH   2  19
HETATM   19  C13 UNL     1      19.928 -23.045 -45.725  1.00  0.00    -0.125 C 
BRANCH  19  20
HETATM   20  C14 UNL     1      19.897 -23.799 -46.662  1.00  0.00     0.062 C 
BRANCH  20  21
HETATM   21  C15 UNL     1      18.818 -24.654 -47.200  1.00  0.00    -0.053 C 
HETATM   22  C16 UNL     1      18.425 -25.856 -46.759  1.00  0.00    -0.009 C 
HETATM   23  C17 UNL     1      17.298 -26.333 -47.606  1.00  0.00    -0.015 C 
HETATM   24  C18 UNL     1      16.030 -25.771 -47.007  1.00  0.00     0.020 C 
HETATM   25  C19 UNL     1      17.152 -27.821 -47.672  1.00  0.00     0.016 C 
HETATM   26  C23 UNL     1      17.641 -25.728 -48.917  1.00  0.00     0.004 C 
HETATM   27  C20 UNL     1      18.331 -28.499 -48.267  1.00  0.00     0.036 C 
HETATM   28  C21 UNL     1      19.006 -27.808 -49.403  1.00  0.00     0.153 C 
HETATM   29  C22 UNL     1      18.855 -26.346 -49.526  1.00  0.00     0.208 C 
HETATM   30  F1  UNL     1      20.040 -25.735 -49.101  1.00  0.00    -0.246 F 
HETATM   31  C24 UNL     1      16.543 -25.615 -49.914  1.00  0.00     0.020 C 
HETATM   32  C25 UNL     1      18.055 -24.313 -48.425  1.00  0.00     0.052 C 
BRANCH  28  33
HETATM   33  O4  UNL     1      20.400 -28.091 -49.233  1.00  0.00    -0.393 OA
ATOM     34  H4  UNL     1      20.804 -27.835 -50.054  1.00  0.00     0.210 HD
ENDBRANCH  28  33
ENDBRANCH  20  21
ENDBRANCH  19  20
ENDBRANCH   2  19
TORSDOF 10
ENDMDL
MODEL 4
REMARK VINA RESULT: -7.326934798      2.013      8.085
REMARK  10 active torsions:
REMARK  status: ('A' for Active; 'I' for Inactive)
REMARK    1  A    between atoms: C4_4  and  C5_5 
REMARK    2  A    between atoms: C5_5  and  C6_6 
REMARK    3  A    between atoms: C7_7  and  O1_8 
REMARK    4  A    between atoms: C9_11  and  O2_12 
REMARK    5  A    between atoms: C10_14  and  C11_15 
REMARK    6  A    between atoms: C11_15  and  O3_16 
REMARK    7  A    between atoms: C12_18  and  C13_19 
REMARK    8  A    between atoms: C13_19  and  C14_20 
REMARK    9  A    between atoms: C14_20  and  C15_21 
REMARK   10  A    between atoms: C21_27  and  O4_28 
ROOT
HETATM    1  C11 UNL     1      20.718 -22.176 -43.896  1.00  0.00     0.058 C 
HETATM    2  C12 UNL     1      19.760 -22.206 -44.808  1.00  0.00     0.088 C 
ENDROOT
BRANCH   1   3
HETATM    3  C10 UNL     1      21.489 -23.364 -43.511  1.00  0.00     0.078 C 
HETATM    4  C6  UNL     1      22.971 -23.174 -43.549  1.00  0.00     0.031 C 
HETATM    5  C7  UNL     1      23.511 -24.120 -42.510  1.00  0.00     0.125 C 
HETATM    6  C8  UNL     1      22.482 -24.027 -41.408  1.00  0.00     0.064 C 
HETATM    7  C9  UNL     1      21.158 -23.820 -42.107  1.00  0.00     0.131 C 
BRANCH   4   8
HETATM    8  C5  UNL     1      23.439 -21.756 -43.312  1.00  0.00     0.035 C 
BRANCH   8   9
HETATM    9  C4  UNL     1      24.258 -21.296 -44.482  1.00  0.00    -0.024 C 
HETATM   10  C2  UNL     1      24.299 -20.048 -44.912  1.00  0.00    -0.091 C 
HETATM   11  C1  UNL     1      25.151 -19.666 -46.099  1.00  0.00     0.042 C 
HETATM   12  C3  UNL     1      23.514 -18.944 -44.285  1.00  0.00     0.042 C 
ENDBRANCH   8   9
ENDBRANCH   4   8
BRANCH   5  13
HETATM   13  O1  UNL     1      23.520 -25.407 -43.014  1.00  0.00    -0.395 OA
ATOM     14  H1  UNL     1      24.405 -25.646 -43.264  1.00  0.00     0.210 HD
ENDBRANCH   5  13
BRANCH   7  15
HETATM   15  O2  UNL     1      20.407 -22.911 -41.406  1.00  0.00    -0.395 OA
ATOM     16  H2  UNL     1      19.534 -23.260 -41.268  1.00  0.00     0.210 HD
ENDBRANCH   7  15
ENDBRANCH   1   3
BRANCH   1  17
HETATM   17  O3  UNL     1      20.976 -20.921 -43.291  1.00  0.00    -0.364 OA
ATOM     18  H3  UNL     1      20.270 -20.304 -43.136  1.00  0.00     0.217 HD
ENDBRANCH   1  17
BRANCH   2  19
HETATM   19  C13 UNL     1      19.319 -23.326 -45.533  1.00  0.00    -0.125 C 
BRANCH  19  20
HETATM   20  C14 UNL     1      18.940 -24.285 -46.151  1.00  0.00     0.062 C 
BRANCH  20  21
HETATM   21  C15 UNL     1      18.860 -24.550 -47.603  1.00  0.00    -0.053 C 
HETATM   22  C16 UNL     1      17.762 -24.633 -48.364  1.00  0.00    -0.009 C 
HETATM   23  C17 UNL     1      18.169 -24.907 -49.769  1.00  0.00    -0.015 C 
HETATM   24  C18 UNL     1      18.438 -23.568 -50.416  1.00  0.00     0.020 C 
HETATM   25  C19 UNL     1      17.140 -25.615 -50.592  1.00  0.00     0.016 C 
HETATM   26  C23 UNL     1      19.400 -25.712 -49.565  1.00  0.00     0.004 C 
HETATM   27  C20 UNL     1      16.800 -26.964 -50.071  1.00  0.00     0.036 C 
HETATM   28  C21 UNL     1      17.918 -27.768 -49.499  1.00  0.00     0.153 C 
HETATM   29  C22 UNL     1      19.107 -27.058 -48.991  1.00  0.00     0.208 C 
HETATM   30  F1  UNL     1      19.059 -27.048 -47.592  1.00  0.00    -0.246 F 
HETATM   31  C24 UNL     1      20.335 -25.815 -50.716  1.00  0.00     0.020 C 
HETATM   32  C25 UNL     1      20.049 -24.871 -48.430  1.00  0.00     0.052 C 
BRANCH  28  33
HETATM   33  O4  UNL     1      17.336 -28.484 -48.404  1.00  0.00    -0.393 OA
ATOM     34  H4  UNL     1      17.577 -29.392 -48.548  1.00  0.00     0.210 HD
ENDBRANCH  28  33
ENDBRANCH  20  21
ENDBRANCH  19  20
ENDBRANCH   2  19
TORSDOF 10
ENDMDL
MODEL 5
REMARK VINA RESULT: -7.307806667      2.195      8.003
REMARK  10 active torsions:
REMARK  status: ('A' for Active; 'I' for Inactive)
REMARK    1  A    between atoms: C4_4  and  C5_5 
REMARK    2  A    between atoms: C5_5  and  C6_6 
REMARK    3  A    between atoms: C7_7  and  O1_8 
REMARK    4  A    between atoms: C9_11  and  O2_12 
REMARK    5  A    between atoms: C10_14  and  C11_15 
REMARK    6  A    between atoms: C11_15  and  O3_16 
REMARK    7  A    between atoms: C12_18  and  C13_19 
REMARK    8  A    between atoms: C13_19  and  C14_20 
REMARK    9  A    between atoms: C14_20  and  C15_21 
REMARK   10  A    between atoms: C21_27  and  O4_28 
ROOT
HETATM    1  C11 UNL     1      20.713 -22.246 -43.894  1.00  0.00     0.058 C 
HETATM    2  C12 UNL     1      19.683 -22.338 -44.718  1.00  0.00     0.088 C 
ENDROOT
BRANCH   1   3
HETATM    3  C10 UNL     1      21.525 -23.404 -43.501  1.00  0.00     0.078 C 
HETATM    4  C6  UNL     1      23.001 -23.173 -43.571  1.00  0.00     0.031 C 
HETATM    5  C7  UNL     1      23.587 -24.083 -42.525  1.00  0.00     0.125 C 
HETATM    6  C8  UNL     1      22.576 -23.999 -41.406  1.00  0.00     0.064 C 
HETATM    7  C9  UNL     1      21.234 -23.843 -42.083  1.00  0.00     0.131 C 
BRANCH   4   8
HETATM    8  C5  UNL     1      23.432 -21.738 -43.369  1.00  0.00     0.035 C 
BRANCH   8   9
HETATM    9  C4  UNL     1      24.272 -21.299 -44.532  1.00  0.00    -0.024 C 
HETATM   10  C2  UNL     1      24.381 -20.046 -44.935  1.00  0.00    -0.091 C 
HETATM   11  C1  UNL     1      25.251 -19.685 -46.116  1.00  0.00     0.042 C 
HETATM   12  C3  UNL     1      23.661 -18.914 -44.281  1.00  0.00     0.042 C 
ENDBRANCH   8   9
ENDBRANCH   4   8
BRANCH   5  13
HETATM   13  O1  UNL     1      23.623 -25.379 -43.005  1.00  0.00    -0.395 OA
ATOM     14  H1  UNL     1      23.308 -25.976 -42.336  1.00  0.00     0.210 HD
ENDBRANCH   5  13
BRANCH   7  15
HETATM   15  O2  UNL     1      20.470 -22.943 -41.385  1.00  0.00    -0.395 OA
ATOM     16  H2  UNL     1      20.469 -22.108 -41.838  1.00  0.00     0.210 HD
ENDBRANCH   7  15
ENDBRANCH   1   3
BRANCH   1  17
HETATM   17  O3  UNL     1      21.008 -20.955 -43.391  1.00  0.00    -0.364 OA
ATOM     18  H3  UNL     1      21.146 -20.818 -42.461  1.00  0.00     0.217 HD
ENDBRANCH   1  17
BRANCH   2  19
HETATM   19  C13 UNL     1      19.195 -23.504 -45.333  1.00  0.00    -0.125 C 
BRANCH  19  20
HETATM   20  C14 UNL     1      18.776 -24.503 -45.856  1.00  0.00     0.062 C 
BRANCH  20  21
HETATM   21  C15 UNL     1      18.328 -24.774 -47.238  1.00  0.00    -0.053 C 
HETATM   22  C16 UNL     1      18.047 -25.960 -47.792  1.00  0.00    -0.009 C 
HETATM   23  C17 UNL     1      17.629 -25.744 -49.204  1.00  0.00    -0.015 C 
HETATM   24  C18 UNL     1      16.142 -25.473 -49.185  1.00  0.00     0.020 C 
HETATM   25  C19 UNL     1      17.869 -26.908 -50.113  1.00  0.00     0.016 C 
HETATM   26  C23 UNL     1      18.433 -24.551 -49.568  1.00  0.00     0.004 C 
HETATM   27  C20 UNL     1      19.305 -27.267 -50.238  1.00  0.00     0.036 C 
HETATM   28  C21 UNL     1      20.282 -26.141 -50.264  1.00  0.00     0.153 C 
HETATM   29  C22 UNL     1      19.892 -24.857 -49.651  1.00  0.00     0.208 C 
HETATM   30  F1  UNL     1      20.539 -24.733 -48.417  1.00  0.00    -0.246 F 
HETATM   31  C24 UNL     1      17.983 -23.771 -50.751  1.00  0.00     0.020 C 
HETATM   32  C25 UNL     1      18.222 -23.718 -48.273  1.00  0.00     0.052 C 
BRANCH  28  33
HETATM   33  O4  UNL     1      21.429 -26.629 -49.560  1.00  0.00    -0.393 OA
ATOM     34  H4  UNL     1      21.374 -27.576 -49.625  1.00  0.00     0.210 HD
ENDBRANCH  28  33
ENDBRANCH  20  21
ENDBRANCH  19  20
ENDBRANCH   2  19
TORSDOF 10
ENDMDL
