MODEL 1
REMARK VINA RESULT: -7.716336129      0.000      0.000
REMARK  6 active torsions:
REMARK  status: ('A' for Active; 'I' for Inactive)
REMARK    1  A    between atoms: C2_2  and  C4_4 
REMARK       I    between atoms: N1_6  and  C6_7 
REMARK    2  A    between atoms: C8_13  and  N4_14 
REMARK    3  A    between atoms: N4_14  and  C9_16 
REMARK    4  A    between atoms: C10_19  and  N6_20 
REMARK    5  A    between atoms: N6_20  and  C11_22 
REMARK    6  A    between atoms: N7_30  and  C18_31 
ROOT
HETATM    1  C9  UNL     1      20.744 -22.055 -43.643  1.00  0.00     0.684 A 
HETATM    2  N5  UNL     1      21.045 -20.795 -44.019  1.00  0.00    -0.174 N 
ATOM      3  H5  UNL     1      20.420 -20.173 -44.532  1.00  0.00     0.186 HD
HETATM    4  C10 UNL     1      22.287 -20.480 -43.622  1.00  0.00     0.157 A 
HETATM    5  C17 UNL     1      22.750 -21.618 -42.970  1.00  0.00     0.166 A 
HETATM    6 CL1  UNL     1      24.328 -21.791 -42.235  1.00  0.00    -0.060 Cl
HETATM    7  N7  UNL     1      21.819 -22.585 -42.975  1.00  0.00    -0.164 N 
ENDROOT
BRANCH   1   8
HETATM    8  N4  UNL     1      19.625 -22.647 -43.880  1.00  0.00    -0.219 N 
ATOM      9  H4  UNL     1      18.743 -22.225 -43.590  1.00  0.00     0.178 HD
BRANCH   8  10
HETATM   10  C8  UNL     1      19.641 -23.915 -44.560  1.00  0.00     0.123 C 
HETATM   11  C4  UNL     1      18.256 -24.466 -44.618  1.00  0.00     0.032 C 
HETATM   12  C5  UNL     1      18.027 -24.860 -46.033  1.00  0.00     0.132 C 
HETATM   13  N1  UNL     1      19.257 -24.631 -46.720  1.00  0.00    -0.353 N 
HETATM   14  C6  UNL     1      19.613 -25.261 -47.958  1.00  0.00     0.184 C 
HETATM   15  C7  UNL     1      20.080 -23.679 -45.989  1.00  0.00     0.151 C 
HETATM   16  N2  UNL     1      20.307 -24.588 -48.794  1.00  0.00    -0.374 N 
HETATM   17  N3  UNL     1      19.169 -26.595 -48.176  1.00  0.00    -0.064 NA
ATOM     18  H22 UNL     1      20.625 -23.631 -48.638  1.00  0.00     0.158 HD
ATOM     19  H21 UNL     1      20.560 -25.037 -49.674  1.00  0.00     0.158 HD
BRANCH  11  20
HETATM   20  C2  UNL     1      18.001 -25.574 -43.619  1.00  0.00    -0.015 C 
HETATM   21  C1  UNL     1      17.067 -25.024 -42.564  1.00  0.00     0.010 C 
HETATM   22  C3  UNL     1      17.398 -26.801 -44.221  1.00  0.00     0.010 C 
ENDBRANCH  11  20
ENDBRANCH   8  10
ENDBRANCH   1   8
BRANCH   7  23
HETATM   23  C18 UNL     1      21.863 -23.904 -42.429  1.00  0.00     0.109 A 
HETATM   24  C19 UNL     1      22.722 -24.219 -41.218  1.00  0.00     0.028 A 
HETATM   25  C20 UNL     1      22.961 -24.849 -42.602  1.00  0.00     0.028 A 
ENDBRANCH   7  23
BRANCH   4  26
HETATM   26  N6  UNL     1      23.038 -19.297 -43.761  1.00  0.00    -0.369 N 
ATOM     27  H6  UNL     1      23.089 -18.673 -42.956  1.00  0.00     0.161 HD
BRANCH  26  28
HETATM   28  C11 UNL     1      23.743 -18.905 -44.961  1.00  0.00     0.083 C 
HETATM   29  C12 UNL     1      24.935 -19.797 -45.152  1.00  0.00     0.025 C 
HETATM   30  C13 UNL     1      25.570 -19.595 -46.514  1.00  0.00     0.002 C 
HETATM   31  C14 UNL     1      25.385 -18.137 -46.938  1.00  0.00     0.000 C 
HETATM   32  C15 UNL     1      25.420 -17.297 -45.687  1.00  0.00     0.002 C 
HETATM   33  C16 UNL     1      24.126 -17.448 -44.897  1.00  0.00     0.025 C 
ENDBRANCH  26  28
ENDBRANCH   4  26
TORSDOF 6
ENDMDL
MODEL 2
REMARK VINA RESULT: -7.499154813      3.569      6.417
REMARK  6 active torsions:
REMARK  status: ('A' for Active; 'I' for Inactive)
REMARK    1  A    between atoms: C2_2  and  C4_4 
REMARK       I    between atoms: N1_6  and  C6_7 
REMARK    2  A    between atoms: C8_13  and  N4_14 
REMARK    3  A    between atoms: N4_14  and  C9_16 
REMARK    4  A    between atoms: C10_19  and  N6_20 
REMARK    5  A    between atoms: N6_20  and  C11_22 
REMARK    6  A    between atoms: N7_30  and  C18_31 
ROOT
HETATM    1  C9  UNL     1      17.840 -25.352 -44.316  1.00  0.00     0.684 A 
HETATM    2  N5  UNL     1      18.900 -24.546 -44.104  1.00  0.00    -0.174 N 
ATOM      3  H5  UNL     1      19.325 -24.366 -43.194  1.00  0.00     0.186 HD
HETATM    4  C10 UNL     1      19.314 -24.015 -45.264  1.00  0.00     0.157 A 
HETATM    5  C17 UNL     1      18.450 -24.537 -46.222  1.00  0.00     0.166 A 
HETATM    6 CL1  UNL     1      18.510 -24.192 -47.935  1.00  0.00    -0.060 Cl
HETATM    7  N7  UNL     1      17.546 -25.354 -45.656  1.00  0.00    -0.164 N 
ENDROOT
BRANCH   1   8
HETATM    8  N4  UNL     1      17.216 -26.005 -43.398  1.00  0.00    -0.219 N 
ATOM      9  H4  UNL     1      17.539 -26.928 -43.107  1.00  0.00     0.178 HD
BRANCH   8  10
HETATM   10  C8  UNL     1      16.054 -25.413 -42.790  1.00  0.00     0.123 C 
HETATM   11  C4  UNL     1      15.026 -26.466 -42.549  1.00  0.00     0.032 C 
HETATM   12  C5  UNL     1      14.591 -26.304 -41.137  1.00  0.00     0.132 C 
HETATM   13  N1  UNL     1      15.273 -25.154 -40.634  1.00  0.00    -0.353 N 
HETATM   14  C6  UNL     1      14.836 -24.398 -39.497  1.00  0.00     0.184 C 
HETATM   15  C7  UNL     1      16.454 -24.871 -41.434  1.00  0.00     0.151 C 
HETATM   16  N2  UNL     1      15.730 -23.879 -38.744  1.00  0.00    -0.374 N 
HETATM   17  N3  UNL     1      13.436 -24.274 -39.279  1.00  0.00    -0.064 NA
ATOM     18  H22 UNL     1      16.735 -23.968 -38.900  1.00  0.00     0.158 HD
ATOM     19  H21 UNL     1      15.419 -23.342 -37.936  1.00  0.00     0.158 HD
BRANCH  11  20
HETATM   20  C2  UNL     1      13.891 -26.447 -43.550  1.00  0.00    -0.015 C 
HETATM   21  C1  UNL     1      12.656 -26.956 -42.841  1.00  0.00     0.010 C 
HETATM   22  C3  UNL     1      13.611 -25.094 -44.118  1.00  0.00     0.010 C 
ENDBRANCH  11  20
ENDBRANCH   8  10
ENDBRANCH   1   8
BRANCH   7  23
HETATM   23  C18 UNL     1      16.483 -26.097 -46.252  1.00  0.00     0.109 A 
HETATM   24  C19 UNL     1      16.408 -27.606 -46.107  1.00  0.00     0.028 A 
HETATM   25  C20 UNL     1      16.595 -26.903 -47.463  1.00  0.00     0.028 A 
ENDBRANCH   7  23
BRANCH   4  26
HETATM   26  N6  UNL     1      20.374 -23.138 -45.563  1.00  0.00    -0.369 N 
ATOM     27  H6  UNL     1      20.741 -23.147 -46.515  1.00  0.00     0.161 HD
BRANCH  26  28
HETATM   28  C11 UNL     1      20.981 -22.226 -44.618  1.00  0.00     0.083 C 
HETATM   29  C12 UNL     1      19.950 -21.244 -44.143  1.00  0.00     0.025 C 
HETATM   30  C13 UNL     1      20.459 -20.423 -42.974  1.00  0.00     0.002 C 
HETATM   31  C14 UNL     1      21.969 -20.232 -43.122  1.00  0.00     0.000 C 
HETATM   32  C15 UNL     1      22.273 -20.164 -44.597  1.00  0.00     0.002 C 
HETATM   33  C16 UNL     1      22.176 -21.544 -45.234  1.00  0.00     0.025 C 
ENDBRANCH  26  28
ENDBRANCH   4  26
TORSDOF 6
ENDMDL
MODEL 3
REMARK VINA RESULT: -7.466083733      2.167      4.071
REMARK  6 active torsions:
REMARK  status: ('A' for Active; 'I' for Inactive)
REMARK    1  A    between atoms: C2_2  and  C4_4 
REMARK       I    between atoms: N1_6  and  C6_7 
REMARK    2  A    between atoms: C8_13  and  N4_14 
REMARK    3  A    between atoms: N4_14  and  C9_16 
REMARK    4  A    between atoms: C10_19  and  N6_20 
REMARK    5  A    between atoms: N6_20  and  C11_22 
REMARK    6  A    between atoms: N7_30  and  C18_31 
ROOT
HETATM    1  C9  UNL     1      18.875 -23.665 -45.545  1.00  0.00     0.684 A 
HETATM    2  N5  UNL     1      19.544 -22.499 -45.433  1.00  0.00    -0.174 N 
ATOM      3  H5  UNL     1      19.834 -21.914 -46.217  1.00  0.00     0.186 HD
HETATM    4  C10 UNL     1      19.774 -22.222 -44.141  1.00  0.00     0.157 A 
HETATM    5  C17 UNL     1      19.207 -23.284 -43.444  1.00  0.00     0.166 A 
HETATM    6 CL1  UNL     1      19.200 -23.465 -41.705  1.00  0.00    -0.060 Cl
HETATM    7  N7  UNL     1      18.655 -24.170 -44.289  1.00  0.00    -0.164 N 
ENDROOT
BRANCH   1   8
HETATM    8  N4  UNL     1      18.509 -24.201 -46.657  1.00  0.00    -0.219 N 
ATOM      9  H4  UNL     1      17.625 -23.941 -47.093  1.00  0.00     0.178 HD
BRANCH   8  10
HETATM   10  C8  UNL     1      19.370 -25.173 -47.276  1.00  0.00     0.123 C 
HETATM   11  C4  UNL     1      18.555 -26.098 -48.116  1.00  0.00     0.032 C 
HETATM   12  C5  UNL     1      19.231 -26.159 -49.439  1.00  0.00     0.132 C 
HETATM   13  N1  UNL     1      20.422 -25.381 -49.319  1.00  0.00    -0.353 N 
HETATM   14  C6  UNL     1      21.559 -25.520 -50.183  1.00  0.00     0.184 C 
HETATM   15  C7  UNL     1      20.312 -24.445 -48.211  1.00  0.00     0.151 C 
HETATM   16  N2  UNL     1      22.229 -24.467 -50.462  1.00  0.00    -0.374 N 
HETATM   17  N3  UNL     1      21.866 -26.818 -50.673  1.00  0.00    -0.064 NA
ATOM     18  H22 UNL     1      22.008 -23.535 -50.111  1.00  0.00     0.158 HD
ATOM     19  H21 UNL     1      23.037 -24.566 -51.076  1.00  0.00     0.158 HD
BRANCH  11  20
HETATM   20  C2  UNL     1      18.321 -27.451 -47.479  1.00  0.00    -0.015 C 
HETATM   21  C1  UNL     1      16.825 -27.665 -47.412  1.00  0.00     0.010 C 
HETATM   22  C3  UNL     1      18.949 -28.584 -48.224  1.00  0.00     0.010 C 
ENDBRANCH  11  20
ENDBRANCH   8  10
ENDBRANCH   1   8
BRANCH   7  23
HETATM   23  C18 UNL     1      17.972 -25.395 -44.016  1.00  0.00     0.109 A 
HETATM   24  C19 UNL     1      16.528 -25.593 -44.436  1.00  0.00     0.028 A 
HETATM   25  C20 UNL     1      16.979 -25.587 -42.965  1.00  0.00     0.028 A 
ENDBRANCH   7  23
BRANCH   4  26
HETATM   26  N6  UNL     1      20.413 -21.132 -43.520  1.00  0.00    -0.369 N 
ATOM     27  H6  UNL     1      19.822 -20.408 -43.111  1.00  0.00     0.161 HD
BRANCH  26  28
HETATM   28  C11 UNL     1      21.846 -20.963 -43.421  1.00  0.00     0.083 C 
HETATM   29  C12 UNL     1      22.274 -19.823 -44.298  1.00  0.00     0.025 C 
HETATM   30  C13 UNL     1      23.720 -19.441 -44.050  1.00  0.00     0.002 C 
HETATM   31  C14 UNL     1      24.504 -20.694 -43.655  1.00  0.00     0.000 C 
HETATM   32  C15 UNL     1      23.891 -21.859 -44.390  1.00  0.00     0.002 C 
HETATM   33  C16 UNL     1      22.555 -22.247 -43.769  1.00  0.00     0.025 C 
ENDBRANCH  26  28
ENDBRANCH   4  26
TORSDOF 6
ENDMDL
MODEL 4
REMARK VINA RESULT: -7.377142426      3.605      6.462
REMARK  6 active torsions:
REMARK  status: ('A' for Active; 'I' for Inactive)
REMARK    1  A    between atoms: C2_2  and  C4_4 
REMARK       I    between atoms: N1_6  and  C6_7 
REMARK    2  A    between atoms: C8_13  and  N4_14 
REMARK    3  A    between atoms: N4_14  and  C9_16 
REMARK    4  A    between atoms: C10_19  and  N6_20 
REMARK    5  A    between atoms: N6_20  and  C11_22 
REMARK    6  A    between atoms: N7_30  and  C18_31 
ROOT
HETATM    1  C9  UNL     1      17.180 -25.413 -46.476  1.00  0.00     0.684 A 
HETATM    2  N5  UNL     1      17.895 -24.602 -45.669  1.00  0.00    -0.174 N 
ATOM      3  H5  UNL     1      17.579 -24.252 -44.765  1.00  0.00     0.186 HD
HETATM    4  C10 UNL     1      19.081 -24.323 -46.231  1.00  0.00     0.157 A 
HETATM    5  C17 UNL     1      19.071 -25.009 -47.441  1.00  0.00     0.166 A 
HETATM    6 CL1  UNL     1      20.370 -25.017 -48.611  1.00  0.00    -0.060 Cl
HETATM    7  N7  UNL     1      17.917 -25.678 -47.602  1.00  0.00    -0.164 N 
ENDROOT
BRANCH   1   8
HETATM    8  N4  UNL     1      15.999 -25.856 -46.216  1.00  0.00    -0.219 N 
ATOM      9  H4  UNL     1      15.226 -25.680 -46.858  1.00  0.00     0.178 HD
BRANCH   8  10
HETATM   10  C8  UNL     1      15.787 -26.602 -45.005  1.00  0.00     0.123 C 
HETATM   11  C4  UNL     1      14.712 -25.954 -44.201  1.00  0.00     0.032 C 
HETATM   12  C5  UNL     1      13.763 -27.036 -43.830  1.00  0.00     0.132 C 
HETATM   13  N1  UNL     1      14.326 -28.252 -44.320  1.00  0.00    -0.353 N 
HETATM   14  C6  UNL     1      13.982 -29.552 -43.822  1.00  0.00     0.184 C 
HETATM   15  C7  UNL     1      15.284 -27.980 -45.381  1.00  0.00     0.151 C 
HETATM   16  N2  UNL     1      13.969 -30.526 -44.651  1.00  0.00    -0.374 N 
HETATM   17  N3  UNL     1      13.676 -29.675 -42.439  1.00  0.00    -0.064 NA
ATOM     18  H22 UNL     1      14.188 -30.439 -45.644  1.00  0.00     0.158 HD
ATOM     19  H21 UNL     1      13.724 -31.450 -44.297  1.00  0.00     0.158 HD
BRANCH  11  20
HETATM   20  C2  UNL     1      15.231 -25.157 -43.023  1.00  0.00    -0.015 C 
HETATM   21  C1  UNL     1      14.201 -25.260 -41.920  1.00  0.00     0.010 C 
HETATM   22  C3  UNL     1      16.552 -25.630 -42.511  1.00  0.00     0.010 C 
ENDBRANCH  11  20
ENDBRANCH   8  10
ENDBRANCH   1   8
BRANCH   7  23
HETATM   23  C18 UNL     1      17.480 -26.504 -48.682  1.00  0.00     0.109 A 
HETATM   24  C19 UNL     1      17.411 -28.012 -48.532  1.00  0.00     0.028 A 
HETATM   25  C20 UNL     1      18.350 -27.311 -49.529  1.00  0.00     0.028 A 
ENDBRANCH   7  23
BRANCH   4  26
HETATM   26  N6  UNL     1      20.166 -23.546 -45.781  1.00  0.00    -0.369 N 
ATOM     27  H6  UNL     1      21.101 -23.822 -46.081  1.00  0.00     0.161 HD
BRANCH  26  28
HETATM   28  C11 UNL     1      20.050 -22.386 -44.926  1.00  0.00     0.083 C 
HETATM   29  C12 UNL     1      21.345 -21.628 -44.938  1.00  0.00     0.025 C 
HETATM   30  C13 UNL     1      21.208 -20.278 -44.260  1.00  0.00     0.002 C 
HETATM   31  C14 UNL     1      20.171 -20.388 -43.141  1.00  0.00     0.000 C 
HETATM   32  C15 UNL     1      20.262 -21.783 -42.577  1.00  0.00     0.002 C 
HETATM   33  C16 UNL     1      19.641 -22.794 -43.533  1.00  0.00     0.025 C 
ENDBRANCH  26  28
ENDBRANCH   4  26
TORSDOF 6
ENDMDL
MODEL 5
REMARK VINA RESULT: -7.377070895      3.308      7.140
REMARK  6 active torsions:
REMARK  status: ('A' for Active; 'I' for Inactive)
REMARK    1  A    between atoms: C2_2  and  C4_4 
REMARK       I    between atoms: N1_6  and  C6_7 
REMARK    2  A    between atoms: C8_13  and  N4_14 
REMARK    3  A    between atoms: N4_14  and  C9_16 
REMARK    4  A    between atoms: C10_19  and  N6_20 
REMARK    5  A    between atoms: N6_20  and  C11_22 
REMARK    6  A    between atoms: N7_30  and  C18_31 
ROOT
HETATM    1  C9  UNL     1      18.472 -24.557 -45.195  1.00  0.00     0.684 A 
HETATM    2  N5  UNL     1      18.670 -23.896 -46.355  1.00  0.00    -0.174 N 
ATOM      3  H5  UNL     1      19.150 -23.001 -46.443  1.00  0.00     0.186 HD
HETATM    4  C10 UNL     1      18.142 -24.589 -47.375  1.00  0.00     0.157 A 
HETATM    5  C17 UNL     1      17.600 -25.728 -46.788  1.00  0.00     0.166 A 
HETATM    6 CL1  UNL     1      16.773 -27.011 -47.642  1.00  0.00    -0.060 Cl
HETATM    7  N7  UNL     1      17.795 -25.721 -45.459  1.00  0.00    -0.164 N 
ENDROOT
BRANCH   1   8
HETATM    8  N4  UNL     1      18.861 -24.147 -44.038  1.00  0.00    -0.219 N 
ATOM      9  H4  UNL     1      18.233 -24.186 -43.236  1.00  0.00     0.178 HD
BRANCH   8  10
HETATM   10  C8  UNL     1      20.196 -23.631 -43.896  1.00  0.00     0.123 C 
HETATM   11  C4  UNL     1      20.140 -22.240 -43.362  1.00  0.00     0.032 C 
HETATM   12  C5  UNL     1      21.094 -22.195 -42.223  1.00  0.00     0.132 C 
HETATM   13  N1  UNL     1      21.729 -23.473 -42.178  1.00  0.00    -0.353 N 
HETATM   14  C6  UNL     1      22.989 -23.718 -41.540  1.00  0.00     0.184 C 
HETATM   15  C7  UNL     1      20.920 -24.469 -42.864  1.00  0.00     0.151 C 
HETATM   16  N2  UNL     1      23.162 -24.852 -40.973  1.00  0.00    -0.374 N 
HETATM   17  N3  UNL     1      23.965 -22.685 -41.577  1.00  0.00    -0.064 NA
ATOM     18  H22 UNL     1      22.461 -25.593 -40.947  1.00  0.00     0.158 HD
ATOM     19  H21 UNL     1      24.058 -25.027 -40.520  1.00  0.00     0.158 HD
BRANCH  11  20
HETATM   20  C2  UNL     1      20.380 -21.175 -44.411  1.00  0.00    -0.015 C 
HETATM   21  C1  UNL     1      20.406 -19.840 -43.700  1.00  0.00     0.010 C 
HETATM   22  C3  UNL     1      21.653 -21.355 -45.171  1.00  0.00     0.010 C 
ENDBRANCH  11  20
ENDBRANCH   8  10
ENDBRANCH   1   8
BRANCH   7  23
HETATM   23  C18 UNL     1      17.411 -26.677 -44.470  1.00  0.00     0.109 A 
HETATM   24  C19 UNL     1      15.978 -27.165 -44.372  1.00  0.00     0.028 A 
HETATM   25  C20 UNL     1      16.673 -26.373 -43.250  1.00  0.00     0.028 A 
ENDBRANCH   7  23
BRANCH   4  26
HETATM   26  N6  UNL     1      18.104 -24.329 -48.758  1.00  0.00    -0.369 N 
ATOM     27  H6  UNL     1      17.387 -23.688 -49.099  1.00  0.00     0.161 HD
BRANCH  26  28
HETATM   28  C11 UNL     1      19.007 -24.904 -49.730  1.00  0.00     0.083 C 
HETATM   29  C12 UNL     1      20.346 -25.134 -49.090  1.00  0.00     0.025 C 
HETATM   30  C13 UNL     1      21.256 -25.956 -49.981  1.00  0.00     0.002 C 
HETATM   31  C14 UNL     1      20.933 -25.646 -51.444  1.00  0.00     0.000 C 
HETATM   32  C15 UNL     1      20.506 -24.201 -51.514  1.00  0.00     0.002 C 
HETATM   33  C16 UNL     1      19.103 -24.024 -50.950  1.00  0.00     0.025 C 
ENDBRANCH  26  28
ENDBRANCH   4  26
TORSDOF 6
ENDMDL
