MODEL 1
REMARK VINA RESULT: -7.372379253      0.000      0.000
REMARK  8 active torsions:
REMARK  status: ('A' for Active; 'I' for Inactive)
REMARK    1  A    between atoms: C2_2  and  C4_4 
REMARK    2  A    between atoms: C4_4  and  N1_6 
REMARK    3  A    between atoms: N1_6  and  C6_8 
REMARK    4  A    between atoms: C7_11  and  N3_12 
REMARK    5  A    between atoms: C9_18  and  N5_19 
REMARK    6  A    between atoms: N5_19  and  C10_20 
REMARK    7  A    between atoms: C10_20  and  C11_21 
REMARK    8  A    between atoms: C16_27  and  C17_28 
ROOT
HETATM    1  C6  UNL     1      20.321 -22.245 -44.343  1.00  0.00     0.146 A 
HETATM    2  N2  UNL     1      20.175 -21.971 -43.052  1.00  0.00    -0.175 N 
ATOM      3  H2  UNL     1      20.666 -21.186 -42.623  1.00  0.00     0.186 HD
HETATM    4  C7  UNL     1      19.349 -22.769 -42.314  1.00  0.00     0.678 A 
HETATM    5  N4  UNL     1      18.693 -23.806 -42.839  1.00  0.00    -0.186 N 
ATOM      6  H4  UNL     1      18.087 -24.377 -42.250  1.00  0.00     0.184 HD
HETATM    7  C8  UNL     1      18.826 -24.095 -44.124  1.00  0.00     0.120 A 
HETATM    8  C9  UNL     1      18.103 -25.204 -44.612  1.00  0.00     0.138 A 
HETATM    9  C15 UNL     1      18.301 -25.443 -45.980  1.00  0.00     0.075 A 
HETATM   10  C16 UNL     1      19.120 -24.665 -46.760  1.00  0.00     0.052 A 
HETATM   11  N6  UNL     1      19.770 -23.629 -46.212  1.00  0.00    -0.352 N 
ATOM     12  H6  UNL     1      20.377 -23.056 -46.797  1.00  0.00     0.166 HD
HETATM   13  C20 UNL     1      19.638 -23.328 -44.906  1.00  0.00     0.108 A 
ENDROOT
BRANCH   1  14
HETATM   14  N1  UNL     1      21.067 -21.534 -45.078  1.00  0.00    -0.369 N 
ATOM     15  H1  UNL     1      20.622 -21.165 -45.918  1.00  0.00     0.161 HD
BRANCH  14  16
HETATM   16  C4  UNL     1      22.419 -21.172 -44.912  1.00  0.00     0.082 C 
HETATM   17  C5  UNL     1      23.235 -22.207 -44.126  1.00  0.00     0.032 C 
BRANCH  16  18
HETATM   18  C2  UNL     1      22.655 -19.769 -44.381  1.00  0.00    -0.000 C 
HETATM   19  C1  UNL     1      22.862 -19.724 -42.887  1.00  0.00     0.011 C 
HETATM   20  C3  UNL     1      23.798 -19.067 -45.059  1.00  0.00     0.011 C 
ENDBRANCH  16  18
ENDBRANCH  14  16
ENDBRANCH   1  14
BRANCH   4  21
HETATM   21  N3  UNL     1      19.201 -22.515 -41.065  1.00  0.00    -0.234 N 
ATOM     22  H32 UNL     1      20.033 -22.416 -40.483  1.00  0.00     0.174 HD
ATOM     23  H31 UNL     1      18.255 -22.416 -40.694  1.00  0.00     0.174 HD
ENDBRANCH   4  21
BRANCH   8  24
HETATM   24  N5  UNL     1      17.397 -25.849 -43.881  1.00  0.00    -0.414 NA
BRANCH  24  25
HETATM   25  C10 UNL     1      16.616 -26.556 -43.086  1.00  0.00     0.201 C 
BRANCH  25  26
HETATM   26  C11 UNL     1      15.618 -25.736 -42.278  1.00  0.00     0.033 A 
HETATM   27  C12 UNL     1      15.856 -24.994 -41.152  1.00  0.00     0.022 A 
HETATM   28  C13 UNL     1      14.816 -24.355 -40.613  1.00  0.00     0.008 A 
HETATM   29  C14 UNL     1      13.600 -24.491 -41.225  1.00  0.00     0.050 A 
HETATM   30  S1  UNL     1      13.956 -25.516 -42.545  1.00  0.00    -0.100 SA
ENDBRANCH  25  26
ENDBRANCH  24  25
ENDBRANCH   8  24
BRANCH  10  31
HETATM   31  C17 UNL     1      19.292 -24.978 -48.204  1.00  0.00     0.138 C 
HETATM   32  C18 UNL     1      18.278 -24.262 -49.050  1.00  0.00     0.058 C 
HETATM   33  C19 UNL     1      19.128 -26.460 -48.410  1.00  0.00     0.058 C 
HETATM   34  F1  UNL     1      20.558 -24.577 -48.602  1.00  0.00    -0.237 F 
ENDBRANCH  10  31
TORSDOF 8
ENDMDL
MODEL 2
REMARK VINA RESULT: -7.087293626      1.848      5.176
REMARK  8 active torsions:
REMARK  status: ('A' for Active; 'I' for Inactive)
REMARK    1  A    between atoms: C2_2  and  C4_4 
REMARK    2  A    between atoms: C4_4  and  N1_6 
REMARK    3  A    between atoms: N1_6  and  C6_8 
REMARK    4  A    between atoms: C7_11  and  N3_12 
REMARK    5  A    between atoms: C9_18  and  N5_19 
REMARK    6  A    between atoms: N5_19  and  C10_20 
REMARK    7  A    between atoms: C10_20  and  C11_21 
REMARK    8  A    between atoms: C16_27  and  C17_28 
ROOT
HETATM    1  C6  UNL     1      18.963 -24.403 -45.679  1.00  0.00     0.146 A 
HETATM    2  N2  UNL     1      18.088 -25.376 -45.453  1.00  0.00    -0.175 N 
ATOM      3  H2  UNL     1      17.773 -25.984 -46.209  1.00  0.00     0.186 HD
HETATM    4  C7  UNL     1      17.622 -25.541 -44.180  1.00  0.00     0.678 A 
HETATM    5  N4  UNL     1      18.010 -24.764 -43.166  1.00  0.00    -0.186 N 
ATOM      6  H4  UNL     1      17.635 -24.922 -42.231  1.00  0.00     0.184 HD
HETATM    7  C8  UNL     1      18.881 -23.789 -43.371  1.00  0.00     0.120 A 
HETATM    8  C9  UNL     1      19.246 -23.007 -42.255  1.00  0.00     0.138 A 
HETATM    9  C15 UNL     1      20.170 -21.995 -42.558  1.00  0.00     0.075 A 
HETATM   10  C16 UNL     1      20.665 -21.795 -43.823  1.00  0.00     0.052 A 
HETATM   11  N6  UNL     1      20.263 -22.588 -44.826  1.00  0.00    -0.352 N 
ATOM     12  H6  UNL     1      20.634 -22.433 -45.763  1.00  0.00     0.166 HD
HETATM   13  C20 UNL     1      19.378 -23.582 -44.625  1.00  0.00     0.108 A 
ENDROOT
BRANCH   1  14
HETATM   14  N1  UNL     1      19.435 -24.210 -46.837  1.00  0.00    -0.369 N 
ATOM     15  H1  UNL     1      20.204 -23.541 -46.884  1.00  0.00     0.161 HD
BRANCH  14  16
HETATM   16  C4  UNL     1      19.062 -24.777 -48.071  1.00  0.00     0.082 C 
HETATM   17  C5  UNL     1      20.255 -25.113 -48.975  1.00  0.00     0.032 C 
BRANCH  16  18
HETATM   18  C2  UNL     1      17.991 -24.018 -48.837  1.00  0.00    -0.000 C 
HETATM   19  C1  UNL     1      18.336 -23.804 -50.290  1.00  0.00     0.011 C 
HETATM   20  C3  UNL     1      16.634 -24.656 -48.740  1.00  0.00     0.011 C 
ENDBRANCH  16  18
ENDBRANCH  14  16
ENDBRANCH   1  14
BRANCH   4  21
HETATM   21  N3  UNL     1      16.776 -26.477 -43.950  1.00  0.00    -0.234 N 
ATOM     22  H32 UNL     1      16.702 -26.850 -43.004  1.00  0.00     0.174 HD
ATOM     23  H31 UNL     1      16.202 -26.818 -44.722  1.00  0.00     0.174 HD
ENDBRANCH   4  21
BRANCH   8  24
HETATM   24  N5  UNL     1      18.780 -23.230 -41.168  1.00  0.00    -0.414 NA
BRANCH  24  25
HETATM   25  C10 UNL     1      18.275 -23.468 -39.972  1.00  0.00     0.201 C 
BRANCH  25  26
HETATM   26  C11 UNL     1      16.754 -23.554 -39.928  1.00  0.00     0.033 A 
HETATM   27  C12 UNL     1      15.885 -22.730 -39.264  1.00  0.00     0.022 A 
HETATM   28  C13 UNL     1      14.584 -23.004 -39.372  1.00  0.00     0.008 A 
HETATM   29  C14 UNL     1      14.222 -24.081 -40.135  1.00  0.00     0.050 A 
HETATM   30  S1  UNL     1      15.728 -24.678 -40.679  1.00  0.00    -0.100 SA
ENDBRANCH  25  26
ENDBRANCH  24  25
ENDBRANCH   8  24
BRANCH  10  31
HETATM   31  C17 UNL     1      21.637 -20.699 -44.077  1.00  0.00     0.138 C 
HETATM   32  C18 UNL     1      22.613 -21.065 -45.160  1.00  0.00     0.058 C 
HETATM   33  C19 UNL     1      22.406 -20.418 -42.815  1.00  0.00     0.058 C 
HETATM   34  F1  UNL     1      20.943 -19.568 -44.477  1.00  0.00    -0.237 F 
ENDBRANCH  10  31
TORSDOF 8
ENDMDL
MODEL 3
REMARK VINA RESULT: -7.038266357      1.428      2.036
REMARK  8 active torsions:
REMARK  status: ('A' for Active; 'I' for Inactive)
REMARK    1  A    between atoms: C2_2  and  C4_4 
REMARK    2  A    between atoms: C4_4  and  N1_6 
REMARK    3  A    between atoms: N1_6  and  C6_8 
REMARK    4  A    between atoms: C7_11  and  N3_12 
REMARK    5  A    between atoms: C9_18  and  N5_19 
REMARK    6  A    between atoms: N5_19  and  C10_20 
REMARK    7  A    between atoms: C10_20  and  C11_21 
REMARK    8  A    between atoms: C16_27  and  C17_28 
ROOT
HETATM    1  C6  UNL     1      19.999 -22.233 -44.049  1.00  0.00     0.146 A 
HETATM    2  N2  UNL     1      19.859 -22.023 -42.745  1.00  0.00    -0.175 N 
ATOM      3  H2  UNL     1      20.295 -21.218 -42.294  1.00  0.00     0.186 HD
HETATM    4  C7  UNL     1      19.116 -22.913 -42.025  1.00  0.00     0.678 A 
HETATM    5  N4  UNL     1      18.533 -23.978 -42.580  1.00  0.00    -0.186 N 
ATOM      6  H4  UNL     1      17.987 -24.618 -42.003  1.00  0.00     0.184 HD
HETATM    7  C8  UNL     1      18.660 -24.205 -43.877  1.00  0.00     0.120 A 
HETATM    8  C9  UNL     1      18.017 -25.348 -44.397  1.00  0.00     0.138 A 
HETATM    9  C15 UNL     1      18.203 -25.516 -45.777  1.00  0.00     0.075 A 
HETATM   10  C16 UNL     1      18.941 -24.645 -46.540  1.00  0.00     0.052 A 
HETATM   11  N6  UNL     1      19.518 -23.582 -45.962  1.00  0.00    -0.352 N 
ATOM     12  H6  UNL     1      20.065 -22.939 -46.534  1.00  0.00     0.166 HD
HETATM   13  C20 UNL     1      19.391 -23.344 -44.643  1.00  0.00     0.108 A 
ENDROOT
BRANCH   1  14
HETATM   14  N1  UNL     1      20.669 -21.435 -44.768  1.00  0.00    -0.369 N 
ATOM     15  H1  UNL     1      20.117 -20.848 -45.392  1.00  0.00     0.161 HD
BRANCH  14  16
HETATM   16  C4  UNL     1      22.062 -21.236 -44.838  1.00  0.00     0.082 C 
HETATM   17  C5  UNL     1      22.873 -22.345 -44.155  1.00  0.00     0.032 C 
BRANCH  16  18
HETATM   18  C2  UNL     1      22.543 -19.861 -44.407  1.00  0.00    -0.000 C 
HETATM   19  C1  UNL     1      22.749 -19.740 -42.917  1.00  0.00     0.011 C 
HETATM   20  C3  UNL     1      23.795 -19.426 -45.115  1.00  0.00     0.011 C 
ENDBRANCH  16  18
ENDBRANCH  14  16
ENDBRANCH   1  14
BRANCH   4  21
HETATM   21  N3  UNL     1      18.976 -22.720 -40.764  1.00  0.00    -0.234 N 
ATOM     22  H32 UNL     1      19.426 -21.909 -40.340  1.00  0.00     0.174 HD
ATOM     23  H31 UNL     1      18.417 -23.383 -40.227  1.00  0.00     0.174 HD
ENDBRANCH   4  21
BRANCH   8  24
HETATM   24  N5  UNL     1      17.381 -26.076 -43.680  1.00  0.00    -0.414 NA
BRANCH  24  25
HETATM   25  C10 UNL     1      16.677 -26.875 -42.900  1.00  0.00     0.201 C 
BRANCH  25  26
HETATM   26  C11 UNL     1      15.629 -27.712 -43.624  1.00  0.00     0.033 A 
HETATM   27  C12 UNL     1      15.372 -27.756 -44.968  1.00  0.00     0.022 A 
HETATM   28  C13 UNL     1      14.396 -28.571 -45.374  1.00  0.00     0.008 A 
HETATM   29  C14 UNL     1      13.734 -29.294 -44.419  1.00  0.00     0.050 A 
HETATM   30  S1  UNL     1      14.506 -28.806 -42.975  1.00  0.00    -0.100 SA
ENDBRANCH  25  26
ENDBRANCH  24  25
ENDBRANCH   8  24
BRANCH  10  31
HETATM   31  C17 UNL     1      19.105 -24.886 -47.998  1.00  0.00     0.138 C 
HETATM   32  C18 UNL     1      18.096 -24.117 -48.803  1.00  0.00     0.058 C 
HETATM   33  C19 UNL     1      18.925 -26.354 -48.278  1.00  0.00     0.058 C 
HETATM   34  F1  UNL     1      20.374 -24.479 -48.380  1.00  0.00    -0.237 F 
ENDBRANCH  10  31
TORSDOF 8
ENDMDL
MODEL 4
REMARK VINA RESULT: -6.898750449      0.655      1.239
REMARK  8 active torsions:
REMARK  status: ('A' for Active; 'I' for Inactive)
REMARK    1  A    between atoms: C2_2  and  C4_4 
REMARK    2  A    between atoms: C4_4  and  N1_6 
REMARK    3  A    between atoms: N1_6  and  C6_8 
REMARK    4  A    between atoms: C7_11  and  N3_12 
REMARK    5  A    between atoms: C9_18  and  N5_19 
REMARK    6  A    between atoms: N5_19  and  C10_20 
REMARK    7  A    between atoms: C10_20  and  C11_21 
REMARK    8  A    between atoms: C16_27  and  C17_28 
ROOT
HETATM    1  C6  UNL     1      20.319 -22.455 -43.829  1.00  0.00     0.146 A 
HETATM    2  N2  UNL     1      20.123 -22.256 -42.530  1.00  0.00    -0.175 N 
ATOM      3  H2  UNL     1      20.652 -21.547 -42.023  1.00  0.00     0.186 HD
HETATM    4  C7  UNL     1      19.195 -23.028 -41.893  1.00  0.00     0.678 A 
HETATM    5  N4  UNL     1      18.486 -23.967 -42.523  1.00  0.00    -0.186 N 
ATOM      6  H4  UNL     1      17.803 -24.522 -42.007  1.00  0.00     0.184 HD
HETATM    7  C8  UNL     1      18.666 -24.181 -43.817  1.00  0.00     0.120 A 
HETATM    8  C9  UNL     1      17.883 -25.188 -44.419  1.00  0.00     0.138 A 
HETATM    9  C15 UNL     1      18.137 -25.352 -45.789  1.00  0.00     0.075 A 
HETATM   10  C16 UNL     1      19.060 -24.597 -46.469  1.00  0.00     0.052 A 
HETATM   11  N6  UNL     1      19.761 -23.659 -45.817  1.00  0.00    -0.352 N 
ATOM     12  H6  UNL     1      20.445 -23.102 -46.328  1.00  0.00     0.166 HD
HETATM   13  C20 UNL     1      19.581 -23.435 -44.501  1.00  0.00     0.108 A 
ENDROOT
BRANCH   1  14
HETATM   14  N1  UNL     1      21.160 -21.763 -44.473  1.00  0.00    -0.369 N 
ATOM     15  H1  UNL     1      20.995 -21.706 -45.478  1.00  0.00     0.161 HD
BRANCH  14  16
HETATM   16  C4  UNL     1      22.290 -21.058 -44.014  1.00  0.00     0.082 C 
HETATM   17  C5  UNL     1      22.560 -19.763 -44.791  1.00  0.00     0.032 C 
BRANCH  16  18
HETATM   18  C2  UNL     1      23.557 -21.885 -43.871  1.00  0.00    -0.000 C 
HETATM   19  C1  UNL     1      24.793 -21.172 -44.361  1.00  0.00     0.011 C 
HETATM   20  C3  UNL     1      23.789 -22.369 -42.467  1.00  0.00     0.011 C 
ENDBRANCH  16  18
ENDBRANCH  14  16
ENDBRANCH   1  14
BRANCH   4  21
HETATM   21  N3  UNL     1      18.999 -22.845 -40.639  1.00  0.00    -0.234 N 
ATOM     22  H32 UNL     1      19.144 -21.913 -40.251  1.00  0.00     0.174 HD
ATOM     23  H31 UNL     1      18.701 -23.638 -40.069  1.00  0.00     0.174 HD
ENDBRANCH   4  21
BRANCH   8  24
HETATM   24  N5  UNL     1      17.087 -25.818 -43.772  1.00  0.00    -0.414 NA
BRANCH  24  25
HETATM   25  C10 UNL     1      16.219 -26.516 -43.063  1.00  0.00     0.201 C 
BRANCH  25  26
HETATM   26  C11 UNL     1      15.243 -25.679 -42.245  1.00  0.00     0.033 A 
HETATM   27  C12 UNL     1      15.455 -25.093 -41.026  1.00  0.00     0.022 A 
HETATM   28  C13 UNL     1      14.443 -24.402 -40.499  1.00  0.00     0.008 A 
HETATM   29  C14 UNL     1      13.279 -24.333 -41.215  1.00  0.00     0.050 A 
HETATM   30  S1  UNL     1      13.644 -25.244 -42.614  1.00  0.00    -0.100 SA
ENDBRANCH  25  26
ENDBRANCH  24  25
ENDBRANCH   8  24
BRANCH  10  31
HETATM   31  C17 UNL     1      19.286 -24.827 -47.921  1.00  0.00     0.138 C 
HETATM   32  C18 UNL     1      18.280 -24.091 -48.761  1.00  0.00     0.058 C 
HETATM   33  C19 UNL     1      19.168 -26.298 -48.211  1.00  0.00     0.058 C 
HETATM   34  F1  UNL     1      20.552 -24.373 -48.255  1.00  0.00    -0.237 F 
ENDBRANCH  10  31
TORSDOF 8
ENDMDL
MODEL 5
REMARK VINA RESULT: -6.814640936      2.915      7.088
REMARK  8 active torsions:
REMARK  status: ('A' for Active; 'I' for Inactive)
REMARK    1  A    between atoms: C2_2  and  C4_4 
REMARK    2  A    between atoms: C4_4  and  N1_6 
REMARK    3  A    between atoms: N1_6  and  C6_8 
REMARK    4  A    between atoms: C7_11  and  N3_12 
REMARK    5  A    between atoms: C9_18  and  N5_19 
REMARK    6  A    between atoms: N5_19  and  C10_20 
REMARK    7  A    between atoms: C10_20  and  C11_21 
REMARK    8  A    between atoms: C16_27  and  C17_28 
ROOT
HETATM    1  C6  UNL     1      17.155 -25.611 -43.420  1.00  0.00     0.146 A 
HETATM    2  N2  UNL     1      16.607 -26.618 -44.091  1.00  0.00    -0.175 N 
ATOM      3  H2  UNL     1      15.916 -27.226 -43.652  1.00  0.00     0.186 HD
HETATM    4  C7  UNL     1      16.995 -26.816 -45.385  1.00  0.00     0.678 A 
HETATM    5  N4  UNL     1      17.898 -26.042 -45.992  1.00  0.00    -0.186 N 
ATOM      6  H4  UNL     1      18.159 -26.227 -46.960  1.00  0.00     0.184 HD
HETATM    7  C8  UNL     1      18.455 -25.034 -45.340  1.00  0.00     0.120 A 
HETATM    8  C9  UNL     1      19.401 -24.258 -46.042  1.00  0.00     0.138 A 
HETATM    9  C15 UNL     1      19.945 -23.213 -45.279  1.00  0.00     0.075 A 
HETATM   10  C16 UNL     1      19.584 -22.978 -43.976  1.00  0.00     0.052 A 
HETATM   11  N6  UNL     1      18.674 -23.767 -43.387  1.00  0.00    -0.352 N 
ATOM     12  H6  UNL     1      18.411 -23.586 -42.418  1.00  0.00     0.166 HD
HETATM   13  C20 UNL     1      18.102 -24.792 -44.044  1.00  0.00     0.108 A 
ENDROOT
BRANCH   1  14
HETATM   14  N1  UNL     1      16.827 -25.375 -42.220  1.00  0.00    -0.369 N 
ATOM     15  H1  UNL     1      17.590 -25.072 -41.615  1.00  0.00     0.161 HD
BRANCH  14  16
HETATM   16  C4  UNL     1      15.570 -25.467 -41.593  1.00  0.00     0.082 C 
HETATM   17  C5  UNL     1      14.395 -25.171 -42.534  1.00  0.00     0.032 C 
BRANCH  16  18
HETATM   18  C2  UNL     1      15.436 -24.697 -40.290  1.00  0.00    -0.000 C 
HETATM   19  C1  UNL     1      16.666 -23.896 -39.942  1.00  0.00     0.011 C 
HETATM   20  C3  UNL     1      14.234 -23.794 -40.261  1.00  0.00     0.011 C 
ENDBRANCH  16  18
ENDBRANCH  14  16
ENDBRANCH   1  14
BRANCH   4  21
HETATM   21  N3  UNL     1      16.472 -27.785 -46.043  1.00  0.00    -0.234 N 
ATOM     22  H32 UNL     1      16.039 -27.588 -46.945  1.00  0.00     0.174 HD
ATOM     23  H31 UNL     1      16.509 -28.723 -45.643  1.00  0.00     0.174 HD
ENDBRANCH   4  21
BRANCH   8  24
HETATM   24  N5  UNL     1      19.678 -24.511 -47.185  1.00  0.00    -0.414 NA
BRANCH  24  25
HETATM   25  C10 UNL     1      19.983 -24.779 -48.442  1.00  0.00     0.201 C 
BRANCH  25  26
HETATM   26  C11 UNL     1      18.928 -24.357 -49.457  1.00  0.00     0.033 A 
HETATM   27  C12 UNL     1      17.720 -23.760 -49.215  1.00  0.00     0.022 A 
HETATM   28  C13 UNL     1      16.956 -23.482 -50.273  1.00  0.00     0.008 A 
HETATM   29  C14 UNL     1      17.438 -23.813 -51.510  1.00  0.00     0.050 A 
HETATM   30  S1  UNL     1      18.957 -24.508 -51.148  1.00  0.00    -0.100 SA
ENDBRANCH  25  26
ENDBRANCH  24  25
ENDBRANCH   8  24
BRANCH  10  31
HETATM   31  C17 UNL     1      20.205 -21.857 -43.221  1.00  0.00     0.138 C 
HETATM   32  C18 UNL     1      20.339 -20.625 -44.071  1.00  0.00     0.058 C 
HETATM   33  C19 UNL     1      21.576 -22.273 -42.760  1.00  0.00     0.058 C 
HETATM   34  F1  UNL     1      19.406 -21.553 -42.131  1.00  0.00    -0.237 F 
ENDBRANCH  10  31
TORSDOF 8
ENDMDL
