MODEL 1
REMARK VINA RESULT: -7.792375244      0.000      0.000
REMARK  6 active torsions:
REMARK  status: ('A' for Active; 'I' for Inactive)
REMARK    1  A    between atoms: C6_6  and  C7_7 
REMARK    2  A    between atoms: C7_7  and  C8_8 
REMARK    3  A    between atoms: C10_10  and  C11_11 
REMARK    4  A    between atoms: N3_24  and  C19_25 
REMARK    5  A    between atoms: C19_25  and  C20_26 
REMARK    6  A    between atoms: C20_26  and  O1_27 
ROOT
HETATM    1  C7  UNL     1      18.756 -25.303 -48.589  1.00  0.00     0.012 C 
HETATM    2  C17 UNL     1      18.923 -26.786 -48.829  1.00  0.00     0.046 C 
HETATM    3  C18 UNL     1      19.560 -27.012 -50.221  1.00  0.00     0.273 C 
HETATM    4  N3  UNL     1      20.973 -26.825 -50.017  1.00  0.00     0.090 N 
HETATM    5  C21 UNL     1      21.173 -25.604 -49.263  1.00  0.00     0.273 C 
HETATM    6  C22 UNL     1      19.982 -24.683 -49.280  1.00  0.00     0.046 C 
ENDROOT
BRANCH   1   7
HETATM    7  C6  UNL     1      17.551 -24.869 -49.385  1.00  0.00     0.026 C 
HETATM    8  C5  UNL     1      17.523 -23.450 -49.807  1.00  0.00     0.010 C 
HETATM    9  C4  UNL     1      16.191 -22.759 -49.621  1.00  0.00     0.038 C 
HETATM   10  C2  UNL     1      15.013 -23.623 -49.885  1.00  0.00     0.118 C 
HETATM   11  C1  UNL     1      13.826 -23.058 -49.108  1.00  0.00     0.046 C 
HETATM   12  C3  UNL     1      14.678 -23.555 -51.364  1.00  0.00     0.046 C 
HETATM   13  N4  UNL     1      15.178 -24.992 -49.464  1.00  0.00    -0.067 N 
HETATM   14  C23 UNL     1      16.279 -25.136 -48.546  1.00  0.00     0.239 C 
ATOM     15  H42 UNL     1      14.315 -25.368 -49.071  1.00  0.00     0.278 HD
ATOM     16  H41 UNL     1      15.274 -25.618 -50.263  1.00  0.00     0.278 HD
ENDBRANCH   1   7
BRANCH   1  17
HETATM   17  C8  UNL     1      18.725 -24.957 -47.160  1.00  0.00     0.037 A 
HETATM   18  C9  UNL     1      19.297 -23.774 -46.653  1.00  0.00     0.059 A 
HETATM   19  C10 UNL     1      19.115 -23.756 -45.284  1.00  0.00     0.060 A 
HETATM   20  N1  UNL     1      18.461 -24.878 -44.967  1.00  0.00    -0.300 N 
HETATM   21  N2  UNL     1      18.243 -25.570 -46.100  1.00  0.00    -0.304 N 
ATOM     22  H1  UNL     1      18.177 -25.161 -44.029  1.00  0.00     0.187 HD
ATOM     23  H2  UNL     1      17.759 -26.467 -46.134  1.00  0.00     0.186 HD
BRANCH  19  24
HETATM   24  C11 UNL     1      19.572 -22.696 -44.360  1.00  0.00    -0.005 A 
HETATM   25  C12 UNL     1      19.336 -22.839 -43.024  1.00  0.00     0.014 A 
HETATM   26  C13 UNL     1      19.740 -21.873 -42.125  1.00  0.00     0.004 A 
HETATM   27  C14 UNL     1      20.382 -20.766 -42.588  1.00  0.00     0.042 A 
HETATM   28  C15 UNL     1      20.611 -20.642 -43.936  1.00  0.00     0.117 A 
HETATM   29  F1  UNL     1      21.252 -19.545 -44.396  1.00  0.00    -0.206 F 
HETATM   30  C16 UNL     1      20.215 -21.597 -44.864  1.00  0.00     0.056 A 
ENDBRANCH  19  24
ENDBRANCH   1  17
BRANCH   4  31
HETATM   31  C19 UNL     1      21.762 -26.882 -51.210  1.00  0.00     0.298 C 
BRANCH  31  32
HETATM   32  C20 UNL     1      23.080 -26.168 -51.049  1.00  0.00     0.194 C 
BRANCH  32  33
HETATM   33  O1  UNL     1      24.053 -26.881 -50.408  1.00  0.00    -0.399 OA
ATOM     34  H1  UNL     1      24.897 -26.448 -50.345  1.00  0.00     0.209 HD
ENDBRANCH  32  33
ENDBRANCH  31  32
ENDBRANCH   4  31
TORSDOF 6
ENDMDL
MODEL 2
REMARK VINA RESULT: -7.684309367      0.946      1.292
REMARK  6 active torsions:
REMARK  status: ('A' for Active; 'I' for Inactive)
REMARK    1  A    between atoms: C6_6  and  C7_7 
REMARK    2  A    between atoms: C7_7  and  C8_8 
REMARK    3  A    between atoms: C10_10  and  C11_11 
REMARK    4  A    between atoms: N3_24  and  C19_25 
REMARK    5  A    between atoms: C19_25  and  C20_26 
REMARK    6  A    between atoms: C20_26  and  O1_27 
ROOT
HETATM    1  C7  UNL     1      18.748 -25.284 -48.660  1.00  0.00     0.012 C 
HETATM    2  C17 UNL     1      18.895 -26.759 -48.955  1.00  0.00     0.046 C 
HETATM    3  C18 UNL     1      19.572 -26.941 -50.334  1.00  0.00     0.273 C 
HETATM    4  N3  UNL     1      20.981 -26.790 -50.078  1.00  0.00     0.090 N 
HETATM    5  C21 UNL     1      21.179 -25.604 -49.270  1.00  0.00     0.273 C 
HETATM    6  C22 UNL     1      20.006 -24.661 -49.286  1.00  0.00     0.046 C 
ENDROOT
BRANCH   1   7
HETATM    7  C6  UNL     1      17.576 -24.794 -49.475  1.00  0.00     0.026 C 
HETATM    8  C5  UNL     1      17.562 -23.348 -49.794  1.00  0.00     0.010 C 
HETATM    9  C4  UNL     1      16.221 -22.672 -49.618  1.00  0.00     0.038 C 
HETATM   10  C2  UNL     1      15.058 -23.516 -49.995  1.00  0.00     0.118 C 
HETATM   11  C1  UNL     1      13.836 -23.009 -49.232  1.00  0.00     0.046 C 
HETATM   12  C3  UNL     1      14.788 -23.342 -51.479  1.00  0.00     0.046 C 
HETATM   13  N4  UNL     1      15.210 -24.912 -49.666  1.00  0.00    -0.067 N 
HETATM   14  C23 UNL     1      16.271 -25.121 -48.713  1.00  0.00     0.239 C 
ATOM     15  H42 UNL     1      14.331 -25.315 -49.339  1.00  0.00     0.278 HD
ATOM     16  H41 UNL     1      15.343 -25.479 -50.503  1.00  0.00     0.278 HD
ENDBRANCH   1   7
BRANCH   1  17
HETATM   17  C8  UNL     1      18.677 -24.995 -47.219  1.00  0.00     0.037 A 
HETATM   18  C9  UNL     1      19.233 -23.832 -46.650  1.00  0.00     0.059 A 
HETATM   19  C10 UNL     1      19.014 -23.869 -45.287  1.00  0.00     0.060 A 
HETATM   20  N1  UNL     1      18.353 -25.003 -45.033  1.00  0.00    -0.300 N 
HETATM   21  N2  UNL     1      18.168 -25.649 -46.199  1.00  0.00    -0.304 N 
ATOM     22  H1  UNL     1      18.045 -25.323 -44.115  1.00  0.00     0.187 HD
ATOM     23  H2  UNL     1      17.687 -26.545 -46.281  1.00  0.00     0.186 HD
BRANCH  19  24
HETATM   24  C11 UNL     1      19.444 -22.847 -44.309  1.00  0.00    -0.005 A 
HETATM   25  C12 UNL     1      20.044 -21.710 -44.765  1.00  0.00     0.014 A 
HETATM   26  C13 UNL     1      20.467 -20.731 -43.889  1.00  0.00     0.004 A 
HETATM   27  C14 UNL     1      20.277 -20.912 -42.553  1.00  0.00     0.042 A 
HETATM   28  C15 UNL     1      19.670 -22.063 -42.115  1.00  0.00     0.117 A 
HETATM   29  F1  UNL     1      19.478 -22.242 -40.789  1.00  0.00    -0.206 F 
HETATM   30  C16 UNL     1      19.235 -23.065 -42.973  1.00  0.00     0.056 A 
ENDBRANCH  19  24
ENDBRANCH   1  17
BRANCH   4  31
HETATM   31  C19 UNL     1      21.806 -26.815 -51.248  1.00  0.00     0.298 C 
BRANCH  31  32
HETATM   32  C20 UNL     1      23.109 -27.533 -51.003  1.00  0.00     0.194 C 
BRANCH  32  33
HETATM   33  O1  UNL     1      24.076 -26.788 -50.389  1.00  0.00    -0.399 OA
ATOM     34  H1  UNL     1      24.968 -27.084 -50.535  1.00  0.00     0.209 HD
ENDBRANCH  32  33
ENDBRANCH  31  32
ENDBRANCH   4  31
TORSDOF 6
ENDMDL
MODEL 3
REMARK VINA RESULT: -7.319353343      3.916      5.822
REMARK  6 active torsions:
REMARK  status: ('A' for Active; 'I' for Inactive)
REMARK    1  A    between atoms: C6_6  and  C7_7 
REMARK    2  A    between atoms: C7_7  and  C8_8 
REMARK    3  A    between atoms: C10_10  and  C11_11 
REMARK    4  A    between atoms: N3_24  and  C19_25 
REMARK    5  A    between atoms: C19_25  and  C20_26 
REMARK    6  A    between atoms: C20_26  and  O1_27 
ROOT
HETATM    1  C7  UNL     1      16.964 -26.197 -45.277  1.00  0.00     0.012 C 
HETATM    2  C17 UNL     1      15.505 -25.849 -45.091  1.00  0.00     0.046 C 
HETATM    3  C18 UNL     1      14.848 -26.883 -44.145  1.00  0.00     0.273 C 
HETATM    4  N3  UNL     1      15.186 -26.437 -42.818  1.00  0.00     0.090 N 
HETATM    5  C21 UNL     1      16.604 -26.142 -42.777  1.00  0.00     0.273 C 
HETATM    6  C22 UNL     1      17.381 -26.759 -43.908  1.00  0.00     0.046 C 
ENDROOT
BRANCH   1   7
HETATM    7  C6  UNL     1      17.013 -27.351 -46.248  1.00  0.00     0.026 C 
HETATM    8  C5  UNL     1      18.298 -27.555 -46.954  1.00  0.00     0.010 C 
HETATM    9  C4  UNL     1      18.170 -27.839 -48.434  1.00  0.00     0.038 C 
HETATM   10  C2  UNL     1      16.996 -28.673 -48.796  1.00  0.00     0.118 C 
HETATM   11  C1  UNL     1      16.637 -28.381 -50.251  1.00  0.00     0.046 C 
HETATM   12  C3  UNL     1      17.387 -30.137 -48.696  1.00  0.00     0.046 C 
HETATM   13  N4  UNL     1      15.817 -28.406 -48.010  1.00  0.00    -0.067 N 
HETATM   14  C23 UNL     1      15.915 -27.147 -47.317  1.00  0.00     0.239 C 
ATOM     15  H42 UNL     1      14.972 -28.454 -48.579  1.00  0.00     0.278 HD
ATOM     16  H41 UNL     1      15.618 -29.172 -47.366  1.00  0.00     0.278 HD
ENDBRANCH   1   7
BRANCH   1  17
HETATM   17  C8  UNL     1      17.785 -25.032 -45.642  1.00  0.00     0.037 A 
HETATM   18  C9  UNL     1      18.582 -24.342 -44.706  1.00  0.00     0.059 A 
HETATM   19  C10 UNL     1      19.208 -23.297 -45.357  1.00  0.00     0.060 A 
HETATM   20  N1  UNL     1      18.813 -23.345 -46.633  1.00  0.00    -0.300 N 
HETATM   21  N2  UNL     1      17.970 -24.385 -46.771  1.00  0.00    -0.304 N 
ATOM     22  H1  UNL     1      19.100 -22.704 -47.373  1.00  0.00     0.187 HD
ATOM     23  H2  UNL     1      17.525 -24.642 -47.653  1.00  0.00     0.186 HD
BRANCH  19  24
HETATM   24  C11 UNL     1      20.127 -22.316 -44.741  1.00  0.00    -0.005 A 
HETATM   25  C12 UNL     1      19.779 -21.741 -43.555  1.00  0.00     0.014 A 
HETATM   26  C13 UNL     1      20.604 -20.816 -42.947  1.00  0.00     0.004 A 
HETATM   27  C14 UNL     1      21.779 -20.481 -43.547  1.00  0.00     0.042 A 
HETATM   28  C15 UNL     1      22.111 -21.073 -44.741  1.00  0.00     0.117 A 
HETATM   29  F1  UNL     1      23.279 -20.744 -45.336  1.00  0.00    -0.206 F 
HETATM   30  C16 UNL     1      21.301 -22.006 -45.376  1.00  0.00     0.056 A 
ENDBRANCH  19  24
ENDBRANCH   1  17
BRANCH   4  31
HETATM   31  C19 UNL     1      14.766 -27.315 -41.768  1.00  0.00     0.298 C 
BRANCH  31  32
HETATM   32  C20 UNL     1      15.097 -28.754 -42.071  1.00  0.00     0.194 C 
BRANCH  32  33
HETATM   33  O1  UNL     1      16.108 -29.288 -41.323  1.00  0.00    -0.399 OA
ATOM     34  H1  UNL     1      16.082 -30.233 -41.224  1.00  0.00     0.209 HD
ENDBRANCH  32  33
ENDBRANCH  31  32
ENDBRANCH   4  31
TORSDOF 6
ENDMDL
MODEL 4
REMARK VINA RESULT: -7.059213564      2.468      4.858
REMARK  6 active torsions:
REMARK  status: ('A' for Active; 'I' for Inactive)
REMARK    1  A    between atoms: C6_6  and  C7_7 
REMARK    2  A    between atoms: C7_7  and  C8_8 
REMARK    3  A    between atoms: C10_10  and  C11_11 
REMARK    4  A    between atoms: N3_24  and  C19_25 
REMARK    5  A    between atoms: C19_25  and  C20_26 
REMARK    6  A    between atoms: C20_26  and  O1_27 
ROOT
HETATM    1  C7  UNL     1      18.249 -25.325 -47.708  1.00  0.00     0.012 C 
HETATM    2  C17 UNL     1      17.657 -24.373 -48.722  1.00  0.00     0.046 C 
HETATM    3  C18 UNL     1      16.817 -25.171 -49.746  1.00  0.00     0.273 C 
HETATM    4  N3  UNL     1      15.545 -25.374 -49.104  1.00  0.00     0.090 N 
HETATM    5  C21 UNL     1      15.778 -25.851 -47.756  1.00  0.00     0.273 C 
HETATM    6  C22 UNL     1      17.163 -26.401 -47.543  1.00  0.00     0.046 C 
ENDROOT
BRANCH   1   7
HETATM    7  C6  UNL     1      19.420 -25.998 -48.380  1.00  0.00     0.026 C 
HETATM    8  C5  UNL     1      19.988 -25.299 -49.556  1.00  0.00     0.010 C 
HETATM    9  C4  UNL     1      20.299 -26.192 -50.736  1.00  0.00     0.038 C 
HETATM   10  C2  UNL     1      20.812 -27.536 -50.366  1.00  0.00     0.118 C 
HETATM   11  C1  UNL     1      20.506 -28.494 -51.514  1.00  0.00     0.046 C 
HETATM   12  C3  UNL     1      22.321 -27.458 -50.212  1.00  0.00     0.046 C 
HETATM   13  N4  UNL     1      20.208 -28.093 -49.181  1.00  0.00    -0.067 N 
HETATM   14  C23 UNL     1      18.987 -27.411 -48.837  1.00  0.00     0.239 C 
ATOM     15  H42 UNL     1      20.060 -29.098 -49.276  1.00  0.00     0.278 HD
ATOM     16  H41 UNL     1      20.863 -28.103 -48.399  1.00  0.00     0.278 HD
ENDBRANCH   1   7
BRANCH   1  17
HETATM   17  C8  UNL     1      18.549 -24.675 -46.423  1.00  0.00     0.037 A 
HETATM   18  C9  UNL     1      19.391 -23.550 -46.319  1.00  0.00     0.059 A 
HETATM   19  C10 UNL     1      19.480 -23.197 -44.987  1.00  0.00     0.060 A 
HETATM   20  N1  UNL     1      18.726 -24.066 -44.306  1.00  0.00    -0.300 N 
HETATM   21  N2  UNL     1      18.187 -24.930 -45.185  1.00  0.00    -0.304 N 
ATOM     22  H1  UNL     1      18.586 -24.073 -43.295  1.00  0.00     0.187 HD
ATOM     23  H2  UNL     1      17.567 -25.696 -44.920  1.00  0.00     0.186 HD
BRANCH  19  24
HETATM   24  C11 UNL     1      20.272 -22.076 -44.436  1.00  0.00    -0.005 A 
HETATM   25  C12 UNL     1      19.869 -21.496 -43.270  1.00  0.00     0.014 A 
HETATM   26  C13 UNL     1      20.574 -20.444 -42.721  1.00  0.00     0.004 A 
HETATM   27  C14 UNL     1      21.684 -19.986 -43.361  1.00  0.00     0.042 A 
HETATM   28  C15 UNL     1      22.073 -20.584 -44.535  1.00  0.00     0.117 A 
HETATM   29  F1  UNL     1      23.177 -20.133 -45.169  1.00  0.00    -0.206 F 
HETATM   30  C16 UNL     1      21.383 -21.644 -45.110  1.00  0.00     0.056 A 
ENDBRANCH  19  24
ENDBRANCH   1  17
BRANCH   4  31
HETATM   31  C19 UNL     1      14.630 -26.195 -49.838  1.00  0.00     0.298 C 
BRANCH  31  32
HETATM   32  C20 UNL     1      13.447 -25.409 -50.343  1.00  0.00     0.194 C 
BRANCH  32  33
HETATM   33  O1  UNL     1      13.393 -24.108 -49.926  1.00  0.00    -0.399 OA
ATOM     34  H1  UNL     1      12.553 -23.680 -50.045  1.00  0.00     0.209 HD
ENDBRANCH  32  33
ENDBRANCH  31  32
ENDBRANCH   4  31
TORSDOF 6
ENDMDL
MODEL 5
REMARK VINA RESULT: -7.043565933      2.274      2.641
REMARK  6 active torsions:
REMARK  status: ('A' for Active; 'I' for Inactive)
REMARK    1  A    between atoms: C6_6  and  C7_7 
REMARK    2  A    between atoms: C7_7  and  C8_8 
REMARK    3  A    between atoms: C10_10  and  C11_11 
REMARK    4  A    between atoms: N3_24  and  C19_25 
REMARK    5  A    between atoms: C19_25  and  C20_26 
REMARK    6  A    between atoms: C20_26  and  O1_27 
ROOT
HETATM    1  C7  UNL     1      17.717 -25.909 -47.915  1.00  0.00     0.012 C 
HETATM    2  C17 UNL     1      16.838 -27.117 -47.682  1.00  0.00     0.046 C 
HETATM    3  C18 UNL     1      17.028 -28.120 -48.845  1.00  0.00     0.273 C 
HETATM    4  N3  UNL     1      18.223 -28.851 -48.511  1.00  0.00     0.090 N 
HETATM    5  C21 UNL     1      19.252 -27.904 -48.131  1.00  0.00     0.273 C 
HETATM    6  C22 UNL     1      18.971 -26.496 -48.582  1.00  0.00     0.046 C 
ENDROOT
BRANCH   1   7
HETATM    7  C6  UNL     1      17.028 -25.068 -48.962  1.00  0.00     0.026 C 
HETATM    8  C5  UNL     1      17.654 -23.760 -49.263  1.00  0.00     0.010 C 
HETATM    9  C4  UNL     1      16.684 -22.605 -49.377  1.00  0.00     0.038 C 
HETATM   10  C2  UNL     1      15.386 -22.958 -50.007  1.00  0.00     0.118 C 
HETATM   11  C1  UNL     1      14.337 -21.958 -49.525  1.00  0.00     0.046 C 
HETATM   12  C3  UNL     1      15.517 -22.809 -51.513  1.00  0.00     0.046 C 
HETATM   13  N4  UNL     1      14.902 -24.273 -49.667  1.00  0.00    -0.067 N 
HETATM   14  C23 UNL     1      15.574 -24.802 -48.507  1.00  0.00     0.239 C 
ATOM     15  H42 UNL     1      13.889 -24.277 -49.544  1.00  0.00     0.278 HD
ATOM     16  H41 UNL     1      14.968 -24.910 -50.460  1.00  0.00     0.278 HD
ENDBRANCH   1   7
BRANCH   1  17
HETATM   17  C8  UNL     1      18.060 -25.206 -46.669  1.00  0.00     0.037 A 
HETATM   18  C9  UNL     1      19.000 -24.157 -46.624  1.00  0.00     0.059 A 
HETATM   19  C10 UNL     1      19.107 -23.727 -45.316  1.00  0.00     0.060 A 
HETATM   20  N1  UNL     1      18.270 -24.477 -44.593  1.00  0.00    -0.300 N 
HETATM   21  N2  UNL     1      17.663 -25.345 -45.423  1.00  0.00    -0.304 N 
ATOM     22  H1  UNL     1      18.119 -24.405 -43.587  1.00  0.00     0.187 HD
ATOM     23  H2  UNL     1      16.974 -26.033 -45.120  1.00  0.00     0.186 HD
BRANCH  19  24
HETATM   24  C11 UNL     1      19.991 -22.648 -44.826  1.00  0.00    -0.005 A 
HETATM   25  C12 UNL     1      19.641 -21.972 -43.695  1.00  0.00     0.014 A 
HETATM   26  C13 UNL     1      20.433 -20.954 -43.202  1.00  0.00     0.004 A 
HETATM   27  C14 UNL     1      21.578 -20.628 -43.863  1.00  0.00     0.042 A 
HETATM   28  C15 UNL     1      21.913 -21.322 -45.001  1.00  0.00     0.117 A 
HETATM   29  F1  UNL     1      23.050 -21.001 -45.655  1.00  0.00    -0.206 F 
HETATM   30  C16 UNL     1      21.135 -22.349 -45.519  1.00  0.00     0.056 A 
ENDBRANCH  19  24
ENDBRANCH   1  17
BRANCH   4  31
HETATM   31  C19 UNL     1      18.656 -29.776 -49.514  1.00  0.00     0.298 C 
BRANCH  31  32
HETATM   32  C20 UNL     1      18.891 -31.153 -48.947  1.00  0.00     0.194 C 
BRANCH  32  33
HETATM   33  O1  UNL     1      18.279 -31.401 -47.751  1.00  0.00    -0.399 OA
ATOM     34  H1  UNL     1      17.776 -32.206 -47.713  1.00  0.00     0.209 HD
ENDBRANCH  32  33
ENDBRANCH  31  32
ENDBRANCH   4  31
TORSDOF 6
ENDMDL
