MODEL 1
REMARK VINA RESULT: -8.103578463      0.000      0.000
REMARK  8 active torsions:
REMARK  status: ('A' for Active; 'I' for Inactive)
REMARK    1  A    between atoms: C3_5  and  N2_6 
REMARK    2  A    between atoms: C4_9  and  C5_10 
REMARK    3  A    between atoms: C7_12  and  N3_13 
REMARK       I    between atoms: N3_13  and  C8_15 
REMARK       I    between atoms: C8_15  and  N4_17 
REMARK    4  A    between atoms: N5_21  and  C12_22 
REMARK    5  A    between atoms: C12_22  and  C13_23 
REMARK    6  A    between atoms: C15_26  and  C16_27 
REMARK    7  A    between atoms: C19_30  and  C20_31 
REMARK    8  A    between atoms: C20_31  and  N6_32 
ROOT
HETATM    1  C1  UNL     1      16.734 -25.568 -43.795  1.00  0.00     0.069 C 
HETATM    2  C2  UNL     1      17.917 -24.740 -43.727  1.00  0.00     0.017 A 
HETATM    3  N1  UNL     1      18.180 -24.200 -42.493  1.00  0.00    -0.345 N 
ATOM      4  H1  UNL     1      17.520 -24.393 -41.741  1.00  0.00     0.167 HD
HETATM    5  C3  UNL     1      19.252 -23.429 -42.204  1.00  0.00     0.111 A 
HETATM    6  C4  UNL     1      20.151 -23.147 -43.170  1.00  0.00     0.035 A 
HETATM    7  C14 UNL     1      19.895 -23.696 -44.441  1.00  0.00     0.031 A 
HETATM    8  C15 UNL     1      18.770 -24.498 -44.729  1.00  0.00    -0.011 A 
ENDROOT
BRANCH   6   9
HETATM    9  C5  UNL     1      21.382 -22.390 -43.048  1.00  0.00     0.050 A 
HETATM   10  C6  UNL     1      21.510 -21.171 -43.764  1.00  0.00     0.061 A 
HETATM   11  C7  UNL     1      22.767 -20.658 -43.622  1.00  0.00     0.054 A 
HETATM   12  C11 UNL     1      23.419 -21.546 -42.832  1.00  0.00     0.121 A 
HETATM   13  N5  UNL     1      22.558 -22.580 -42.501  1.00  0.00    -0.351 N 
BRANCH  11  14
HETATM   14  N3  UNL     1      23.291 -19.453 -44.216  1.00  0.00    -0.307 N 
HETATM   15  C8  UNL     1      24.100 -19.488 -45.365  1.00  0.00     0.322 C 
HETATM   16  O1  UNL     1      24.363 -20.650 -45.853  1.00  0.00    -0.247 OA
HETATM   17  N4  UNL     1      24.638 -18.352 -46.012  1.00  0.00    -0.343 N 
HETATM   18  C9  UNL     1      24.386 -17.009 -45.558  1.00  0.00     0.154 C 
HETATM   19  C10 UNL     1      25.481 -18.542 -47.175  1.00  0.00     0.154 C 
ATOM     20  H3  UNL     1      23.070 -18.552 -43.791  1.00  0.00     0.170 HD
ENDBRANCH  11  14
BRANCH  13  21
HETATM   21  C12 UNL     1      23.089 -23.611 -41.650  1.00  0.00     0.160 C 
BRANCH  21  22
HETATM   22  C13 UNL     1      23.092 -24.934 -42.397  1.00  0.00     0.242 C 
HETATM   23  F1  UNL     1      23.113 -26.011 -41.503  1.00  0.00    -0.254 F 
ENDBRANCH  21  22
ENDBRANCH  13  21
ENDBRANCH   6   9
BRANCH   5  24
HETATM   24  N2  UNL     1      19.307 -22.932 -40.996  1.00  0.00    -0.385 N 
ATOM     25  H22 UNL     1      18.561 -23.036 -40.308  1.00  0.00     0.157 HD
ATOM     26  H21 UNL     1      20.177 -22.472 -40.732  1.00  0.00     0.157 HD
ENDBRANCH   5  24
BRANCH   8  27
HETATM   27  C16 UNL     1      18.552 -24.839 -46.142  1.00  0.00    -0.068 C 
HETATM   28  C17 UNL     1      19.460 -24.065 -47.080  1.00  0.00     0.035 C 
HETATM   29  C18 UNL     1      20.039 -24.916 -48.179  1.00  0.00     0.010 C 
HETATM   30  C19 UNL     1      19.077 -25.898 -48.780  1.00  0.00     0.011 C 
HETATM   31  C21 UNL     1      18.735 -26.852 -47.632  1.00  0.00     0.010 C 
HETATM   32  C22 UNL     1      17.944 -26.040 -46.603  1.00  0.00     0.035 C 
BRANCH  30  33
HETATM   33  C20 UNL     1      19.767 -26.717 -49.835  1.00  0.00     0.234 C 
BRANCH  33  34
HETATM   34  N6  UNL     1      21.194 -26.865 -49.618  1.00  0.00    -0.079 N 
ATOM     35  H63 UNL     1      21.695 -26.863 -50.506  1.00  0.00     0.274 HD
ATOM     36  H62 UNL     1      21.584 -26.020 -49.200  1.00  0.00     0.274 HD
ATOM     37  H61 UNL     1      21.442 -27.687 -49.066  1.00  0.00     0.274 HD
ENDBRANCH  33  34
ENDBRANCH  30  33
ENDBRANCH   8  27
TORSDOF 8
ENDMDL
MODEL 2
REMARK VINA RESULT: -7.972480114      1.167      1.452
REMARK  8 active torsions:
REMARK  status: ('A' for Active; 'I' for Inactive)
REMARK    1  A    between atoms: C3_5  and  N2_6 
REMARK    2  A    between atoms: C4_9  and  C5_10 
REMARK    3  A    between atoms: C7_12  and  N3_13 
REMARK       I    between atoms: N3_13  and  C8_15 
REMARK       I    between atoms: C8_15  and  N4_17 
REMARK    4  A    between atoms: N5_21  and  C12_22 
REMARK    5  A    between atoms: C12_22  and  C13_23 
REMARK    6  A    between atoms: C15_26  and  C16_27 
REMARK    7  A    between atoms: C19_30  and  C20_31 
REMARK    8  A    between atoms: C20_31  and  N6_32 
ROOT
HETATM    1  C1  UNL     1      17.110 -25.690 -45.710  1.00  0.00     0.069 C 
HETATM    2  C2  UNL     1      18.175 -24.793 -45.319  1.00  0.00     0.017 A 
HETATM    3  N1  UNL     1      18.274 -24.560 -43.971  1.00  0.00    -0.345 N 
ATOM      4  H1  UNL     1      17.586 -25.002 -43.362  1.00  0.00     0.167 HD
HETATM    5  C3  UNL     1      19.218 -23.785 -43.393  1.00  0.00     0.111 A 
HETATM    6  C4  UNL     1      20.148 -23.180 -44.161  1.00  0.00     0.035 A 
HETATM    7  C14 UNL     1      20.058 -23.411 -45.547  1.00  0.00     0.031 A 
HETATM    8  C15 UNL     1      19.065 -24.222 -46.138  1.00  0.00    -0.011 A 
ENDROOT
BRANCH   6   9
HETATM    9  C5  UNL     1      21.264 -22.360 -43.731  1.00  0.00     0.050 A 
HETATM   10  C6  UNL     1      21.523 -21.142 -44.413  1.00  0.00     0.061 A 
HETATM   11  C7  UNL     1      22.670 -20.565 -43.951  1.00  0.00     0.054 A 
HETATM   12  C11 UNL     1      23.126 -21.411 -42.995  1.00  0.00     0.121 A 
HETATM   13  N5  UNL     1      22.257 -22.485 -42.885  1.00  0.00    -0.351 N 
BRANCH  11  14
HETATM   14  N3  UNL     1      23.278 -19.340 -44.410  1.00  0.00    -0.307 N 
HETATM   15  C8  UNL     1      24.246 -19.333 -45.429  1.00  0.00     0.322 C 
HETATM   16  O1  UNL     1      24.575 -20.476 -45.923  1.00  0.00    -0.247 OA
HETATM   17  N4  UNL     1      24.875 -18.175 -45.941  1.00  0.00    -0.343 N 
HETATM   18  C9  UNL     1      24.562 -16.851 -45.471  1.00  0.00     0.154 C 
HETATM   19  C10 UNL     1      25.877 -18.323 -46.976  1.00  0.00     0.154 C 
ATOM     20  H3  UNL     1      22.998 -18.456 -43.983  1.00  0.00     0.170 HD
ENDBRANCH  11  14
BRANCH  13  21
HETATM   21  C12 UNL     1      22.587 -23.479 -41.899  1.00  0.00     0.160 C 
BRANCH  21  22
HETATM   22  C13 UNL     1      23.055 -24.747 -42.595  1.00  0.00     0.242 C 
HETATM   23  F1  UNL     1      23.095 -25.821 -41.699  1.00  0.00    -0.254 F 
ENDBRANCH  21  22
ENDBRANCH  13  21
ENDBRANCH   6   9
BRANCH   5  24
HETATM   24  N2  UNL     1      19.119 -23.607 -42.101  1.00  0.00    -0.385 N 
ATOM     25  H22 UNL     1      18.908 -24.356 -41.442  1.00  0.00     0.157 HD
ATOM     26  H21 UNL     1      19.328 -22.672 -41.753  1.00  0.00     0.157 HD
ENDBRANCH   5  24
BRANCH   8  27
HETATM   27  C16 UNL     1      18.999 -24.214 -47.606  1.00  0.00    -0.068 C 
HETATM   28  C17 UNL     1      20.033 -25.122 -48.245  1.00  0.00     0.035 C 
HETATM   29  C18 UNL     1      19.485 -25.927 -49.394  1.00  0.00     0.010 C 
HETATM   30  C19 UNL     1      18.556 -25.171 -50.297  1.00  0.00     0.011 C 
HETATM   31  C21 UNL     1      17.359 -24.818 -49.409  1.00  0.00     0.010 C 
HETATM   32  C22 UNL     1      17.864 -23.818 -48.366  1.00  0.00     0.035 C 
BRANCH  30  33
HETATM   33  C20 UNL     1      18.040 -26.076 -51.382  1.00  0.00     0.234 C 
BRANCH  33  34
HETATM   34  N6  UNL     1      18.674 -27.380 -51.403  1.00  0.00    -0.079 N 
ATOM     35  H63 UNL     1      18.617 -27.793 -52.335  1.00  0.00     0.274 HD
ATOM     36  H62 UNL     1      19.687 -27.289 -51.319  1.00  0.00     0.274 HD
ATOM     37  H61 UNL     1      18.311 -28.024 -50.701  1.00  0.00     0.274 HD
ENDBRANCH  33  34
ENDBRANCH  30  33
ENDBRANCH   8  27
TORSDOF 8
ENDMDL
MODEL 3
REMARK VINA RESULT: -7.636003980      2.778      7.040
REMARK  8 active torsions:
REMARK  status: ('A' for Active; 'I' for Inactive)
REMARK    1  A    between atoms: C3_5  and  N2_6 
REMARK    2  A    between atoms: C4_9  and  C5_10 
REMARK    3  A    between atoms: C7_12  and  N3_13 
REMARK       I    between atoms: N3_13  and  C8_15 
REMARK       I    between atoms: C8_15  and  N4_17 
REMARK    4  A    between atoms: N5_21  and  C12_22 
REMARK    5  A    between atoms: C12_22  and  C13_23 
REMARK    6  A    between atoms: C15_26  and  C16_27 
REMARK    7  A    between atoms: C19_30  and  C20_31 
REMARK    8  A    between atoms: C20_31  and  N6_32 
ROOT
HETATM    1  C1  UNL     1      18.517 -23.100 -40.727  1.00  0.00     0.069 C 
HETATM    2  C2  UNL     1      18.643 -23.481 -42.116  1.00  0.00     0.017 A 
HETATM    3  N1  UNL     1      17.881 -24.557 -42.496  1.00  0.00    -0.345 N 
ATOM      4  H1  UNL     1      17.319 -25.016 -41.779  1.00  0.00     0.167 HD
HETATM    5  C3  UNL     1      17.823 -25.052 -43.752  1.00  0.00     0.111 A 
HETATM    6  C4  UNL     1      18.551 -24.476 -44.731  1.00  0.00     0.035 A 
HETATM    7  C14 UNL     1      19.337 -23.370 -44.355  1.00  0.00     0.031 A 
HETATM    8  C15 UNL     1      19.390 -22.864 -43.039  1.00  0.00    -0.011 A 
ENDROOT
BRANCH   6   9
HETATM    9  C5  UNL     1      18.584 -24.823 -46.139  1.00  0.00     0.050 A 
HETATM   10  C6  UNL     1      19.777 -24.595 -46.873  1.00  0.00     0.061 A 
HETATM   11  C7  UNL     1      19.590 -24.871 -48.196  1.00  0.00     0.054 A 
HETATM   12  C11 UNL     1      18.295 -25.261 -48.291  1.00  0.00     0.121 A 
HETATM   13  N5  UNL     1      17.714 -25.222 -47.034  1.00  0.00    -0.351 N 
BRANCH  11  14
HETATM   14  N3  UNL     1      20.553 -24.739 -49.261  1.00  0.00    -0.307 N 
HETATM   15  C8  UNL     1      21.133 -25.863 -49.875  1.00  0.00     0.322 C 
HETATM   16  O1  UNL     1      20.775 -27.016 -49.428  1.00  0.00    -0.247 OA
HETATM   17  N4  UNL     1      22.071 -25.815 -50.932  1.00  0.00    -0.343 N 
HETATM   18  C9  UNL     1      22.520 -24.577 -51.514  1.00  0.00     0.154 C 
HETATM   19  C10 UNL     1      22.607 -27.057 -51.448  1.00  0.00     0.154 C 
ATOM     20  H3  UNL     1      20.820 -23.806 -49.578  1.00  0.00     0.170 HD
ENDBRANCH  11  14
BRANCH  13  21
HETATM   21  C12 UNL     1      16.334 -25.621 -46.952  1.00  0.00     0.160 C 
BRANCH  21  22
HETATM   22  C13 UNL     1      16.184 -27.038 -47.479  1.00  0.00     0.242 C 
HETATM   23  F1  UNL     1      16.676 -27.968 -46.555  1.00  0.00    -0.254 F 
ENDBRANCH  21  22
ENDBRANCH  13  21
ENDBRANCH   6   9
BRANCH   5  24
HETATM   24  N2  UNL     1      17.106 -26.132 -43.923  1.00  0.00    -0.385 N 
ATOM     25  H22 UNL     1      17.437 -27.071 -43.701  1.00  0.00     0.157 HD
ATOM     26  H21 UNL     1      16.146 -25.997 -44.238  1.00  0.00     0.157 HD
ENDBRANCH   5  24
BRANCH   8  27
HETATM   27  C16 UNL     1      20.394 -21.825 -42.775  1.00  0.00    -0.068 C 
HETATM   28  C17 UNL     1      21.746 -22.399 -42.393  1.00  0.00     0.035 C 
HETATM   29  C18 UNL     1      22.898 -21.693 -43.057  1.00  0.00     0.010 C 
HETATM   30  C19 UNL     1      22.759 -20.200 -43.124  1.00  0.00     0.011 C 
HETATM   31  C21 UNL     1      21.539 -19.968 -44.019  1.00  0.00     0.010 C 
HETATM   32  C22 UNL     1      20.321 -20.485 -43.248  1.00  0.00     0.035 C 
BRANCH  30  33
HETATM   33  C20 UNL     1      23.941 -19.603 -43.837  1.00  0.00     0.234 C 
BRANCH  33  34
HETATM   34  N6  UNL     1      25.217 -20.122 -43.384  1.00  0.00    -0.079 N 
ATOM     35  H63 UNL     1      25.757 -20.487 -44.170  1.00  0.00     0.274 HD
ATOM     36  H62 UNL     1      25.833 -19.361 -43.094  1.00  0.00     0.274 HD
ATOM     37  H61 UNL     1      25.138 -20.821 -42.646  1.00  0.00     0.274 HD
ENDBRANCH  33  34
ENDBRANCH  30  33
ENDBRANCH   8  27
TORSDOF 8
ENDMDL
MODEL 4
REMARK VINA RESULT: -7.609561497      3.852      8.781
REMARK  8 active torsions:
REMARK  status: ('A' for Active; 'I' for Inactive)
REMARK    1  A    between atoms: C3_5  and  N2_6 
REMARK    2  A    between atoms: C4_9  and  C5_10 
REMARK    3  A    between atoms: C7_12  and  N3_13 
REMARK       I    between atoms: N3_13  and  C8_15 
REMARK       I    between atoms: C8_15  and  N4_17 
REMARK    4  A    between atoms: N5_21  and  C12_22 
REMARK    5  A    between atoms: C12_22  and  C13_23 
REMARK    6  A    between atoms: C15_26  and  C16_27 
REMARK    7  A    between atoms: C19_30  and  C20_31 
REMARK    8  A    between atoms: C20_31  and  N6_32 
ROOT
HETATM    1  C1  UNL     1      19.688 -22.155 -41.910  1.00  0.00     0.069 C 
HETATM    2  C2  UNL     1      19.318 -22.966 -43.047  1.00  0.00     0.017 A 
HETATM    3  N1  UNL     1      18.509 -24.037 -42.761  1.00  0.00    -0.345 N 
ATOM      4  H1  UNL     1      18.260 -24.194 -41.785  1.00  0.00     0.167 HD
HETATM    5  C3  UNL     1      18.019 -24.897 -43.680  1.00  0.00     0.111 A 
HETATM    6  C4  UNL     1      18.323 -24.726 -44.983  1.00  0.00     0.035 A 
HETATM    7  C14 UNL     1      19.152 -23.631 -45.293  1.00  0.00     0.031 A 
HETATM    8  C15 UNL     1      19.658 -22.740 -44.322  1.00  0.00    -0.011 A 
ENDROOT
BRANCH   6   9
HETATM    9  C5  UNL     1      17.858 -25.503 -46.117  1.00  0.00     0.050 A 
HETATM   10  C6  UNL     1      17.516 -26.866 -45.918  1.00  0.00     0.061 A 
HETATM   11  C7  UNL     1      17.212 -27.466 -47.107  1.00  0.00     0.054 A 
HETATM   12  C11 UNL     1      17.367 -26.492 -48.037  1.00  0.00     0.121 A 
HETATM   13  N5  UNL     1      17.758 -25.319 -47.410  1.00  0.00    -0.351 N 
BRANCH  11  14
HETATM   14  N3  UNL     1      16.843 -28.843 -47.322  1.00  0.00    -0.307 N 
HETATM   15  C8  UNL     1      15.534 -29.300 -47.094  1.00  0.00     0.322 C 
HETATM   16  O1  UNL     1      14.683 -28.432 -46.668  1.00  0.00    -0.247 OA
HETATM   17  N4  UNL     1      15.093 -30.628 -47.295  1.00  0.00    -0.343 N 
HETATM   18  C9  UNL     1      15.960 -31.666 -47.788  1.00  0.00     0.154 C 
HETATM   19  C10 UNL     1      13.717 -30.962 -46.991  1.00  0.00     0.154 C 
ATOM     20  H3  UNL     1      17.551 -29.502 -47.649  1.00  0.00     0.170 HD
ENDBRANCH  11  14
BRANCH  13  21
HETATM   21  C12 UNL     1      17.956 -24.173 -48.257  1.00  0.00     0.160 C 
BRANCH  21  22
HETATM   22  C13 UNL     1      19.197 -24.382 -49.108  1.00  0.00     0.242 C 
HETATM   23  F1  UNL     1      20.333 -24.535 -48.304  1.00  0.00    -0.254 F 
ENDBRANCH  21  22
ENDBRANCH  13  21
ENDBRANCH   6   9
BRANCH   5  24
HETATM   24  N2  UNL     1      17.327 -25.909 -43.225  1.00  0.00    -0.385 N 
ATOM     25  H22 UNL     1      17.502 -26.352 -42.323  1.00  0.00     0.157 HD
ATOM     26  H21 UNL     1      16.538 -26.214 -43.793  1.00  0.00     0.157 HD
ENDBRANCH   5  24
BRANCH   8  27
HETATM   27  C16 UNL     1      20.653 -21.762 -44.783  1.00  0.00    -0.068 C 
HETATM   28  C17 UNL     1      20.501 -20.409 -44.113  1.00  0.00     0.035 C 
HETATM   29  C18 UNL     1      21.816 -19.799 -43.705  1.00  0.00     0.010 C 
HETATM   30  C19 UNL     1      22.919 -19.970 -44.707  1.00  0.00     0.011 C 
HETATM   31  C21 UNL     1      23.149 -21.482 -44.773  1.00  0.00     0.010 C 
HETATM   32  C22 UNL     1      21.892 -22.093 -45.399  1.00  0.00     0.035 C 
BRANCH  30  33
HETATM   33  C20 UNL     1      24.190 -19.360 -44.184  1.00  0.00     0.234 C 
BRANCH  33  34
HETATM   34  N6  UNL     1      24.924 -20.226 -43.280  1.00  0.00    -0.079 N 
ATOM     35  H63 UNL     1      24.492 -20.229 -42.355  1.00  0.00     0.274 HD
ATOM     36  H62 UNL     1      24.791 -21.205 -43.533  1.00  0.00     0.274 HD
ATOM     37  H61 UNL     1      25.917 -20.003 -43.213  1.00  0.00     0.274 HD
ENDBRANCH  33  34
ENDBRANCH  30  33
ENDBRANCH   8  27
TORSDOF 8
ENDMDL
MODEL 5
REMARK VINA RESULT: -7.598971419      3.059      8.335
REMARK  8 active torsions:
REMARK  status: ('A' for Active; 'I' for Inactive)
REMARK    1  A    between atoms: C3_5  and  N2_6 
REMARK    2  A    between atoms: C4_9  and  C5_10 
REMARK    3  A    between atoms: C7_12  and  N3_13 
REMARK       I    between atoms: N3_13  and  C8_15 
REMARK       I    between atoms: C8_15  and  N4_17 
REMARK    4  A    between atoms: N5_21  and  C12_22 
REMARK    5  A    between atoms: C12_22  and  C13_23 
REMARK    6  A    between atoms: C15_26  and  C16_27 
REMARK    7  A    between atoms: C19_30  and  C20_31 
REMARK    8  A    between atoms: C20_31  and  N6_32 
ROOT
HETATM    1  C1  UNL     1      24.827 -21.145 -42.639  1.00  0.00     0.069 C 
HETATM    2  C2  UNL     1      23.616 -21.750 -43.146  1.00  0.00     0.017 A 
HETATM    3  N1  UNL     1      23.179 -22.850 -42.453  1.00  0.00    -0.345 N 
ATOM      4  H1  UNL     1      23.745 -23.170 -41.667  1.00  0.00     0.167 HD
HETATM    5  C3  UNL     1      22.052 -23.540 -42.736  1.00  0.00     0.111 A 
HETATM    6  C4  UNL     1      21.274 -23.151 -43.768  1.00  0.00     0.035 A 
HETATM    7  C14 UNL     1      21.710 -22.023 -44.489  1.00  0.00     0.031 A 
HETATM    8  C15 UNL     1      22.890 -21.313 -44.182  1.00  0.00    -0.011 A 
ENDROOT
BRANCH   6   9
HETATM    9  C5  UNL     1      20.011 -23.723 -44.196  1.00  0.00     0.050 A 
HETATM   10  C6  UNL     1      19.060 -24.098 -43.211  1.00  0.00     0.061 A 
HETATM   11  C7  UNL     1      17.989 -24.719 -43.786  1.00  0.00     0.054 A 
HETATM   12  C11 UNL     1      18.268 -24.737 -45.112  1.00  0.00     0.121 A 
HETATM   13  N5  UNL     1      19.495 -24.129 -45.329  1.00  0.00    -0.351 N 
BRANCH  11  14
HETATM   14  N3  UNL     1      16.834 -25.265 -43.119  1.00  0.00    -0.307 N 
HETATM   15  C8  UNL     1      16.699 -26.646 -42.888  1.00  0.00     0.322 C 
HETATM   16  O1  UNL     1      17.651 -27.400 -43.317  1.00  0.00    -0.247 OA
HETATM   17  N4  UNL     1      15.606 -27.254 -42.230  1.00  0.00    -0.343 N 
HETATM   18  C9  UNL     1      14.504 -26.498 -41.697  1.00  0.00     0.154 C 
HETATM   19  C10 UNL     1      15.589 -28.695 -42.089  1.00  0.00     0.154 C 
ATOM     20  H3  UNL     1      16.096 -24.634 -42.805  1.00  0.00     0.170 HD
ENDBRANCH  11  14
BRANCH  13  21
HETATM   21  C12 UNL     1      19.940 -24.052 -46.695  1.00  0.00     0.160 C 
BRANCH  21  22
HETATM   22  C13 UNL     1      18.894 -24.673 -47.605  1.00  0.00     0.242 C 
HETATM   23  F1  UNL     1      18.153 -23.683 -48.261  1.00  0.00    -0.254 F 
ENDBRANCH  21  22
ENDBRANCH  13  21
ENDBRANCH   6   9
BRANCH   5  24
HETATM   24  N2  UNL     1      21.827 -24.611 -42.022  1.00  0.00    -0.385 N 
ATOM     25  H22 UNL     1      20.949 -24.791 -41.535  1.00  0.00     0.157 HD
ATOM     26  H21 UNL     1      22.561 -25.318 -42.016  1.00  0.00     0.157 HD
ENDBRANCH   5  24
BRANCH   8  27
HETATM   27  C16 UNL     1      23.298 -20.274 -45.139  1.00  0.00    -0.068 C 
HETATM   28  C17 UNL     1      23.004 -18.871 -44.643  1.00  0.00     0.035 C 
HETATM   29  C18 UNL     1      24.127 -17.902 -44.906  1.00  0.00     0.010 C 
HETATM   30  C19 UNL     1      24.778 -18.054 -46.250  1.00  0.00     0.011 C 
HETATM   31  C21 UNL     1      25.411 -19.447 -46.215  1.00  0.00     0.010 C 
HETATM   32  C22 UNL     1      24.259 -20.455 -46.172  1.00  0.00     0.035 C 
BRANCH  30  33
HETATM   33  C20 UNL     1      25.904 -17.068 -46.392  1.00  0.00     0.234 C 
BRANCH  33  34
HETATM   34  N6  UNL     1      27.014 -17.561 -47.184  1.00  0.00    -0.079 N 
ATOM     35  H63 UNL     1      27.729 -16.841 -47.290  1.00  0.00     0.274 HD
ATOM     36  H62 UNL     1      27.549 -18.256 -46.662  1.00  0.00     0.274 HD
ATOM     37  H61 UNL     1      26.737 -17.929 -48.094  1.00  0.00     0.274 HD
ENDBRANCH  33  34
ENDBRANCH  30  33
ENDBRANCH   8  27
TORSDOF 8
ENDMDL
