MODEL 1
REMARK VINA RESULT: -8.649305696      0.000      0.000
REMARK  8 active torsions:
REMARK  status: ('A' for Active; 'I' for Inactive)
REMARK    1  A    between atoms: C2_2  and  C4_11 
REMARK    2  A    between atoms: N1_3  and  N2_5 
REMARK    3  A    between atoms: N2_5  and  S1_7 
REMARK    4  A    between atoms: C5_13  and  N3_14 
REMARK    5  A    between atoms: N3_14  and  N4_16 
REMARK    6  A    between atoms: C6_18  and  C7_19 
REMARK    7  A    between atoms: C10_28  and  N9_29 
REMARK    8  A    between atoms: C11_34  and  C12_35 
ROOT
HETATM    1  C4  UNL     1      -1.144  -2.056  50.887  1.00  0.00     0.064 A 
HETATM    2  S2  UNL     1       0.348  -2.858  50.415  1.00  0.00    -0.048 SA
HETATM    3  C5  UNL     1       1.409  -2.036  51.438  1.00  0.00     0.164 A 
HETATM    4  N10 UNL     1       0.621  -1.200  52.085  1.00  0.00    -0.330 N 
ATOM      5  H10 UNL     1       1.008  -0.565  52.783  1.00  0.00     0.168 HD
HETATM    6  C11 UNL     1      -0.691  -1.191  51.818  1.00  0.00     0.119 A 
ENDROOT
BRANCH   3   7
HETATM    7  N3  UNL     1       2.721  -2.175  51.578  1.00  0.00    -0.280 N 
ATOM      8  H3  UNL     1       3.112  -2.891  52.189  1.00  0.00     0.189 HD
BRANCH   7   9
HETATM    9  N4  UNL     1       3.545  -1.310  50.863  1.00  0.00    -0.309 N 
HETATM   10  C6  UNL     1       3.152  -0.485  49.992  1.00  0.00     0.126 C 
ATOM     11  H4  UNL     1       4.545  -1.346  51.058  1.00  0.00     0.186 HD
BRANCH  10  12
HETATM   12  C7  UNL     1       4.011   0.410  49.252  1.00  0.00     0.066 A 
HETATM   13  C8  UNL     1       4.855   1.276  49.981  1.00  0.00     0.134 A 
HETATM   14  N5  UNL     1       4.844   1.249  51.392  1.00  0.00    -0.082 NA
HETATM   15  N6  UNL     1       5.666   2.122  49.353  1.00  0.00    -0.318 N 
HETATM   16  C9  UNL     1       5.727   2.200  48.001  1.00  0.00     0.195 A 
ATOM     17  H6  UNL     1       6.263   2.735  49.908  1.00  0.00     0.169 HD
HETATM   18  N7  UNL     1       6.602   3.112  47.353  1.00  0.00    -0.063 NA
HETATM   19  N8  UNL     1       4.933   1.385  47.314  1.00  0.00    -0.316 N 
HETATM   20  C10 UNL     1       4.074   0.490  47.887  1.00  0.00     0.116 A 
ATOM     21  H8  UNL     1       4.967   1.431  46.296  1.00  0.00     0.170 HD
BRANCH  20  22
HETATM   22  N9  UNL     1       3.393  -0.207  47.105  1.00  0.00    -0.385 N 
ATOM     23  H92 UNL     1       2.590  -0.689  47.508  1.00  0.00     0.157 HD
ATOM     24  H91 UNL     1       3.590  -0.319  46.110  1.00  0.00     0.157 HD
ENDBRANCH  20  22
ENDBRANCH  10  12
ENDBRANCH   7   9
ENDBRANCH   3   7
BRANCH   1  25
HETATM   25  C2  UNL     1      -2.466  -2.466  50.381  1.00  0.00     0.042 C 
HETATM   26  C1  UNL     1      -3.744  -1.779  50.558  1.00  0.00     0.071 C 
HETATM   27  N1  UNL     1      -2.468  -3.648  49.753  1.00  0.00    -0.295 N 
ATOM     28  H1  UNL     1      -1.602  -4.166  49.606  1.00  0.00     0.187 HD
BRANCH  27  29
HETATM   29  N2  UNL     1      -3.685  -4.146  49.309  1.00  0.00    -0.227 N 
ATOM     30  H2  UNL     1      -4.545  -3.634  49.503  1.00  0.00     0.200 HD
BRANCH  29  31
HETATM   31  S1  UNL     1      -3.750  -5.642  48.423  1.00  0.00     0.240 S 
HETATM   32  C3  UNL     1      -4.709  -6.832  49.326  1.00  0.00     0.187 C 
HETATM   33  O1  UNL     1      -2.368  -6.134  48.193  1.00  0.00    -0.205 OA
HETATM   34  O2  UNL     1      -4.438  -5.437  47.096  1.00  0.00    -0.205 OA
ENDBRANCH  29  31
ENDBRANCH  27  29
ENDBRANCH   1  25
BRANCH   6  35
HETATM   35  C12 UNL     1      -1.564  -0.146  52.457  1.00  0.00     0.282 C 
HETATM   36  N11 UNL     1      -1.894   1.033  51.694  1.00  0.00    -0.056 NA
HETATM   37  O3  UNL     1      -1.980  -0.286  53.580  1.00  0.00    -0.269 OA
ENDBRANCH   6  35
TORSDOF 8
ENDMDL
MODEL 2
REMARK VINA RESULT: -8.460618289      3.246      5.515
REMARK  8 active torsions:
REMARK  status: ('A' for Active; 'I' for Inactive)
REMARK    1  A    between atoms: C2_2  and  C4_11 
REMARK    2  A    between atoms: N1_3  and  N2_5 
REMARK    3  A    between atoms: N2_5  and  S1_7 
REMARK    4  A    between atoms: C5_13  and  N3_14 
REMARK    5  A    between atoms: N3_14  and  N4_16 
REMARK    6  A    between atoms: C6_18  and  C7_19 
REMARK    7  A    between atoms: C10_28  and  N9_29 
REMARK    8  A    between atoms: C11_34  and  C12_35 
ROOT
HETATM    1  C4  UNL     1      -0.750  -0.241  53.519  1.00  0.00     0.064 A 
HETATM    2  S2  UNL     1       0.994  -0.219  53.739  1.00  0.00    -0.048 SA
HETATM    3  C5  UNL     1       1.434  -1.048  52.336  1.00  0.00     0.164 A 
HETATM    4  N10 UNL     1       0.276  -1.311  51.762  1.00  0.00    -0.330 N 
ATOM      5  H10 UNL     1       0.244  -1.817  50.877  1.00  0.00     0.168 HD
HETATM    6  C11 UNL     1      -0.857  -0.909  52.351  1.00  0.00     0.119 A 
ENDROOT
BRANCH   3   7
HETATM    7  N3  UNL     1       2.642  -1.371  51.893  1.00  0.00    -0.280 N 
ATOM      8  H3  UNL     1       3.394  -1.608  52.540  1.00  0.00     0.189 HD
BRANCH   7   9
HETATM    9  N4  UNL     1       2.848  -1.376  50.516  1.00  0.00    -0.309 N 
HETATM   10  C6  UNL     1       3.212  -0.380  49.832  1.00  0.00     0.126 C 
ATOM     11  H4  UNL     1       2.692  -2.253  50.021  1.00  0.00     0.186 HD
BRANCH  10  12
HETATM   12  C7  UNL     1       3.425  -0.389  48.404  1.00  0.00     0.066 A 
HETATM   13  C8  UNL     1       2.891  -1.462  47.658  1.00  0.00     0.134 A 
HETATM   14  N5  UNL     1       2.171  -2.485  48.311  1.00  0.00    -0.082 NA
HETATM   15  N6  UNL     1       3.056  -1.523  46.340  1.00  0.00    -0.318 N 
HETATM   16  C9  UNL     1       3.735  -0.575  45.650  1.00  0.00     0.195 A 
ATOM     17  H6  UNL     1       2.657  -2.311  45.830  1.00  0.00     0.169 HD
HETATM   18  N7  UNL     1       3.898  -0.662  44.242  1.00  0.00    -0.063 NA
HETATM   19  N8  UNL     1       4.239   0.436  46.351  1.00  0.00    -0.316 N 
HETATM   20  C10 UNL     1       4.111   0.568  47.705  1.00  0.00     0.116 A 
ATOM     21  H8  UNL     1       4.753   1.158  45.847  1.00  0.00     0.170 HD
BRANCH  20  22
HETATM   22  N9  UNL     1       4.642   1.575  48.218  1.00  0.00    -0.385 N 
ATOM     23  H92 UNL     1       4.566   1.662  49.232  1.00  0.00     0.157 HD
ATOM     24  H91 UNL     1       5.136   2.299  47.695  1.00  0.00     0.157 HD
ENDBRANCH  20  22
ENDBRANCH  10  12
ENDBRANCH   7   9
ENDBRANCH   3   7
BRANCH   1  25
HETATM   25  C2  UNL     1      -1.678   0.466  54.419  1.00  0.00     0.042 C 
HETATM   26  C1  UNL     1      -1.986   0.153  55.813  1.00  0.00     0.071 C 
HETATM   27  N1  UNL     1      -2.353   1.463  53.834  1.00  0.00    -0.295 N 
ATOM     28  H1  UNL     1      -2.174   1.720  52.863  1.00  0.00     0.187 HD
BRANCH  27  29
HETATM   29  N2  UNL     1      -3.304   2.136  54.589  1.00  0.00    -0.227 N 
ATOM     30  H2  UNL     1      -3.340   2.000  55.599  1.00  0.00     0.200 HD
BRANCH  29  31
HETATM   31  S1  UNL     1      -4.435   3.212  53.820  1.00  0.00     0.240 S 
HETATM   32  C3  UNL     1      -3.964   4.896  54.128  1.00  0.00     0.187 C 
HETATM   33  O1  UNL     1      -5.799   2.936  54.336  1.00  0.00    -0.205 OA
HETATM   34  O2  UNL     1      -4.413   3.014  52.325  1.00  0.00    -0.205 OA
ENDBRANCH  29  31
ENDBRANCH  27  29
ENDBRANCH   1  25
BRANCH   6  35
HETATM   35  C12 UNL     1      -2.178  -1.327  51.766  1.00  0.00     0.282 C 
HETATM   36  N11 UNL     1      -3.061  -0.304  51.262  1.00  0.00    -0.056 NA
HETATM   37  O3  UNL     1      -2.495  -2.490  51.719  1.00  0.00    -0.269 OA
ENDBRANCH   6  35
TORSDOF 8
ENDMDL
MODEL 3
REMARK VINA RESULT: -8.456214348      6.412      8.893
REMARK  8 active torsions:
REMARK  status: ('A' for Active; 'I' for Inactive)
REMARK    1  A    between atoms: C2_2  and  C4_11 
REMARK    2  A    between atoms: N1_3  and  N2_5 
REMARK    3  A    between atoms: N2_5  and  S1_7 
REMARK    4  A    between atoms: C5_13  and  N3_14 
REMARK    5  A    between atoms: N3_14  and  N4_16 
REMARK    6  A    between atoms: C6_18  and  C7_19 
REMARK    7  A    between atoms: C10_28  and  N9_29 
REMARK    8  A    between atoms: C11_34  and  C12_35 
ROOT
HETATM    1  C4  UNL     1      -4.401   3.106  54.081  1.00  0.00     0.064 A 
HETATM    2  S2  UNL     1      -3.260   2.738  52.796  1.00  0.00    -0.048 SA
HETATM    3  C5  UNL     1      -2.285   1.642  53.631  1.00  0.00     0.164 A 
HETATM    4  N10 UNL     1      -2.838   1.594  54.827  1.00  0.00    -0.330 N 
ATOM      5  H10 UNL     1      -2.443   0.995  55.552  1.00  0.00     0.168 HD
HETATM    6  C11 UNL     1      -3.922   2.337  55.082  1.00  0.00     0.119 A 
ENDROOT
BRANCH   3   7
HETATM    7  N3  UNL     1      -1.216   0.977  53.213  1.00  0.00    -0.280 N 
ATOM      8  H3  UNL     1      -0.292   1.171  53.598  1.00  0.00     0.189 HD
BRANCH   7   9
HETATM    9  N4  UNL     1      -1.399   0.007  52.231  1.00  0.00    -0.309 N 
HETATM   10  C6  UNL     1      -1.613  -1.217  52.449  1.00  0.00     0.126 C 
ATOM     11  H4  UNL     1      -1.355   0.310  51.258  1.00  0.00     0.186 HD
BRANCH  10  12
HETATM   12  C7  UNL     1      -1.801  -2.220  51.428  1.00  0.00     0.066 A 
HETATM   13  C8  UNL     1      -2.890  -2.071  50.541  1.00  0.00     0.134 A 
HETATM   14  N5  UNL     1      -3.757  -0.964  50.669  1.00  0.00    -0.082 NA
HETATM   15  N6  UNL     1      -3.113  -2.964  49.582  1.00  0.00    -0.318 N 
HETATM   16  C9  UNL     1      -2.321  -4.049  49.403  1.00  0.00     0.195 A 
ATOM     17  H6  UNL     1      -3.908  -2.828  48.958  1.00  0.00     0.169 HD
HETATM   18  N7  UNL     1      -2.579  -4.989  48.370  1.00  0.00    -0.063 NA
HETATM   19  N8  UNL     1      -1.296  -4.191  50.237  1.00  0.00    -0.316 N 
HETATM   20  C10 UNL     1      -1.003  -3.317  51.245  1.00  0.00     0.116 A 
ATOM     21  H8  UNL     1      -0.690  -5.002  50.116  1.00  0.00     0.170 HD
BRANCH  20  22
HETATM   22  N9  UNL     1      -0.004  -3.589  51.945  1.00  0.00    -0.385 N 
ATOM     23  H92 UNL     1      -0.018  -3.253  52.908  1.00  0.00     0.157 HD
ATOM     24  H91 UNL     1       0.806  -4.115  51.616  1.00  0.00     0.157 HD
ENDBRANCH  20  22
ENDBRANCH  10  12
ENDBRANCH   7   9
ENDBRANCH   3   7
BRANCH   1  25
HETATM   25  C2  UNL     1      -5.588   3.954  53.877  1.00  0.00     0.042 C 
HETATM   26  C1  UNL     1      -5.626   5.367  53.503  1.00  0.00     0.071 C 
HETATM   27  N1  UNL     1      -6.748   3.343  54.146  1.00  0.00    -0.295 N 
ATOM     28  H1  UNL     1      -6.774   2.359  54.412  1.00  0.00     0.187 HD
BRANCH  27  29
HETATM   29  N2  UNL     1      -7.915   4.091  54.053  1.00  0.00    -0.227 N 
ATOM     30  H2  UNL     1      -8.165   4.532  53.168  1.00  0.00     0.200 HD
BRANCH  29  31
HETATM   31  S1  UNL     1      -8.951   4.278  55.437  1.00  0.00     0.240 S 
HETATM   32  C3  UNL     1      -9.646   5.912  55.448  1.00  0.00     0.187 C 
HETATM   33  O1  UNL     1      -8.166   4.024  56.672  1.00  0.00    -0.205 OA
HETATM   34  O2  UNL     1     -10.104   3.308  55.366  1.00  0.00    -0.205 OA
ENDBRANCH  29  31
ENDBRANCH  27  29
ENDBRANCH   1  25
BRANCH   6  35
HETATM   35  C12 UNL     1      -4.468   2.384  56.482  1.00  0.00     0.282 C 
HETATM   36  N11 UNL     1      -5.709   1.702  56.759  1.00  0.00    -0.056 NA
HETATM   37  O3  UNL     1      -3.886   2.977  57.356  1.00  0.00    -0.269 OA
ENDBRANCH   6  35
TORSDOF 8
ENDMDL
MODEL 4
REMARK VINA RESULT: -8.406187328      5.263      9.416
REMARK  8 active torsions:
REMARK  status: ('A' for Active; 'I' for Inactive)
REMARK    1  A    between atoms: C2_2  and  C4_11 
REMARK    2  A    between atoms: N1_3  and  N2_5 
REMARK    3  A    between atoms: N2_5  and  S1_7 
REMARK    4  A    between atoms: C5_13  and  N3_14 
REMARK    5  A    between atoms: N3_14  and  N4_16 
REMARK    6  A    between atoms: C6_18  and  C7_19 
REMARK    7  A    between atoms: C10_28  and  N9_29 
REMARK    8  A    between atoms: C11_34  and  C12_35 
ROOT
HETATM    1  C4  UNL     1      -1.776   0.233  52.726  1.00  0.00     0.064 A 
HETATM    2  S2  UNL     1      -1.642   0.489  54.460  1.00  0.00    -0.048 SA
HETATM    3  C5  UNL     1      -2.526   1.922  54.572  1.00  0.00     0.164 A 
HETATM    4  N10 UNL     1      -2.883   2.157  53.325  1.00  0.00    -0.330 N 
ATOM      5  H10 UNL     1      -3.440   2.981  53.096  1.00  0.00     0.168 HD
HETATM    6  C11 UNL     1      -2.509   1.306  52.361  1.00  0.00     0.119 A 
ENDROOT
BRANCH   3   7
HETATM    7  N3  UNL     1      -2.809   2.656  55.640  1.00  0.00    -0.280 N 
ATOM      8  H3  UNL     1      -2.125   2.786  56.386  1.00  0.00     0.189 HD
BRANCH   7   9
HETATM    9  N4  UNL     1      -4.070   3.242  55.709  1.00  0.00    -0.309 N 
HETATM   10  C6  UNL     1      -5.127   2.753  55.224  1.00  0.00     0.126 C 
ATOM     11  H4  UNL     1      -4.145   4.139  56.189  1.00  0.00     0.186 HD
BRANCH  10  12
HETATM   12  C7  UNL     1      -6.433   3.365  55.298  1.00  0.00     0.066 A 
HETATM   13  C8  UNL     1      -7.218   3.122  56.446  1.00  0.00     0.134 A 
HETATM   14  N5  UNL     1      -6.719   2.301  57.481  1.00  0.00    -0.082 NA
HETATM   15  N6  UNL     1      -8.428   3.658  56.568  1.00  0.00    -0.318 N 
HETATM   16  C9  UNL     1      -8.968   4.455  55.615  1.00  0.00     0.195 A 
ATOM     17  H6  UNL     1      -8.970   3.463  57.410  1.00  0.00     0.169 HD
HETATM   18  N7  UNL     1     -10.263   5.017  55.769  1.00  0.00    -0.063 NA
HETATM   19  N8  UNL     1      -8.230   4.685  54.534  1.00  0.00    -0.316 N 
HETATM   20  C10 UNL     1      -6.980   4.171  54.336  1.00  0.00     0.116 A 
ATOM     21  H8  UNL     1      -8.621   5.283  53.806  1.00  0.00     0.170 HD
BRANCH  20  22
HETATM   22  N9  UNL     1      -6.414   4.480  53.266  1.00  0.00    -0.385 N 
ATOM     23  H92 UNL     1      -6.268   3.726  52.595  1.00  0.00     0.157 HD
ATOM     24  H91 UNL     1      -6.095   5.420  53.031  1.00  0.00     0.157 HD
ENDBRANCH  20  22
ENDBRANCH  10  12
ENDBRANCH   7   9
ENDBRANCH   3   7
BRANCH   1  25
HETATM   25  C2  UNL     1      -1.270  -0.977  52.055  1.00  0.00     0.042 C 
HETATM   26  C1  UNL     1       0.117  -1.308  51.734  1.00  0.00     0.071 C 
HETATM   27  N1  UNL     1      -2.229  -1.813  51.641  1.00  0.00    -0.295 N 
ATOM     28  H1  UNL     1      -3.211  -1.626  51.840  1.00  0.00     0.187 HD
BRANCH  27  29
HETATM   29  N2  UNL     1      -1.845  -2.944  50.932  1.00  0.00    -0.227 N 
ATOM     30  H2  UNL     1      -1.032  -3.481  51.235  1.00  0.00     0.200 HD
BRANCH  29  31
HETATM   31  S1  UNL     1      -2.744  -3.449  49.531  1.00  0.00     0.240 S 
HETATM   32  C3  UNL     1      -2.292  -5.110  49.096  1.00  0.00     0.187 C 
HETATM   33  O1  UNL     1      -2.473  -2.511  48.413  1.00  0.00    -0.205 OA
HETATM   34  O2  UNL     1      -4.222  -3.459  49.831  1.00  0.00    -0.205 OA
ENDBRANCH  29  31
ENDBRANCH  27  29
ENDBRANCH   1  25
BRANCH   6  35
HETATM   35  C12 UNL     1      -2.799   1.648  50.925  1.00  0.00     0.282 C 
HETATM   36  N11 UNL     1      -3.597   0.730  50.149  1.00  0.00    -0.056 NA
HETATM   37  O3  UNL     1      -2.377   2.663  50.430  1.00  0.00    -0.269 OA
ENDBRANCH   6  35
TORSDOF 8
ENDMDL
MODEL 5
REMARK VINA RESULT: -8.325912025      3.722      5.733
REMARK  8 active torsions:
REMARK  status: ('A' for Active; 'I' for Inactive)
REMARK    1  A    between atoms: C2_2  and  C4_11 
REMARK    2  A    between atoms: N1_3  and  N2_5 
REMARK    3  A    between atoms: N2_5  and  S1_7 
REMARK    4  A    between atoms: C5_13  and  N3_14 
REMARK    5  A    between atoms: N3_14  and  N4_16 
REMARK    6  A    between atoms: C6_18  and  C7_19 
REMARK    7  A    between atoms: C10_28  and  N9_29 
REMARK    8  A    between atoms: C11_34  and  C12_35 
ROOT
HETATM    1  C4  UNL     1      -0.490   0.004  54.006  1.00  0.00     0.064 A 
HETATM    2  S2  UNL     1       1.253   0.201  54.114  1.00  0.00    -0.048 SA
HETATM    3  C5  UNL     1       1.591   0.358  52.469  1.00  0.00     0.164 A 
HETATM    4  N10 UNL     1       0.404   0.255  51.903  1.00  0.00    -0.330 N 
ATOM      5  H10 UNL     1       0.311   0.316  50.889  1.00  0.00     0.168 HD
HETATM    6  C11 UNL     1      -0.677   0.071  52.671  1.00  0.00     0.119 A 
ENDROOT
BRANCH   3   7
HETATM    7  N3  UNL     1       2.756   0.540  51.862  1.00  0.00    -0.280 N 
ATOM      8  H3  UNL     1       3.601   0.750  52.395  1.00  0.00     0.189 HD
BRANCH   7   9
HETATM    9  N4  UNL     1       2.789   0.436  50.474  1.00  0.00    -0.309 N 
HETATM   10  C6  UNL     1       3.544  -0.334  49.820  1.00  0.00     0.126 C 
ATOM     11  H4  UNL     1       2.151   1.030  49.944  1.00  0.00     0.186 HD
BRANCH  10  12
HETATM   12  C7  UNL     1       3.575  -0.439  48.380  1.00  0.00     0.066 A 
HETATM   13  C8  UNL     1       4.213   0.588  47.651  1.00  0.00     0.134 A 
HETATM   14  N5  UNL     1       4.799   1.676  48.332  1.00  0.00    -0.082 NA
HETATM   15  N6  UNL     1       4.271   0.544  46.323  1.00  0.00    -0.318 N 
HETATM   16  C9  UNL     1       3.731  -0.471  45.607  1.00  0.00     0.195 A 
ATOM     17  H6  UNL     1       4.740   1.301  45.827  1.00  0.00     0.169 HD
HETATM   18  N7  UNL     1       3.806  -0.495  44.189  1.00  0.00    -0.063 NA
HETATM   19  N8  UNL     1       3.129  -1.438  46.292  1.00  0.00    -0.316 N 
HETATM   20  C10 UNL     1       3.029  -1.464  47.654  1.00  0.00     0.116 A 
ATOM     21  H8  UNL     1       2.717  -2.210  45.768  1.00  0.00     0.170 HD
BRANCH  20  22
HETATM   22  N9  UNL     1       2.432  -2.443  48.150  1.00  0.00    -0.385 N 
ATOM     23  H92 UNL     1       3.017  -3.202  48.499  1.00  0.00     0.157 HD
ATOM     24  H91 UNL     1       1.418  -2.525  48.224  1.00  0.00     0.157 HD
ENDBRANCH  20  22
ENDBRANCH  10  12
ENDBRANCH   7   9
ENDBRANCH   3   7
BRANCH   1  25
HETATM   25  C2  UNL     1      -1.362  -0.063  55.191  1.00  0.00     0.042 C 
HETATM   26  C1  UNL     1      -1.451  -1.140  56.177  1.00  0.00     0.071 C 
HETATM   27  N1  UNL     1      -2.209   0.966  55.306  1.00  0.00    -0.295 N 
ATOM     28  H1  UNL     1      -2.187   1.741  54.643  1.00  0.00     0.187 HD
BRANCH  27  29
HETATM   29  N2  UNL     1      -3.120   0.947  56.354  1.00  0.00    -0.227 N 
ATOM     30  H2  UNL     1      -2.969   0.324  57.146  1.00  0.00     0.200 HD
BRANCH  29  31
HETATM   31  S1  UNL     1      -4.517   1.984  56.322  1.00  0.00     0.240 S 
HETATM   32  C3  UNL     1      -4.230   3.408  57.343  1.00  0.00     0.187 C 
HETATM   33  O1  UNL     1      -5.701   1.221  56.790  1.00  0.00    -0.205 OA
HETATM   34  O2  UNL     1      -4.765   2.488  54.922  1.00  0.00    -0.205 OA
ENDBRANCH  29  31
ENDBRANCH  27  29
ENDBRANCH   1  25
BRANCH   6  35
HETATM   35  C12 UNL     1      -2.008  -0.181  52.018  1.00  0.00     0.282 C 
HETATM   36  N11 UNL     1      -2.989   0.876  52.027  1.00  0.00    -0.056 NA
HETATM   37  O3  UNL     1      -2.253  -1.241  51.498  1.00  0.00    -0.269 OA
ENDBRANCH   6  35
TORSDOF 8
ENDMDL
