MODEL 1
REMARK VINA RESULT: -8.535396014      0.000      0.000
REMARK  10 active torsions:
REMARK  status: ('A' for Active; 'I' for Inactive)
REMARK    1  A    between atoms: C2_3  and  S1_4 
REMARK    2  A    between atoms: S1_4  and  C3_5 
REMARK    3  A    between atoms: C8_16  and  C9_17 
REMARK    4  A    between atoms: N5_18  and  O1_20 
REMARK    5  A    between atoms: O1_20  and  C10_21 
REMARK    6  A    between atoms: C10_21  and  C11_22 
REMARK    7  A    between atoms: C16_31  and  N8_32 
REMARK    8  A    between atoms: N8_32  and  N9_33 
REMARK    9  A    between atoms: N9_33  and  N10_35 
REMARK   10  A    between atoms: N11_39  and  N12_40 
ROOT
HETATM    1  N1  UNL     1       2.328   2.347  55.168  1.00  0.00    -0.197 NA
HETATM    2  C1  UNL     1       3.172   1.570  55.032  1.00  0.00     0.069 C 
HETATM    3  C2  UNL     1       4.277   0.605  54.825  1.00  0.00     0.204 C 
ENDROOT
BRANCH   3   4
HETATM    4  S1  UNL     1       3.778  -0.961  54.330  1.00  0.00    -0.095 SA
BRANCH   4   5
HETATM    5  C3  UNL     1       2.186  -1.324  53.670  1.00  0.00     0.117 A 
HETATM    6  C4  UNL     1       1.036  -1.540  54.355  1.00  0.00     0.108 A 
HETATM    7  C5  UNL     1       0.892  -1.232  55.773  1.00  0.00     0.104 C 
HETATM    8  C6  UNL     1      -0.117  -2.006  53.737  1.00  0.00     0.079 A 
HETATM    9  N2  UNL     1       0.709  -0.987  56.878  1.00  0.00    -0.191 NA
HETATM   10  N3  UNL     1      -1.195  -2.230  54.269  1.00  0.00    -0.396 N 
HETATM   11  C7  UNL     1      -0.008  -2.236  52.342  1.00  0.00     0.096 A 
ATOM     12  H32 UNL     1      -1.274  -2.064  55.272  1.00  0.00     0.156 HD
ATOM     13  H31 UNL     1      -2.041  -2.572  53.815  1.00  0.00     0.156 HD
HETATM   14  N4  UNL     1      -1.066  -2.808  51.746  1.00  0.00    -0.337 N 
HETATM   15  C17 UNL     1       1.137  -2.018  51.654  1.00  0.00     0.146 A 
HETATM   16  C8  UNL     1      -1.054  -3.175  50.460  1.00  0.00     0.125 A 
ATOM     17  H4  UNL     1      -1.912  -2.967  52.294  1.00  0.00     0.167 HD
HETATM   18  N7  UNL     1       0.047  -2.945  49.733  1.00  0.00    -0.312 N 
HETATM   19  C16 UNL     1       1.182  -2.366  50.281  1.00  0.00     0.238 A 
ATOM     20  H7  UNL     1       0.051  -3.205  48.747  1.00  0.00     0.170 HD
HETATM   21  N11 UNL     1       2.203  -1.574  52.305  1.00  0.00    -0.247 N 
BRANCH  16  22
HETATM   22  C9  UNL     1      -2.169  -3.948  49.951  1.00  0.00     0.162 C 
HETATM   23  N5  UNL     1      -2.924  -3.737  48.939  1.00  0.00    -0.274 N 
ATOM     24  H5  UNL     1      -2.819  -2.919  48.339  1.00  0.00     0.193 HD
BRANCH  23  25
HETATM   25  O1  UNL     1      -3.901  -4.709  48.717  1.00  0.00    -0.276 OA
BRANCH  25  26
HETATM   26  C10 UNL     1      -3.735  -6.073  48.594  1.00  0.00     0.241 C 
BRANCH  26  27
HETATM   27  C11 UNL     1      -4.896  -6.872  49.035  1.00  0.00    -0.017 A 
HETATM   28  C12 UNL     1      -6.055  -6.870  48.277  1.00  0.00     0.012 A 
HETATM   29  C13 UNL     1      -7.128  -7.623  48.737  1.00  0.00     0.018 A 
HETATM   30  C14 UNL     1      -7.086  -8.341  49.879  1.00  0.00     0.087 A 
HETATM   31  N6  UNL     1      -5.927  -8.312  50.603  1.00  0.00    -0.375 N 
HETATM   32  C15 UNL     1      -4.861  -7.593  50.183  1.00  0.00     0.096 A 
ATOM     33  H6  UNL     1      -5.864  -8.841  51.473  1.00  0.00     0.164 HD
ENDBRANCH  26  27
ENDBRANCH  25  26
ENDBRANCH  23  25
ENDBRANCH  16  22
BRANCH  19  34
HETATM   34  N8  UNL     1       2.069  -1.991  49.577  1.00  0.00    -0.289 NA
BRANCH  34  35
HETATM   35  N9  UNL     1       3.037  -1.567  48.765  1.00  0.00    -0.180 N 
ATOM     36  H9  UNL     1       3.592  -0.772  49.084  1.00  0.00     0.223 HD
BRANCH  35  37
HETATM   37  N10 UNL     1       3.363  -2.105  47.524  1.00  0.00    -0.320 N 
ATOM     38 2H10 UNL     1       3.110  -3.083  47.385  1.00  0.00     0.179 HD
ATOM     39 1H10 UNL     1       3.824  -1.614  46.758  1.00  0.00     0.179 HD
ENDBRANCH  35  37
ENDBRANCH  34  35
ENDBRANCH  19  34
BRANCH  21  40
HETATM   40  N12 UNL     1       3.453  -1.513  51.669  1.00  0.00    -0.337 N 
ATOM     41 2H12 UNL     1       4.067  -2.327  51.654  1.00  0.00     0.177 HD
ATOM     42 1H12 UNL     1       3.758  -0.593  51.351  1.00  0.00     0.177 HD
ENDBRANCH  21  40
ENDBRANCH   4   5
ENDBRANCH   3   4
TORSDOF 10
ENDMDL
MODEL 2
REMARK VINA RESULT: -8.204220856      3.893      9.772
REMARK  10 active torsions:
REMARK  status: ('A' for Active; 'I' for Inactive)
REMARK    1  A    between atoms: C2_3  and  S1_4 
REMARK    2  A    between atoms: S1_4  and  C3_5 
REMARK    3  A    between atoms: C8_16  and  C9_17 
REMARK    4  A    between atoms: N5_18  and  O1_20 
REMARK    5  A    between atoms: O1_20  and  C10_21 
REMARK    6  A    between atoms: C10_21  and  C11_22 
REMARK    7  A    between atoms: C16_31  and  N8_32 
REMARK    8  A    between atoms: N8_32  and  N9_33 
REMARK    9  A    between atoms: N9_33  and  N10_35 
REMARK   10  A    between atoms: N11_39  and  N12_40 
ROOT
HETATM    1  N1  UNL     1      -2.698  -6.534  47.971  1.00  0.00    -0.197 NA
HETATM    2  C1  UNL     1      -3.023  -5.555  48.489  1.00  0.00     0.069 C 
HETATM    3  C2  UNL     1      -3.478  -4.293  49.119  1.00  0.00     0.204 C 
ENDROOT
BRANCH   3   4
HETATM    4  S1  UNL     1      -2.267  -3.085  49.262  1.00  0.00    -0.095 SA
BRANCH   4   5
HETATM    5  C3  UNL     1      -1.803  -2.332  50.786  1.00  0.00     0.117 A 
HETATM    6  C4  UNL     1      -2.120  -1.089  51.225  1.00  0.00     0.108 A 
HETATM    7  C5  UNL     1      -3.145  -0.265  50.592  1.00  0.00     0.104 C 
HETATM    8  C6  UNL     1      -1.539  -0.533  52.357  1.00  0.00     0.079 A 
HETATM    9  N2  UNL     1      -3.955   0.418  50.155  1.00  0.00    -0.191 NA
HETATM   10  N3  UNL     1      -1.760   0.574  52.826  1.00  0.00    -0.396 N 
HETATM   11  C7  UNL     1      -0.597  -1.358  53.023  1.00  0.00     0.096 A 
ATOM     12  H32 UNL     1      -2.438   1.167  52.348  1.00  0.00     0.156 HD
ATOM     13  H31 UNL     1      -1.333   0.981  53.658  1.00  0.00     0.156 HD
HETATM   14  N4  UNL     1       0.072  -0.798  54.043  1.00  0.00    -0.337 N 
HETATM   15  C17 UNL     1      -0.281  -2.601  52.591  1.00  0.00     0.146 A 
HETATM   16  C8  UNL     1       1.061  -1.428  54.686  1.00  0.00     0.125 A 
ATOM     17  H4  UNL     1      -0.183   0.144  54.340  1.00  0.00     0.167 HD
HETATM   18  N7  UNL     1       1.382  -2.674  54.313  1.00  0.00    -0.312 N 
HETATM   19  C16 UNL     1       0.740  -3.316  53.263  1.00  0.00     0.238 A 
ATOM     20  H7  UNL     1       2.121  -3.165  54.815  1.00  0.00     0.170 HD
HETATM   21  N11 UNL     1      -0.871  -3.071  51.501  1.00  0.00    -0.247 N 
BRANCH  16  22
HETATM   22  C9  UNL     1       1.846  -0.683  55.648  1.00  0.00     0.162 C 
HETATM   23  N5  UNL     1       2.041  -0.896  56.895  1.00  0.00    -0.274 N 
ATOM     24  H5  UNL     1       1.611  -1.677  57.391  1.00  0.00     0.193 HD
BRANCH  23  25
HETATM   25  O1  UNL     1       2.885   0.018  57.527  1.00  0.00    -0.276 OA
BRANCH  25  26
HETATM   26  C10 UNL     1       4.061   0.563  57.053  1.00  0.00     0.241 C 
BRANCH  26  27
HETATM   27  C11 UNL     1       5.259  -0.267  57.293  1.00  0.00    -0.017 A 
HETATM   28  C12 UNL     1       6.163   0.104  58.274  1.00  0.00     0.012 A 
HETATM   29  C13 UNL     1       7.284  -0.696  58.456  1.00  0.00     0.018 A 
HETATM   30  C14 UNL     1       7.523  -1.802  57.721  1.00  0.00     0.087 A 
HETATM   31  N6  UNL     1       6.612  -2.132  56.757  1.00  0.00    -0.375 N 
HETATM   32  C15 UNL     1       5.507  -1.378  56.555  1.00  0.00     0.096 A 
ATOM     33  H6  UNL     1       6.766  -2.960  56.181  1.00  0.00     0.164 HD
ENDBRANCH  26  27
ENDBRANCH  25  26
ENDBRANCH  23  25
ENDBRANCH  16  22
BRANCH  19  34
HETATM   34  N8  UNL     1       0.902  -4.484  53.079  1.00  0.00    -0.289 NA
BRANCH  34  35
HETATM   35  N9  UNL     1       1.066  -5.794  52.905  1.00  0.00    -0.180 N 
ATOM     36  H9  UNL     1       1.373  -6.102  51.981  1.00  0.00     0.223 HD
BRANCH  35  37
HETATM   37  N10 UNL     1       0.860  -6.783  53.862  1.00  0.00    -0.320 N 
ATOM     38 2H10 UNL     1       0.682  -6.451  54.810  1.00  0.00     0.179 HD
ATOM     39 1H10 UNL     1       0.872  -7.790  53.699  1.00  0.00     0.179 HD
ENDBRANCH  35  37
ENDBRANCH  34  35
ENDBRANCH  19  34
BRANCH  21  40
HETATM   40  N12 UNL     1      -0.439  -4.272  50.916  1.00  0.00    -0.337 N 
ATOM     41 2H12 UNL     1      -1.033  -5.101  50.937  1.00  0.00     0.177 HD
ATOM     42 1H12 UNL     1       0.530  -4.302  50.599  1.00  0.00     0.177 HD
ENDBRANCH  21  40
ENDBRANCH   4   5
ENDBRANCH   3   4
TORSDOF 10
ENDMDL
MODEL 3
REMARK VINA RESULT: -7.941759083      3.838      9.895
REMARK  10 active torsions:
REMARK  status: ('A' for Active; 'I' for Inactive)
REMARK    1  A    between atoms: C2_3  and  S1_4 
REMARK    2  A    between atoms: S1_4  and  C3_5 
REMARK    3  A    between atoms: C8_16  and  C9_17 
REMARK    4  A    between atoms: N5_18  and  O1_20 
REMARK    5  A    between atoms: O1_20  and  C10_21 
REMARK    6  A    between atoms: C10_21  and  C11_22 
REMARK    7  A    between atoms: C16_31  and  N8_32 
REMARK    8  A    between atoms: N8_32  and  N9_33 
REMARK    9  A    between atoms: N9_33  and  N10_35 
REMARK   10  A    between atoms: N11_39  and  N12_40 
ROOT
HETATM    1  N1  UNL     1      -2.678  -6.568  47.959  1.00  0.00    -0.197 NA
HETATM    2  C1  UNL     1      -3.007  -5.577  48.452  1.00  0.00     0.069 C 
HETATM    3  C2  UNL     1      -3.464  -4.300  49.050  1.00  0.00     0.204 C 
ENDROOT
BRANCH   3   4
HETATM    4  S1  UNL     1      -2.238  -3.113  49.230  1.00  0.00    -0.095 SA
BRANCH   4   5
HETATM    5  C3  UNL     1      -1.819  -2.357  50.765  1.00  0.00     0.117 A 
HETATM    6  C4  UNL     1      -2.171  -1.123  51.203  1.00  0.00     0.108 A 
HETATM    7  C5  UNL     1      -3.202  -0.319  50.554  1.00  0.00     0.104 C 
HETATM    8  C6  UNL     1      -1.624  -0.559  52.348  1.00  0.00     0.079 A 
HETATM    9  N2  UNL     1      -4.019   0.348  50.106  1.00  0.00    -0.191 NA
HETATM   10  N3  UNL     1      -1.878   0.541  52.818  1.00  0.00    -0.396 N 
HETATM   11  C7  UNL     1      -0.676  -1.366  53.028  1.00  0.00     0.096 A 
ATOM     12  H32 UNL     1      -2.559   1.121  52.329  1.00  0.00     0.156 HD
ATOM     13  H31 UNL     1      -1.476   0.954  53.659  1.00  0.00     0.156 HD
HETATM   14  N4  UNL     1      -0.038  -0.795  54.063  1.00  0.00    -0.337 N 
HETATM   15  C17 UNL     1      -0.325  -2.600  52.597  1.00  0.00     0.146 A 
HETATM   16  C8  UNL     1       0.952  -1.406  54.721  1.00  0.00     0.125 A 
ATOM     17  H4  UNL     1      -0.320   0.140  54.358  1.00  0.00     0.167 HD
HETATM   18  N7  UNL     1       1.308  -2.643  54.349  1.00  0.00    -0.312 N 
HETATM   19  C16 UNL     1       0.700  -3.295  53.285  1.00  0.00     0.238 A 
ATOM     20  H7  UNL     1       2.048  -3.120  54.863  1.00  0.00     0.170 HD
HETATM   21  N11 UNL     1      -0.884  -3.077  51.494  1.00  0.00    -0.247 N 
BRANCH  16  22
HETATM   22  C9  UNL     1       1.703  -0.648  55.701  1.00  0.00     0.162 C 
HETATM   23  N5  UNL     1       2.290  -1.035  56.770  1.00  0.00    -0.274 N 
ATOM     24  H5  UNL     1       2.275  -2.007  57.081  1.00  0.00     0.193 HD
BRANCH  23  25
HETATM   25  O1  UNL     1       2.951  -0.032  57.480  1.00  0.00    -0.276 OA
BRANCH  25  26
HETATM   26  C10 UNL     1       3.085   1.300  57.148  1.00  0.00     0.241 C 
BRANCH  26  27
HETATM   27  C11 UNL     1       4.431   1.678  56.669  1.00  0.00    -0.017 A 
HETATM   28  C12 UNL     1       4.641   2.945  56.151  1.00  0.00     0.012 A 
HETATM   29  C13 UNL     1       5.918   3.253  55.698  1.00  0.00     0.018 A 
HETATM   30  C14 UNL     1       6.943   2.377  55.739  1.00  0.00     0.087 A 
HETATM   31  N6  UNL     1       6.694   1.134  56.250  1.00  0.00    -0.375 N 
HETATM   32  C15 UNL     1       5.464   0.801  56.704  1.00  0.00     0.096 A 
ATOM     33  H6  UNL     1       7.447   0.447  56.291  1.00  0.00     0.164 HD
ENDBRANCH  26  27
ENDBRANCH  25  26
ENDBRANCH  23  25
ENDBRANCH  16  22
BRANCH  19  34
HETATM   34  N8  UNL     1       0.891  -4.458  53.100  1.00  0.00    -0.289 NA
BRANCH  34  35
HETATM   35  N9  UNL     1       1.104  -5.761  52.928  1.00  0.00    -0.180 N 
ATOM     36  H9  UNL     1       1.499  -6.050  52.033  1.00  0.00     0.223 HD
BRANCH  35  37
HETATM   37  N10 UNL     1       0.840  -6.766  53.853  1.00  0.00    -0.320 N 
ATOM     38 2H10 UNL     1       0.773  -6.467  54.826  1.00  0.00     0.179 HD
ATOM     39 1H10 UNL     1       0.710  -7.757  53.645  1.00  0.00     0.179 HD
ENDBRANCH  35  37
ENDBRANCH  34  35
ENDBRANCH  19  34
BRANCH  21  40
HETATM   40  N12 UNL     1      -0.414  -4.266  50.913  1.00  0.00    -0.337 N 
ATOM     41 2H12 UNL     1      -1.028  -4.837  50.333  1.00  0.00     0.177 HD
ATOM     42 1H12 UNL     1       0.509  -4.585  51.208  1.00  0.00     0.177 HD
ENDBRANCH  21  40
ENDBRANCH   4   5
ENDBRANCH   3   4
TORSDOF 10
ENDMDL
MODEL 4
REMARK VINA RESULT: -7.840186375      3.848      9.651
REMARK  10 active torsions:
REMARK  status: ('A' for Active; 'I' for Inactive)
REMARK    1  A    between atoms: C2_3  and  S1_4 
REMARK    2  A    between atoms: S1_4  and  C3_5 
REMARK    3  A    between atoms: C8_16  and  C9_17 
REMARK    4  A    between atoms: N5_18  and  O1_20 
REMARK    5  A    between atoms: O1_20  and  C10_21 
REMARK    6  A    between atoms: C10_21  and  C11_22 
REMARK    7  A    between atoms: C16_31  and  N8_32 
REMARK    8  A    between atoms: N8_32  and  N9_33 
REMARK    9  A    between atoms: N9_33  and  N10_35 
REMARK   10  A    between atoms: N11_39  and  N12_40 
ROOT
HETATM    1  N1  UNL     1      -2.654  -6.555  47.940  1.00  0.00    -0.197 NA
HETATM    2  C1  UNL     1      -2.978  -5.552  48.412  1.00  0.00     0.069 C 
HETATM    3  C2  UNL     1      -3.429  -4.259  48.980  1.00  0.00     0.204 C 
ENDROOT
BRANCH   3   4
HETATM    4  S1  UNL     1      -2.180  -3.107  49.220  1.00  0.00    -0.095 SA
BRANCH   4   5
HETATM    5  C3  UNL     1      -1.802  -2.374  50.776  1.00  0.00     0.117 A 
HETATM    6  C4  UNL     1      -2.173  -1.150  51.226  1.00  0.00     0.108 A 
HETATM    7  C5  UNL     1      -3.193  -0.342  50.567  1.00  0.00     0.104 C 
HETATM    8  C6  UNL     1      -1.657  -0.603  52.393  1.00  0.00     0.079 A 
HETATM    9  N2  UNL     1      -4.003   0.328  50.110  1.00  0.00    -0.191 NA
HETATM   10  N3  UNL     1      -1.928   0.488  52.875  1.00  0.00    -0.396 N 
HETATM   11  C7  UNL     1      -0.720  -1.415  53.082  1.00  0.00     0.096 A 
ATOM     12  H32 UNL     1      -2.602   1.072  52.381  1.00  0.00     0.156 HD
ATOM     13  H31 UNL     1      -1.549   0.889  53.733  1.00  0.00     0.156 HD
HETATM   14  N4  UNL     1      -0.110  -0.858  54.141  1.00  0.00    -0.337 N 
HETATM   15  C17 UNL     1      -0.351  -2.639  52.638  1.00  0.00     0.146 A 
HETATM   16  C8  UNL     1       0.868  -1.475  54.812  1.00  0.00     0.125 A 
ATOM     17  H4  UNL     1      -0.405   0.070  54.445  1.00  0.00     0.167 HD
HETATM   18  N7  UNL     1       1.240  -2.702  54.428  1.00  0.00    -0.312 N 
HETATM   19  C16 UNL     1       0.662  -3.340  53.339  1.00  0.00     0.238 A 
ATOM     20  H7  UNL     1       1.971  -3.184  54.952  1.00  0.00     0.170 HD
HETATM   21  N11 UNL     1      -0.880  -3.101  51.515  1.00  0.00    -0.247 N 
BRANCH  16  22
HETATM   22  C9  UNL     1       1.590  -0.729  55.822  1.00  0.00     0.162 C 
HETATM   23  N5  UNL     1       2.816  -0.802  56.183  1.00  0.00    -0.274 N 
ATOM     24  H5  UNL     1       3.470  -1.468  55.768  1.00  0.00     0.193 HD
BRANCH  23  25
HETATM   25  O1  UNL     1       3.194   0.093  57.184  1.00  0.00    -0.276 OA
BRANCH  25  26
HETATM   26  C10 UNL     1       3.877   1.284  57.049  1.00  0.00     0.241 C 
BRANCH  26  27
HETATM   27  C11 UNL     1       3.014   2.482  57.012  1.00  0.00    -0.017 A 
HETATM   28  C12 UNL     1       3.377   3.563  56.225  1.00  0.00     0.012 A 
HETATM   29  C13 UNL     1       2.545   4.675  56.232  1.00  0.00     0.018 A 
HETATM   30  C14 UNL     1       1.415   4.743  56.968  1.00  0.00     0.087 A 
HETATM   31  N6  UNL     1       1.094   3.659  57.737  1.00  0.00    -0.375 N 
HETATM   32  C15 UNL     1       1.880   2.558  57.752  1.00  0.00     0.096 A 
ATOM     33  H6  UNL     1       0.250   3.681  58.308  1.00  0.00     0.164 HD
ENDBRANCH  26  27
ENDBRANCH  25  26
ENDBRANCH  23  25
ENDBRANCH  16  22
BRANCH  19  34
HETATM   34  N8  UNL     1       0.865  -4.498  53.139  1.00  0.00    -0.289 NA
BRANCH  34  35
HETATM   35  N9  UNL     1       1.089  -5.798  52.950  1.00  0.00    -0.180 N 
ATOM     36  H9  UNL     1       1.463  -6.074  52.042  1.00  0.00     0.223 HD
BRANCH  35  37
HETATM   37  N10 UNL     1       0.863  -6.813  53.873  1.00  0.00    -0.320 N 
ATOM     38 2H10 UNL     1       1.670  -7.095  54.429  1.00  0.00     0.179 HD
ATOM     39 1H10 UNL     1      -0.024  -7.291  54.038  1.00  0.00     0.179 HD
ENDBRANCH  35  37
ENDBRANCH  34  35
ENDBRANCH  19  34
BRANCH  21  40
HETATM   40  N12 UNL     1      -0.389  -4.277  50.926  1.00  0.00    -0.337 N 
ATOM     41 2H12 UNL     1      -0.777  -5.185  51.181  1.00  0.00     0.177 HD
ATOM     42 1H12 UNL     1       0.444  -4.183  50.345  1.00  0.00     0.177 HD
ENDBRANCH  21  40
ENDBRANCH   4   5
ENDBRANCH   3   4
TORSDOF 10
ENDMDL
MODEL 5
REMARK VINA RESULT: -7.832602639      5.793      9.559
REMARK  10 active torsions:
REMARK  status: ('A' for Active; 'I' for Inactive)
REMARK    1  A    between atoms: C2_3  and  S1_4 
REMARK    2  A    between atoms: S1_4  and  C3_5 
REMARK    3  A    between atoms: C8_16  and  C9_17 
REMARK    4  A    between atoms: N5_18  and  O1_20 
REMARK    5  A    between atoms: O1_20  and  C10_21 
REMARK    6  A    between atoms: C10_21  and  C11_22 
REMARK    7  A    between atoms: C16_31  and  N8_32 
REMARK    8  A    between atoms: N8_32  and  N9_33 
REMARK    9  A    between atoms: N9_33  and  N10_35 
REMARK   10  A    between atoms: N11_39  and  N12_40 
ROOT
HETATM    1  N1  UNL     1       4.177  -4.257  44.625  1.00  0.00    -0.197 NA
HETATM    2  C1  UNL     1       4.030  -3.199  45.064  1.00  0.00     0.069 C 
HETATM    3  C2  UNL     1       3.891  -1.840  45.638  1.00  0.00     0.204 C 
ENDROOT
BRANCH   3   4
HETATM    4  S1  UNL     1       2.733  -1.707  46.897  1.00  0.00    -0.095 SA
BRANCH   4   5
HETATM    5  C3  UNL     1       3.040  -0.909  48.437  1.00  0.00     0.117 A 
HETATM    6  C4  UNL     1       3.847   0.155  48.671  1.00  0.00     0.108 A 
HETATM    7  C5  UNL     1       4.389   0.985  47.600  1.00  0.00     0.104 C 
HETATM    8  C6  UNL     1       4.160   0.579  49.955  1.00  0.00     0.079 A 
HETATM    9  N2  UNL     1       4.824   1.689  46.807  1.00  0.00    -0.191 NA
HETATM   10  N3  UNL     1       4.875   1.522  50.263  1.00  0.00    -0.396 N 
HETATM   11  C7  UNL     1       3.575  -0.177  51.003  1.00  0.00     0.096 A 
ATOM     12  H32 UNL     1       5.295   2.066  49.510  1.00  0.00     0.156 HD
ATOM     13  H31 UNL     1       5.104   1.833  51.207  1.00  0.00     0.156 HD
HETATM   14  N4  UNL     1       3.963   0.131  52.251  1.00  0.00    -0.337 N 
HETATM   15  C17 UNL     1       2.766  -1.238  50.774  1.00  0.00     0.146 A 
HETATM   16  C8  UNL     1       3.571  -0.572  53.319  1.00  0.00     0.125 A 
ATOM     17  H4  UNL     1       4.581   0.931  52.390  1.00  0.00     0.167 HD
HETATM   18  N7  UNL     1       2.742  -1.609  53.140  1.00  0.00    -0.312 N 
HETATM   19  C16 UNL     1       2.303  -1.992  51.881  1.00  0.00     0.238 A 
ATOM     20  H7  UNL     1       2.424  -2.133  53.955  1.00  0.00     0.170 HD
HETATM   21  N11 UNL     1       2.509  -1.590  49.523  1.00  0.00    -0.247 N 
BRANCH  16  22
HETATM   22  C9  UNL     1       4.182  -0.283  54.600  1.00  0.00     0.162 C 
HETATM   23  N5  UNL     1       5.024  -0.962  55.284  1.00  0.00    -0.274 N 
ATOM     24  H5  UNL     1       5.373  -1.871  54.977  1.00  0.00     0.193 HD
BRANCH  23  25
HETATM   25  O1  UNL     1       5.430  -0.371  56.481  1.00  0.00    -0.276 OA
BRANCH  25  26
HETATM   26  C10 UNL     1       4.684  -0.152  57.620  1.00  0.00     0.241 C 
BRANCH  26  27
HETATM   27  C11 UNL     1       4.188  -1.382  58.270  1.00  0.00    -0.017 A 
HETATM   28  C12 UNL     1       5.070  -2.187  58.973  1.00  0.00     0.012 A 
HETATM   29  C13 UNL     1       4.564  -3.343  59.556  1.00  0.00     0.018 A 
HETATM   30  C14 UNL     1       3.268  -3.707  59.461  1.00  0.00     0.087 A 
HETATM   31  N6  UNL     1       2.431  -2.890  58.753  1.00  0.00    -0.375 N 
HETATM   32  C15 UNL     1       2.888  -1.756  58.176  1.00  0.00     0.096 A 
ATOM     33  H6  UNL     1       1.447  -3.140  58.659  1.00  0.00     0.164 HD
ENDBRANCH  26  27
ENDBRANCH  25  26
ENDBRANCH  23  25
ENDBRANCH  16  22
BRANCH  19  34
HETATM   34  N8  UNL     1       1.418  -2.782  51.764  1.00  0.00    -0.289 NA
BRANCH  34  35
HETATM   35  N9  UNL     1       0.409  -3.646  51.654  1.00  0.00    -0.180 N 
ATOM     36  H9  UNL     1      -0.284  -3.457  50.929  1.00  0.00     0.223 HD
BRANCH  35  37
HETATM   37  N10 UNL     1       0.211  -4.781  52.433  1.00  0.00    -0.320 N 
ATOM     38 2H10 UNL     1       0.869  -4.911  53.203  1.00  0.00     0.179 HD
ATOM     39 1H10 UNL     1      -0.521  -5.480  52.304  1.00  0.00     0.179 HD
ENDBRANCH  35  37
ENDBRANCH  34  35
ENDBRANCH  19  34
BRANCH  21  40
HETATM   40  N12 UNL     1       1.832  -2.788  49.244  1.00  0.00    -0.337 N 
ATOM     41 2H12 UNL     1       1.402  -2.939  48.331  1.00  0.00     0.177 HD
ATOM     42 1H12 UNL     1       1.684  -3.422  50.029  1.00  0.00     0.177 HD
ENDBRANCH  21  40
ENDBRANCH   4   5
ENDBRANCH   3   4
TORSDOF 10
ENDMDL
