MODEL 1
REMARK VINA RESULT: -8.689503585      0.000      0.000
REMARK  8 active torsions:
REMARK  status: ('A' for Active; 'I' for Inactive)
REMARK    1  A    between atoms: C2_2  and  O1_3 
REMARK    2  A    between atoms: O1_3  and  C3_4 
REMARK    3  A    between atoms: C3_4  and  C4_6 
REMARK    4  A    between atoms: N2_9  and  C5_10 
REMARK    5  A    between atoms: N6_21  and  N7_23 
REMARK       I    between atoms: N7_23  and  C8_25 
REMARK    6  A    between atoms: C8_25  and  C9_27 
REMARK    7  A    between atoms: C10_30  and  N9_31 
REMARK    8  A    between atoms: C11_34  and  N10_35 
ROOT
HETATM    1  C4  UNL     1      -2.850  -4.813  48.949  1.00  0.00     0.212 A 
HETATM    2  N1  UNL     1      -1.773  -4.714  49.730  1.00  0.00    -0.257 N 
ATOM      3  H1  UNL     1      -1.092  -5.459  49.882  1.00  0.00     0.190 HD
HETATM    4  N2  UNL     1      -1.714  -3.511  50.281  1.00  0.00    -0.061 N 
HETATM    5  C7  UNL     1      -2.778  -2.819  49.844  1.00  0.00     0.722 A 
HETATM    6  N6  UNL     1      -3.130  -1.614  50.115  1.00  0.00    -0.127 N 
ATOM      7  H6  UNL     1      -3.986  -1.286  49.668  1.00  0.00     0.205 HD
HETATM    8  N12 UNL     1      -3.472  -3.639  49.020  1.00  0.00    -0.166 N 
ATOM      9  H12 UNL     1      -4.334  -3.397  48.532  1.00  0.00     0.186 HD
ENDROOT
BRANCH   4  10
HETATM   10  C5  UNL     1      -0.683  -3.101  51.162  1.00  0.00     0.212 A 
HETATM   11  N3  UNL     1      -0.664  -2.993  52.487  1.00  0.00    -0.220 N 
HETATM   12  O3  UNL     1       0.509  -2.580  52.838  1.00  0.00    -0.153 OA
ATOM     13  H3  UNL     1      -1.440  -3.200  53.116  1.00  0.00     0.198 HD
HETATM   14  N4  UNL     1       1.268  -2.408  51.811  1.00  0.00    -0.222 N 
HETATM   15  C6  UNL     1       0.584  -2.718  50.707  1.00  0.00     0.170 A 
ATOM     16  H4  UNL     1       2.237  -2.087  51.838  1.00  0.00     0.198 HD
HETATM   17  N5  UNL     1       0.990  -2.679  49.479  1.00  0.00    -0.381 N 
ATOM     18  H52 UNL     1       0.468  -2.916  48.636  1.00  0.00     0.157 HD
ATOM     19  H51 UNL     1       1.913  -2.400  49.148  1.00  0.00     0.157 HD
ENDBRANCH   4  10
BRANCH   6  20
HETATM   20  N7  UNL     1      -2.494  -0.717  50.931  1.00  0.00    -0.249 N 
HETATM   21  C8  UNL     1      -2.967   0.612  51.130  1.00  0.00     0.304 C 
HETATM   22  O4  UNL     1      -4.011   0.961  50.524  1.00  0.00    -0.263 OA
ATOM     23  H7  UNL     1      -1.648  -1.013  51.416  1.00  0.00     0.191 HD
BRANCH  21  24
HETATM   24  C9  UNL     1      -2.281   1.555  52.001  1.00  0.00     0.178 A 
HETATM   25  N8  UNL     1      -1.824   1.211  53.213  1.00  0.00    -0.322 N 
HETATM   26  C10 UNL     1      -1.191   2.080  54.017  1.00  0.00     0.136 A 
ATOM     27  H8  UNL     1      -1.963   0.254  53.537  1.00  0.00     0.169 HD
HETATM   28  C11 UNL     1      -0.984   3.390  53.613  1.00  0.00     0.168 A 
HETATM   29  C12 UNL     1      -1.450   3.749  52.370  1.00  0.00     0.044 A 
HETATM   30  C13 UNL     1      -1.270   5.118  51.870  1.00  0.00     0.071 C 
HETATM   31  N11 UNL     1      -2.085   2.818  51.601  1.00  0.00    -0.339 N 
ATOM     32  H11 UNL     1      -2.426   3.096  50.680  1.00  0.00     0.167 HD
BRANCH  26  33
HETATM   33  N9  UNL     1      -0.750   1.750  55.186  1.00  0.00    -0.383 N 
ATOM     34  H92 UNL     1      -0.552   2.511  55.838  1.00  0.00     0.157 HD
ATOM     35  H91 UNL     1      -0.603   0.780  55.463  1.00  0.00     0.157 HD
ENDBRANCH  26  33
BRANCH  28  36
HETATM   36  N10 UNL     1      -0.312   4.300  54.475  1.00  0.00    -0.110 N 
HETATM   37  O5  UNL     1       0.932   4.376  54.433  1.00  0.00    -0.532 OA
HETATM   38  O6  UNL     1      -0.943   5.117  55.370  1.00  0.00    -0.532 OA
ENDBRANCH  28  36
ENDBRANCH  21  24
ENDBRANCH   6  20
BRANCH   1  39
HETATM   39  C3  UNL     1      -3.305  -5.963  48.149  1.00  0.00     0.329 C 
HETATM   40  O2  UNL     1      -2.491  -6.600  47.435  1.00  0.00    -0.256 OA
BRANCH  39  41
HETATM   41  O1  UNL     1      -4.615  -6.386  48.146  1.00  0.00    -0.316 OA
BRANCH  41  42
HETATM   42  C2  UNL     1      -5.177  -7.204  49.157  1.00  0.00     0.175 C 
HETATM   43  C1  UNL     1      -6.626  -7.432  48.774  1.00  0.00     0.034 C 
ENDBRANCH  41  42
ENDBRANCH  39  41
ENDBRANCH   1  39
TORSDOF 8
ENDMDL
MODEL 2
REMARK VINA RESULT: -8.666593532      0.708      1.467
REMARK  8 active torsions:
REMARK  status: ('A' for Active; 'I' for Inactive)
REMARK    1  A    between atoms: C2_2  and  O1_3 
REMARK    2  A    between atoms: O1_3  and  C3_4 
REMARK    3  A    between atoms: C3_4  and  C4_6 
REMARK    4  A    between atoms: N2_9  and  C5_10 
REMARK    5  A    between atoms: N6_21  and  N7_23 
REMARK       I    between atoms: N7_23  and  C8_25 
REMARK    6  A    between atoms: C8_25  and  C9_27 
REMARK    7  A    between atoms: C10_30  and  N9_31 
REMARK    8  A    between atoms: C11_34  and  N10_35 
ROOT
HETATM    1  C4  UNL     1      -2.842  -4.817  48.953  1.00  0.00     0.212 A 
HETATM    2  N1  UNL     1      -1.758  -4.713  49.722  1.00  0.00    -0.257 N 
ATOM      3  H1  UNL     1      -1.077  -5.459  49.874  1.00  0.00     0.190 HD
HETATM    4  N2  UNL     1      -1.690  -3.505  50.260  1.00  0.00    -0.061 N 
HETATM    5  C7  UNL     1      -2.756  -2.814  49.827  1.00  0.00     0.722 A 
HETATM    6  N6  UNL     1      -3.102  -1.606  50.089  1.00  0.00    -0.127 N 
ATOM      7  H6  UNL     1      -3.962  -1.280  49.648  1.00  0.00     0.205 HD
HETATM    8  N12 UNL     1      -3.461  -3.641  49.018  1.00  0.00    -0.166 N 
ATOM      9  H12 UNL     1      -4.327  -3.401  48.536  1.00  0.00     0.186 HD
ENDROOT
BRANCH   4  10
HETATM   10  C5  UNL     1      -0.649  -3.089  51.127  1.00  0.00     0.212 A 
HETATM   11  N3  UNL     1      -0.611  -2.987  52.452  1.00  0.00    -0.220 N 
HETATM   12  O3  UNL     1       0.564  -2.564  52.786  1.00  0.00    -0.153 OA
ATOM     13  H3  UNL     1      -1.375  -3.203  53.092  1.00  0.00     0.198 HD
HETATM   14  N4  UNL     1       1.306  -2.381  51.749  1.00  0.00    -0.222 N 
HETATM   15  C6  UNL     1       0.607  -2.693  50.654  1.00  0.00     0.170 A 
ATOM     16  H4  UNL     1       2.271  -2.052  51.762  1.00  0.00     0.198 HD
HETATM   17  N5  UNL     1       0.994  -2.645  49.420  1.00  0.00    -0.381 N 
ATOM     18  H52 UNL     1       0.461  -2.884  48.584  1.00  0.00     0.157 HD
ATOM     19  H51 UNL     1       1.910  -2.357  49.076  1.00  0.00     0.157 HD
ENDBRANCH   4  10
BRANCH   6  20
HETATM   20  N7  UNL     1      -2.456  -0.703  50.890  1.00  0.00    -0.249 N 
HETATM   21  C8  UNL     1      -2.910   0.637  51.063  1.00  0.00     0.304 C 
HETATM   22  O4  UNL     1      -3.947   0.988  50.447  1.00  0.00    -0.263 OA
ATOM     23  H7  UNL     1      -1.615  -1.001  51.384  1.00  0.00     0.191 HD
BRANCH  21  24
HETATM   24  C9  UNL     1      -2.214   1.585  51.918  1.00  0.00     0.178 A 
HETATM   25  N8  UNL     1      -2.629   2.850  52.075  1.00  0.00    -0.322 N 
HETATM   26  C10 UNL     1      -1.987   3.726  52.865  1.00  0.00     0.136 A 
ATOM     27  H8  UNL     1      -3.464   3.158  51.577  1.00  0.00     0.169 HD
HETATM   28  C11 UNL     1      -0.848   3.345  53.558  1.00  0.00     0.168 A 
HETATM   29  C12 UNL     1      -0.417   2.049  53.401  1.00  0.00     0.044 A 
HETATM   30  C13 UNL     1       0.781   1.569  54.102  1.00  0.00     0.071 C 
HETATM   31  N11 UNL     1      -1.115   1.207  52.584  1.00  0.00    -0.339 N 
ATOM     32  H11 UNL     1      -0.786   0.247  52.476  1.00  0.00     0.167 HD
BRANCH  26  33
HETATM   33  N9  UNL     1      -2.386   4.946  53.017  1.00  0.00    -0.383 N 
ATOM     34  H92 UNL     1      -3.393   5.106  53.019  1.00  0.00     0.157 HD
ATOM     35  H91 UNL     1      -1.737   5.724  53.133  1.00  0.00     0.157 HD
ENDBRANCH  26  33
BRANCH  28  36
HETATM   36  N10 UNL     1      -0.178   4.284  54.390  1.00  0.00    -0.110 N 
HETATM   37  O5  UNL     1      -0.475   4.350  55.599  1.00  0.00    -0.532 OA
HETATM   38  O6  UNL     1       0.792   5.141  53.953  1.00  0.00    -0.532 OA
ENDBRANCH  28  36
ENDBRANCH  21  24
ENDBRANCH   6  20
BRANCH   1  39
HETATM   39  C3  UNL     1      -3.308  -5.974  48.168  1.00  0.00     0.329 C 
HETATM   40  O2  UNL     1      -2.499  -6.634  47.470  1.00  0.00    -0.256 OA
BRANCH  39  41
HETATM   41  O1  UNL     1      -4.624  -6.379  48.164  1.00  0.00    -0.316 OA
BRANCH  41  42
HETATM   42  C2  UNL     1      -5.208  -7.160  49.191  1.00  0.00     0.175 C 
HETATM   43  C1  UNL     1      -6.633  -7.448  48.761  1.00  0.00     0.034 C 
ENDBRANCH  41  42
ENDBRANCH  39  41
ENDBRANCH   1  39
TORSDOF 8
ENDMDL
MODEL 3
REMARK VINA RESULT: -8.550725561      4.986      8.709
REMARK  8 active torsions:
REMARK  status: ('A' for Active; 'I' for Inactive)
REMARK    1  A    between atoms: C2_2  and  O1_3 
REMARK    2  A    between atoms: O1_3  and  C3_4 
REMARK    3  A    between atoms: C3_4  and  C4_6 
REMARK    4  A    between atoms: N2_9  and  C5_10 
REMARK    5  A    between atoms: N6_21  and  N7_23 
REMARK       I    between atoms: N7_23  and  C8_25 
REMARK    6  A    between atoms: C8_25  and  C9_27 
REMARK    7  A    between atoms: C10_30  and  N9_31 
REMARK    8  A    between atoms: C11_34  and  N10_35 
ROOT
HETATM    1  C4  UNL     1       1.478  -2.013  55.511  1.00  0.00     0.212 A 
HETATM    2  N1  UNL     1       0.752  -2.459  54.485  1.00  0.00    -0.257 N 
ATOM      3  H1  UNL     1      -0.168  -2.894  54.568  1.00  0.00     0.190 HD
HETATM    4  N2  UNL     1       1.394  -2.257  53.346  1.00  0.00    -0.061 N 
HETATM    5  C7  UNL     1       2.563  -1.667  53.644  1.00  0.00     0.722 A 
HETATM    6  N6  UNL     1       3.506  -1.288  52.859  1.00  0.00    -0.127 N 
ATOM      7  H6  UNL     1       4.316  -0.858  53.306  1.00  0.00     0.205 HD
HETATM    8  N12 UNL     1       2.600  -1.522  54.990  1.00  0.00    -0.166 N 
ATOM      9  H12 UNL     1       3.365  -1.105  55.520  1.00  0.00     0.186 HD
ENDROOT
BRANCH   4  10
HETATM   10  C5  UNL     1       0.879  -2.624  52.077  1.00  0.00     0.212 A 
HETATM   11  N3  UNL     1       0.567  -1.883  51.019  1.00  0.00    -0.220 N 
HETATM   12  O3  UNL     1       0.136  -2.674  50.092  1.00  0.00    -0.153 OA
ATOM     13  H3  UNL     1       0.653  -0.870  50.951  1.00  0.00     0.198 HD
HETATM   14  N4  UNL     1       0.146  -3.901  50.483  1.00  0.00    -0.222 N 
HETATM   15  C6  UNL     1       0.606  -3.954  51.736  1.00  0.00     0.170 A 
ATOM     16  H4  UNL     1      -0.149  -4.703  49.926  1.00  0.00     0.198 HD
HETATM   17  N5  UNL     1       0.769  -4.997  52.483  1.00  0.00    -0.381 N 
ATOM     18  H52 UNL     1       1.121  -5.038  53.440  1.00  0.00     0.157 HD
ATOM     19  H51 UNL     1       0.570  -5.966  52.234  1.00  0.00     0.157 HD
ENDBRANCH   4  10
BRANCH   6  20
HETATM   20  N7  UNL     1       3.555  -1.392  51.495  1.00  0.00    -0.249 N 
HETATM   21  C8  UNL     1       3.627  -0.256  50.637  1.00  0.00     0.304 C 
HETATM   22  O4  UNL     1       3.644   0.881  51.171  1.00  0.00    -0.263 OA
ATOM     23  H7  UNL     1       3.540  -2.321  51.075  1.00  0.00     0.191 HD
BRANCH  21  24
HETATM   24  C9  UNL     1       3.679  -0.383  49.189  1.00  0.00     0.178 A 
HETATM   25  N8  UNL     1       4.214   0.563  48.405  1.00  0.00    -0.322 N 
HETATM   26  C10 UNL     1       4.263   0.447  47.067  1.00  0.00     0.136 A 
ATOM     27  H8  UNL     1       4.598   1.402  48.839  1.00  0.00     0.169 HD
HETATM   28  C11 UNL     1       3.750  -0.678  46.440  1.00  0.00     0.168 A 
HETATM   29  C12 UNL     1       3.201  -1.653  47.239  1.00  0.00     0.044 A 
HETATM   30  C13 UNL     1       2.638  -2.874  46.650  1.00  0.00     0.071 C 
HETATM   31  N11 UNL     1       3.183  -1.474  48.592  1.00  0.00    -0.339 N 
ATOM     32  H11 UNL     1       2.773  -2.205  49.175  1.00  0.00     0.167 HD
BRANCH  26  33
HETATM   33  N9  UNL     1       4.778   1.359  46.310  1.00  0.00    -0.383 N 
ATOM     34  H92 UNL     1       5.561   1.890  46.691  1.00  0.00     0.157 HD
ATOM     35  H91 UNL     1       4.431   1.550  45.370  1.00  0.00     0.157 HD
ENDBRANCH  26  33
BRANCH  28  36
HETATM   36  N10 UNL     1       3.809  -0.787  45.023  1.00  0.00    -0.110 N 
HETATM   37  O5  UNL     1       3.292   0.103  44.319  1.00  0.00    -0.532 OA
HETATM   38  O6  UNL     1       4.404  -1.821  44.358  1.00  0.00    -0.532 OA
ENDBRANCH  28  36
ENDBRANCH  21  24
ENDBRANCH   6  20
BRANCH   1  39
HETATM   39  C3  UNL     1       1.154  -2.034  56.948  1.00  0.00     0.329 C 
HETATM   40  O2  UNL     1       0.234  -1.307  57.401  1.00  0.00    -0.256 OA
BRANCH  39  41
HETATM   41  O1  UNL     1       1.826  -2.834  57.844  1.00  0.00    -0.316 OA
BRANCH  41  42
HETATM   42  C2  UNL     1       2.970  -2.414  58.566  1.00  0.00     0.175 C 
HETATM   43  C1  UNL     1       4.177  -2.931  57.808  1.00  0.00     0.034 C 
ENDBRANCH  41  42
ENDBRANCH  39  41
ENDBRANCH   1  39
TORSDOF 8
ENDMDL
MODEL 4
REMARK VINA RESULT: -8.459882236      4.326      8.275
REMARK  8 active torsions:
REMARK  status: ('A' for Active; 'I' for Inactive)
REMARK    1  A    between atoms: C2_2  and  O1_3 
REMARK    2  A    between atoms: O1_3  and  C3_4 
REMARK    3  A    between atoms: C3_4  and  C4_6 
REMARK    4  A    between atoms: N2_9  and  C5_10 
REMARK    5  A    between atoms: N6_21  and  N7_23 
REMARK       I    between atoms: N7_23  and  C8_25 
REMARK    6  A    between atoms: C8_25  and  C9_27 
REMARK    7  A    between atoms: C10_30  and  N9_31 
REMARK    8  A    between atoms: C11_34  and  N10_35 
ROOT
HETATM    1  C4  UNL     1       0.407  -0.988  55.314  1.00  0.00     0.212 A 
HETATM    2  N1  UNL     1       0.220  -1.906  54.366  1.00  0.00    -0.257 N 
ATOM      3  H1  UNL     1      -0.212  -2.819  54.515  1.00  0.00     0.190 HD
HETATM    4  N2  UNL     1       0.674  -1.465  53.203  1.00  0.00    -0.061 N 
HETATM    5  C7  UNL     1       1.165  -0.232  53.407  1.00  0.00     0.722 A 
HETATM    6  N6  UNL     1       1.707   0.576  52.570  1.00  0.00    -0.127 N 
ATOM      7  H6  UNL     1       2.015   1.472  52.946  1.00  0.00     0.205 HD
HETATM    8  N12 UNL     1       0.993   0.049  54.722  1.00  0.00    -0.166 N 
ATOM      9  H12 UNL     1       1.268   0.916  55.182  1.00  0.00     0.186 HD
ENDROOT
BRANCH   4  10
HETATM   10  C5  UNL     1       0.617  -2.214  52.002  1.00  0.00     0.212 A 
HETATM   11  N3  UNL     1       1.502  -3.037  51.449  1.00  0.00    -0.220 N 
HETATM   12  O3  UNL     1       0.994  -3.489  50.349  1.00  0.00    -0.153 OA
ATOM     13  H3  UNL     1       2.420  -3.271  51.825  1.00  0.00     0.198 HD
HETATM   14  N4  UNL     1      -0.183  -3.006  50.146  1.00  0.00    -0.222 N 
HETATM   15  C6  UNL     1      -0.496  -2.186  51.153  1.00  0.00     0.170 A 
ATOM     16  H4  UNL     1      -0.780  -3.217  49.346  1.00  0.00     0.198 HD
HETATM   17  N5  UNL     1      -1.585  -1.508  51.321  1.00  0.00    -0.381 N 
ATOM     18  H52 UNL     1      -1.824  -0.883  52.090  1.00  0.00     0.157 HD
ATOM     19  H51 UNL     1      -2.396  -1.488  50.702  1.00  0.00     0.157 HD
ENDBRANCH   4  10
BRANCH   6  20
HETATM   20  N7  UNL     1       1.922   0.379  51.232  1.00  0.00    -0.249 N 
HETATM   21  C8  UNL     1       3.167  -0.077  50.710  1.00  0.00     0.304 C 
HETATM   22  O4  UNL     1       4.097  -0.301  51.524  1.00  0.00    -0.263 OA
ATOM     23  H7  UNL     1       1.158   0.565  50.582  1.00  0.00     0.191 HD
BRANCH  21  24
HETATM   24  C9  UNL     1       3.380  -0.282  49.286  1.00  0.00     0.178 A 
HETATM   25  N8  UNL     1       4.024   0.609  48.520  1.00  0.00    -0.322 N 
HETATM   26  C10 UNL     1       4.222   0.420  47.205  1.00  0.00     0.136 A 
ATOM     27  H8  UNL     1       4.377   1.464  48.952  1.00  0.00     0.169 HD
HETATM   28  C11 UNL     1       3.756  -0.727  46.582  1.00  0.00     0.168 A 
HETATM   29  C12 UNL     1       3.095  -1.647  47.362  1.00  0.00     0.044 A 
HETATM   30  C13 UNL     1       2.572  -2.887  46.776  1.00  0.00     0.071 C 
HETATM   31  N11 UNL     1       2.927  -1.395  48.693  1.00  0.00    -0.339 N 
ATOM     32  H11 UNL     1       2.436  -2.085  49.262  1.00  0.00     0.167 HD
BRANCH  26  33
HETATM   33  N9  UNL     1       4.842   1.279  46.465  1.00  0.00    -0.383 N 
ATOM     34  H92 UNL     1       5.038   2.191  46.880  1.00  0.00     0.157 HD
ATOM     35  H91 UNL     1       5.131   1.072  45.510  1.00  0.00     0.157 HD
ENDBRANCH  26  33
BRANCH  28  36
HETATM   36  N10 UNL     1       3.972  -0.914  45.189  1.00  0.00    -0.110 N 
HETATM   37  O5  UNL     1       3.476  -0.106  44.379  1.00  0.00    -0.532 OA
HETATM   38  O6  UNL     1       4.701  -1.939  44.657  1.00  0.00    -0.532 OA
ENDBRANCH  28  36
ENDBRANCH  21  24
ENDBRANCH   6  20
BRANCH   1  39
HETATM   39  C3  UNL     1       0.056  -1.055  56.744  1.00  0.00     0.329 C 
HETATM   40  O2  UNL     1       0.746  -1.747  57.534  1.00  0.00    -0.256 OA
BRANCH  39  41
HETATM   41  O1  UNL     1      -1.020  -0.377  57.271  1.00  0.00    -0.316 OA
BRANCH  41  42
HETATM   42  C2  UNL     1      -2.216  -0.128  56.556  1.00  0.00     0.175 C 
HETATM   43  C1  UNL     1      -2.434   1.373  56.584  1.00  0.00     0.034 C 
ENDBRANCH  41  42
ENDBRANCH  39  41
ENDBRANCH   1  39
TORSDOF 8
ENDMDL
MODEL 5
REMARK VINA RESULT: -8.341451634      4.712      8.293
REMARK  8 active torsions:
REMARK  status: ('A' for Active; 'I' for Inactive)
REMARK    1  A    between atoms: C2_2  and  O1_3 
REMARK    2  A    between atoms: O1_3  and  C3_4 
REMARK    3  A    between atoms: C3_4  and  C4_6 
REMARK    4  A    between atoms: N2_9  and  C5_10 
REMARK    5  A    between atoms: N6_21  and  N7_23 
REMARK       I    between atoms: N7_23  and  C8_25 
REMARK    6  A    between atoms: C8_25  and  C9_27 
REMARK    7  A    between atoms: C10_30  and  N9_31 
REMARK    8  A    between atoms: C11_34  and  N10_35 
ROOT
HETATM    1  C4  UNL     1       1.101  -1.744  55.468  1.00  0.00     0.212 A 
HETATM    2  N1  UNL     1       0.444  -2.200  54.401  1.00  0.00    -0.257 N 
ATOM      3  H1  UNL     1      -0.502  -2.583  54.418  1.00  0.00     0.190 HD
HETATM    4  N2  UNL     1       1.195  -2.086  53.317  1.00  0.00    -0.061 N 
HETATM    5  C7  UNL     1       2.363  -1.543  53.694  1.00  0.00     0.722 A 
HETATM    6  N6  UNL     1       3.391  -1.251  52.982  1.00  0.00    -0.127 N 
ATOM      7  H6  UNL     1       4.181  -0.843  53.482  1.00  0.00     0.205 HD
HETATM    8  N12 UNL     1       2.290  -1.337  55.031  1.00  0.00    -0.166 N 
ATOM      9  H12 UNL     1       3.027  -0.935  55.610  1.00  0.00     0.186 HD
ENDROOT
BRANCH   4  10
HETATM   10  C5  UNL     1       0.774  -2.486  52.024  1.00  0.00     0.212 A 
HETATM   11  N3  UNL     1       0.451  -1.767  50.954  1.00  0.00    -0.220 N 
HETATM   12  O3  UNL     1       0.133  -2.584  50.004  1.00  0.00    -0.153 OA
ATOM     13  H3  UNL     1       0.454  -0.749  50.893  1.00  0.00     0.198 HD
HETATM   14  N4  UNL     1       0.229  -3.808  50.392  1.00  0.00    -0.222 N 
HETATM   15  C6  UNL     1       0.631  -3.831  51.666  1.00  0.00     0.170 A 
ATOM     16  H4  UNL     1       0.030  -4.628  49.819  1.00  0.00     0.198 HD
HETATM   17  N5  UNL     1       0.846  -4.863  52.416  1.00  0.00    -0.381 N 
ATOM     18  H52 UNL     1       1.153  -4.881  53.388  1.00  0.00     0.157 HD
ATOM     19  H51 UNL     1       0.741  -5.844  52.155  1.00  0.00     0.157 HD
ENDBRANCH   4  10
BRANCH   6  20
HETATM   20  N7  UNL     1       3.555  -1.423  51.634  1.00  0.00    -0.249 N 
HETATM   21  C8  UNL     1       3.239  -0.408  50.684  1.00  0.00     0.304 C 
HETATM   22  O4  UNL     1       2.792   0.682  51.119  1.00  0.00    -0.263 OA
ATOM     23  H7  UNL     1       3.918  -2.313  51.295  1.00  0.00     0.191 HD
BRANCH  21  24
HETATM   24  C9  UNL     1       3.419  -0.605  49.254  1.00  0.00     0.178 A 
HETATM   25  N8  UNL     1       2.996  -1.708  48.622  1.00  0.00    -0.322 N 
HETATM   26  C10 UNL     1       3.161  -1.890  47.302  1.00  0.00     0.136 A 
ATOM     27  H8  UNL     1       2.532  -2.438  49.164  1.00  0.00     0.169 HD
HETATM   28  C11 UNL     1       3.788  -0.923  46.532  1.00  0.00     0.168 A 
HETATM   29  C12 UNL     1       4.223   0.213  47.173  1.00  0.00     0.044 A 
HETATM   30  C13 UNL     1       4.895   1.284  46.428  1.00  0.00     0.071 C 
HETATM   31  N11 UNL     1       4.024   0.337  48.519  1.00  0.00    -0.339 N 
ATOM     32  H11 UNL     1       4.351   1.184  48.984  1.00  0.00     0.167 HD
BRANCH  26  33
HETATM   33  N9  UNL     1       2.755  -2.954  46.691  1.00  0.00    -0.383 N 
ATOM     34  H92 UNL     1       1.971  -3.456  47.108  1.00  0.00     0.157 HD
ATOM     35  H91 UNL     1       3.186  -3.290  45.830  1.00  0.00     0.157 HD
ENDBRANCH  26  33
BRANCH  28  36
HETATM   36  N10 UNL     1       3.956  -1.129  45.135  1.00  0.00    -0.110 N 
HETATM   37  O5  UNL     1       4.584  -2.129  44.735  1.00  0.00    -0.532 OA
HETATM   38  O6  UNL     1       3.469  -0.291  44.172  1.00  0.00    -0.532 OA
ENDBRANCH  28  36
ENDBRANCH  21  24
ENDBRANCH   6  20
BRANCH   1  39
HETATM   39  C3  UNL     1       0.650  -1.680  56.870  1.00  0.00     0.329 C 
HETATM   40  O2  UNL     1       1.265  -2.314  57.763  1.00  0.00    -0.256 OA
BRANCH  39  41
HETATM   41  O1  UNL     1      -0.442  -0.938  57.259  1.00  0.00    -0.316 OA
BRANCH  41  42
HETATM   42  C2  UNL     1      -0.925   0.183  56.541  1.00  0.00     0.175 C 
HETATM   43  C1  UNL     1      -2.438   0.079  56.540  1.00  0.00     0.034 C 
ENDBRANCH  41  42
ENDBRANCH  39  41
ENDBRANCH   1  39
TORSDOF 8
ENDMDL
