MODEL 1
REMARK VINA RESULT: -7.595498660      0.000      0.000
REMARK  8 active torsions:
REMARK  status: ('A' for Active; 'I' for Inactive)
REMARK    1  A    between atoms: C1_4  and  C2_6 
REMARK    2  A    between atoms: C5_9  and  S1_10 
REMARK    3  A    between atoms: S1_10  and  N3_13 
REMARK    4  A    between atoms: N3_13  and  C6_15 
REMARK    5  A    between atoms: C6_15  and  C7_16 
REMARK    6  A    between atoms: C6_15  and  C8_18 
REMARK    7  A    between atoms: C8_18  and  C9_19 
REMARK    8  A    between atoms: C9_19  and  C10_20 
ROOT
HETATM    1  S1  UNL     1      -8.178  -9.554   5.892  1.00  0.00     0.266 S 
HETATM    2  O1  UNL     1      -7.486 -10.913   5.757  1.00  0.00    -0.200 OA
HETATM    3  O2  UNL     1      -7.509  -8.630   4.898  1.00  0.00    -0.200 OA
ENDROOT
BRANCH   1   4
HETATM    4  C5  UNL     1      -9.839  -9.829   5.475  1.00  0.00     0.120 A 
HETATM    5  C4  UNL     1     -10.977  -9.104   5.511  1.00  0.00     0.034 A 
HETATM    6  C3  UNL     1     -12.124  -9.690   5.094  1.00  0.00     0.024 A 
HETATM    7  C2  UNL     1     -12.036 -10.986   4.665  1.00  0.00     0.047 A 
HETATM    8  S2  UNL     1     -10.380 -11.339   4.854  1.00  0.00    -0.073 SA
BRANCH   7   9
HETATM    9  C1  UNL     1     -13.134 -11.849   4.162  1.00  0.00     0.127 C 
HETATM   10  N1  UNL     1     -14.125 -11.313   3.544  1.00  0.00    -0.387 N 
ATOM     11  H12 UNL     1     -14.880 -11.906   3.198  1.00  0.00     0.157 HD
ATOM     12  H11 UNL     1     -14.127 -10.301   3.415  1.00  0.00     0.157 HD
HETATM   13  N2  UNL     1     -13.131 -13.236   4.338  1.00  0.00    -0.082 NA
ENDBRANCH   7   9
ENDBRANCH   1   4
BRANCH   1  14
HETATM   14  N3  UNL     1      -7.867  -8.969   7.434  1.00  0.00    -0.303 N 
ATOM     15  H3  UNL     1      -8.245  -9.415   8.270  1.00  0.00     0.173 HD
BRANCH  14  16
HETATM   16  C6  UNL     1      -7.035  -7.800   7.506  1.00  0.00     0.157 C 
BRANCH  16  17
HETATM   17  C7  UNL     1      -7.524  -6.847   8.527  1.00  0.00     0.257 C 
HETATM   18  O3  UNL     1      -7.140  -6.883   9.693  1.00  0.00    -0.305 OA
ENDBRANCH  16  17
BRANCH  16  19
HETATM   19  C8  UNL     1      -5.600  -8.187   7.907  1.00  0.00     0.063 C 
BRANCH  19  20
HETATM   20  C9  UNL     1      -5.550  -9.589   8.376  1.00  0.00     0.018 C 
BRANCH  20  21
HETATM   21  C10 UNL     1      -5.103  -9.913   9.575  1.00  0.00     0.124 C 
HETATM   22  N4  UNL     1      -5.508 -11.119  10.206  1.00  0.00    -0.086 NA
HETATM   23  N5  UNL     1      -4.202  -9.074  10.288  1.00  0.00    -0.086 NA
ENDBRANCH  20  21
ENDBRANCH  19  20
ENDBRANCH  16  19
ENDBRANCH  14  16
ENDBRANCH   1  14
TORSDOF 8
ENDMDL
MODEL 2
REMARK VINA RESULT: -7.407306621      2.070      7.919
REMARK  8 active torsions:
REMARK  status: ('A' for Active; 'I' for Inactive)
REMARK    1  A    between atoms: C1_4  and  C2_6 
REMARK    2  A    between atoms: C5_9  and  S1_10 
REMARK    3  A    between atoms: S1_10  and  N3_13 
REMARK    4  A    between atoms: N3_13  and  C6_15 
REMARK    5  A    between atoms: C6_15  and  C7_16 
REMARK    6  A    between atoms: C6_15  and  C8_18 
REMARK    7  A    between atoms: C8_18  and  C9_19 
REMARK    8  A    between atoms: C9_19  and  C10_20 
ROOT
HETATM    1  S1  UNL     1      -8.910  -9.949   5.703  1.00  0.00     0.266 S 
HETATM    2  O1  UNL     1      -8.444  -9.295   4.400  1.00  0.00    -0.200 OA
HETATM    3  O2  UNL     1      -8.474 -11.397   5.636  1.00  0.00    -0.200 OA
ENDROOT
BRANCH   1   4
HETATM    4  C5  UNL     1      -8.086  -9.104   6.974  1.00  0.00     0.120 A 
HETATM    5  C4  UNL     1      -8.250  -7.928   7.616  1.00  0.00     0.034 A 
HETATM    6  C3  UNL     1      -7.362  -7.596   8.583  1.00  0.00     0.024 A 
HETATM    7  C2  UNL     1      -6.358  -8.491   8.834  1.00  0.00     0.047 A 
HETATM    8  S2  UNL     1      -6.681  -9.747   7.728  1.00  0.00    -0.073 SA
BRANCH   7   9
HETATM    9  C1  UNL     1      -5.267  -8.370   9.832  1.00  0.00     0.127 C 
HETATM   10  N1  UNL     1      -5.253  -9.153  10.851  1.00  0.00    -0.387 N 
ATOM     11  H12 UNL     1      -4.504  -9.070  11.537  1.00  0.00     0.157 HD
ATOM     12  H11 UNL     1      -6.000  -9.842  10.943  1.00  0.00     0.157 HD
HETATM   13  N2  UNL     1      -4.243  -7.425   9.706  1.00  0.00    -0.082 NA
ENDBRANCH   7   9
ENDBRANCH   1   4
BRANCH   1  14
HETATM   14  N3  UNL     1     -10.588  -9.913   5.727  1.00  0.00    -0.303 N 
ATOM     15  H3  UNL     1     -11.110  -9.044   5.846  1.00  0.00     0.173 HD
BRANCH  14  16
HETATM   16  C6  UNL     1     -11.245 -11.180   5.570  1.00  0.00     0.157 C 
BRANCH  16  17
HETATM   17  C7  UNL     1     -12.437 -11.286   6.441  1.00  0.00     0.257 C 
HETATM   18  O3  UNL     1     -12.367 -11.690   7.599  1.00  0.00    -0.305 OA
ENDBRANCH  16  17
BRANCH  16  19
HETATM   19  C8  UNL     1     -11.733 -11.356   4.121  1.00  0.00     0.063 C 
BRANCH  19  20
HETATM   20  C9  UNL     1     -13.160 -11.744   4.095  1.00  0.00     0.018 C 
BRANCH  20  21
HETATM   21  C10 UNL     1     -13.646 -12.576   3.194  1.00  0.00     0.124 C 
HETATM   22  N4  UNL     1     -14.118 -12.105   1.940  1.00  0.00    -0.086 NA
HETATM   23  N5  UNL     1     -13.723 -13.976   3.436  1.00  0.00    -0.086 NA
ENDBRANCH  20  21
ENDBRANCH  19  20
ENDBRANCH  16  19
ENDBRANCH  14  16
ENDBRANCH   1  14
TORSDOF 8
ENDMDL
MODEL 3
REMARK VINA RESULT: -7.349158409      2.395      7.590
REMARK  8 active torsions:
REMARK  status: ('A' for Active; 'I' for Inactive)
REMARK    1  A    between atoms: C1_4  and  C2_6 
REMARK    2  A    between atoms: C5_9  and  S1_10 
REMARK    3  A    between atoms: S1_10  and  N3_13 
REMARK    4  A    between atoms: N3_13  and  C6_15 
REMARK    5  A    between atoms: C6_15  and  C7_16 
REMARK    6  A    between atoms: C6_15  and  C8_18 
REMARK    7  A    between atoms: C8_18  and  C9_19 
REMARK    8  A    between atoms: C9_19  and  C10_20 
ROOT
HETATM    1  S1  UNL     1      -7.684 -10.259   4.954  1.00  0.00     0.266 S 
HETATM    2  O1  UNL     1      -7.991  -8.964   4.199  1.00  0.00    -0.200 OA
HETATM    3  O2  UNL     1      -6.459 -10.859   4.299  1.00  0.00    -0.200 OA
ENDROOT
BRANCH   1   4
HETATM    4  C5  UNL     1      -7.352  -9.783   6.589  1.00  0.00     0.120 A 
HETATM    5  C4  UNL     1      -8.072  -9.660   7.724  1.00  0.00     0.034 A 
HETATM    6  C3  UNL     1      -7.439  -9.234   8.842  1.00  0.00     0.024 A 
HETATM    7  C2  UNL     1      -6.103  -8.957   8.729  1.00  0.00     0.047 A 
HETATM    8  S2  UNL     1      -5.781  -9.297   7.090  1.00  0.00    -0.073 SA
BRANCH   7   9
HETATM    9  C1  UNL     1      -5.186  -8.479   9.792  1.00  0.00     0.127 C 
HETATM   10  N1  UNL     1      -5.164  -9.083  10.926  1.00  0.00    -0.387 N 
ATOM     11  H12 UNL     1      -4.534  -8.755  11.657  1.00  0.00     0.157 HD
ATOM     12  H11 UNL     1      -5.785  -9.881  11.062  1.00  0.00     0.157 HD
HETATM   13  N2  UNL     1      -4.334  -7.385   9.605  1.00  0.00    -0.082 NA
ENDBRANCH   7   9
ENDBRANCH   1   4
BRANCH   1  14
HETATM   14  N3  UNL     1      -8.968 -11.314   4.713  1.00  0.00    -0.303 N 
ATOM     15  H3  UNL     1      -8.892 -12.313   4.907  1.00  0.00     0.173 HD
BRANCH  14  16
HETATM   16  C6  UNL     1     -10.180 -10.724   4.218  1.00  0.00     0.157 C 
BRANCH  16  17
HETATM   17  C7  UNL     1     -10.976 -11.696   3.434  1.00  0.00     0.257 C 
HETATM   18  O3  UNL     1     -11.902 -12.333   3.929  1.00  0.00    -0.305 OA
ENDBRANCH  16  17
BRANCH  16  19
HETATM   19  C8  UNL     1     -11.067 -10.258   5.386  1.00  0.00     0.063 C 
BRANCH  19  20
HETATM   20  C9  UNL     1     -11.756  -8.994   5.045  1.00  0.00     0.018 C 
BRANCH  20  21
HETATM   21  C10 UNL     1     -12.943  -8.973   4.469  1.00  0.00     0.124 C 
HETATM   22  N4  UNL     1     -13.126  -8.387   3.189  1.00  0.00    -0.086 NA
HETATM   23  N5  UNL     1     -14.089  -9.532   5.101  1.00  0.00    -0.086 NA
ENDBRANCH  20  21
ENDBRANCH  19  20
ENDBRANCH  16  19
ENDBRANCH  14  16
ENDBRANCH   1  14
TORSDOF 8
ENDMDL
MODEL 4
REMARK VINA RESULT: -7.334091742      2.110      7.859
REMARK  8 active torsions:
REMARK  status: ('A' for Active; 'I' for Inactive)
REMARK    1  A    between atoms: C1_4  and  C2_6 
REMARK    2  A    between atoms: C5_9  and  S1_10 
REMARK    3  A    between atoms: S1_10  and  N3_13 
REMARK    4  A    between atoms: N3_13  and  C6_15 
REMARK    5  A    between atoms: C6_15  and  C7_16 
REMARK    6  A    between atoms: C6_15  and  C8_18 
REMARK    7  A    between atoms: C8_18  and  C9_19 
REMARK    8  A    between atoms: C9_19  and  C10_20 
ROOT
HETATM    1  S1  UNL     1      -9.164 -10.466   6.109  1.00  0.00     0.266 S 
HETATM    2  O1  UNL     1      -8.716 -11.653   5.253  1.00  0.00    -0.200 OA
HETATM    3  O2  UNL     1     -10.077 -11.027   7.178  1.00  0.00    -0.200 OA
ENDROOT
BRANCH   1   4
HETATM    4  C5  UNL     1      -7.715  -9.811   6.801  1.00  0.00     0.120 A 
HETATM    5  C4  UNL     1      -6.511  -9.423   6.331  1.00  0.00     0.034 A 
HETATM    6  C3  UNL     1      -5.598  -8.956   7.215  1.00  0.00     0.024 A 
HETATM    7  C2  UNL     1      -5.975  -8.915   8.530  1.00  0.00     0.047 A 
HETATM    8  S2  UNL     1      -7.567  -9.521   8.489  1.00  0.00    -0.073 SA
BRANCH   7   9
HETATM    9  C1  UNL     1      -5.171  -8.450   9.688  1.00  0.00     0.127 C 
HETATM   10  N1  UNL     1      -5.265  -9.068  10.810  1.00  0.00    -0.387 N 
ATOM     11  H12 UNL     1      -4.713  -8.749  11.606  1.00  0.00     0.157 HD
ATOM     12  H11 UNL     1      -5.896  -9.868  10.872  1.00  0.00     0.157 HD
HETATM   13  N2  UNL     1      -4.306  -7.354   9.602  1.00  0.00    -0.082 NA
ENDBRANCH   7   9
ENDBRANCH   1   4
BRANCH   1  14
HETATM   14  N3  UNL     1     -10.074  -9.444   5.136  1.00  0.00    -0.303 N 
ATOM     15  H3  UNL     1      -9.665  -8.632   4.672  1.00  0.00     0.173 HD
BRANCH  14  16
HETATM   16  C6  UNL     1     -11.463  -9.781   4.996  1.00  0.00     0.157 C 
BRANCH  16  17
HETATM   17  C7  UNL     1     -12.282  -8.590   4.677  1.00  0.00     0.257 C 
HETATM   18  O3  UNL     1     -12.662  -8.345   3.535  1.00  0.00    -0.305 OA
ENDBRANCH  16  17
BRANCH  16  19
HETATM   19  C8  UNL     1     -11.658 -10.781   3.843  1.00  0.00     0.063 C 
BRANCH  19  20
HETATM   20  C9  UNL     1     -12.463 -11.939   4.288  1.00  0.00     0.018 C 
BRANCH  20  21
HETATM   21  C10 UNL     1     -13.406 -12.472   3.534  1.00  0.00     0.124 C 
HETATM   22  N4  UNL     1     -13.672 -13.867   3.568  1.00  0.00    -0.086 NA
HETATM   23  N5  UNL     1     -14.195 -11.679   2.654  1.00  0.00    -0.086 NA
ENDBRANCH  20  21
ENDBRANCH  19  20
ENDBRANCH  16  19
ENDBRANCH  14  16
ENDBRANCH   1  14
TORSDOF 8
ENDMDL
MODEL 5
REMARK VINA RESULT: -7.298731975      2.666      7.565
REMARK  8 active torsions:
REMARK  status: ('A' for Active; 'I' for Inactive)
REMARK    1  A    between atoms: C1_4  and  C2_6 
REMARK    2  A    between atoms: C5_9  and  S1_10 
REMARK    3  A    between atoms: S1_10  and  N3_13 
REMARK    4  A    between atoms: N3_13  and  C6_15 
REMARK    5  A    between atoms: C6_15  and  C7_16 
REMARK    6  A    between atoms: C6_15  and  C8_18 
REMARK    7  A    between atoms: C8_18  and  C9_19 
REMARK    8  A    between atoms: C9_19  and  C10_20 
ROOT
HETATM    1  S1  UNL     1      -9.876 -10.773   4.021  1.00  0.00     0.266 S 
HETATM    2  O1  UNL     1      -9.314 -10.422   2.641  1.00  0.00    -0.200 OA
HETATM    3  O2  UNL     1      -9.861 -12.283   4.120  1.00  0.00    -0.200 OA
ENDROOT
BRANCH   1   4
HETATM    4  C5  UNL     1      -8.787 -10.058   5.167  1.00  0.00     0.120 A 
HETATM    5  C4  UNL     1      -7.673  -9.299   5.098  1.00  0.00     0.034 A 
HETATM    6  C3  UNL     1      -7.075  -8.931   6.255  1.00  0.00     0.024 A 
HETATM    7  C2  UNL     1      -7.655  -9.363   7.416  1.00  0.00     0.047 A 
HETATM    8  S2  UNL     1      -8.997 -10.256   6.862  1.00  0.00    -0.073 SA
BRANCH   7   9
HETATM    9  C1  UNL     1      -7.203  -9.102   8.805  1.00  0.00     0.127 C 
HETATM   10  N1  UNL     1      -6.860 -10.088   9.553  1.00  0.00    -0.387 N 
ATOM     11  H12 UNL     1      -6.550  -9.909  10.508  1.00  0.00     0.157 HD
ATOM     12  H11 UNL     1      -6.909 -11.031   9.166  1.00  0.00     0.157 HD
HETATM   13  N2  UNL     1      -7.137  -7.809   9.336  1.00  0.00    -0.082 NA
ENDBRANCH   7   9
ENDBRANCH   1   4
BRANCH   1  14
HETATM   14  N3  UNL     1     -11.475 -10.266   4.071  1.00  0.00    -0.303 N 
ATOM     15  H3  UNL     1     -11.766  -9.353   3.719  1.00  0.00     0.173 HD
BRANCH  14  16
HETATM   16  C6  UNL     1     -12.411 -11.196   4.639  1.00  0.00     0.157 C 
BRANCH  16  17
HETATM   17  C7  UNL     1     -12.691 -10.885   6.059  1.00  0.00     0.257 C 
HETATM   18  O3  UNL     1     -12.345 -11.630   6.972  1.00  0.00    -0.305 OA
ENDBRANCH  16  17
BRANCH  16  19
HETATM   19  C8  UNL     1     -13.755 -11.128   3.893  1.00  0.00     0.063 C 
BRANCH  19  20
HETATM   20  C9  UNL     1     -13.738 -12.011   2.706  1.00  0.00     0.018 C 
BRANCH  20  21
HETATM   21  C10 UNL     1     -13.236 -13.231   2.745  1.00  0.00     0.124 C 
HETATM   22  N4  UNL     1     -12.065 -13.565   2.013  1.00  0.00    -0.086 NA
HETATM   23  N5  UNL     1     -13.842 -14.263   3.515  1.00  0.00    -0.086 NA
ENDBRANCH  20  21
ENDBRANCH  19  20
ENDBRANCH  16  19
ENDBRANCH  14  16
ENDBRANCH   1  14
TORSDOF 8
ENDMDL
