MODEL 1
REMARK VINA RESULT: -8.070549536      0.000      0.000
REMARK  10 active torsions:
REMARK  status: ('A' for Active; 'I' for Inactive)
REMARK    1  A    between atoms: C1_4  and  C2_6 
REMARK    2  A    between atoms: C2_6  and  O1_7 
REMARK    3  A    between atoms: C2_6  and  C3_9 
REMARK    4  A    between atoms: C3_9  and  C4_10 
REMARK    5  A    between atoms: C3_9  and  N5_20 
REMARK    6  A    between atoms: C4_10  and  C5_11 
REMARK    7  A    between atoms: N4_17  and  O2_18 
REMARK    8  A    between atoms: N5_20  and  C9_22 
REMARK    9  A    between atoms: C9_22  and  O3_23 
REMARK   10  A    between atoms: C9_22  and  C10_25 
ROOT
HETATM    1  C3  UNL     1      -7.336  -9.259   6.668  1.00  0.00     0.120 C 
ENDROOT
BRANCH   1   2
HETATM    2  C2  UNL     1      -7.480  -8.065   7.535  1.00  0.00     0.204 C 
BRANCH   2   3
HETATM    3  C1  UNL     1      -7.197  -8.530   8.953  1.00  0.00     0.117 C 
HETATM    4  N1  UNL     1      -7.342  -9.690   9.282  1.00  0.00    -0.389 N 
ATOM      5  H12 UNL     1      -7.152 -10.003  10.234  1.00  0.00     0.157 HD
ATOM      6  H11 UNL     1      -7.653 -10.401   8.620  1.00  0.00     0.157 HD
HETATM    7  N2  UNL     1      -6.764  -7.543   9.872  1.00  0.00    -0.085 NA
ENDBRANCH   2   3
BRANCH   2   8
HETATM    8  O1  UNL     1      -6.477  -7.150   7.271  1.00  0.00    -0.386 OA
ATOM      9  H1  UNL     1      -5.782  -7.385   7.874  1.00  0.00     0.210 HD
ENDBRANCH   2   8
ENDBRANCH   1   2
BRANCH   1  10
HETATM   10  C4  UNL     1      -6.071  -9.496   5.957  1.00  0.00     0.089 C 
BRANCH  10  11
HETATM   11  C5  UNL     1      -6.078  -9.580   4.490  1.00  0.00     0.061 A 
HETATM   12  C6  UNL     1      -6.297 -10.719   3.746  1.00  0.00     0.031 A 
HETATM   13  C7  UNL     1      -6.292 -10.729   2.367  1.00  0.00     0.021 A 
HETATM   14  C8  UNL     1      -6.061  -9.553   1.689  1.00  0.00     0.109 A 
HETATM   15  N3  UNL     1      -5.850  -8.449   2.425  1.00  0.00    -0.286 N 
HETATM   16  N4  UNL     1      -5.856  -8.456   3.744  1.00  0.00    -0.168 N 
ATOM     17  H3  UNL     1      -5.677  -7.567   1.942  1.00  0.00     0.188 HD
BRANCH  16  18
HETATM   18  O2  UNL     1      -5.633  -7.287   4.461  1.00  0.00    -0.268 OA
ATOM     19  H2  UNL     1      -4.903  -7.307   5.069  1.00  0.00     0.247 HD
ENDBRANCH  16  18
ENDBRANCH  10  11
ENDBRANCH   1  10
BRANCH   1  20
HETATM   20  N5  UNL     1      -8.451  -9.444   5.765  1.00  0.00    -0.386 N 
ATOM     21  H5  UNL     1      -8.605  -8.804   4.985  1.00  0.00     0.156 HD
BRANCH  20  22
HETATM   22  C9  UNL     1      -9.315 -10.526   5.991  1.00  0.00     0.248 C 
BRANCH  22  23
HETATM   23  O3  UNL     1      -9.370 -10.995   7.324  1.00  0.00    -0.373 OA
ATOM     24  H3  UNL     1     -10.176 -11.430   7.573  1.00  0.00     0.212 HD
ENDBRANCH  22  23
BRANCH  22  25
HETATM   25  C10 UNL     1     -10.711 -10.166   5.641  1.00  0.00    -0.011 A 
HETATM   26  C11 UNL     1     -11.802 -10.905   6.081  1.00  0.00     0.011 A 
HETATM   27  C12 UNL     1     -13.096 -10.562   5.737  1.00  0.00     0.001 A 
HETATM   28  C13 UNL     1     -13.343  -9.468   4.941  1.00  0.00     0.000 A 
HETATM   29  C14 UNL     1     -12.285  -8.715   4.489  1.00  0.00     0.001 A 
HETATM   30  C15 UNL     1     -10.988  -9.079   4.849  1.00  0.00     0.011 A 
ENDBRANCH  22  25
ENDBRANCH  20  22
ENDBRANCH   1  20
TORSDOF 10
ENDMDL
MODEL 2
REMARK VINA RESULT: -7.992912920      1.247      1.538
REMARK  10 active torsions:
REMARK  status: ('A' for Active; 'I' for Inactive)
REMARK    1  A    between atoms: C1_4  and  C2_6 
REMARK    2  A    between atoms: C2_6  and  O1_7 
REMARK    3  A    between atoms: C2_6  and  C3_9 
REMARK    4  A    between atoms: C3_9  and  C4_10 
REMARK    5  A    between atoms: C3_9  and  N5_20 
REMARK    6  A    between atoms: C4_10  and  C5_11 
REMARK    7  A    between atoms: N4_17  and  O2_18 
REMARK    8  A    between atoms: N5_20  and  C9_22 
REMARK    9  A    between atoms: C9_22  and  O3_23 
REMARK   10  A    between atoms: C9_22  and  C10_25 
ROOT
HETATM    1  C3  UNL     1      -6.694  -9.604   6.995  1.00  0.00     0.120 C 
ENDROOT
BRANCH   1   2
HETATM    2  C2  UNL     1      -6.405  -9.462   8.443  1.00  0.00     0.204 C 
BRANCH   2   3
HETATM    3  C1  UNL     1      -6.324  -7.970   8.718  1.00  0.00     0.117 C 
HETATM    4  N1  UNL     1      -5.259  -7.386   8.748  1.00  0.00    -0.389 N 
ATOM      5  H12 UNL     1      -5.205  -6.385   8.933  1.00  0.00     0.157 HD
ATOM      6  H11 UNL     1      -4.377  -7.871   8.582  1.00  0.00     0.157 HD
HETATM    7  N2  UNL     1      -7.550  -7.298   8.949  1.00  0.00    -0.085 NA
ENDBRANCH   2   3
BRANCH   2   8
HETATM    8  O1  UNL     1      -7.484  -9.888   9.197  1.00  0.00    -0.386 OA
ATOM      9  H1  UNL     1      -8.004 -10.401   8.590  1.00  0.00     0.210 HD
ENDBRANCH   2   8
ENDBRANCH   1   2
BRANCH   1  10
HETATM   10  C4  UNL     1      -5.772  -9.026   6.007  1.00  0.00     0.089 C 
BRANCH  10  11
HETATM   11  C5  UNL     1      -5.968  -9.328   4.582  1.00  0.00     0.061 A 
HETATM   12  C6  UNL     1      -6.081 -10.586   4.030  1.00  0.00     0.031 A 
HETATM   13  C7  UNL     1      -6.267 -10.801   2.680  1.00  0.00     0.021 A 
HETATM   14  C8  UNL     1      -6.345  -9.718   1.834  1.00  0.00     0.109 A 
HETATM   15  N3  UNL     1      -6.234  -8.497   2.384  1.00  0.00    -0.286 N 
HETATM   16  N4  UNL     1      -6.056  -8.307   3.677  1.00  0.00    -0.168 N 
ATOM     17  H3  UNL     1      -6.291  -7.680   1.774  1.00  0.00     0.188 HD
BRANCH  16  18
HETATM   18  O2  UNL     1      -5.948  -7.024   4.198  1.00  0.00    -0.268 OA
ATOM     19  H2  UNL     1      -6.466  -6.356   3.765  1.00  0.00     0.247 HD
ENDBRANCH  16  18
ENDBRANCH  10  11
ENDBRANCH   1  10
BRANCH   1  20
HETATM   20  N5  UNL     1      -8.059  -9.267   6.653  1.00  0.00    -0.386 N 
ATOM     21  H5  UNL     1      -8.388  -8.303   6.700  1.00  0.00     0.156 HD
BRANCH  20  22
HETATM   22  C9  UNL     1      -8.917 -10.303   6.254  1.00  0.00     0.248 C 
BRANCH  22  23
HETATM   23  O3  UNL     1      -9.665 -10.909   7.290  1.00  0.00    -0.373 OA
ATOM     24  H3  UNL     1      -9.439 -11.811   7.485  1.00  0.00     0.212 HD
ENDBRANCH  22  23
BRANCH  22  25
HETATM   25  C10 UNL     1      -9.920  -9.809   5.279  1.00  0.00    -0.011 A 
HETATM   26  C11 UNL     1     -11.166  -9.336   5.670  1.00  0.00     0.011 A 
HETATM   27  C12 UNL     1     -12.094  -8.888   4.748  1.00  0.00     0.001 A 
HETATM   28  C13 UNL     1     -11.807  -8.900   3.403  1.00  0.00     0.000 A 
HETATM   29  C14 UNL     1     -10.582  -9.362   2.983  1.00  0.00     0.001 A 
HETATM   30  C15 UNL     1      -9.662  -9.809   3.930  1.00  0.00     0.011 A 
ENDBRANCH  22  25
ENDBRANCH  20  22
ENDBRANCH   1  20
TORSDOF 10
ENDMDL
MODEL 3
REMARK VINA RESULT: -7.956100986      1.270      1.648
REMARK  10 active torsions:
REMARK  status: ('A' for Active; 'I' for Inactive)
REMARK    1  A    between atoms: C1_4  and  C2_6 
REMARK    2  A    between atoms: C2_6  and  O1_7 
REMARK    3  A    between atoms: C2_6  and  C3_9 
REMARK    4  A    between atoms: C3_9  and  C4_10 
REMARK    5  A    between atoms: C3_9  and  N5_20 
REMARK    6  A    between atoms: C4_10  and  C5_11 
REMARK    7  A    between atoms: N4_17  and  O2_18 
REMARK    8  A    between atoms: N5_20  and  C9_22 
REMARK    9  A    between atoms: C9_22  and  O3_23 
REMARK   10  A    between atoms: C9_22  and  C10_25 
ROOT
HETATM    1  C3  UNL     1      -6.277  -9.049   6.940  1.00  0.00     0.120 C 
ENDROOT
BRANCH   1   2
HETATM    2  C2  UNL     1      -6.059  -8.480   8.293  1.00  0.00     0.204 C 
BRANCH   2   3
HETATM    3  C1  UNL     1      -5.676  -9.645   9.189  1.00  0.00     0.117 C 
HETATM    4  N1  UNL     1      -6.487 -10.487   9.519  1.00  0.00    -0.389 N 
ATOM      5  H12 UNL     1      -6.230 -11.269  10.121  1.00  0.00     0.157 HD
ATOM      6  H11 UNL     1      -7.457 -10.451   9.203  1.00  0.00     0.157 HD
HETATM    7  N2  UNL     1      -4.329  -9.695   9.627  1.00  0.00    -0.085 NA
ENDBRANCH   2   3
BRANCH   2   8
HETATM    8  O1  UNL     1      -4.942  -7.664   8.301  1.00  0.00    -0.386 OA
ATOM      9  H1  UNL     1      -4.321  -8.113   7.740  1.00  0.00     0.210 HD
ENDBRANCH   2   8
ENDBRANCH   1   2
BRANCH   1  10
HETATM   10  C4  UNL     1      -5.312  -8.770   5.867  1.00  0.00     0.089 C 
BRANCH  10  11
HETATM   11  C5  UNL     1      -5.647  -9.147   4.487  1.00  0.00     0.061 A 
HETATM   12  C6  UNL     1      -5.856 -10.430   4.026  1.00  0.00     0.031 A 
HETATM   13  C7  UNL     1      -6.171 -10.716   2.715  1.00  0.00     0.021 A 
HETATM   14  C8  UNL     1      -6.285  -9.682   1.812  1.00  0.00     0.109 A 
HETATM   15  N3  UNL     1      -6.079  -8.437   2.272  1.00  0.00    -0.286 N 
HETATM   16  N4  UNL     1      -5.778  -8.179   3.531  1.00  0.00    -0.168 N 
ATOM     17  H3  UNL     1      -6.160  -7.656   1.621  1.00  0.00     0.188 HD
BRANCH  16  18
HETATM   18  O2  UNL     1      -5.575  -6.873   3.959  1.00  0.00    -0.268 OA
ATOM     19  H2  UNL     1      -5.982  -6.196   3.431  1.00  0.00     0.247 HD
ENDBRANCH  16  18
ENDBRANCH  10  11
ENDBRANCH   1  10
BRANCH   1  20
HETATM   20  N5  UNL     1      -7.626  -8.856   6.454  1.00  0.00    -0.386 N 
ATOM     21  H5  UNL     1      -7.969  -7.924   6.218  1.00  0.00     0.156 HD
BRANCH  20  22
HETATM   22  C9  UNL     1      -8.448  -9.984   6.314  1.00  0.00     0.248 C 
BRANCH  22  23
HETATM   23  O3  UNL     1      -9.040 -10.459   7.507  1.00  0.00    -0.373 OA
ATOM     24  H3  UNL     1      -9.146 -11.401   7.565  1.00  0.00     0.212 HD
ENDBRANCH  22  23
BRANCH  22  25
HETATM   25  C10 UNL     1      -9.579  -9.700   5.398  1.00  0.00    -0.011 A 
HETATM   26  C11 UNL     1      -9.441  -9.722   4.015  1.00  0.00     0.011 A 
HETATM   27  C12 UNL     1     -10.502  -9.444   3.176  1.00  0.00     0.001 A 
HETATM   28  C13 UNL     1     -11.740  -9.134   3.689  1.00  0.00     0.000 A 
HETATM   29  C14 UNL     1     -11.911  -9.103   5.054  1.00  0.00     0.001 A 
HETATM   30  C15 UNL     1     -10.826  -9.387   5.882  1.00  0.00     0.011 A 
ENDBRANCH  22  25
ENDBRANCH  20  22
ENDBRANCH   1  20
TORSDOF 10
ENDMDL
MODEL 4
REMARK VINA RESULT: -7.948988984      2.378      6.215
REMARK  10 active torsions:
REMARK  status: ('A' for Active; 'I' for Inactive)
REMARK    1  A    between atoms: C1_4  and  C2_6 
REMARK    2  A    between atoms: C2_6  and  O1_7 
REMARK    3  A    between atoms: C2_6  and  C3_9 
REMARK    4  A    between atoms: C3_9  and  C4_10 
REMARK    5  A    between atoms: C3_9  and  N5_20 
REMARK    6  A    between atoms: C4_10  and  C5_11 
REMARK    7  A    between atoms: N4_17  and  O2_18 
REMARK    8  A    between atoms: N5_20  and  C9_22 
REMARK    9  A    between atoms: C9_22  and  O3_23 
REMARK   10  A    between atoms: C9_22  and  C10_25 
ROOT
HETATM    1  C3  UNL     1      -9.185 -10.738   5.508  1.00  0.00     0.120 C 
ENDROOT
BRANCH   1   2
HETATM    2  C2  UNL     1      -9.045 -10.649   4.034  1.00  0.00     0.204 C 
BRANCH   2   3
HETATM    3  C1  UNL     1      -7.628 -10.171   3.767  1.00  0.00     0.117 C 
HETATM    4  N1  UNL     1      -6.680 -10.928   3.829  1.00  0.00    -0.389 N 
ATOM      5  H12 UNL     1      -5.729 -10.607   3.650  1.00  0.00     0.157 HD
ATOM      6  H11 UNL     1      -6.796 -11.916   4.054  1.00  0.00     0.157 HD
HETATM    7  N2  UNL     1      -7.468  -8.799   3.454  1.00  0.00    -0.085 NA
ENDBRANCH   2   3
BRANCH   2   8
HETATM    8  O1  UNL     1      -9.091 -11.910   3.466  1.00  0.00    -0.386 OA
ATOM      9  H1  UNL     1      -9.993 -12.184   3.579  1.00  0.00     0.210 HD
ENDBRANCH   2   8
ENDBRANCH   1   2
BRANCH   1  10
HETATM   10  C4  UNL     1     -10.504 -11.002   6.101  1.00  0.00     0.089 C 
BRANCH  10  11
HETATM   11  C5  UNL     1     -11.699 -10.415   5.479  1.00  0.00     0.061 A 
HETATM   12  C6  UNL     1     -11.855  -9.094   5.113  1.00  0.00     0.031 A 
HETATM   13  C7  UNL     1     -13.006  -8.606   4.531  1.00  0.00     0.021 A 
HETATM   14  C8  UNL     1     -14.055  -9.466   4.297  1.00  0.00     0.109 A 
HETATM   15  N3  UNL     1     -13.892 -10.750   4.657  1.00  0.00    -0.286 N 
HETATM   16  N4  UNL     1     -12.785 -11.202   5.215  1.00  0.00    -0.168 N 
ATOM     17  H3  UNL     1     -14.657 -11.405   4.491  1.00  0.00     0.188 HD
BRANCH  16  18
HETATM   18  O2  UNL     1     -12.663 -12.540   5.569  1.00  0.00    -0.268 OA
ATOM     19  H2  UNL     1     -13.432 -12.936   5.961  1.00  0.00     0.247 HD
ENDBRANCH  16  18
ENDBRANCH  10  11
ENDBRANCH   1  10
BRANCH   1  20
HETATM   20  N5  UNL     1      -8.539  -9.648   6.206  1.00  0.00    -0.386 N 
ATOM     21  H5  UNL     1      -8.645  -8.685   5.887  1.00  0.00     0.156 HD
BRANCH  20  22
HETATM   22  C9  UNL     1      -7.764  -9.952   7.335  1.00  0.00     0.248 C 
BRANCH  22  23
HETATM   23  O3  UNL     1      -6.538 -10.609   7.076  1.00  0.00    -0.373 OA
ATOM     24  H3  UNL     1      -5.911 -10.603   7.788  1.00  0.00     0.212 HD
ENDBRANCH  22  23
BRANCH  22  25
HETATM   25  C10 UNL     1      -7.401  -8.716   8.071  1.00  0.00    -0.011 A 
HETATM   26  C11 UNL     1      -6.409  -8.693   9.044  1.00  0.00     0.011 A 
HETATM   27  C12 UNL     1      -6.090  -7.536   9.728  1.00  0.00     0.001 A 
HETATM   28  C13 UNL     1      -6.753  -6.360   9.464  1.00  0.00     0.000 A 
HETATM   29  C14 UNL     1      -7.741  -6.349   8.507  1.00  0.00     0.001 A 
HETATM   30  C15 UNL     1      -8.046  -7.528   7.829  1.00  0.00     0.011 A 
ENDBRANCH  22  25
ENDBRANCH  20  22
ENDBRANCH   1  20
TORSDOF 10
ENDMDL
MODEL 5
REMARK VINA RESULT: -7.817333531      1.424      4.356
REMARK  10 active torsions:
REMARK  status: ('A' for Active; 'I' for Inactive)
REMARK    1  A    between atoms: C1_4  and  C2_6 
REMARK    2  A    between atoms: C2_6  and  O1_7 
REMARK    3  A    between atoms: C2_6  and  C3_9 
REMARK    4  A    between atoms: C3_9  and  C4_10 
REMARK    5  A    between atoms: C3_9  and  N5_20 
REMARK    6  A    between atoms: C4_10  and  C5_11 
REMARK    7  A    between atoms: N4_17  and  O2_18 
REMARK    8  A    between atoms: N5_20  and  C9_22 
REMARK    9  A    between atoms: C9_22  and  O3_23 
REMARK   10  A    between atoms: C9_22  and  C10_25 
ROOT
HETATM    1  C3  UNL     1      -7.662  -9.146   6.000  1.00  0.00     0.120 C 
ENDROOT
BRANCH   1   2
HETATM    2  C2  UNL     1      -6.458  -8.679   5.271  1.00  0.00     0.204 C 
BRANCH   2   3
HETATM    3  C1  UNL     1      -6.642  -9.105   3.825  1.00  0.00     0.117 C 
HETATM    4  N1  UNL     1      -7.102  -8.350   2.993  1.00  0.00    -0.389 N 
ATOM      5  H12 UNL     1      -7.226  -8.636   2.022  1.00  0.00     0.157 HD
ATOM      6  H11 UNL     1      -7.378  -7.396   3.228  1.00  0.00     0.157 HD
HETATM    7  N2  UNL     1      -6.258 -10.430   3.499  1.00  0.00    -0.085 NA
ENDBRANCH   2   3
BRANCH   2   8
HETATM    8  O1  UNL     1      -6.430  -7.297   5.216  1.00  0.00    -0.386 OA
ATOM      9  H1  UNL     1      -7.261  -7.063   4.821  1.00  0.00     0.210 HD
ENDBRANCH   2   8
ENDBRANCH   1   2
BRANCH   1  10
HETATM   10  C4  UNL     1      -7.911  -8.680   7.371  1.00  0.00     0.089 C 
BRANCH  10  11
HETATM   11  C5  UNL     1      -6.798  -8.649   8.331  1.00  0.00     0.061 A 
HETATM   12  C6  UNL     1      -6.258  -9.740   8.979  1.00  0.00     0.031 A 
HETATM   13  C7  UNL     1      -5.209  -9.642   9.869  1.00  0.00     0.021 A 
HETATM   14  C8  UNL     1      -4.666  -8.405  10.131  1.00  0.00     0.109 A 
HETATM   15  N3  UNL     1      -5.200  -7.349   9.494  1.00  0.00    -0.286 N 
HETATM   16  N4  UNL     1      -6.204  -7.458   8.646  1.00  0.00    -0.168 N 
ATOM     17  H3  UNL     1      -4.811  -6.423   9.673  1.00  0.00     0.188 HD
BRANCH  16  18
HETATM   18  O2  UNL     1      -6.722  -6.337   8.010  1.00  0.00    -0.268 OA
ATOM     19  H2  UNL     1      -6.915  -5.595   8.571  1.00  0.00     0.247 HD
ENDBRANCH  16  18
ENDBRANCH  10  11
ENDBRANCH   1  10
BRANCH   1  20
HETATM   20  N5  UNL     1      -7.852 -10.578   5.923  1.00  0.00    -0.386 N 
ATOM     21  H5  UNL     1      -7.058 -11.207   5.803  1.00  0.00     0.156 HD
BRANCH  20  22
HETATM   22  C9  UNL     1      -9.160 -11.079   6.018  1.00  0.00     0.248 C 
BRANCH  22  23
HETATM   23  O3  UNL     1      -9.757 -10.987   7.297  1.00  0.00    -0.373 OA
ATOM     24  H3  UNL     1     -10.577 -10.509   7.333  1.00  0.00     0.212 HD
ENDBRANCH  22  23
BRANCH  22  25
HETATM   25  C10 UNL     1     -10.070 -10.348   5.103  1.00  0.00    -0.011 A 
HETATM   26  C11 UNL     1      -9.948 -10.418   3.721  1.00  0.00     0.011 A 
HETATM   27  C12 UNL     1     -10.799  -9.723   2.882  1.00  0.00     0.001 A 
HETATM   28  C13 UNL     1     -11.800  -8.932   3.397  1.00  0.00     0.000 A 
HETATM   29  C14 UNL     1     -11.947  -8.842   4.761  1.00  0.00     0.001 A 
HETATM   30  C15 UNL     1     -11.079  -9.552   5.588  1.00  0.00     0.011 A 
ENDBRANCH  22  25
ENDBRANCH  20  22
ENDBRANCH   1  20
TORSDOF 10
ENDMDL
