MODEL 1
REMARK VINA RESULT: -7.628990274      0.000      0.000
REMARK  8 active torsions:
REMARK  status: ('A' for Active; 'I' for Inactive)
REMARK    1  A    between atoms: O1_2  and  N1_3 
REMARK    2  A    between atoms: N1_3  and  C2_4 
REMARK    3  A    between atoms: C2_4  and  C3_5 
REMARK    4  A    between atoms: C2_4  and  C7_20 
REMARK       I    between atoms: C3_5  and  N2_7 
REMARK    5  A    between atoms: N2_7  and  C4_9 
REMARK    6  A    between atoms: C4_9  and  C5_10 
REMARK    7  A    between atoms: C4_9  and  C6_13 
REMARK       I    between atoms: C6_13  and  N3_15 
REMARK    8  A    between atoms: N3_15  and  N4_17 
ROOT
HETATM    1  C3  UNL     1      -8.384  -9.505   6.549  1.00  0.00     0.245 C 
HETATM    2  O2  UNL     1      -8.573 -10.153   7.619  1.00  0.00    -0.271 OA
HETATM    3  N2  UNL     1      -9.174  -9.754   5.385  1.00  0.00    -0.337 N 
ATOM      4  H2  UNL     1      -9.007  -9.222   4.531  1.00  0.00     0.163 HD
ENDROOT
BRANCH   1   5
HETATM    5  C2  UNL     1      -7.321  -8.468   6.508  1.00  0.00     0.231 C 
BRANCH   5   6
HETATM    6  N1  UNL     1      -6.444  -8.697   5.391  1.00  0.00    -0.082 NA
BRANCH   6   7
HETATM    7  O1  UNL     1      -6.784  -7.840   4.402  1.00  0.00    -0.290 OA
HETATM    8  C1  UNL     1      -5.682  -7.489   3.621  1.00  0.00     0.231 C 
ENDBRANCH   6   7
ENDBRANCH   5   6
BRANCH   5   9
HETATM    9  C7  UNL     1      -6.589  -8.527   7.805  1.00  0.00    -0.022 A 
HETATM   10  C8  UNL     1      -5.694  -9.522   8.108  1.00  0.00     0.010 A 
HETATM   11  C9  UNL     1      -5.002  -9.599   9.307  1.00  0.00     0.001 A 
HETATM   12  C10 UNL     1      -5.235  -8.611  10.247  1.00  0.00     0.001 A 
HETATM   13  C11 UNL     1      -6.133  -7.605   9.953  1.00  0.00     0.007 A 
HETATM   14  C12 UNL     1      -6.816  -7.539   8.757  1.00  0.00    -0.053 A 
HETATM   15  C13 UNL     1      -7.756  -6.435   8.522  1.00  0.00     0.049 C 
ENDBRANCH   5   9
ENDBRANCH   1   5
BRANCH   3  16
HETATM   16  C4  UNL     1     -10.217 -10.768   5.417  1.00  0.00     0.280 C 
BRANCH  16  17
HETATM   17  C5  UNL     1     -10.066 -11.657   4.236  1.00  0.00     0.206 C 
HETATM   18  O3  UNL     1      -8.959 -11.787   3.661  1.00  0.00    -0.646 OA
HETATM   19  O4  UNL     1     -11.180 -12.341   3.785  1.00  0.00    -0.646 OA
ENDBRANCH  16  17
BRANCH  16  20
HETATM   20  C6  UNL     1     -11.544 -10.110   5.477  1.00  0.00     0.269 C 
HETATM   21  O5  UNL     1     -11.603  -8.883   5.221  1.00  0.00    -0.269 OA
HETATM   22  N3  UNL     1     -12.730 -10.796   5.807  1.00  0.00    -0.274 N 
ATOM     23  H3  UNL     1     -12.693 -11.793   6.019  1.00  0.00     0.189 HD
BRANCH  22  24
HETATM   24  N4  UNL     1     -13.946 -10.130   5.848  1.00  0.00    -0.343 N 
ATOM     25  H42 UNL     1     -14.073  -9.386   6.534  1.00  0.00     0.176 HD
ATOM     26  H41 UNL     1     -14.698 -10.380   5.206  1.00  0.00     0.176 HD
ENDBRANCH  22  24
ENDBRANCH  16  20
ENDBRANCH   3  16
TORSDOF 8
ENDMDL
MODEL 2
REMARK VINA RESULT: -7.524491485      2.647      6.363
REMARK  8 active torsions:
REMARK  status: ('A' for Active; 'I' for Inactive)
REMARK    1  A    between atoms: O1_2  and  N1_3 
REMARK    2  A    between atoms: N1_3  and  C2_4 
REMARK    3  A    between atoms: C2_4  and  C3_5 
REMARK    4  A    between atoms: C2_4  and  C7_20 
REMARK       I    between atoms: C3_5  and  N2_7 
REMARK    5  A    between atoms: N2_7  and  C4_9 
REMARK    6  A    between atoms: C4_9  and  C5_10 
REMARK    7  A    between atoms: C4_9  and  C6_13 
REMARK       I    between atoms: C6_13  and  N3_15 
REMARK    8  A    between atoms: N3_15  and  N4_17 
ROOT
HETATM    1  C3  UNL     1      -8.559  -9.737   6.430  1.00  0.00     0.245 C 
HETATM    2  O2  UNL     1      -9.135 -10.478   7.280  1.00  0.00    -0.271 OA
HETATM    3  N2  UNL     1      -7.812  -8.589   6.837  1.00  0.00    -0.337 N 
ATOM      4  H2  UNL     1      -7.354  -8.004   6.138  1.00  0.00     0.163 HD
ENDROOT
BRANCH   1   5
HETATM    5  C2  UNL     1      -8.664 -10.073   4.988  1.00  0.00     0.231 C 
BRANCH   5   6
HETATM    6  N1  UNL     1      -7.950  -9.104   4.198  1.00  0.00    -0.082 NA
BRANCH   6   7
HETATM    7  O1  UNL     1      -6.636  -9.424   4.221  1.00  0.00    -0.290 OA
HETATM    8  C1  UNL     1      -6.364 -10.550   3.441  1.00  0.00     0.231 C 
ENDBRANCH   6   7
ENDBRANCH   5   6
BRANCH   5   9
HETATM    9  C7  UNL     1     -10.114 -10.106   4.641  1.00  0.00    -0.022 A 
HETATM   10  C8  UNL     1     -11.011  -9.181   5.111  1.00  0.00     0.010 A 
HETATM   11  C9  UNL     1     -12.363  -9.192   4.804  1.00  0.00     0.001 A 
HETATM   12  C10 UNL     1     -12.825 -10.198   3.974  1.00  0.00     0.001 A 
HETATM   13  C11 UNL     1     -11.931 -11.134   3.495  1.00  0.00     0.007 A 
HETATM   14  C12 UNL     1     -10.588 -11.113   3.807  1.00  0.00    -0.053 A 
HETATM   15  C13 UNL     1      -9.702 -12.147   3.255  1.00  0.00     0.049 C 
ENDBRANCH   5   9
ENDBRANCH   1   5
BRANCH   3  16
HETATM   16  C4  UNL     1      -7.704  -8.254   8.249  1.00  0.00     0.280 C 
BRANCH  16  17
HETATM   17  C5  UNL     1      -7.423  -6.801   8.383  1.00  0.00     0.206 C 
HETATM   18  O3  UNL     1      -7.172  -6.095   7.377  1.00  0.00    -0.646 OA
HETATM   19  O4  UNL     1      -7.444  -6.245   9.648  1.00  0.00    -0.646 OA
ENDBRANCH  16  17
BRANCH  16  20
HETATM   20  C6  UNL     1      -6.665  -9.103   8.880  1.00  0.00     0.269 C 
HETATM   21  O5  UNL     1      -5.463  -8.798   8.690  1.00  0.00    -0.269 OA
HETATM   22  N3  UNL     1      -6.967 -10.226   9.675  1.00  0.00    -0.274 N 
ATOM     23  H3  UNL     1      -7.940 -10.484   9.836  1.00  0.00     0.189 HD
BRANCH  22  24
HETATM   24  N4  UNL     1      -5.954 -10.985  10.243  1.00  0.00    -0.343 N 
ATOM     25  H42 UNL     1      -5.130 -11.200   9.681  1.00  0.00     0.176 HD
ATOM     26  H41 UNL     1      -6.031 -11.322  11.202  1.00  0.00     0.176 HD
ENDBRANCH  22  24
ENDBRANCH  16  20
ENDBRANCH   3  16
TORSDOF 8
ENDMDL
MODEL 3
REMARK VINA RESULT: -7.179228188      2.268      6.400
REMARK  8 active torsions:
REMARK  status: ('A' for Active; 'I' for Inactive)
REMARK    1  A    between atoms: O1_2  and  N1_3 
REMARK    2  A    between atoms: N1_3  and  C2_4 
REMARK    3  A    between atoms: C2_4  and  C3_5 
REMARK    4  A    between atoms: C2_4  and  C7_20 
REMARK       I    between atoms: C3_5  and  N2_7 
REMARK    5  A    between atoms: N2_7  and  C4_9 
REMARK    6  A    between atoms: C4_9  and  C5_10 
REMARK    7  A    between atoms: C4_9  and  C6_13 
REMARK       I    between atoms: C6_13  and  N3_15 
REMARK    8  A    between atoms: N3_15  and  N4_17 
ROOT
HETATM    1  C3  UNL     1      -9.153  -9.809   6.112  1.00  0.00     0.245 C 
HETATM    2  O2  UNL     1      -9.733  -8.804   6.617  1.00  0.00    -0.271 OA
HETATM    3  N2  UNL     1      -7.742  -9.991   6.244  1.00  0.00    -0.337 N 
ATOM      4  H2  UNL     1      -7.291 -10.807   5.831  1.00  0.00     0.163 HD
ENDROOT
BRANCH   1   5
HETATM    5  C2  UNL     1      -9.957 -10.813   5.371  1.00  0.00     0.231 C 
BRANCH   5   6
HETATM    6  N1  UNL     1      -9.240 -11.267   4.209  1.00  0.00    -0.082 NA
BRANCH   6   7
HETATM    7  O1  UNL     1      -9.821 -12.407   3.770  1.00  0.00    -0.290 OA
HETATM    8  C1  UNL     1     -10.131 -12.339   2.411  1.00  0.00     0.231 C 
ENDBRANCH   6   7
ENDBRANCH   5   6
BRANCH   5   9
HETATM    9  C7  UNL     1     -11.250 -10.167   5.004  1.00  0.00    -0.022 A 
HETATM   10  C8  UNL     1     -11.357  -9.241   3.997  1.00  0.00     0.010 A 
HETATM   11  C9  UNL     1     -12.547  -8.626   3.638  1.00  0.00     0.001 A 
HETATM   12  C10 UNL     1     -13.687  -8.973   4.341  1.00  0.00     0.001 A 
HETATM   13  C11 UNL     1     -13.591  -9.905   5.355  1.00  0.00     0.007 A 
HETATM   14  C12 UNL     1     -12.402 -10.509   5.704  1.00  0.00    -0.053 A 
HETATM   15  C13 UNL     1     -12.384 -11.491   6.796  1.00  0.00     0.049 C 
ENDBRANCH   5   9
ENDBRANCH   1   5
BRANCH   3  16
HETATM   16  C4  UNL     1      -6.947  -9.012   6.969  1.00  0.00     0.280 C 
BRANCH  16  17
HETATM   17  C5  UNL     1      -5.614  -8.895   6.323  1.00  0.00     0.206 C 
HETATM   18  O3  UNL     1      -4.599  -8.575   6.986  1.00  0.00    -0.646 OA
HETATM   19  O4  UNL     1      -5.520  -9.147   4.967  1.00  0.00    -0.646 OA
ENDBRANCH  16  17
BRANCH  16  20
HETATM   20  C6  UNL     1      -6.863  -9.403   8.397  1.00  0.00     0.269 C 
HETATM   21  O5  UNL     1      -7.429  -8.667   9.241  1.00  0.00    -0.269 OA
HETATM   22  N3  UNL     1      -6.180 -10.552   8.841  1.00  0.00    -0.274 N 
ATOM     23  H3  UNL     1      -5.714 -11.156   8.164  1.00  0.00     0.189 HD
BRANCH  22  24
HETATM   24  N4  UNL     1      -6.133 -10.871  10.191  1.00  0.00    -0.343 N 
ATOM     25  H42 UNL     1      -6.961 -11.279  10.626  1.00  0.00     0.176 HD
ATOM     26  H41 UNL     1      -5.289 -10.700  10.737  1.00  0.00     0.176 HD
ENDBRANCH  22  24
ENDBRANCH  16  20
ENDBRANCH   3  16
TORSDOF 8
ENDMDL
MODEL 4
REMARK VINA RESULT: -7.130120200      5.309      7.208
REMARK  8 active torsions:
REMARK  status: ('A' for Active; 'I' for Inactive)
REMARK    1  A    between atoms: O1_2  and  N1_3 
REMARK    2  A    between atoms: N1_3  and  C2_4 
REMARK    3  A    between atoms: C2_4  and  C3_5 
REMARK    4  A    between atoms: C2_4  and  C7_20 
REMARK       I    between atoms: C3_5  and  N2_7 
REMARK    5  A    between atoms: N2_7  and  C4_9 
REMARK    6  A    between atoms: C4_9  and  C5_10 
REMARK    7  A    between atoms: C4_9  and  C6_13 
REMARK       I    between atoms: C6_13  and  N3_15 
REMARK    8  A    between atoms: N3_15  and  N4_17 
ROOT
HETATM    1  C3  UNL     1     -12.525 -11.313   1.901  1.00  0.00     0.245 C 
HETATM    2  O2  UNL     1     -13.118 -10.525   1.107  1.00  0.00    -0.271 OA
HETATM    3  N2  UNL     1     -12.588 -11.122   3.316  1.00  0.00    -0.337 N 
ATOM      4  H2  UNL     1     -12.104 -11.767   3.940  1.00  0.00     0.163 HD
ENDROOT
BRANCH   1   5
HETATM    5  C2  UNL     1     -11.753 -12.454   1.347  1.00  0.00     0.231 C 
BRANCH   5   6
HETATM    6  N1  UNL     1     -12.043 -13.656   2.082  1.00  0.00    -0.082 NA
BRANCH   6   7
HETATM    7  O1  UNL     1     -13.385 -13.752   2.225  1.00  0.00    -0.290 OA
HETATM    8  C1  UNL     1     -13.733 -14.441   3.388  1.00  0.00     0.231 C 
ENDBRANCH   6   7
ENDBRANCH   5   6
BRANCH   5   9
HETATM    9  C7  UNL     1     -10.308 -12.095   1.425  1.00  0.00    -0.022 A 
HETATM   10  C8  UNL     1      -9.613 -12.067   2.607  1.00  0.00     0.010 A 
HETATM   11  C9  UNL     1      -8.270 -11.736   2.705  1.00  0.00     0.001 A 
HETATM   12  C10 UNL     1      -7.600 -11.417   1.537  1.00  0.00     0.001 A 
HETATM   13  C11 UNL     1      -8.289 -11.443   0.341  1.00  0.00     0.007 A 
HETATM   14  C12 UNL     1      -9.625 -11.773   0.256  1.00  0.00    -0.053 A 
HETATM   15  C13 UNL     1     -10.286 -11.777  -1.056  1.00  0.00     0.049 C 
ENDBRANCH   5   9
ENDBRANCH   1   5
BRANCH   3  16
HETATM   16  C4  UNL     1     -13.343 -10.007   3.866  1.00  0.00     0.280 C 
BRANCH  16  17
HETATM   17  C5  UNL     1     -12.602  -8.745   3.609  1.00  0.00     0.206 C 
HETATM   18  O3  UNL     1     -11.501  -8.517   4.165  1.00  0.00    -0.646 OA
HETATM   19  O4  UNL     1     -13.158  -7.825   2.740  1.00  0.00    -0.646 OA
ENDBRANCH  16  17
BRANCH  16  20
HETATM   20  C6  UNL     1     -13.595 -10.245   5.308  1.00  0.00     0.269 C 
HETATM   21  O5  UNL     1     -14.658  -9.794   5.800  1.00  0.00    -0.269 OA
HETATM   22  N3  UNL     1     -12.701 -10.946   6.140  1.00  0.00    -0.274 N 
ATOM     23  H3  UNL     1     -11.833 -11.315   5.751  1.00  0.00     0.189 HD
BRANCH  22  24
HETATM   24  N4  UNL     1     -12.987 -11.139   7.484  1.00  0.00    -0.343 N 
ATOM     25  H42 UNL     1     -13.963 -11.215   7.770  1.00  0.00     0.176 HD
ATOM     26  H41 UNL     1     -12.237 -11.205   8.172  1.00  0.00     0.176 HD
ENDBRANCH  22  24
ENDBRANCH  16  20
ENDBRANCH   3  16
TORSDOF 8
ENDMDL
MODEL 5
REMARK VINA RESULT: -7.064017096      2.835      6.372
REMARK  8 active torsions:
REMARK  status: ('A' for Active; 'I' for Inactive)
REMARK    1  A    between atoms: O1_2  and  N1_3 
REMARK    2  A    between atoms: N1_3  and  C2_4 
REMARK    3  A    between atoms: C2_4  and  C3_5 
REMARK    4  A    between atoms: C2_4  and  C7_20 
REMARK       I    between atoms: C3_5  and  N2_7 
REMARK    5  A    between atoms: N2_7  and  C4_9 
REMARK    6  A    between atoms: C4_9  and  C5_10 
REMARK    7  A    between atoms: C4_9  and  C6_13 
REMARK       I    between atoms: C6_13  and  N3_15 
REMARK    8  A    between atoms: N3_15  and  N4_17 
ROOT
HETATM    1  C3  UNL     1      -7.336  -9.281   6.299  1.00  0.00     0.245 C 
HETATM    2  O2  UNL     1      -6.863  -8.190   5.865  1.00  0.00    -0.271 OA
HETATM    3  N2  UNL     1      -6.862  -9.859   7.517  1.00  0.00    -0.337 N 
ATOM      4  H2  UNL     1      -7.255 -10.739   7.852  1.00  0.00     0.163 HD
ENDROOT
BRANCH   1   5
HETATM    5  C2  UNL     1      -8.403  -9.966   5.526  1.00  0.00     0.231 C 
BRANCH   5   6
HETATM    6  N1  UNL     1      -8.793 -11.183   6.188  1.00  0.00    -0.082 NA
BRANCH   6   7
HETATM    7  O1  UNL     1      -9.868 -10.918   6.964  1.00  0.00    -0.290 OA
HETATM    8  C1  UNL     1     -11.059 -10.986   6.239  1.00  0.00     0.231 C 
ENDBRANCH   6   7
ENDBRANCH   5   6
BRANCH   5   9
HETATM    9  C7  UNL     1      -7.867 -10.228   4.160  1.00  0.00    -0.022 A 
HETATM   10  C8  UNL     1      -6.616 -10.746   3.940  1.00  0.00     0.010 A 
HETATM   11  C9  UNL     1      -6.095 -10.997   2.680  1.00  0.00     0.001 A 
HETATM   12  C10 UNL     1      -6.891 -10.705   1.586  1.00  0.00     0.001 A 
HETATM   13  C11 UNL     1      -8.152 -10.185   1.796  1.00  0.00     0.007 A 
HETATM   14  C12 UNL     1      -8.659  -9.939   3.054  1.00  0.00    -0.053 A 
HETATM   15  C13 UNL     1     -10.012  -9.383   3.191  1.00  0.00     0.049 C 
ENDBRANCH   5   9
ENDBRANCH   1   5
BRANCH   3  16
HETATM   16  C4  UNL     1      -5.817  -9.193   8.280  1.00  0.00     0.280 C 
BRANCH  16  17
HETATM   17  C5  UNL     1      -5.225 -10.161   9.240  1.00  0.00     0.206 C 
HETATM   18  O3  UNL     1      -5.905 -11.104   9.709  1.00  0.00    -0.646 OA
HETATM   19  O4  UNL     1      -3.902  -9.995   9.604  1.00  0.00    -0.646 OA
ENDBRANCH  16  17
BRANCH  16  20
HETATM   20  C6  UNL     1      -6.379  -7.993   8.944  1.00  0.00     0.269 C 
HETATM   21  O5  UNL     1      -6.960  -8.149  10.046  1.00  0.00    -0.269 OA
HETATM   22  N3  UNL     1      -6.292  -6.698   8.396  1.00  0.00    -0.274 N 
ATOM     23  H3  UNL     1      -5.824  -6.559   7.501  1.00  0.00     0.189 HD
BRANCH  22  24
HETATM   24  N4  UNL     1      -6.836  -5.609   9.062  1.00  0.00    -0.343 N 
ATOM     25  H42 UNL     1      -6.389  -5.286   9.920  1.00  0.00     0.176 HD
ATOM     26  H41 UNL     1      -7.668  -5.141   8.702  1.00  0.00     0.176 HD
ENDBRANCH  22  24
ENDBRANCH  16  20
ENDBRANCH   3  16
TORSDOF 8
ENDMDL
