MODEL 1
REMARK VINA RESULT: -7.521882146      0.000      0.000
REMARK  8 active torsions:
REMARK  status: ('A' for Active; 'I' for Inactive)
REMARK    1  A    between atoms: O1_2  and  C2_3 
REMARK    2  A    between atoms: C4_5  and  C5_6 
REMARK    3  A    between atoms: C5_6  and  C6_7 
REMARK    4  A    between atoms: C6_7  and  C7_8 
REMARK    5  A    between atoms: C6_7  and  N1_10 
REMARK       I    between atoms: N1_10  and  C8_12 
REMARK    6  A    between atoms: C10_18  and  S1_19 
REMARK    7  A    between atoms: S1_19  and  N4_20 
REMARK    8  A    between atoms: C11_25  and  O5_26 
ROOT
HETATM    1  C2  UNL     1      -8.137  -9.688   7.031  1.00  0.00     0.103 A 
HETATM    2  C3  UNL     1      -7.871  -8.999   5.841  1.00  0.00     0.047 A 
HETATM    3  C4  UNL     1      -6.774  -8.160   5.752  1.00  0.00    -0.051 A 
HETATM    4  C9  UNL     1      -5.942  -8.003   6.835  1.00  0.00     0.035 A 
HETATM    5  C10 UNL     1      -6.221  -8.690   7.997  1.00  0.00     0.115 A 
HETATM    6  C11 UNL     1      -7.306  -9.535   8.123  1.00  0.00     0.122 A 
ENDROOT
BRANCH   3   7
HETATM    7  C5  UNL     1      -6.460  -7.412   4.501  1.00  0.00     0.070 C 
BRANCH   7   8
HETATM    8  C6  UNL     1      -5.389  -8.112   3.690  1.00  0.00     0.149 C 
BRANCH   8   9
HETATM    9  C7  UNL     1      -5.868  -9.390   3.115  1.00  0.00     0.256 C 
HETATM   10  O2  UNL     1      -5.631  -9.699   1.954  1.00  0.00    -0.305 OA
ENDBRANCH   8   9
BRANCH   8  11
HETATM   11  N1  UNL     1      -4.986  -7.245   2.627  1.00  0.00    -0.354 N 
HETATM   12  C8  UNL     1      -3.727  -6.576   2.736  1.00  0.00     0.182 C 
HETATM   13  N2  UNL     1      -3.373  -6.076   3.875  1.00  0.00    -0.374 N 
HETATM   14  N3  UNL     1      -2.900  -6.475   1.593  1.00  0.00    -0.064 NA
ATOM     15  H22 UNL     1      -3.970  -6.147   4.700  1.00  0.00     0.158 HD
ATOM     16  H21 UNL     1      -2.475  -5.598   3.953  1.00  0.00     0.158 HD
ATOM     17  H1  UNL     1      -5.581  -7.108   1.810  1.00  0.00     0.163 HD
ENDBRANCH   8  11
ENDBRANCH   7   8
ENDBRANCH   3   7
BRANCH   1  18
HETATM   18  O1  UNL     1      -9.235 -10.539   7.148  1.00  0.00    -0.353 OA
HETATM   19  C1  UNL     1      -9.892 -10.926   5.970  1.00  0.00     0.210 C 
ENDBRANCH   1  18
BRANCH   5  20
HETATM   20  S1  UNL     1      -5.186  -8.515   9.391  1.00  0.00     0.259 S 
HETATM   21  O3  UNL     1      -4.192  -7.411   9.184  1.00  0.00    -0.201 OA
HETATM   22  O4  UNL     1      -4.385  -9.782   9.565  1.00  0.00    -0.201 OA
BRANCH  20  23
HETATM   23  N4  UNL     1      -6.155  -8.188  10.770  1.00  0.00    -0.324 N 
ATOM     24  H42 UNL     1      -6.061  -8.659  11.670  1.00  0.00     0.169 HD
ATOM     25  H41 UNL     1      -6.826  -7.456  10.538  1.00  0.00     0.169 HD
ENDBRANCH  20  23
ENDBRANCH   5  20
BRANCH   6  26
HETATM   26  O5  UNL     1      -7.603 -10.233   9.281  1.00  0.00    -0.357 OA
ATOM     27  H5  UNL     1      -7.036 -10.122  10.035  1.00  0.00     0.218 HD
ENDBRANCH   6  26
TORSDOF 8
ENDMDL
MODEL 2
REMARK VINA RESULT: -7.509497836      3.757      5.596
REMARK  8 active torsions:
REMARK  status: ('A' for Active; 'I' for Inactive)
REMARK    1  A    between atoms: O1_2  and  C2_3 
REMARK    2  A    between atoms: C4_5  and  C5_6 
REMARK    3  A    between atoms: C5_6  and  C6_7 
REMARK    4  A    between atoms: C6_7  and  C7_8 
REMARK    5  A    between atoms: C6_7  and  N1_10 
REMARK       I    between atoms: N1_10  and  C8_12 
REMARK    6  A    between atoms: C10_18  and  S1_19 
REMARK    7  A    between atoms: S1_19  and  N4_20 
REMARK    8  A    between atoms: C11_25  and  O5_26 
ROOT
HETATM    1  C2  UNL     1      -7.138  -8.682   5.356  1.00  0.00     0.103 A 
HETATM    2  C3  UNL     1      -8.320  -9.427   5.270  1.00  0.00     0.047 A 
HETATM    3  C4  UNL     1      -8.792 -10.114   6.375  1.00  0.00    -0.051 A 
HETATM    4  C9  UNL     1      -8.098 -10.064   7.560  1.00  0.00     0.035 A 
HETATM    5  C10 UNL     1      -6.936  -9.326   7.623  1.00  0.00     0.115 A 
HETATM    6  C11 UNL     1      -6.434  -8.628   6.543  1.00  0.00     0.122 A 
ENDROOT
BRANCH   3   7
HETATM    7  C5  UNL     1     -10.047 -10.917   6.319  1.00  0.00     0.070 C 
BRANCH   7   8
HETATM    8  C6  UNL     1     -10.949 -10.458   5.191  1.00  0.00     0.149 C 
BRANCH   8   9
HETATM    9  C7  UNL     1     -11.041 -11.460   4.105  1.00  0.00     0.256 C 
HETATM   10  O2  UNL     1     -10.177 -12.314   3.947  1.00  0.00    -0.305 OA
ENDBRANCH   8   9
BRANCH   8  11
HETATM   11  N1  UNL     1     -12.256 -10.224   5.722  1.00  0.00    -0.354 N 
HETATM   12  C8  UNL     1     -13.160  -9.412   4.969  1.00  0.00     0.182 C 
HETATM   13  N2  UNL     1     -12.719  -8.343   4.389  1.00  0.00    -0.374 N 
HETATM   14  N3  UNL     1     -14.518  -9.799   4.877  1.00  0.00    -0.064 NA
ATOM     15  H22 UNL     1     -11.740  -8.064   4.455  1.00  0.00     0.158 HD
ATOM     16  H21 UNL     1     -13.364  -7.764   3.851  1.00  0.00     0.158 HD
ATOM     17  H1  UNL     1     -12.537 -10.627   6.616  1.00  0.00     0.163 HD
ENDBRANCH   8  11
ENDBRANCH   7   8
ENDBRANCH   3   7
BRANCH   1  18
HETATM   18  O1  UNL     1      -6.639  -7.980   4.258  1.00  0.00    -0.353 OA
HETATM   19  C1  UNL     1      -6.047  -8.719   3.223  1.00  0.00     0.210 C 
ENDBRANCH   1  18
BRANCH   5  20
HETATM   20  S1  UNL     1      -6.030  -9.241   9.113  1.00  0.00     0.259 S 
HETATM   21  O3  UNL     1      -4.570  -9.032   8.841  1.00  0.00    -0.201 OA
HETATM   22  O4  UNL     1      -6.145 -10.564   9.829  1.00  0.00    -0.201 OA
BRANCH  20  23
HETATM   23  N4  UNL     1      -6.644  -7.952  10.068  1.00  0.00    -0.324 N 
ATOM     24  H42 UNL     1      -6.183  -7.051  10.192  1.00  0.00     0.169 HD
ATOM     25  H41 UNL     1      -7.531  -8.239  10.481  1.00  0.00     0.169 HD
ENDBRANCH  20  23
ENDBRANCH   5  20
BRANCH   6  26
HETATM   26  O5  UNL     1      -5.269  -7.880   6.587  1.00  0.00    -0.357 OA
ATOM     27  H5  UNL     1      -4.480  -8.250   6.209  1.00  0.00     0.218 HD
ENDBRANCH   6  26
TORSDOF 8
ENDMDL
MODEL 3
REMARK VINA RESULT: -7.491938777      3.460      6.083
REMARK  8 active torsions:
REMARK  status: ('A' for Active; 'I' for Inactive)
REMARK    1  A    between atoms: O1_2  and  C2_3 
REMARK    2  A    between atoms: C4_5  and  C5_6 
REMARK    3  A    between atoms: C5_6  and  C6_7 
REMARK    4  A    between atoms: C6_7  and  C7_8 
REMARK    5  A    between atoms: C6_7  and  N1_10 
REMARK       I    between atoms: N1_10  and  C8_12 
REMARK    6  A    between atoms: C10_18  and  S1_19 
REMARK    7  A    between atoms: S1_19  and  N4_20 
REMARK    8  A    between atoms: C11_25  and  O5_26 
ROOT
HETATM    1  C2  UNL     1      -6.231  -9.332   3.938  1.00  0.00     0.103 A 
HETATM    2  C3  UNL     1      -5.579  -9.007   5.134  1.00  0.00     0.047 A 
HETATM    3  C4  UNL     1      -6.183  -9.271   6.351  1.00  0.00    -0.051 A 
HETATM    4  C9  UNL     1      -7.428  -9.855   6.385  1.00  0.00     0.035 A 
HETATM    5  C10 UNL     1      -8.053 -10.165   5.196  1.00  0.00     0.115 A 
HETATM    6  C11 UNL     1      -7.482  -9.917   3.964  1.00  0.00     0.122 A 
ENDROOT
BRANCH   3   7
HETATM    7  C5  UNL     1      -5.518  -8.940   7.643  1.00  0.00     0.070 C 
BRANCH   7   8
HETATM    8  C6  UNL     1      -6.201  -9.624   8.809  1.00  0.00     0.149 C 
BRANCH   8   9
HETATM    9  C7  UNL     1      -5.242 -10.354   9.669  1.00  0.00     0.256 C 
HETATM   10  O2  UNL     1      -4.078  -9.989   9.786  1.00  0.00    -0.305 OA
ENDBRANCH   8   9
BRANCH   8  11
HETATM   11  N1  UNL     1      -6.865  -8.629   9.593  1.00  0.00    -0.354 N 
HETATM   12  C8  UNL     1      -6.378  -7.286   9.540  1.00  0.00     0.182 C 
HETATM   13  N2  UNL     1      -5.102  -7.074   9.543  1.00  0.00    -0.374 N 
HETATM   14  N3  UNL     1      -7.306  -6.220   9.488  1.00  0.00    -0.064 NA
ATOM     15  H22 UNL     1      -4.432  -7.843   9.581  1.00  0.00     0.158 HD
ATOM     16  H21 UNL     1      -4.755  -6.116   9.506  1.00  0.00     0.158 HD
ATOM     17  H1  UNL     1      -7.667  -8.872  10.175  1.00  0.00     0.163 HD
ENDBRANCH   8  11
ENDBRANCH   7   8
ENDBRANCH   3   7
BRANCH   1  18
HETATM   18  O1  UNL     1      -5.646  -9.077   2.698  1.00  0.00    -0.353 OA
HETATM   19  C1  UNL     1      -5.421  -7.738   2.344  1.00  0.00     0.210 C 
ENDBRANCH   1  18
BRANCH   5  20
HETATM   20  S1  UNL     1      -9.633 -10.907   5.204  1.00  0.00     0.259 S 
HETATM   21  O3  UNL     1      -9.616 -12.212   4.465  1.00  0.00    -0.201 OA
HETATM   22  O4  UNL     1     -10.595 -10.010   4.463  1.00  0.00    -0.201 OA
BRANCH  20  23
HETATM   23  N4  UNL     1     -10.127 -11.154   6.830  1.00  0.00    -0.324 N 
ATOM     24  H42 UNL     1     -10.173 -12.063   7.290  1.00  0.00     0.169 HD
ATOM     25  H41 UNL     1     -10.361 -10.253   7.246  1.00  0.00     0.169 HD
ENDBRANCH  20  23
ENDBRANCH   5  20
BRANCH   6  26
HETATM   26  O5  UNL     1      -8.094 -10.222   2.760  1.00  0.00    -0.357 OA
ATOM     27  H5  UNL     1      -7.843 -11.023   2.315  1.00  0.00     0.218 HD
ENDBRANCH   6  26
TORSDOF 8
ENDMDL
MODEL 4
REMARK VINA RESULT: -7.476077037      3.925      5.834
REMARK  8 active torsions:
REMARK  status: ('A' for Active; 'I' for Inactive)
REMARK    1  A    between atoms: O1_2  and  C2_3 
REMARK    2  A    between atoms: C4_5  and  C5_6 
REMARK    3  A    between atoms: C5_6  and  C6_7 
REMARK    4  A    between atoms: C6_7  and  C7_8 
REMARK    5  A    between atoms: C6_7  and  N1_10 
REMARK       I    between atoms: N1_10  and  C8_12 
REMARK    6  A    between atoms: C10_18  and  S1_19 
REMARK    7  A    between atoms: S1_19  and  N4_20 
REMARK    8  A    between atoms: C11_25  and  O5_26 
ROOT
HETATM    1  C2  UNL     1      -6.903  -9.293   4.736  1.00  0.00     0.103 A 
HETATM    2  C3  UNL     1      -8.076 -10.049   4.855  1.00  0.00     0.047 A 
HETATM    3  C4  UNL     1      -8.755 -10.097   6.060  1.00  0.00    -0.051 A 
HETATM    4  C9  UNL     1      -8.276  -9.399   7.144  1.00  0.00     0.035 A 
HETATM    5  C10 UNL     1      -7.120  -8.662   7.005  1.00  0.00     0.115 A 
HETATM    6  C11 UNL     1      -6.416  -8.590   5.820  1.00  0.00     0.122 A 
ENDROOT
BRANCH   3   7
HETATM    7  C5  UNL     1     -10.006 -10.891   6.222  1.00  0.00     0.070 C 
BRANCH   7   8
HETATM    8  C6  UNL     1     -11.007 -10.578   5.128  1.00  0.00     0.149 C 
BRANCH   8   9
HETATM    9  C7  UNL     1     -11.173 -11.705   4.182  1.00  0.00     0.256 C 
HETATM   10  O2  UNL     1     -12.097 -12.501   4.290  1.00  0.00    -0.305 OA
ENDBRANCH   8   9
BRANCH   8  11
HETATM   11  N1  UNL     1     -12.268 -10.290   5.736  1.00  0.00    -0.354 N 
HETATM   12  C8  UNL     1     -13.172  -9.423   5.047  1.00  0.00     0.182 C 
HETATM   13  N2  UNL     1     -12.713  -8.368   4.457  1.00  0.00    -0.374 N 
HETATM   14  N3  UNL     1     -14.551  -9.742   5.029  1.00  0.00    -0.064 NA
ATOM     15  H22 UNL     1     -11.719  -8.137   4.471  1.00  0.00     0.158 HD
ATOM     16  H21 UNL     1     -13.358  -7.749   3.966  1.00  0.00     0.158 HD
ATOM     17  H1  UNL     1     -12.517 -10.693   6.640  1.00  0.00     0.163 HD
ENDBRANCH   8  11
ENDBRANCH   7   8
ENDBRANCH   3   7
BRANCH   1  18
HETATM   18  O1  UNL     1      -6.198  -9.228   3.534  1.00  0.00    -0.353 OA
HETATM   19  C1  UNL     1      -6.319 -10.307   2.646  1.00  0.00     0.210 C 
ENDBRANCH   1  18
BRANCH   5  20
HETATM   20  S1  UNL     1      -6.486  -7.763   8.361  1.00  0.00     0.259 S 
HETATM   21  O3  UNL     1      -5.013  -7.997   8.516  1.00  0.00    -0.201 OA
HETATM   22  O4  UNL     1      -7.133  -8.270   9.627  1.00  0.00    -0.201 OA
BRANCH  20  23
HETATM   23  N4  UNL     1      -6.797  -6.092   8.119  1.00  0.00    -0.324 N 
ATOM     24  H42 UNL     1      -6.319  -5.506   7.435  1.00  0.00     0.169 HD
ATOM     25  H41 UNL     1      -7.528  -5.794   8.765  1.00  0.00     0.169 HD
ENDBRANCH  20  23
ENDBRANCH   5  20
BRANCH   6  26
HETATM   26  O5  UNL     1      -5.253  -7.855   5.662  1.00  0.00    -0.357 OA
ATOM     27  H5  UNL     1      -4.424  -8.270   5.869  1.00  0.00     0.218 HD
ENDBRANCH   6  26
TORSDOF 8
ENDMDL
MODEL 5
REMARK VINA RESULT: -7.448776332      3.902      5.691
REMARK  8 active torsions:
REMARK  status: ('A' for Active; 'I' for Inactive)
REMARK    1  A    between atoms: O1_2  and  C2_3 
REMARK    2  A    between atoms: C4_5  and  C5_6 
REMARK    3  A    between atoms: C5_6  and  C6_7 
REMARK    4  A    between atoms: C6_7  and  C7_8 
REMARK    5  A    between atoms: C6_7  and  N1_10 
REMARK       I    between atoms: N1_10  and  C8_12 
REMARK    6  A    between atoms: C10_18  and  S1_19 
REMARK    7  A    between atoms: S1_19  and  N4_20 
REMARK    8  A    between atoms: C11_25  and  O5_26 
ROOT
HETATM    1  C2  UNL     1      -7.168  -8.748   5.042  1.00  0.00     0.103 A 
HETATM    2  C3  UNL     1      -8.299  -9.562   4.901  1.00  0.00     0.047 A 
HETATM    3  C4  UNL     1      -8.824 -10.220   5.999  1.00  0.00    -0.051 A 
HETATM    4  C9  UNL     1      -8.233 -10.074   7.232  1.00  0.00     0.035 A 
HETATM    5  C10 UNL     1      -7.121  -9.269   7.349  1.00  0.00     0.115 A 
HETATM    6  C11 UNL     1      -6.569  -8.597   6.277  1.00  0.00     0.122 A 
ENDROOT
BRANCH   3   7
HETATM    7  C5  UNL     1     -10.026 -11.094   5.886  1.00  0.00     0.070 C 
BRANCH   7   8
HETATM    8  C6  UNL     1     -11.016 -10.547   4.878  1.00  0.00     0.149 C 
BRANCH   8   9
HETATM    9  C7  UNL     1     -11.224 -11.471   3.740  1.00  0.00     0.256 C 
HETATM   10  O2  UNL     1     -10.457 -12.401   3.521  1.00  0.00    -0.305 OA
ENDBRANCH   8   9
BRANCH   8  11
HETATM   11  N1  UNL     1     -12.266 -10.333   5.538  1.00  0.00    -0.354 N 
HETATM   12  C8  UNL     1     -13.206  -9.438   4.940  1.00  0.00     0.182 C 
HETATM   13  N2  UNL     1     -12.785  -8.332   4.418  1.00  0.00    -0.374 N 
HETATM   14  N3  UNL     1     -14.578  -9.785   4.934  1.00  0.00    -0.064 NA
ATOM     15  H22 UNL     1     -11.796  -8.081   4.422  1.00  0.00     0.158 HD
ATOM     16  H21 UNL     1     -13.456  -7.693   3.991  1.00  0.00     0.158 HD
ATOM     17  H1  UNL     1     -12.481 -10.807   6.416  1.00  0.00     0.163 HD
ENDBRANCH   8  11
ENDBRANCH   7   8
ENDBRANCH   3   7
BRANCH   1  18
HETATM   18  O1  UNL     1      -6.617  -8.073   3.952  1.00  0.00    -0.353 OA
HETATM   19  C1  UNL     1      -5.996  -8.840   2.954  1.00  0.00     0.210 C 
ENDBRANCH   1  18
BRANCH   5  20
HETATM   20  S1  UNL     1      -6.348  -9.061   8.900  1.00  0.00     0.259 S 
HETATM   21  O3  UNL     1      -6.865  -7.838   9.597  1.00  0.00    -0.201 OA
HETATM   22  O4  UNL     1      -4.871  -8.834   8.681  1.00  0.00    -0.201 OA
BRANCH  20  23
HETATM   23  N4  UNL     1      -6.635 -10.455   9.860  1.00  0.00    -0.324 N 
ATOM     24  H42 UNL     1      -6.531 -11.416   9.533  1.00  0.00     0.169 HD
ATOM     25  H41 UNL     1      -6.921 -10.162  10.793  1.00  0.00     0.169 HD
ENDBRANCH  20  23
ENDBRANCH   5  20
BRANCH   6  26
HETATM   26  O5  UNL     1      -5.452  -7.784   6.374  1.00  0.00    -0.357 OA
ATOM     27  H5  UNL     1      -5.156  -7.326   5.596  1.00  0.00     0.218 HD
ENDBRANCH   6  26
TORSDOF 8
ENDMDL
