MODEL 1
REMARK VINA RESULT: -7.214101019      0.000      0.000
REMARK  10 active torsions:
REMARK  status: ('A' for Active; 'I' for Inactive)
REMARK    1  A    between atoms: O1_2  and  C2_3 
REMARK    2  A    between atoms: C3_4  and  C4_5 
REMARK    3  A    between atoms: C3_4  and  C11_23 
REMARK    4  A    between atoms: C4_5  and  N1_6 
REMARK    5  A    between atoms: C4_5  and  C5_10 
REMARK       I    between atoms: C5_10  and  N2_12 
REMARK    6  A    between atoms: N2_12  and  C6_14 
REMARK    7  A    between atoms: C6_14  and  C7_15 
REMARK    8  A    between atoms: C6_14  and  C10_20 
REMARK    9  A    between atoms: C7_15  and  C8_16 
REMARK   10  A    between atoms: C8_16  and  C9_17 
ROOT
HETATM    1  C4  UNL     1      -9.871 -10.090   6.153  1.00  0.00     0.306 C 
ENDROOT
BRANCH   1   2
HETATM    2  C3  UNL     1     -10.113 -10.578   4.745  1.00  0.00    -0.011 C 
HETATM    3  C2  UNL     1      -9.373 -11.559   4.285  1.00  0.00     0.140 C 
BRANCH   3   4
HETATM    4  O1  UNL     1      -9.452 -12.121   3.048  1.00  0.00    -0.368 OA
HETATM    5  C1  UNL     1      -8.499 -11.954   2.022  1.00  0.00     0.208 C 
ENDBRANCH   3   4
BRANCH   2   6
HETATM    6  C11 UNL     1     -11.166  -9.979   3.946  1.00  0.00    -0.024 C 
HETATM    7  C12 UNL     1     -12.172 -10.928   3.341  1.00  0.00     0.019 C 
HETATM    8  C13 UNL     1     -10.632  -9.152   2.786  1.00  0.00     0.019 C 
HETATM    9  C14 UNL     1     -11.920  -8.961   4.817  1.00  0.00     0.019 C 
ENDBRANCH   2   6
ENDBRANCH   1   2
BRANCH   1  10
HETATM   10  N1  UNL     1      -9.652 -11.257   7.027  1.00  0.00    -0.062 N 
ATOM     11  H13 UNL     1      -9.068 -11.969   6.588  1.00  0.00     0.275 HD
ATOM     12  H12 UNL     1      -9.044 -11.045   7.818  1.00  0.00     0.275 HD
ATOM     13  H11 UNL     1     -10.559 -11.622   7.319  1.00  0.00     0.275 HD
ENDBRANCH   1  10
BRANCH   1  14
HETATM   14  C5  UNL     1      -8.630  -9.301   6.256  1.00  0.00     0.253 C 
HETATM   15  O2  UNL     1      -8.004  -9.013   5.190  1.00  0.00    -0.271 OA
HETATM   16  N2  UNL     1      -8.073  -8.833   7.463  1.00  0.00    -0.346 N 
ATOM     17  H2  UNL     1      -8.551  -9.048   8.337  1.00  0.00     0.163 HD
BRANCH  16  18
HETATM   18  C6  UNL     1      -6.833  -8.047   7.517  1.00  0.00     0.174 C 
BRANCH  18  19
HETATM   19  C7  UNL     1      -5.652  -8.933   7.640  1.00  0.00     0.043 C 
BRANCH  19  20
HETATM   20  C8  UNL     1      -5.931 -10.201   8.359  1.00  0.00     0.102 C 
BRANCH  20  21
HETATM   21  C9  UNL     1      -5.161 -10.281   9.653  1.00  0.00     0.231 C 
HETATM   22  N3  UNL     1      -4.119  -9.383   9.927  1.00  0.00    -0.062 NA
HETATM   23  O3  UNL     1      -5.478 -11.164  10.463  1.00  0.00    -0.277 OA
ENDBRANCH  20  21
ENDBRANCH  19  20
ENDBRANCH  18  19
BRANCH  18  24
HETATM   24  C10 UNL     1      -6.997  -6.975   8.487  1.00  0.00     0.254 C 
HETATM   25  N4  UNL     1      -6.857  -7.067   9.899  1.00  0.00    -0.060 NA
HETATM   26  O4  UNL     1      -7.300  -5.808   8.036  1.00  0.00    -0.275 OA
ENDBRANCH  18  24
ENDBRANCH  16  18
ENDBRANCH   1  14
TORSDOF 10
ENDMDL
MODEL 2
REMARK VINA RESULT: -6.925732127      3.326      6.790
REMARK  10 active torsions:
REMARK  status: ('A' for Active; 'I' for Inactive)
REMARK    1  A    between atoms: O1_2  and  C2_3 
REMARK    2  A    between atoms: C3_4  and  C4_5 
REMARK    3  A    between atoms: C3_4  and  C11_23 
REMARK    4  A    between atoms: C4_5  and  N1_6 
REMARK    5  A    between atoms: C4_5  and  C5_10 
REMARK       I    between atoms: C5_10  and  N2_12 
REMARK    6  A    between atoms: N2_12  and  C6_14 
REMARK    7  A    between atoms: C6_14  and  C7_15 
REMARK    8  A    between atoms: C6_14  and  C10_20 
REMARK    9  A    between atoms: C7_15  and  C8_16 
REMARK   10  A    between atoms: C8_16  and  C9_17 
ROOT
HETATM    1  C4  UNL     1      -9.173 -11.115   5.012  1.00  0.00     0.306 C 
ENDROOT
BRANCH   1   2
HETATM    2  C3  UNL     1      -8.025 -10.400   4.340  1.00  0.00    -0.011 C 
HETATM    3  C2  UNL     1      -7.359  -9.500   5.024  1.00  0.00     0.140 C 
BRANCH   3   4
HETATM    4  O1  UNL     1      -6.305  -8.763   4.581  1.00  0.00    -0.368 OA
HETATM    5  C1  UNL     1      -5.080  -8.613   5.263  1.00  0.00     0.208 C 
ENDBRANCH   3   4
BRANCH   2   6
HETATM    6  C11 UNL     1      -7.666 -10.738   2.975  1.00  0.00    -0.024 C 
HETATM    7  C12 UNL     1      -6.202 -10.992   2.709  1.00  0.00     0.019 C 
HETATM    8  C13 UNL     1      -8.088  -9.676   1.971  1.00  0.00     0.019 C 
HETATM    9  C14 UNL     1      -8.460 -11.987   2.557  1.00  0.00     0.019 C 
ENDBRANCH   2   6
ENDBRANCH   1   2
BRANCH   1  10
HETATM   10  N1  UNL     1      -8.893 -11.205   6.457  1.00  0.00    -0.062 N 
ATOM     11  H13 UNL     1      -8.912 -12.165   6.799  1.00  0.00     0.275 HD
ATOM     12  H12 UNL     1      -7.920 -10.995   6.680  1.00  0.00     0.275 HD
ATOM     13  H11 UNL     1      -9.547 -10.599   6.955  1.00  0.00     0.275 HD
ENDBRANCH   1  10
BRANCH   1  14
HETATM   14  C5  UNL     1     -10.429 -10.350   4.915  1.00  0.00     0.253 C 
HETATM   15  O2  UNL     1     -10.749  -9.585   5.876  1.00  0.00    -0.271 OA
HETATM   16  N2  UNL     1     -11.319 -10.400   3.823  1.00  0.00    -0.346 N 
ATOM     17  H2  UNL     1     -11.091 -11.006   3.035  1.00  0.00     0.163 HD
BRANCH  16  18
HETATM   18  C6  UNL     1     -12.561  -9.618   3.770  1.00  0.00     0.174 C 
BRANCH  18  19
HETATM   19  C7  UNL     1     -13.746 -10.506   3.796  1.00  0.00     0.043 C 
BRANCH  19  20
HETATM   20  C8  UNL     1     -13.633 -11.676   2.890  1.00  0.00     0.102 C 
BRANCH  20  21
HETATM   21  C9  UNL     1     -13.451 -12.956   3.665  1.00  0.00     0.231 C 
HETATM   22  N3  UNL     1     -13.787 -14.195   3.100  1.00  0.00    -0.062 NA
HETATM   23  O3  UNL     1     -12.996 -12.878   4.815  1.00  0.00    -0.277 OA
ENDBRANCH  20  21
ENDBRANCH  19  20
ENDBRANCH  18  19
BRANCH  18  24
HETATM   24  C10 UNL     1     -12.454  -8.638   2.699  1.00  0.00     0.254 C 
HETATM   25  N4  UNL     1     -11.471  -8.593   1.673  1.00  0.00    -0.060 NA
HETATM   26  O4  UNL     1     -13.339  -7.703   2.659  1.00  0.00    -0.275 OA
ENDBRANCH  18  24
ENDBRANCH  16  18
ENDBRANCH   1  14
TORSDOF 10
ENDMDL
MODEL 3
REMARK VINA RESULT: -6.901509471      3.525      6.919
REMARK  10 active torsions:
REMARK  status: ('A' for Active; 'I' for Inactive)
REMARK    1  A    between atoms: O1_2  and  C2_3 
REMARK    2  A    between atoms: C3_4  and  C4_5 
REMARK    3  A    between atoms: C3_4  and  C11_23 
REMARK    4  A    between atoms: C4_5  and  N1_6 
REMARK    5  A    between atoms: C4_5  and  C5_10 
REMARK       I    between atoms: C5_10  and  N2_12 
REMARK    6  A    between atoms: N2_12  and  C6_14 
REMARK    7  A    between atoms: C6_14  and  C7_15 
REMARK    8  A    between atoms: C6_14  and  C10_20 
REMARK    9  A    between atoms: C7_15  and  C8_16 
REMARK   10  A    between atoms: C8_16  and  C9_17 
ROOT
HETATM    1  C4  UNL     1      -9.133 -11.524   4.695  1.00  0.00     0.306 C 
ENDROOT
BRANCH   1   2
HETATM    2  C3  UNL     1      -8.257 -10.512   3.997  1.00  0.00    -0.011 C 
HETATM    3  C2  UNL     1      -7.966  -9.396   4.623  1.00  0.00     0.140 C 
BRANCH   3   4
HETATM    4  O1  UNL     1      -7.197  -8.379   4.149  1.00  0.00    -0.368 OA
HETATM    5  C1  UNL     1      -6.108  -7.802   4.834  1.00  0.00     0.208 C 
ENDBRANCH   3   4
BRANCH   2   6
HETATM    6  C11 UNL     1      -7.737 -10.801   2.674  1.00  0.00    -0.024 C 
HETATM    7  C12 UNL     1      -8.084  -9.812   1.586  1.00  0.00     0.019 C 
HETATM    8  C13 UNL     1      -8.173 -12.159   2.148  1.00  0.00     0.019 C 
HETATM    9  C14 UNL     1      -6.205 -10.907   2.763  1.00  0.00     0.019 C 
ENDBRANCH   2   6
ENDBRANCH   1   2
BRANCH   1  10
HETATM   10  N1  UNL     1      -8.855 -11.473   6.142  1.00  0.00    -0.062 N 
ATOM     11  H13 UNL     1      -8.226 -12.216   6.446  1.00  0.00     0.275 HD
ATOM     12  H12 UNL     1      -8.268 -10.679   6.399  1.00  0.00     0.275 HD
ATOM     13  H11 UNL     1      -9.742 -11.481   6.646  1.00  0.00     0.275 HD
ENDBRANCH   1  10
BRANCH   1  14
HETATM   14  C5  UNL     1     -10.564 -11.192   4.572  1.00  0.00     0.253 C 
HETATM   15  O2  UNL     1     -11.340 -11.483   5.533  1.00  0.00    -0.271 OA
HETATM   16  N2  UNL     1     -11.150 -10.565   3.453  1.00  0.00    -0.346 N 
ATOM     17  H2  UNL     1     -10.554 -10.318   2.663  1.00  0.00     0.163 HD
BRANCH  16  18
HETATM   18  C6  UNL     1     -12.582 -10.251   3.375  1.00  0.00     0.174 C 
BRANCH  18  19
HETATM   19  C7  UNL     1     -13.228 -11.003   2.274  1.00  0.00     0.043 C 
BRANCH  19  20
HETATM   20  C8  UNL     1     -14.090 -12.118   2.740  1.00  0.00     0.102 C 
BRANCH  20  21
HETATM   21  C9  UNL     1     -13.298 -13.388   2.916  1.00  0.00     0.231 C 
HETATM   22  N3  UNL     1     -12.087 -13.582   2.236  1.00  0.00    -0.062 NA
HETATM   23  O3  UNL     1     -13.751 -14.253   3.679  1.00  0.00    -0.277 OA
ENDBRANCH  20  21
ENDBRANCH  19  20
ENDBRANCH  18  19
BRANCH  18  24
HETATM   24  C10 UNL     1     -12.750  -8.806   3.417  1.00  0.00     0.254 C 
HETATM   25  N4  UNL     1     -12.984  -7.937   2.316  1.00  0.00    -0.060 NA
HETATM   26  O4  UNL     1     -12.685  -8.234   4.569  1.00  0.00    -0.275 OA
ENDBRANCH  18  24
ENDBRANCH  16  18
ENDBRANCH   1  14
TORSDOF 10
ENDMDL
MODEL 4
REMARK VINA RESULT: -6.832641604      2.023      3.444
REMARK  10 active torsions:
REMARK  status: ('A' for Active; 'I' for Inactive)
REMARK    1  A    between atoms: O1_2  and  C2_3 
REMARK    2  A    between atoms: C3_4  and  C4_5 
REMARK    3  A    between atoms: C3_4  and  C11_23 
REMARK    4  A    between atoms: C4_5  and  N1_6 
REMARK    5  A    between atoms: C4_5  and  C5_10 
REMARK       I    between atoms: C5_10  and  N2_12 
REMARK    6  A    between atoms: N2_12  and  C6_14 
REMARK    7  A    between atoms: C6_14  and  C7_15 
REMARK    8  A    between atoms: C6_14  and  C10_20 
REMARK    9  A    between atoms: C7_15  and  C8_16 
REMARK   10  A    between atoms: C8_16  and  C9_17 
ROOT
HETATM    1  C4  UNL     1      -9.557 -10.559   6.348  1.00  0.00     0.306 C 
ENDROOT
BRANCH   1   2
HETATM    2  C3  UNL     1     -10.142 -10.048   5.053  1.00  0.00    -0.011 C 
HETATM    3  C2  UNL     1      -9.323  -9.654   4.107  1.00  0.00     0.140 C 
BRANCH   3   4
HETATM    4  O1  UNL     1      -9.672  -9.169   2.885  1.00  0.00    -0.368 OA
HETATM    5  C1  UNL     1      -8.766  -8.843   1.855  1.00  0.00     0.208 C 
ENDBRANCH   3   4
BRANCH   2   6
HETATM    6  C11 UNL     1     -11.582 -10.029   4.872  1.00  0.00    -0.024 C 
HETATM    7  C12 UNL     1     -12.210  -8.675   4.644  1.00  0.00     0.019 C 
HETATM    8  C13 UNL     1     -12.335 -10.640   6.042  1.00  0.00     0.019 C 
HETATM    9  C14 UNL     1     -11.936 -10.935   3.682  1.00  0.00     0.019 C 
ENDBRANCH   2   6
ENDBRANCH   1   2
BRANCH   1  10
HETATM   10  N1  UNL     1      -8.870 -11.837   6.085  1.00  0.00    -0.062 N 
ATOM     11  H13 UNL     1      -8.741 -12.013   5.089  1.00  0.00     0.275 HD
ATOM     12  H12 UNL     1      -7.887 -11.814   6.353  1.00  0.00     0.275 HD
ATOM     13  H11 UNL     1      -9.384 -12.586   6.551  1.00  0.00     0.275 HD
ENDBRANCH   1  10
BRANCH   1  14
HETATM   14  C5  UNL     1      -8.507  -9.664   6.868  1.00  0.00     0.253 C 
HETATM   15  O2  UNL     1      -8.824  -8.478   7.189  1.00  0.00    -0.271 OA
HETATM   16  N2  UNL     1      -7.155 -10.026   7.040  1.00  0.00    -0.346 N 
ATOM     17  H2  UNL     1      -6.867 -10.971   6.790  1.00  0.00     0.163 HD
BRANCH  16  18
HETATM   18  C6  UNL     1      -6.142  -9.100   7.563  1.00  0.00     0.174 C 
BRANCH  18  19
HETATM   19  C7  UNL     1      -5.196  -8.696   6.498  1.00  0.00     0.043 C 
BRANCH  19  20
HETATM   20  C8  UNL     1      -5.524  -9.260   5.164  1.00  0.00     0.102 C 
BRANCH  20  21
HETATM   21  C9  UNL     1      -5.781  -8.170   4.154  1.00  0.00     0.231 C 
HETATM   22  N3  UNL     1      -5.163  -8.194   2.896  1.00  0.00    -0.062 NA
HETATM   23  O3  UNL     1      -6.554  -7.256   4.472  1.00  0.00    -0.277 OA
ENDBRANCH  20  21
ENDBRANCH  19  20
ENDBRANCH  18  19
BRANCH  18  24
HETATM   24  C10 UNL     1      -5.601  -9.645   8.799  1.00  0.00     0.254 C 
HETATM   25  N4  UNL     1      -4.334  -9.361   9.378  1.00  0.00    -0.060 NA
HETATM   26  O4  UNL     1      -6.336 -10.474   9.454  1.00  0.00    -0.275 OA
ENDBRANCH  18  24
ENDBRANCH  16  18
ENDBRANCH   1  14
TORSDOF 10
ENDMDL
MODEL 5
REMARK VINA RESULT: -6.830712569      2.820      6.868
REMARK  10 active torsions:
REMARK  status: ('A' for Active; 'I' for Inactive)
REMARK    1  A    between atoms: O1_2  and  C2_3 
REMARK    2  A    between atoms: C3_4  and  C4_5 
REMARK    3  A    between atoms: C3_4  and  C11_23 
REMARK    4  A    between atoms: C4_5  and  N1_6 
REMARK    5  A    between atoms: C4_5  and  C5_10 
REMARK       I    between atoms: C5_10  and  N2_12 
REMARK    6  A    between atoms: N2_12  and  C6_14 
REMARK    7  A    between atoms: C6_14  and  C7_15 
REMARK    8  A    between atoms: C6_14  and  C10_20 
REMARK    9  A    between atoms: C7_15  and  C8_16 
REMARK   10  A    between atoms: C8_16  and  C9_17 
ROOT
HETATM    1  C4  UNL     1      -8.729 -10.443   5.927  1.00  0.00     0.306 C 
ENDROOT
BRANCH   1   2
HETATM    2  C3  UNL     1      -7.746  -9.325   6.179  1.00  0.00    -0.011 C 
HETATM    3  C2  UNL     1      -7.978  -8.497   7.171  1.00  0.00     0.140 C 
BRANCH   3   4
HETATM    4  O1  UNL     1      -7.205  -7.440   7.540  1.00  0.00    -0.368 OA
HETATM    5  C1  UNL     1      -7.483  -6.572   8.615  1.00  0.00     0.208 C 
ENDBRANCH   3   4
BRANCH   2   6
HETATM    6  C11 UNL     1      -6.563  -9.204   5.347  1.00  0.00    -0.024 C 
HETATM    7  C12 UNL     1      -5.284  -8.818   6.051  1.00  0.00     0.019 C 
HETATM    8  C13 UNL     1      -6.731  -8.198   4.219  1.00  0.00     0.019 C 
HETATM    9  C14 UNL     1      -6.335 -10.543   4.626  1.00  0.00     0.019 C 
ENDBRANCH   2   6
ENDBRANCH   1   2
BRANCH   1  10
HETATM   10  N1  UNL     1      -9.320 -10.852   7.214  1.00  0.00    -0.062 N 
ATOM     11  H13 UNL     1      -9.610 -11.830   7.217  1.00  0.00     0.275 HD
ATOM     12  H12 UNL     1      -8.629 -10.909   7.961  1.00  0.00     0.275 HD
ATOM     13  H11 UNL     1     -10.086 -10.217   7.438  1.00  0.00     0.275 HD
ENDBRANCH   1  10
BRANCH   1  14
HETATM   14  C5  UNL     1      -9.871  -9.997   5.109  1.00  0.00     0.253 C 
HETATM   15  O2  UNL     1     -10.824  -9.384   5.681  1.00  0.00    -0.271 OA
HETATM   16  N2  UNL     1      -9.993 -10.199   3.719  1.00  0.00    -0.346 N 
ATOM     17  H2  UNL     1      -9.245 -10.689   3.230  1.00  0.00     0.163 HD
BRANCH  16  18
HETATM   18  C6  UNL     1     -11.151  -9.735   2.944  1.00  0.00     0.174 C 
BRANCH  18  19
HETATM   19  C7  UNL     1     -12.024 -10.871   2.567  1.00  0.00     0.043 C 
BRANCH  19  20
HETATM   20  C8  UNL     1     -13.173 -11.070   3.485  1.00  0.00     0.102 C 
BRANCH  20  21
HETATM   21  C9  UNL     1     -13.075 -12.389   4.209  1.00  0.00     0.231 C 
HETATM   22  N3  UNL     1     -13.545 -13.571   3.619  1.00  0.00    -0.062 NA
HETATM   23  O3  UNL     1     -12.567 -12.394   5.340  1.00  0.00    -0.277 OA
ENDBRANCH  20  21
ENDBRANCH  19  20
ENDBRANCH  18  19
BRANCH  18  24
HETATM   24  C10 UNL     1     -10.687  -8.840   1.894  1.00  0.00     0.254 C 
HETATM   25  N4  UNL     1      -9.345  -8.642   1.469  1.00  0.00    -0.060 NA
HETATM   26  O4  UNL     1     -11.574  -8.146   1.271  1.00  0.00    -0.275 OA
ENDBRANCH  18  24
ENDBRANCH  16  18
ENDBRANCH   1  14
TORSDOF 10
ENDMDL
