MODEL 1
REMARK VINA RESULT: -5.987129415      0.000      0.000
REMARK  8 active torsions:
REMARK  status: ('A' for Active; 'I' for Inactive)
REMARK    1  A    between atoms: C2_2  and  C3_3 
REMARK    2  A    between atoms: C3_3  and  N1_4 
REMARK    3  A    between atoms: N1_4  and  C4_5 
REMARK    4  A    between atoms: N1_4  and  C7_9 
REMARK    5  A    between atoms: C4_5  and  C5_6 
REMARK    6  A    between atoms: C8_12  and  N4_13 
REMARK    7  A    between atoms: C11_20  and  C12_21 
REMARK    8  A    between atoms: C12_21  and  C13_23 
ROOT
HETATM    1  C5  UNL     1      40.742  39.225  43.663  1.00  0.00     0.143 C 
HETATM    2  C6  UNL     1      42.123  39.353  43.086  1.00  0.00     0.060 C 
HETATM    3  N2  UNL     1      43.189  39.467  42.650  1.00  0.00    -0.197 NA
ENDROOT
BRANCH   1   4
HETATM    4  C4  UNL     1      39.918  40.219  42.932  1.00  0.00     0.138 C 
BRANCH   4   5
HETATM    5  N1  UNL     1      38.731  39.793  42.284  1.00  0.00    -0.365 N 
BRANCH   5   6
HETATM    6  C3  UNL     1      38.660  38.768  41.304  1.00  0.00     0.124 C 
BRANCH   6   7
HETATM    7  C2  UNL     1      39.719  38.731  40.250  1.00  0.00     0.015 C 
HETATM    8  C1  UNL     1      39.463  37.397  39.497  1.00  0.00     0.006 C 
ENDBRANCH   6   7
ENDBRANCH   5   6
BRANCH   5   9
HETATM    9  C7  UNL     1      37.525  40.463  42.645  1.00  0.00     0.135 A 
HETATM   10  N3  UNL     1      36.732  39.805  43.544  1.00  0.00    -0.176 N 
HETATM   11  C8  UNL     1      35.564  40.367  43.921  1.00  0.00     0.677 A 
ATOM     12  H3  UNL     1      37.019  38.903  43.925  1.00  0.00     0.186 HD
HETATM   13  N5  UNL     1      35.216  41.547  43.408  1.00  0.00    -0.195 N 
HETATM   14  C9  UNL     1      35.990  42.200  42.523  1.00  0.00     0.040 A 
ATOM     15  H5  UNL     1      34.334  41.969  43.696  1.00  0.00     0.184 HD
HETATM   16  C10 UNL     1      35.512  43.501  42.014  1.00  0.00     0.070 C 
HETATM   17  C11 UNL     1      37.196  41.657  42.112  1.00  0.00     0.077 A 
BRANCH  11  18
HETATM   18  N4  UNL     1      34.818  39.721  44.785  1.00  0.00    -0.234 N 
ATOM     19  H42 UNL     1      34.547  38.745  44.659  1.00  0.00     0.174 HD
ATOM     20  H41 UNL     1      34.498  40.222  45.613  1.00  0.00     0.174 HD
ENDBRANCH  11  18
BRANCH  17  21
HETATM   21  C12 UNL     1      38.018  42.377  41.183  1.00  0.00     0.170 C 
HETATM   22  O1  UNL     1      38.601  43.408  41.674  1.00  0.00    -0.292 OA
BRANCH  21  23
HETATM   23  C13 UNL     1      38.268  42.089  39.775  1.00  0.00     0.078 A 
HETATM   24  C14 UNL     1      37.917  43.026  38.703  1.00  0.00    -0.029 A 
HETATM   25  C15 UNL     1      37.090  44.257  38.948  1.00  0.00     0.016 C 
HETATM   26  C16 UNL     1      38.842  43.176  37.504  1.00  0.00     0.016 C 
HETATM   27  C17 UNL     1      37.277  41.665  38.785  1.00  0.00    -0.029 A 
HETATM   28  C18 UNL     1      35.802  41.683  38.940  1.00  0.00     0.016 C 
HETATM   29  C19 UNL     1      37.724  40.588  37.778  1.00  0.00     0.016 C 
ENDBRANCH  21  23
ENDBRANCH  17  21
ENDBRANCH   5   9
ENDBRANCH   4   5
ENDBRANCH   1   4
TORSDOF 8
ENDMDL
MODEL 2
REMARK VINA RESULT: -5.965588739      5.795      8.211
REMARK  8 active torsions:
REMARK  status: ('A' for Active; 'I' for Inactive)
REMARK    1  A    between atoms: C2_2  and  C3_3 
REMARK    2  A    between atoms: C3_3  and  N1_4 
REMARK    3  A    between atoms: N1_4  and  C4_5 
REMARK    4  A    between atoms: N1_4  and  C7_9 
REMARK    5  A    between atoms: C4_5  and  C5_6 
REMARK    6  A    between atoms: C8_12  and  N4_13 
REMARK    7  A    between atoms: C11_20  and  C12_21 
REMARK    8  A    between atoms: C12_21  and  C13_23 
ROOT
HETATM    1  C5  UNL     1      45.255  34.428  43.722  1.00  0.00     0.143 C 
HETATM    2  C6  UNL     1      46.432  35.296  44.064  1.00  0.00     0.060 C 
HETATM    3  N2  UNL     1      47.329  35.977  44.333  1.00  0.00    -0.197 NA
ENDROOT
BRANCH   1   4
HETATM    4  C4  UNL     1      44.600  35.093  42.569  1.00  0.00     0.138 C 
BRANCH   4   5
HETATM    5  N1  UNL     1      44.076  34.299  41.517  1.00  0.00    -0.365 N 
BRANCH   5   6
HETATM    6  C3  UNL     1      44.696  34.108  40.254  1.00  0.00     0.124 C 
BRANCH   6   7
HETATM    7  C2  UNL     1      45.948  34.871  39.964  1.00  0.00     0.015 C 
HETATM    8  C1  UNL     1      46.091  34.801  38.420  1.00  0.00     0.006 C 
ENDBRANCH   6   7
ENDBRANCH   5   6
BRANCH   5   9
HETATM    9  C7  UNL     1      42.825  33.658  41.756  1.00  0.00     0.135 A 
HETATM   10  N3  UNL     1      42.892  32.324  42.050  1.00  0.00    -0.176 N 
HETATM   11  C8  UNL     1      41.748  31.644  42.269  1.00  0.00     0.677 A 
ATOM     12  H3  UNL     1      43.794  31.850  42.102  1.00  0.00     0.186 HD
HETATM   13  N5  UNL     1      40.584  32.290  42.196  1.00  0.00    -0.195 N 
HETATM   14  C9  UNL     1      40.509  33.602  41.907  1.00  0.00     0.040 A 
ATOM     15  H5  UNL     1      39.721  31.773  42.364  1.00  0.00     0.184 HD
HETATM   16  C10 UNL     1      39.171  34.223  41.848  1.00  0.00     0.070 C 
HETATM   17  C11 UNL     1      41.662  34.335  41.676  1.00  0.00     0.077 A 
BRANCH  11  18
HETATM   18  N4  UNL     1      41.832  30.366  42.550  1.00  0.00    -0.234 N 
ATOM     19  H42 UNL     1      41.354  29.649  42.004  1.00  0.00     0.174 HD
ATOM     20  H41 UNL     1      42.400  30.086  43.349  1.00  0.00     0.174 HD
ENDBRANCH  11  18
BRANCH  17  21
HETATM   21  C12 UNL     1      41.565  35.737  41.390  1.00  0.00     0.170 C 
HETATM   22  O1  UNL     1      41.289  36.015  40.169  1.00  0.00    -0.292 OA
BRANCH  21  23
HETATM   23  C13 UNL     1      41.740  36.866  42.298  1.00  0.00     0.078 A 
HETATM   24  C14 UNL     1      40.607  37.590  42.883  1.00  0.00    -0.029 A 
HETATM   25  C15 UNL     1      39.189  37.365  42.439  1.00  0.00     0.016 C 
HETATM   26  C16 UNL     1      40.695  38.084  44.321  1.00  0.00     0.016 C 
HETATM   27  C17 UNL     1      41.580  38.282  41.965  1.00  0.00    -0.029 A 
HETATM   28  C18 UNL     1      40.975  38.842  40.732  1.00  0.00     0.016 C 
HETATM   29  C19 UNL     1      42.600  39.256  42.584  1.00  0.00     0.016 C 
ENDBRANCH  21  23
ENDBRANCH  17  21
ENDBRANCH   5   9
ENDBRANCH   4   5
ENDBRANCH   1   4
TORSDOF 8
ENDMDL
MODEL 3
REMARK VINA RESULT: -5.867628888      1.524      2.007
REMARK  8 active torsions:
REMARK  status: ('A' for Active; 'I' for Inactive)
REMARK    1  A    between atoms: C2_2  and  C3_3 
REMARK    2  A    between atoms: C3_3  and  N1_4 
REMARK    3  A    between atoms: N1_4  and  C4_5 
REMARK    4  A    between atoms: N1_4  and  C7_9 
REMARK    5  A    between atoms: C4_5  and  C5_6 
REMARK    6  A    between atoms: C8_12  and  N4_13 
REMARK    7  A    between atoms: C11_20  and  C12_21 
REMARK    8  A    between atoms: C12_21  and  C13_23 
ROOT
HETATM    1  C5  UNL     1      41.069  38.496  43.006  1.00  0.00     0.143 C 
HETATM    2  C6  UNL     1      42.277  38.102  42.204  1.00  0.00     0.060 C 
HETATM    3  N2  UNL     1      43.216  37.812  41.593  1.00  0.00    -0.197 NA
ENDROOT
BRANCH   1   4
HETATM    4  C4  UNL     1      40.541  39.715  42.346  1.00  0.00     0.138 C 
BRANCH   4   5
HETATM    5  N1  UNL     1      39.589  39.582  41.304  1.00  0.00    -0.365 N 
BRANCH   5   6
HETATM    6  C3  UNL     1      39.884  39.646  39.916  1.00  0.00     0.124 C 
BRANCH   6   7
HETATM    7  C2  UNL     1      39.932  38.363  39.150  1.00  0.00     0.015 C 
HETATM    8  C1  UNL     1      39.202  38.685  37.818  1.00  0.00     0.006 C 
ENDBRANCH   6   7
ENDBRANCH   5   6
BRANCH   5   9
HETATM    9  C7  UNL     1      38.232  39.380  41.694  1.00  0.00     0.135 A 
HETATM   10  N3  UNL     1      37.863  38.079  41.893  1.00  0.00    -0.176 N 
HETATM   11  C8  UNL     1      36.589  37.806  42.246  1.00  0.00     0.677 A 
ATOM     12  H3  UNL     1      38.540  37.325  41.777  1.00  0.00     0.186 HD
HETATM   13  N5  UNL     1      35.726  38.812  42.391  1.00  0.00    -0.195 N 
HETATM   14  C9  UNL     1      36.082  40.095  42.197  1.00  0.00     0.040 A 
ATOM     15  H5  UNL     1      34.765  38.603  42.659  1.00  0.00     0.184 HD
HETATM   16  C10 UNL     1      35.050  41.135  42.383  1.00  0.00     0.070 C 
HETATM   17  C11 UNL     1      37.380  40.416  41.835  1.00  0.00     0.077 A 
BRANCH  11  18
HETATM   18  N4  UNL     1      36.254  36.552  42.432  1.00  0.00    -0.234 N 
ATOM     19  H42 UNL     1      35.489  36.105  41.927  1.00  0.00     0.174 HD
ATOM     20  H41 UNL     1      36.785  36.009  43.113  1.00  0.00     0.174 HD
ENDBRANCH  11  18
BRANCH  17  21
HETATM   21  C12 UNL     1      37.746  41.790  41.652  1.00  0.00     0.170 C 
HETATM   22  O1  UNL     1      37.878  42.457  42.739  1.00  0.00    -0.292 OA
BRANCH  21  23
HETATM   23  C13 UNL     1      37.981  42.512  40.406  1.00  0.00     0.078 A 
HETATM   24  C14 UNL     1      37.027  43.487  39.867  1.00  0.00    -0.029 A 
HETATM   25  C15 UNL     1      35.650  43.669  40.440  1.00  0.00     0.016 C 
HETATM   26  C16 UNL     1      37.545  44.747  39.189  1.00  0.00     0.016 C 
HETATM   27  C17 UNL     1      37.364  42.231  39.109  1.00  0.00    -0.029 A 
HETATM   28  C18 UNL     1      36.209  41.337  38.849  1.00  0.00     0.016 C 
HETATM   29  C19 UNL     1      38.274  42.349  37.872  1.00  0.00     0.016 C 
ENDBRANCH  21  23
ENDBRANCH  17  21
ENDBRANCH   5   9
ENDBRANCH   4   5
ENDBRANCH   1   4
TORSDOF 8
ENDMDL
MODEL 4
REMARK VINA RESULT: -5.835987426      0.998      1.048
REMARK  8 active torsions:
REMARK  status: ('A' for Active; 'I' for Inactive)
REMARK    1  A    between atoms: C2_2  and  C3_3 
REMARK    2  A    between atoms: C3_3  and  N1_4 
REMARK    3  A    between atoms: N1_4  and  C4_5 
REMARK    4  A    between atoms: N1_4  and  C7_9 
REMARK    5  A    between atoms: C4_5  and  C5_6 
REMARK    6  A    between atoms: C8_12  and  N4_13 
REMARK    7  A    between atoms: C11_20  and  C12_21 
REMARK    8  A    between atoms: C12_21  and  C13_23 
ROOT
HETATM    1  C5  UNL     1      41.307  38.591  43.122  1.00  0.00     0.143 C 
HETATM    2  C6  UNL     1      42.411  38.048  42.260  1.00  0.00     0.060 C 
HETATM    3  N2  UNL     1      43.270  37.646  41.597  1.00  0.00    -0.197 NA
ENDROOT
BRANCH   1   4
HETATM    4  C4  UNL     1      40.560  39.535  42.254  1.00  0.00     0.138 C 
BRANCH   4   5
HETATM    5  N1  UNL     1      39.297  39.150  41.737  1.00  0.00    -0.365 N 
BRANCH   5   6
HETATM    6  C3  UNL     1      39.099  38.303  40.614  1.00  0.00     0.124 C 
BRANCH   6   7
HETATM    7  C2  UNL     1      40.038  38.440  39.459  1.00  0.00     0.015 C 
HETATM    8  C1  UNL     1      39.501  37.432  38.407  1.00  0.00     0.006 C 
ENDBRANCH   6   7
ENDBRANCH   5   6
BRANCH   5   9
HETATM    9  C7  UNL     1      38.145  39.669  42.398  1.00  0.00     0.135 A 
HETATM   10  N3  UNL     1      37.540  38.820  43.282  1.00  0.00    -0.176 N 
HETATM   11  C8  UNL     1      36.432  39.234  43.933  1.00  0.00     0.677 A 
ATOM     12  H3  UNL     1      37.919  37.888  43.448  1.00  0.00     0.186 HD
HETATM   13  N5  UNL     1      35.960  40.459  43.698  1.00  0.00    -0.195 N 
HETATM   14  C9  UNL     1      36.550  41.299  42.830  1.00  0.00     0.040 A 
ATOM     15  H5  UNL     1      35.124  40.768  44.192  1.00  0.00     0.184 HD
HETATM   16  C10 UNL     1      35.946  42.634  42.640  1.00  0.00     0.070 C 
HETATM   17  C11 UNL     1      37.689  40.912  42.142  1.00  0.00     0.077 A 
BRANCH  11  18
HETATM   18  N4  UNL     1      35.865  38.406  44.777  1.00  0.00    -0.234 N 
ATOM     19  H42 UNL     1      34.927  38.554  45.149  1.00  0.00     0.174 HD
ATOM     20  H41 UNL     1      36.392  37.583  45.070  1.00  0.00     0.174 HD
ENDBRANCH  11  18
BRANCH  17  21
HETATM   21  C12 UNL     1      38.316  41.829  41.236  1.00  0.00     0.170 C 
HETATM   22  O1  UNL     1      38.879  42.835  41.798  1.00  0.00    -0.292 OA
BRANCH  21  23
HETATM   23  C13 UNL     1      38.392  41.763  39.780  1.00  0.00     0.078 A 
HETATM   24  C14 UNL     1      37.950  42.863  38.916  1.00  0.00    -0.029 A 
HETATM   25  C15 UNL     1      37.199  44.052  39.446  1.00  0.00     0.016 C 
HETATM   26  C16 UNL     1      38.735  43.186  37.653  1.00  0.00     0.016 C 
HETATM   27  C17 UNL     1      37.279  41.516  38.863  1.00  0.00    -0.029 A 
HETATM   28  C18 UNL     1      35.833  41.531  39.194  1.00  0.00     0.016 C 
HETATM   29  C19 UNL     1      37.569  40.605  37.654  1.00  0.00     0.016 C 
ENDBRANCH  21  23
ENDBRANCH  17  21
ENDBRANCH   5   9
ENDBRANCH   4   5
ENDBRANCH   1   4
TORSDOF 8
ENDMDL
MODEL 5
REMARK VINA RESULT: -5.833990438      0.910      2.097
REMARK  8 active torsions:
REMARK  status: ('A' for Active; 'I' for Inactive)
REMARK    1  A    between atoms: C2_2  and  C3_3 
REMARK    2  A    between atoms: C3_3  and  N1_4 
REMARK    3  A    between atoms: N1_4  and  C4_5 
REMARK    4  A    between atoms: N1_4  and  C7_9 
REMARK    5  A    between atoms: C4_5  and  C5_6 
REMARK    6  A    between atoms: C8_12  and  N4_13 
REMARK    7  A    between atoms: C11_20  and  C12_21 
REMARK    8  A    between atoms: C12_21  and  C13_23 
ROOT
HETATM    1  C5  UNL     1      39.691  38.923  40.394  1.00  0.00     0.143 C 
HETATM    2  C6  UNL     1      40.704  37.857  40.700  1.00  0.00     0.060 C 
HETATM    3  N2  UNL     1      41.472  37.022  40.933  1.00  0.00    -0.197 NA
ENDROOT
BRANCH   1   4
HETATM    4  C4  UNL     1      38.752  38.914  41.542  1.00  0.00     0.138 C 
BRANCH   4   5
HETATM    5  N1  UNL     1      38.740  40.013  42.437  1.00  0.00    -0.365 N 
BRANCH   5   6
HETATM    6  C3  UNL     1      39.882  40.541  43.096  1.00  0.00     0.124 C 
BRANCH   6   7
HETATM    7  C2  UNL     1      40.476  39.747  44.214  1.00  0.00     0.015 C 
HETATM    8  C1  UNL     1      39.955  40.445  45.499  1.00  0.00     0.006 C 
ENDBRANCH   6   7
ENDBRANCH   5   6
BRANCH   5   9
HETATM    9  C7  UNL     1      37.475  40.619  42.695  1.00  0.00     0.135 A 
HETATM   10  N3  UNL     1      36.679  39.962  43.592  1.00  0.00    -0.176 N 
HETATM   11  C8  UNL     1      35.458  40.464  43.874  1.00  0.00     0.677 A 
ATOM     12  H3  UNL     1      37.002  39.104  44.041  1.00  0.00     0.186 HD
HETATM   13  N5  UNL     1      35.063  41.586  43.273  1.00  0.00    -0.195 N 
HETATM   14  C9  UNL     1      35.840  42.239  42.391  1.00  0.00     0.040 A 
ATOM     15  H5  UNL     1      34.141  41.964  43.490  1.00  0.00     0.184 HD
HETATM   16  C10 UNL     1      35.308  43.473  41.780  1.00  0.00     0.070 C 
HETATM   17  C11 UNL     1      37.100  41.756  42.075  1.00  0.00     0.077 A 
BRANCH  11  18
HETATM   18  N4  UNL     1      34.709  39.819  44.736  1.00  0.00    -0.234 N 
ATOM     19  H42 UNL     1      34.904  39.811  45.738  1.00  0.00     0.174 HD
ATOM     20  H41 UNL     1      33.901  39.307  44.383  1.00  0.00     0.174 HD
ENDBRANCH  11  18
BRANCH  17  21
HETATM   21  C12 UNL     1      37.923  42.475  41.147  1.00  0.00     0.170 C 
HETATM   22  O1  UNL     1      38.464  43.535  41.624  1.00  0.00    -0.292 OA
BRANCH  21  23
HETATM   23  C13 UNL     1      38.215  42.159  39.753  1.00  0.00     0.078 A 
HETATM   24  C14 UNL     1      37.876  43.065  38.650  1.00  0.00    -0.029 A 
HETATM   25  C15 UNL     1      37.024  44.287  38.844  1.00  0.00     0.016 C 
HETATM   26  C16 UNL     1      38.831  43.202  37.472  1.00  0.00     0.016 C 
HETATM   27  C17 UNL     1      37.258  41.695  38.748  1.00  0.00    -0.029 A 
HETATM   28  C18 UNL     1      35.779  41.692  38.864  1.00  0.00     0.016 C 
HETATM   29  C19 UNL     1      37.748  40.603  37.778  1.00  0.00     0.016 C 
ENDBRANCH  21  23
ENDBRANCH  17  21
ENDBRANCH   5   9
ENDBRANCH   4   5
ENDBRANCH   1   4
TORSDOF 8
ENDMDL
