MODEL 1
REMARK VINA RESULT: -6.527129687      0.000      0.000
REMARK  8 active torsions:
REMARK  status: ('A' for Active; 'I' for Inactive)
REMARK    1  A    between atoms: C2_2  and  C3_3 
REMARK    2  A    between atoms: C3_3  and  C13_18 
REMARK    3  A    between atoms: N1_4  and  C4_6 
REMARK    4  A    between atoms: C6_8  and  O1_9 
REMARK    5  A    between atoms: C8_11  and  O2_12 
REMARK    6  A    between atoms: C10_14  and  O3_15 
REMARK    7  A    between atoms: C18_25  and  C19_26 
REMARK    8  A    between atoms: C20_27  and  N3_28 
ROOT
HETATM    1  C3  UNL     1      37.034  42.810  40.786  1.00  0.00     0.023 C 
HETATM    2  N1  UNL     1      36.616  41.597  40.501  1.00  0.00    -0.359 N 
ATOM      3  H1  UNL     1      35.651  41.489  40.188  1.00  0.00     0.166 HD
ENDROOT
BRANCH   1   4
HETATM    4  C2  UNL     1      38.426  42.898  41.231  1.00  0.00     0.053 C 
HETATM    5  C1  UNL     1      38.623  42.977  42.714  1.00  0.00     0.011 C 
ENDBRANCH   1   4
BRANCH   1   6
HETATM    6  C13 UNL     1      36.110  43.889  40.590  1.00  0.00     0.029 A 
HETATM    7  C14 UNL     1      35.808  44.667  39.482  1.00  0.00     0.019 A 
HETATM    8  C15 UNL     1      36.419  44.616  38.148  1.00  0.00     0.069 C 
HETATM    9  N2  UNL     1      34.817  45.566  39.801  1.00  0.00    -0.361 N 
HETATM   10  C16 UNL     1      34.476  45.398  41.057  1.00  0.00     0.025 A 
ATOM     11  H2  UNL     1      34.412  46.251  39.164  1.00  0.00     0.165 HD
HETATM   12  C17 UNL     1      33.443  46.132  41.876  1.00  0.00     0.070 C 
HETATM   13  C18 UNL     1      35.245  44.381  41.577  1.00  0.00     0.055 A 
BRANCH  13  14
HETATM   14  C19 UNL     1      35.185  43.881  42.925  1.00  0.00    -0.041 C 
HETATM   15  C20 UNL     1      35.111  43.432  44.066  1.00  0.00     0.009 C 
BRANCH  15  16
HETATM   16  N3  UNL     1      35.001  42.921  45.360  1.00  0.00    -0.359 N 
ATOM     17  H32 UNL     1      34.657  42.669  44.433  1.00  0.00     0.166 HD
ATOM     18  H31 UNL     1      34.932  42.562  46.313  1.00  0.00     0.166 HD
ENDBRANCH  15  16
ENDBRANCH  13  14
ENDBRANCH   1   6
BRANCH   2  19
HETATM   19  C4  UNL     1      37.397  40.444  40.596  1.00  0.00     0.037 A 
HETATM   20  C5  UNL     1      37.269  39.576  41.671  1.00  0.00     0.069 A 
HETATM   21  C6  UNL     1      38.050  38.442  41.752  1.00  0.00     0.106 A 
HETATM   22  C8  UNL     1      38.969  38.157  40.762  1.00  0.00     0.135 A 
HETATM   23  C10 UNL     1      39.082  39.036  39.695  1.00  0.00     0.106 A 
HETATM   24  C12 UNL     1      38.319  40.178  39.583  1.00  0.00     0.069 A 
BRANCH  21  25
HETATM   25  O1  UNL     1      37.918  37.574  42.829  1.00  0.00    -0.353 OA
HETATM   26  C7  UNL     1      36.793  36.709  42.894  1.00  0.00     0.210 C 
ENDBRANCH  21  25
BRANCH  22  27
HETATM   27  O2  UNL     1      39.720  37.017  40.888  1.00  0.00    -0.351 OA
HETATM   28  C9  UNL     1      39.433  35.767  40.356  1.00  0.00     0.210 C 
ENDBRANCH  22  27
BRANCH  23  29
HETATM   29  O3  UNL     1      40.010  38.725  38.722  1.00  0.00    -0.353 OA
HETATM   30  C11 UNL     1      39.629  38.177  37.472  1.00  0.00     0.210 C 
ENDBRANCH  23  29
ENDBRANCH   2  19
TORSDOF 8
ENDMDL
MODEL 2
REMARK VINA RESULT: -6.497403440      3.774      7.571
REMARK  8 active torsions:
REMARK  status: ('A' for Active; 'I' for Inactive)
REMARK    1  A    between atoms: C2_2  and  C3_3 
REMARK    2  A    between atoms: C3_3  and  C13_18 
REMARK    3  A    between atoms: N1_4  and  C4_6 
REMARK    4  A    between atoms: C6_8  and  O1_9 
REMARK    5  A    between atoms: C8_11  and  O2_12 
REMARK    6  A    between atoms: C10_14  and  O3_15 
REMARK    7  A    between atoms: C18_25  and  C19_26 
REMARK    8  A    between atoms: C20_27  and  N3_28 
ROOT
HETATM    1  C3  UNL     1      36.673  41.472  42.620  1.00  0.00     0.023 C 
HETATM    2  N1  UNL     1      35.553  41.816  42.022  1.00  0.00    -0.359 N 
ATOM      3  H1  UNL     1      34.978  41.071  41.630  1.00  0.00     0.166 HD
ENDROOT
BRANCH   1   4
HETATM    4  C2  UNL     1      37.454  42.587  43.160  1.00  0.00     0.053 C 
HETATM    5  C1  UNL     1      38.733  42.884  42.439  1.00  0.00     0.011 C 
ENDBRANCH   1   4
BRANCH   1   6
HETATM    6  C13 UNL     1      36.970  40.073  42.710  1.00  0.00     0.029 A 
HETATM    7  C14 UNL     1      37.736  39.230  41.918  1.00  0.00     0.019 A 
HETATM    8  C15 UNL     1      38.456  39.559  40.681  1.00  0.00     0.069 C 
HETATM    9  N2  UNL     1      37.731  37.962  42.449  1.00  0.00    -0.361 N 
HETATM   10  C16 UNL     1      36.997  37.956  43.537  1.00  0.00     0.025 A 
ATOM     11  H2  UNL     1      38.218  37.155  42.060  1.00  0.00     0.165 HD
HETATM   12  C17 UNL     1      36.681  36.818  44.475  1.00  0.00     0.070 C 
HETATM   13  C18 UNL     1      36.512  39.231  43.733  1.00  0.00     0.055 A 
BRANCH  13  14
HETATM   14  C19 UNL     1      35.665  39.655  44.815  1.00  0.00    -0.041 C 
HETATM   15  C20 UNL     1      34.968  40.030  45.755  1.00  0.00     0.009 C 
BRANCH  15  16
HETATM   16  N3  UNL     1      34.194  40.447  46.838  1.00  0.00    -0.359 N 
ATOM     17  H32 UNL     1      34.597  39.569  46.511  1.00  0.00     0.166 HD
ATOM     18  H31 UNL     1      33.628  40.770  47.624  1.00  0.00     0.166 HD
ENDBRANCH  15  16
ENDBRANCH  13  14
ENDBRANCH   1   6
BRANCH   2  19
HETATM   19  C4  UNL     1      35.095  43.127  41.885  1.00  0.00     0.037 A 
HETATM   20  C5  UNL     1      35.387  43.876  40.755  1.00  0.00     0.069 A 
HETATM   21  C6  UNL     1      34.928  45.171  40.634  1.00  0.00     0.106 A 
HETATM   22  C8  UNL     1      34.172  45.738  41.640  1.00  0.00     0.135 A 
HETATM   23  C10 UNL     1      33.890  44.974  42.763  1.00  0.00     0.106 A 
HETATM   24  C12 UNL     1      34.332  43.677  42.916  1.00  0.00     0.069 A 
BRANCH  21  25
HETATM   25  O1  UNL     1      35.221  45.917  39.500  1.00  0.00    -0.353 OA
HETATM   26  C7  UNL     1      36.144  45.406  38.548  1.00  0.00     0.210 C 
ENDBRANCH  21  25
BRANCH  22  27
HETATM   27  O2  UNL     1      33.739  47.028  41.473  1.00  0.00    -0.351 OA
HETATM   28  C9  UNL     1      34.377  48.183  41.907  1.00  0.00     0.210 C 
ENDBRANCH  22  27
BRANCH  23  29
HETATM   29  O3  UNL     1      33.132  45.568  43.752  1.00  0.00    -0.353 OA
HETATM   30  C11 UNL     1      33.694  45.961  44.992  1.00  0.00     0.210 C 
ENDBRANCH  23  29
ENDBRANCH   2  19
TORSDOF 8
ENDMDL
MODEL 3
REMARK VINA RESULT: -6.489420689      0.463      2.479
REMARK  8 active torsions:
REMARK  status: ('A' for Active; 'I' for Inactive)
REMARK    1  A    between atoms: C2_2  and  C3_3 
REMARK    2  A    between atoms: C3_3  and  C13_18 
REMARK    3  A    between atoms: N1_4  and  C4_6 
REMARK    4  A    between atoms: C6_8  and  O1_9 
REMARK    5  A    between atoms: C8_11  and  O2_12 
REMARK    6  A    between atoms: C10_14  and  O3_15 
REMARK    7  A    between atoms: C18_25  and  C19_26 
REMARK    8  A    between atoms: C20_27  and  N3_28 
ROOT
HETATM    1  C3  UNL     1      36.957  42.831  40.866  1.00  0.00     0.023 C 
HETATM    2  N1  UNL     1      36.496  41.623  40.631  1.00  0.00    -0.359 N 
ATOM      3  H1  UNL     1      35.529  41.538  40.318  1.00  0.00     0.166 HD
ENDROOT
BRANCH   1   4
HETATM    4  C2  UNL     1      38.350  42.886  41.314  1.00  0.00     0.053 C 
HETATM    5  C1  UNL     1      38.545  42.979  42.797  1.00  0.00     0.011 C 
ENDBRANCH   1   4
BRANCH   1   6
HETATM    6  C13 UNL     1      36.076  43.934  40.618  1.00  0.00     0.029 A 
HETATM    7  C14 UNL     1      35.823  44.688  39.481  1.00  0.00     0.019 A 
HETATM    8  C15 UNL     1      36.459  44.576  38.162  1.00  0.00     0.069 C 
HETATM    9  N2  UNL     1      34.857  45.628  39.752  1.00  0.00    -0.361 N 
HETATM   10  C16 UNL     1      34.485  45.511  41.005  1.00  0.00     0.025 A 
ATOM     11  H2  UNL     1      34.489  46.308  39.087  1.00  0.00     0.165 HD
HETATM   12  C17 UNL     1      33.462  46.303  41.780  1.00  0.00     0.070 C 
HETATM   13  C18 UNL     1      35.208  44.484  41.571  1.00  0.00     0.055 A 
BRANCH  13  14
HETATM   14  C19 UNL     1      35.103  44.028  42.932  1.00  0.00    -0.041 C 
HETATM   15  C20 UNL     1      35.033  43.612  44.086  1.00  0.00     0.009 C 
BRANCH  15  16
HETATM   16  N3  UNL     1      34.949  43.116  45.387  1.00  0.00    -0.359 N 
ATOM     17  H32 UNL     1      34.370  43.093  44.547  1.00  0.00     0.166 HD
ATOM     18  H31 UNL     1      34.904  42.761  46.343  1.00  0.00     0.166 HD
ENDBRANCH  15  16
ENDBRANCH  13  14
ENDBRANCH   1   6
BRANCH   2  19
HETATM   19  C4  UNL     1      37.233  40.447  40.780  1.00  0.00     0.037 A 
HETATM   20  C5  UNL     1      38.258  40.126  39.902  1.00  0.00     0.069 A 
HETATM   21  C6  UNL     1      38.977  38.960  40.061  1.00  0.00     0.106 A 
HETATM   22  C8  UNL     1      38.684  38.097  41.099  1.00  0.00     0.135 A 
HETATM   23  C10 UNL     1      37.656  38.436  41.967  1.00  0.00     0.106 A 
HETATM   24  C12 UNL     1      36.918  39.592  41.837  1.00  0.00     0.069 A 
BRANCH  21  25
HETATM   25  O1  UNL     1      40.003  38.642  39.181  1.00  0.00    -0.353 OA
HETATM   26  C7  UNL     1      39.693  38.344  37.827  1.00  0.00     0.210 C 
ENDBRANCH  21  25
BRANCH  22  27
HETATM   27  O2  UNL     1      39.427  36.951  41.215  1.00  0.00    -0.351 OA
HETATM   28  C9  UNL     1      39.119  35.702  40.692  1.00  0.00     0.210 C 
ENDBRANCH  22  27
BRANCH  23  29
HETATM   29  O3  UNL     1      37.386  37.554  42.994  1.00  0.00    -0.353 OA
HETATM   30  C11 UNL     1      36.792  37.978  44.208  1.00  0.00     0.210 C 
ENDBRANCH  23  29
ENDBRANCH   2  19
TORSDOF 8
ENDMDL
MODEL 4
REMARK VINA RESULT: -6.484944769      3.772      7.181
REMARK  8 active torsions:
REMARK  status: ('A' for Active; 'I' for Inactive)
REMARK    1  A    between atoms: C2_2  and  C3_3 
REMARK    2  A    between atoms: C3_3  and  C13_18 
REMARK    3  A    between atoms: N1_4  and  C4_6 
REMARK    4  A    between atoms: C6_8  and  O1_9 
REMARK    5  A    between atoms: C8_11  and  O2_12 
REMARK    6  A    between atoms: C10_14  and  O3_15 
REMARK    7  A    between atoms: C18_25  and  C19_26 
REMARK    8  A    between atoms: C20_27  and  N3_28 
ROOT
HETATM    1  C3  UNL     1      36.670  41.463  42.623  1.00  0.00     0.023 C 
HETATM    2  N1  UNL     1      35.548  41.804  42.028  1.00  0.00    -0.359 N 
ATOM      3  H1  UNL     1      34.973  41.058  41.637  1.00  0.00     0.166 HD
ENDROOT
BRANCH   1   4
HETATM    4  C2  UNL     1      37.450  42.578  43.161  1.00  0.00     0.053 C 
HETATM    5  C1  UNL     1      38.729  42.876  42.440  1.00  0.00     0.011 C 
ENDBRANCH   1   4
BRANCH   1   6
HETATM    6  C13 UNL     1      36.971  40.064  42.712  1.00  0.00     0.029 A 
HETATM    7  C14 UNL     1      37.738  39.223  41.919  1.00  0.00     0.019 A 
HETATM    8  C15 UNL     1      38.456  39.554  40.681  1.00  0.00     0.069 C 
HETATM    9  N2  UNL     1      37.736  37.954  42.449  1.00  0.00    -0.361 N 
HETATM   10  C16 UNL     1      37.003  37.947  43.538  1.00  0.00     0.025 A 
ATOM     11  H2  UNL     1      38.224  37.149  42.059  1.00  0.00     0.165 HD
HETATM   12  C17 UNL     1      36.691  36.807  44.475  1.00  0.00     0.070 C 
HETATM   13  C18 UNL     1      36.516  39.220  43.734  1.00  0.00     0.055 A 
BRANCH  13  14
HETATM   14  C19 UNL     1      35.669  39.642  44.818  1.00  0.00    -0.041 C 
HETATM   15  C20 UNL     1      34.972  40.016  45.758  1.00  0.00     0.009 C 
BRANCH  15  16
HETATM   16  N3  UNL     1      34.198  40.432  46.842  1.00  0.00    -0.359 N 
ATOM     17  H32 UNL     1      35.021  39.844  46.702  1.00  0.00     0.166 HD
ATOM     18  H31 UNL     1      33.622  40.746  47.623  1.00  0.00     0.166 HD
ENDBRANCH  15  16
ENDBRANCH  13  14
ENDBRANCH   1   6
BRANCH   2  19
HETATM   19  C4  UNL     1      35.087  43.114  41.893  1.00  0.00     0.037 A 
HETATM   20  C5  UNL     1      34.327  43.715  42.886  1.00  0.00     0.069 A 
HETATM   21  C6  UNL     1      33.877  45.010  42.738  1.00  0.00     0.106 A 
HETATM   22  C8  UNL     1      34.178  45.725  41.596  1.00  0.00     0.135 A 
HETATM   23  C10 UNL     1      34.939  45.108  40.613  1.00  0.00     0.106 A 
HETATM   24  C12 UNL     1      35.404  43.816  40.729  1.00  0.00     0.069 A 
BRANCH  21  25
HETATM   25  O1  UNL     1      33.118  45.608  43.735  1.00  0.00    -0.353 OA
HETATM   26  C7  UNL     1      33.744  45.999  44.949  1.00  0.00     0.210 C 
ENDBRANCH  21  25
BRANCH  22  27
HETATM   27  O2  UNL     1      33.707  47.009  41.495  1.00  0.00    -0.351 OA
HETATM   28  C9  UNL     1      34.384  48.172  41.836  1.00  0.00     0.210 C 
ENDBRANCH  22  27
BRANCH  23  29
HETATM   29  O3  UNL     1      35.223  45.847  39.483  1.00  0.00    -0.353 OA
HETATM   30  C11 UNL     1      36.180  45.420  38.530  1.00  0.00     0.210 C 
ENDBRANCH  23  29
ENDBRANCH   2  19
TORSDOF 8
ENDMDL
MODEL 5
REMARK VINA RESULT: -6.482944319      1.726      3.072
REMARK  8 active torsions:
REMARK  status: ('A' for Active; 'I' for Inactive)
REMARK    1  A    between atoms: C2_2  and  C3_3 
REMARK    2  A    between atoms: C3_3  and  C13_18 
REMARK    3  A    between atoms: N1_4  and  C4_6 
REMARK    4  A    between atoms: C6_8  and  O1_9 
REMARK    5  A    between atoms: C8_11  and  O2_12 
REMARK    6  A    between atoms: C10_14  and  O3_15 
REMARK    7  A    between atoms: C18_25  and  C19_26 
REMARK    8  A    between atoms: C20_27  and  N3_28 
ROOT
HETATM    1  C3  UNL     1      36.518  42.981  40.414  1.00  0.00     0.023 C 
HETATM    2  N1  UNL     1      37.711  42.940  40.964  1.00  0.00    -0.359 N 
ATOM      3  H1  UNL     1      38.090  43.809  41.340  1.00  0.00     0.166 HD
ENDROOT
BRANCH   1   4
HETATM    4  C2  UNL     1      36.030  41.703  39.894  1.00  0.00     0.053 C 
HETATM    5  C1  UNL     1      35.981  41.593  38.400  1.00  0.00     0.011 C 
ENDBRANCH   1   4
BRANCH   1   6
HETATM    6  C13 UNL     1      35.828  44.238  40.428  1.00  0.00     0.029 A 
HETATM    7  C14 UNL     1      35.661  45.220  39.462  1.00  0.00     0.019 A 
HETATM    8  C15 UNL     1      36.213  45.253  38.102  1.00  0.00     0.069 C 
HETATM    9  N2  UNL     1      34.882  46.236  39.962  1.00  0.00    -0.361 N 
HETATM   10  C16 UNL     1      34.547  45.950  41.199  1.00  0.00     0.025 A 
ATOM     11  H2  UNL     1      34.608  47.077  39.455  1.00  0.00     0.165 HD
HETATM   12  C17 UNL     1      33.707  46.739  42.172  1.00  0.00     0.070 C 
HETATM   13  C18 UNL     1      35.107  44.734  41.523  1.00  0.00     0.055 A 
BRANCH  13  14
HETATM   14  C19 UNL     1      34.983  44.057  42.786  1.00  0.00    -0.041 C 
HETATM   15  C20 UNL     1      34.910  43.481  43.869  1.00  0.00     0.009 C 
BRANCH  15  16
HETATM   16  N3  UNL     1      34.848  42.812  45.091  1.00  0.00    -0.359 N 
ATOM     17  H32 UNL     1      35.577  43.230  44.513  1.00  0.00     0.166 HD
ATOM     18  H31 UNL     1      34.783  42.321  45.984  1.00  0.00     0.166 HD
ENDBRANCH  15  16
ENDBRANCH  13  14
ENDBRANCH   1   6
BRANCH   2  19
HETATM   19  C4  UNL     1      38.497  41.792  41.072  1.00  0.00     0.037 A 
HETATM   20  C5  UNL     1      39.023  41.173  39.947  1.00  0.00     0.069 A 
HETATM   21  C6  UNL     1      39.797  40.038  40.069  1.00  0.00     0.106 A 
HETATM   22  C8  UNL     1      40.059  39.504  41.315  1.00  0.00     0.135 A 
HETATM   23  C10 UNL     1      39.524  40.137  42.428  1.00  0.00     0.106 A 
HETATM   24  C12 UNL     1      38.747  41.272  42.342  1.00  0.00     0.069 A 
BRANCH  21  25
HETATM   25  O1  UNL     1      40.323  39.422  38.941  1.00  0.00    -0.353 OA
HETATM   26  C7  UNL     1      39.461  38.687  38.082  1.00  0.00     0.210 C 
ENDBRANCH  21  25
BRANCH  22  27
HETATM   27  O2  UNL     1      40.833  38.375  41.384  1.00  0.00    -0.351 OA
HETATM   28  C9  UNL     1      42.195  38.315  41.648  1.00  0.00     0.210 C 
ENDBRANCH  22  27
BRANCH  23  29
HETATM   29  O3  UNL     1      39.802  39.580  43.660  1.00  0.00    -0.353 OA
HETATM   30  C11 UNL     1      40.250  40.363  44.752  1.00  0.00     0.210 C 
ENDBRANCH  23  29
ENDBRANCH   2  19
TORSDOF 8
ENDMDL
