MODEL 1
REMARK VINA RESULT: -6.620130354      0.000      0.000
REMARK  9 active torsions:
REMARK  status: ('A' for Active; 'I' for Inactive)
REMARK    1  A    between atoms: C2_2  and  C3_3 
REMARK    2  A    between atoms: C3_3  and  C4_4 
REMARK    3  A    between atoms: C3_3  and  C5_7 
REMARK    4  A    between atoms: C3_3  and  C16_20 
REMARK    5  A    between atoms: C4_4  and  O1_5 
REMARK    6  A    between atoms: C5_7  and  C6_8 
REMARK    7  A    between atoms: C6_8  and  O3_10 
REMARK    8  A    between atoms: O3_10  and  C7_11 
REMARK    9  A    between atoms: C18_22  and  O4_23 
ROOT
HETATM    1  C3  UNL     1      36.483  43.104  40.870  1.00  0.00     0.019 C 
ENDROOT
BRANCH   1   2
HETATM    2  C2  UNL     1      37.915  43.409  41.026  1.00  0.00     0.013 C 
HETATM    3  C1  UNL     1      38.700  43.183  42.207  1.00  0.00     0.006 C 
ENDBRANCH   1   2
BRANCH   1   4
HETATM    4  C4  UNL     1      36.035  42.785  42.317  1.00  0.00     0.179 C 
BRANCH   4   5
HETATM    5  O1  UNL     1      35.526  41.543  42.488  1.00  0.00    -0.400 OA
ATOM      6  H1  UNL     1      34.719  41.510  42.988  1.00  0.00     0.209 HD
ENDBRANCH   4   5
ENDBRANCH   1   4
BRANCH   1   7
HETATM    7  C5  UNL     1      36.067  42.031  39.968  1.00  0.00     0.127 C 
BRANCH   7   8
HETATM    8  C6  UNL     1      37.002  41.435  39.011  1.00  0.00     0.260 C 
HETATM    9  O2  UNL     1      37.360  41.836  37.894  1.00  0.00    -0.265 OA
BRANCH   8  10
HETATM   10  O3  UNL     1      37.636  40.208  39.345  1.00  0.00    -0.316 OA
BRANCH  10  11
HETATM   11  C7  UNL     1      38.884  40.156  39.992  1.00  0.00     0.137 C 
HETATM   12  C8  UNL     1      39.879  39.296  39.246  1.00  0.00     0.037 C 
HETATM   13  C9  UNL     1      40.471  38.279  40.199  1.00  0.00    -0.011 C 
HETATM   14  C10 UNL     1      39.299  37.377  40.598  1.00  0.00     0.010 C 
HETATM   15  C14 UNL     1      41.012  39.007  41.426  1.00  0.00     0.010 C 
HETATM   16  C11 UNL     1      38.415  38.191  41.494  1.00  0.00    -0.007 C 
HETATM   17  C12 UNL     1      39.157  38.285  42.837  1.00  0.00     0.010 C 
HETATM   18  C15 UNL     1      38.642  39.685  41.382  1.00  0.00     0.023 C 
HETATM   19  C13 UNL     1      39.851  39.516  42.240  1.00  0.00    -0.007 C 
ENDBRANCH  10  11
ENDBRANCH   8  10
ENDBRANCH   7   8
ENDBRANCH   1   7
BRANCH   1  20
HETATM   20  C16 UNL     1      35.629  44.328  40.537  1.00  0.00    -0.013 A 
HETATM   21  C17 UNL     1      34.694  44.894  41.422  1.00  0.00     0.074 A 
HETATM   22  C18 UNL     1      34.117  46.009  40.839  1.00  0.00     0.183 A 
HETATM   23  O5  UNL     1      34.659  46.118  39.681  1.00  0.00    -0.292 OA
HETATM   24  C19 UNL     1      35.567  45.137  39.454  1.00  0.00     0.059 A 
HETATM   25  C20 UNL     1      36.314  45.045  38.202  1.00  0.00     0.077 C 
BRANCH  22  26
HETATM   26  O4  UNL     1      33.138  46.845  41.408  1.00  0.00    -0.341 OA
ATOM     27  H4  UNL     1      32.311  47.098  41.017  1.00  0.00     0.220 HD
ENDBRANCH  22  26
ENDBRANCH   1  20
TORSDOF 9
ENDMDL
MODEL 2
REMARK VINA RESULT: -6.399252069      1.304      1.828
REMARK  9 active torsions:
REMARK  status: ('A' for Active; 'I' for Inactive)
REMARK    1  A    between atoms: C2_2  and  C3_3 
REMARK    2  A    between atoms: C3_3  and  C4_4 
REMARK    3  A    between atoms: C3_3  and  C5_7 
REMARK    4  A    between atoms: C3_3  and  C16_20 
REMARK    5  A    between atoms: C4_4  and  O1_5 
REMARK    6  A    between atoms: C5_7  and  C6_8 
REMARK    7  A    between atoms: C6_8  and  O3_10 
REMARK    8  A    between atoms: O3_10  and  C7_11 
REMARK    9  A    between atoms: C18_22  and  O4_23 
ROOT
HETATM    1  C3  UNL     1      36.434  43.087  41.335  1.00  0.00     0.019 C 
ENDROOT
BRANCH   1   2
HETATM    2  C2  UNL     1      37.877  43.372  41.282  1.00  0.00     0.013 C 
HETATM    3  C1  UNL     1      38.808  43.208  42.364  1.00  0.00     0.006 C 
ENDBRANCH   1   2
BRANCH   1   4
HETATM    4  C4  UNL     1      36.126  43.124  42.852  1.00  0.00     0.179 C 
BRANCH   4   5
HETATM    5  O1  UNL     1      35.469  42.037  43.320  1.00  0.00    -0.400 OA
ATOM      6  H1  UNL     1      35.346  41.344  42.682  1.00  0.00     0.209 HD
ENDBRANCH   4   5
ENDBRANCH   1   4
BRANCH   1   7
HETATM    7  C5  UNL     1      35.921  41.850  40.749  1.00  0.00     0.127 C 
BRANCH   7   8
HETATM    8  C6  UNL     1      36.768  40.992  39.919  1.00  0.00     0.260 C 
HETATM    9  O2  UNL     1      37.046  41.075  38.714  1.00  0.00    -0.265 OA
BRANCH   8  10
HETATM   10  O3  UNL     1      37.404  39.871  40.518  1.00  0.00    -0.316 OA
BRANCH  10  11
HETATM   11  C7  UNL     1      37.573  39.755  41.910  1.00  0.00     0.137 C 
HETATM   12  C8  UNL     1      39.025  39.597  42.298  1.00  0.00     0.037 C 
HETATM   13  C9  UNL     1      39.173  38.384  43.191  1.00  0.00    -0.011 C 
HETATM   14  C10 UNL     1      38.807  37.190  42.305  1.00  0.00     0.010 C 
HETATM   15  C14 UNL     1      38.186  38.498  44.349  1.00  0.00     0.010 C 
HETATM   16  C11 UNL     1      37.325  37.256  42.083  1.00  0.00    -0.007 C 
HETATM   17  C12 UNL     1      36.686  36.817  43.410  1.00  0.00     0.010 C 
HETATM   18  C15 UNL     1      36.727  38.620  42.364  1.00  0.00     0.023 C 
HETATM   19  C13 UNL     1      36.790  38.292  43.818  1.00  0.00    -0.007 C 
ENDBRANCH  10  11
ENDBRANCH   8  10
ENDBRANCH   7   8
ENDBRANCH   1   7
BRANCH   1  20
HETATM   20  C16 UNL     1      35.564  44.230  40.809  1.00  0.00    -0.013 A 
HETATM   21  C17 UNL     1      34.682  44.975  41.611  1.00  0.00     0.074 A 
HETATM   22  C18 UNL     1      34.074  45.956  40.846  1.00  0.00     0.183 A 
HETATM   23  O5  UNL     1      34.550  45.822  39.663  1.00  0.00    -0.292 OA
HETATM   24  C19 UNL     1      35.442  44.804  39.590  1.00  0.00     0.059 A 
HETATM   25  C20 UNL     1      36.118  44.451  38.343  1.00  0.00     0.077 C 
BRANCH  22  26
HETATM   26  O4  UNL     1      33.130  46.903  41.287  1.00  0.00    -0.341 OA
ATOM     27  H4  UNL     1      32.244  47.012  40.965  1.00  0.00     0.220 HD
ENDBRANCH  22  26
ENDBRANCH   1  20
TORSDOF 9
ENDMDL
MODEL 3
REMARK VINA RESULT: -6.386118875      2.701      5.920
REMARK  9 active torsions:
REMARK  status: ('A' for Active; 'I' for Inactive)
REMARK    1  A    between atoms: C2_2  and  C3_3 
REMARK    2  A    between atoms: C3_3  and  C4_4 
REMARK    3  A    between atoms: C3_3  and  C5_7 
REMARK    4  A    between atoms: C3_3  and  C16_20 
REMARK    5  A    between atoms: C4_4  and  O1_5 
REMARK    6  A    between atoms: C5_7  and  C6_8 
REMARK    7  A    between atoms: C6_8  and  O3_10 
REMARK    8  A    between atoms: O3_10  and  C7_11 
REMARK    9  A    between atoms: C18_22  and  O4_23 
ROOT
HETATM    1  C3  UNL     1      36.773  40.205  43.607  1.00  0.00     0.019 C 
ENDROOT
BRANCH   1   2
HETATM    2  C2  UNL     1      36.615  39.151  42.590  1.00  0.00     0.013 C 
HETATM    3  C1  UNL     1      36.884  37.753  42.778  1.00  0.00     0.006 C 
ENDBRANCH   1   2
BRANCH   1   4
HETATM    4  C4  UNL     1      36.050  39.610  44.840  1.00  0.00     0.179 C 
BRANCH   4   5
HETATM    5  O1  UNL     1      34.701  39.700  44.799  1.00  0.00    -0.400 OA
ATOM      6  H1  UNL     1      34.249  39.197  45.467  1.00  0.00     0.209 HD
ENDBRANCH   4   5
ENDBRANCH   1   4
BRANCH   1   7
HETATM    7  C5  UNL     1      36.274  41.551  43.334  1.00  0.00     0.127 C 
BRANCH   7   8
HETATM    8  C6  UNL     1      35.294  41.800  42.275  1.00  0.00     0.260 C 
HETATM    9  O2  UNL     1      34.097  41.483  42.209  1.00  0.00    -0.265 OA
BRANCH   8  10
HETATM   10  O3  UNL     1      35.704  42.508  41.113  1.00  0.00    -0.316 OA
BRANCH  10  11
HETATM   11  C7  UNL     1      36.982  42.351  40.546  1.00  0.00     0.137 C 
HETATM   12  C8  UNL     1      37.488  43.628  39.916  1.00  0.00     0.037 C 
HETATM   13  C9  UNL     1      37.926  43.343  38.495  1.00  0.00    -0.011 C 
HETATM   14  C10 UNL     1      36.643  42.949  37.756  1.00  0.00     0.010 C 
HETATM   15  C14 UNL     1      38.905  42.174  38.503  1.00  0.00     0.010 C 
HETATM   16  C11 UNL     1      36.256  41.591  38.259  1.00  0.00    -0.007 C 
HETATM   17  C12 UNL     1      37.252  40.611  37.620  1.00  0.00     0.010 C 
HETATM   18  C15 UNL     1      36.900  41.223  39.580  1.00  0.00     0.023 C 
HETATM   19  C13 UNL     1      38.149  40.910  38.827  1.00  0.00    -0.007 C 
ENDBRANCH  10  11
ENDBRANCH   8  10
ENDBRANCH   7   8
ENDBRANCH   1   7
BRANCH   1  20
HETATM   20  C16 UNL     1      38.206  40.351  44.120  1.00  0.00    -0.013 A 
HETATM   21  C17 UNL     1      38.542  40.468  45.481  1.00  0.00     0.074 A 
HETATM   22  C18 UNL     1      39.917  40.545  45.616  1.00  0.00     0.183 A 
HETATM   23  O5  UNL     1      40.389  40.479  44.425  1.00  0.00    -0.292 OA
HETATM   24  C19 UNL     1      39.407  40.364  43.498  1.00  0.00     0.059 A 
HETATM   25  C20 UNL     1      39.695  40.277  42.068  1.00  0.00     0.077 C 
BRANCH  22  26
HETATM   26  O4  UNL     1      40.640  40.669  46.817  1.00  0.00    -0.341 OA
ATOM     27  H4  UNL     1      41.209  40.016  47.206  1.00  0.00     0.220 HD
ENDBRANCH  22  26
ENDBRANCH   1  20
TORSDOF 9
ENDMDL
MODEL 4
REMARK VINA RESULT: -6.352178210      2.662      4.431
REMARK  9 active torsions:
REMARK  status: ('A' for Active; 'I' for Inactive)
REMARK    1  A    between atoms: C2_2  and  C3_3 
REMARK    2  A    between atoms: C3_3  and  C4_4 
REMARK    3  A    between atoms: C3_3  and  C5_7 
REMARK    4  A    between atoms: C3_3  and  C16_20 
REMARK    5  A    between atoms: C4_4  and  O1_5 
REMARK    6  A    between atoms: C5_7  and  C6_8 
REMARK    7  A    between atoms: C6_8  and  O3_10 
REMARK    8  A    between atoms: O3_10  and  C7_11 
REMARK    9  A    between atoms: C18_22  and  O4_23 
ROOT
HETATM    1  C3  UNL     1      35.780  41.764  43.589  1.00  0.00     0.019 C 
ENDROOT
BRANCH   1   2
HETATM    2  C2  UNL     1      37.206  41.801  43.952  1.00  0.00     0.013 C 
HETATM    3  C1  UNL     1      38.198  42.668  43.382  1.00  0.00     0.006 C 
ENDBRANCH   1   2
BRANCH   1   4
HETATM    4  C4  UNL     1      35.124  41.092  44.820  1.00  0.00     0.179 C 
BRANCH   4   5
HETATM    5  O1  UNL     1      34.604  39.865  44.582  1.00  0.00    -0.400 OA
ATOM      6  H1  UNL     1      34.728  39.548  43.695  1.00  0.00     0.209 HD
ENDBRANCH   4   5
ENDBRANCH   1   4
BRANCH   1   7
HETATM    7  C5  UNL     1      35.364  41.083  42.365  1.00  0.00     0.127 C 
BRANCH   7   8
HETATM    8  C6  UNL     1      36.213  40.074  41.729  1.00  0.00     0.260 C 
HETATM    9  O2  UNL     1      36.391  38.883  42.025  1.00  0.00    -0.265 OA
BRANCH   8  10
HETATM   10  O3  UNL     1      36.982  40.442  40.592  1.00  0.00    -0.316 OA
BRANCH  10  11
HETATM   11  C7  UNL     1      36.446  41.195  39.532  1.00  0.00     0.137 C 
HETATM   12  C8  UNL     1      37.086  40.851  38.206  1.00  0.00     0.037 C 
HETATM   13  C9  UNL     1      37.564  42.124  37.539  1.00  0.00    -0.011 C 
HETATM   14  C10 UNL     1      38.671  42.660  38.452  1.00  0.00     0.010 C 
HETATM   15  C14 UNL     1      36.409  43.117  37.479  1.00  0.00     0.010 C 
HETATM   16  C11 UNL     1      37.997  43.171  39.690  1.00  0.00    -0.007 C 
HETATM   17  C12 UNL     1      37.319  44.488  39.280  1.00  0.00     0.010 C 
HETATM   18  C15 UNL     1      36.596  42.631  39.890  1.00  0.00     0.023 C 
HETATM   19  C13 UNL     1      36.125  43.616  38.873  1.00  0.00    -0.007 C 
ENDBRANCH  10  11
ENDBRANCH   8  10
ENDBRANCH   7   8
ENDBRANCH   1   7
BRANCH   1  20
HETATM   20  C16 UNL     1      35.113  43.140  43.588  1.00  0.00    -0.013 A 
HETATM   21  C17 UNL     1      34.420  43.673  42.486  1.00  0.00     0.074 A 
HETATM   22  C18 UNL     1      33.904  44.914  42.816  1.00  0.00     0.183 A 
HETATM   23  O5  UNL     1      34.254  45.126  44.032  1.00  0.00    -0.292 OA
HETATM   24  C19 UNL     1      34.979  44.097  44.536  1.00  0.00     0.059 A 
HETATM   25  C20 UNL     1      35.497  44.107  45.902  1.00  0.00     0.077 C 
BRANCH  22  26
HETATM   26  O4  UNL     1      33.149  45.761  41.983  1.00  0.00    -0.341 OA
ATOM     27  H4  UNL     1      32.271  45.603  41.660  1.00  0.00     0.220 HD
ENDBRANCH  22  26
ENDBRANCH   1  20
TORSDOF 9
ENDMDL
MODEL 5
REMARK VINA RESULT: -6.338823703      2.577      5.693
REMARK  9 active torsions:
REMARK  status: ('A' for Active; 'I' for Inactive)
REMARK    1  A    between atoms: C2_2  and  C3_3 
REMARK    2  A    between atoms: C3_3  and  C4_4 
REMARK    3  A    between atoms: C3_3  and  C5_7 
REMARK    4  A    between atoms: C3_3  and  C16_20 
REMARK    5  A    between atoms: C4_4  and  O1_5 
REMARK    6  A    between atoms: C5_7  and  C6_8 
REMARK    7  A    between atoms: C6_8  and  O3_10 
REMARK    8  A    between atoms: O3_10  and  C7_11 
REMARK    9  A    between atoms: C18_22  and  O4_23 
ROOT
HETATM    1  C3  UNL     1      35.551  41.103  44.103  1.00  0.00     0.019 C 
ENDROOT
BRANCH   1   2
HETATM    2  C2  UNL     1      34.975  40.277  45.177  1.00  0.00     0.013 C 
HETATM    3  C1  UNL     1      35.716  39.505  46.136  1.00  0.00     0.006 C 
ENDBRANCH   1   2
BRANCH   1   4
HETATM    4  C4  UNL     1      35.885  42.431  44.825  1.00  0.00     0.179 C 
BRANCH   4   5
HETATM    5  O1  UNL     1      34.928  42.865  45.677  1.00  0.00    -0.400 OA
ATOM      6  H1  UNL     1      35.198  42.912  46.587  1.00  0.00     0.209 HD
ENDBRANCH   4   5
ENDBRANCH   1   4
BRANCH   1   7
HETATM    7  C5  UNL     1      34.767  41.370  42.899  1.00  0.00     0.127 C 
BRANCH   7   8
HETATM    8  C6  UNL     1      34.560  42.736  42.412  1.00  0.00     0.260 C 
HETATM    9  O2  UNL     1      33.807  43.625  42.835  1.00  0.00    -0.265 OA
BRANCH   8  10
HETATM   10  O3  UNL     1      35.301  43.182  41.285  1.00  0.00    -0.316 OA
BRANCH  10  11
HETATM   11  C7  UNL     1      36.563  42.654  40.956  1.00  0.00     0.137 C 
HETATM   12  C8  UNL     1      37.529  43.724  40.501  1.00  0.00     0.037 C 
HETATM   13  C9  UNL     1      38.130  43.320  39.172  1.00  0.00    -0.011 C 
HETATM   14  C10 UNL     1      36.956  43.319  38.188  1.00  0.00     0.010 C 
HETATM   15  C14 UNL     1      38.709  41.914  39.296  1.00  0.00     0.010 C 
HETATM   16  C11 UNL     1      36.103  42.137  38.536  1.00  0.00    -0.007 C 
HETATM   17  C12 UNL     1      36.877  40.905  38.039  1.00  0.00     0.010 C 
HETATM   18  C15 UNL     1      36.347  41.598  39.931  1.00  0.00     0.023 C 
HETATM   19  C13 UNL     1      37.573  40.930  39.406  1.00  0.00    -0.007 C 
ENDBRANCH  10  11
ENDBRANCH   8  10
ENDBRANCH   7   8
ENDBRANCH   1   7
BRANCH   1  20
HETATM   20  C16 UNL     1      36.933  40.635  43.646  1.00  0.00    -0.013 A 
HETATM   21  C17 UNL     1      38.132  41.290  43.982  1.00  0.00     0.074 A 
HETATM   22  C18 UNL     1      39.205  40.598  43.447  1.00  0.00     0.183 A 
HETATM   23  O5  UNL     1      38.701  39.594  42.829  1.00  0.00    -0.292 OA
HETATM   24  C19 UNL     1      37.348  39.573  42.918  1.00  0.00     0.059 A 
HETATM   25  C20 UNL     1      36.545  38.527  42.289  1.00  0.00     0.077 C 
BRANCH  22  26
HETATM   26  O4  UNL     1      40.566  40.936  43.565  1.00  0.00    -0.341 OA
ATOM     27  H4  UNL     1      41.185  40.588  44.196  1.00  0.00     0.220 HD
ENDBRANCH  22  26
ENDBRANCH   1  20
TORSDOF 9
ENDMDL
