MODEL 1
REMARK VINA RESULT: -6.597163143      0.000      0.000
REMARK  7 active torsions:
REMARK  status: ('A' for Active; 'I' for Inactive)
REMARK    1  A    between atoms: C2_2  and  C14_17 
REMARK    2  A    between atoms: C3_3  and  C4_4 
REMARK    3  A    between atoms: C4_4  and  N1_5 
REMARK    4  A    between atoms: C14_17  and  C15_18 
REMARK    5  A    between atoms: C15_18  and  C16_19 
REMARK    6  A    between atoms: C16_19  and  C17_20 
REMARK    7  A    between atoms: C19_23  and  N3_24 
ROOT
HETATM    1  C1  UNL     1      38.703  42.820  37.838  1.00  0.00     0.043 C 
HETATM    2  C2  UNL     1      38.441  41.450  38.430  1.00  0.00    -0.086 C 
HETATM    3  C3  UNL     1      39.389  40.845  39.108  1.00  0.00     0.005 C 
ENDROOT
BRANCH   3   4
HETATM    4  C4  UNL     1      39.344  39.531  39.756  1.00  0.00     0.300 C 
BRANCH   4   5
HETATM    5  N1  UNL     1      38.758  39.592  41.103  1.00  0.00     0.094 N 
HETATM    6  C5  UNL     1      39.558  40.310  42.033  1.00  0.00     0.296 C 
HETATM    7  C6  UNL     1      38.828  41.086  43.077  1.00  0.00     0.101 C 
HETATM    8  C7  UNL     1      38.450  42.460  42.497  1.00  0.00     0.033 C 
HETATM    9  N2  UNL     1      37.810  40.446  43.769  1.00  0.00    -0.407 N 
HETATM   10  C8  UNL     1      37.138  39.316  43.316  1.00  0.00     0.023 C 
ATOM     11  H2  UNL     1      37.536  40.830  44.673  1.00  0.00     0.154 HD
HETATM   12  C9  UNL     1      36.113  39.545  42.231  1.00  0.00     0.038 C 
HETATM   13  C10 UNL     1      36.328  38.789  44.524  1.00  0.00     0.038 C 
HETATM   14  C11 UNL     1      38.012  38.148  42.936  1.00  0.00     0.037 C 
HETATM   15  C12 UNL     1      38.999  37.862  44.028  1.00  0.00     0.014 C 
HETATM   16  C13 UNL     1      38.618  38.230  41.577  1.00  0.00     0.279 C 
ENDBRANCH   4   5
ENDBRANCH   3   4
BRANCH   2  17
HETATM   17  C14 UNL     1      37.105  40.867  38.204  1.00  0.00     0.034 C 
BRANCH  17  18
HETATM   18  C15 UNL     1      36.097  41.981  38.379  1.00  0.00     0.009 C 
BRANCH  18  19
HETATM   19  C16 UNL     1      35.864  42.304  39.853  1.00  0.00     0.048 C 
BRANCH  19  20
HETATM   20  C17 UNL     1      35.592  43.788  39.869  1.00  0.00     0.009 A 
HETATM   21  C18 UNL     1      35.655  44.673  38.824  1.00  0.00     0.159 A 
HETATM   22  O1  UNL     1      35.385  45.882  39.054  1.00  0.00    -0.299 OA
HETATM   23  C19 UNL     1      35.059  46.285  40.230  1.00  0.00     0.184 A 
HETATM   24  S1  UNL     1      35.127  44.832  41.142  1.00  0.00    -0.050 SA
BRANCH  23  25
HETATM   25  N3  UNL     1      34.750  47.495  40.640  1.00  0.00    -0.374 N 
ATOM     26  H32 UNL     1      33.827  47.886  40.827  1.00  0.00     0.158 HD
ATOM     27  H31 UNL     1      35.364  48.282  40.850  1.00  0.00     0.158 HD
ENDBRANCH  23  25
ENDBRANCH  19  20
ENDBRANCH  18  19
ENDBRANCH  17  18
ENDBRANCH   2  17
TORSDOF 7
ENDMDL
MODEL 2
REMARK VINA RESULT: -6.406218162      1.369      2.671
REMARK  7 active torsions:
REMARK  status: ('A' for Active; 'I' for Inactive)
REMARK    1  A    between atoms: C2_2  and  C14_17 
REMARK    2  A    between atoms: C3_3  and  C4_4 
REMARK    3  A    between atoms: C4_4  and  N1_5 
REMARK    4  A    between atoms: C14_17  and  C15_18 
REMARK    5  A    between atoms: C15_18  and  C16_19 
REMARK    6  A    between atoms: C16_19  and  C17_20 
REMARK    7  A    between atoms: C19_23  and  N3_24 
ROOT
HETATM    1  C1  UNL     1      39.343  39.195  38.006  1.00  0.00     0.043 C 
HETATM    2  C2  UNL     1      39.288  40.084  39.231  1.00  0.00    -0.086 C 
HETATM    3  C3  UNL     1      39.449  39.556  40.422  1.00  0.00     0.005 C 
ENDROOT
BRANCH   3   4
HETATM    4  C4  UNL     1      39.432  40.230  41.724  1.00  0.00     0.300 C 
BRANCH   4   5
HETATM    5  N1  UNL     1      38.221  39.921  42.497  1.00  0.00     0.094 N 
HETATM    6  C5  UNL     1      37.463  38.848  41.954  1.00  0.00     0.296 C 
HETATM    7  C6  UNL     1      36.759  37.969  42.931  1.00  0.00     0.101 C 
HETATM    8  C7  UNL     1      37.741  36.892  43.424  1.00  0.00     0.033 C 
HETATM    9  N2  UNL     1      36.011  38.577  43.931  1.00  0.00    -0.407 N 
HETATM   10  C8  UNL     1      36.185  39.890  44.355  1.00  0.00     0.023 C 
ATOM     11  H2  UNL     1      35.286  38.023  44.384  1.00  0.00     0.154 HD
HETATM   12  C9  UNL     1      37.381  40.148  45.239  1.00  0.00     0.038 C 
HETATM   13  C10 UNL     1      34.958  40.216  45.240  1.00  0.00     0.038 C 
HETATM   14  C11 UNL     1      36.130  40.937  43.272  1.00  0.00     0.037 C 
HETATM   15  C12 UNL     1      34.914  40.737  42.418  1.00  0.00     0.014 C 
HETATM   16  C13 UNL     1      37.392  41.110  42.499  1.00  0.00     0.279 C 
ENDBRANCH   4   5
ENDBRANCH   3   4
BRANCH   2  17
HETATM   17  C14 UNL     1      39.052  41.523  39.006  1.00  0.00     0.034 C 
BRANCH  17  18
HETATM   18  C15 UNL     1      37.821  41.641  38.134  1.00  0.00     0.009 C 
BRANCH  18  19
HETATM   19  C16 UNL     1      36.539  41.623  38.964  1.00  0.00     0.048 C 
BRANCH  19  20
HETATM   20  C17 UNL     1      36.143  43.075  39.066  1.00  0.00     0.009 A 
HETATM   21  C18 UNL     1      36.131  44.023  38.075  1.00  0.00     0.159 A 
HETATM   22  O1  UNL     1      35.760  45.189  38.375  1.00  0.00    -0.299 OA
HETATM   23  C19 UNL     1      35.401  45.493  39.571  1.00  0.00     0.184 A 
HETATM   24  S1  UNL     1      35.592  44.000  40.396  1.00  0.00    -0.050 SA
BRANCH  23  25
HETATM   25  N3  UNL     1      34.992  46.647  40.049  1.00  0.00    -0.374 N 
ATOM     26  H32 UNL     1      34.619  47.449  39.542  1.00  0.00     0.158 HD
ATOM     27  H31 UNL     1      34.964  46.972  41.015  1.00  0.00     0.158 HD
ENDBRANCH  23  25
ENDBRANCH  19  20
ENDBRANCH  18  19
ENDBRANCH  17  18
ENDBRANCH   2  17
TORSDOF 7
ENDMDL
MODEL 3
REMARK VINA RESULT: -6.350192864      2.275      3.169
REMARK  7 active torsions:
REMARK  status: ('A' for Active; 'I' for Inactive)
REMARK    1  A    between atoms: C2_2  and  C14_17 
REMARK    2  A    between atoms: C3_3  and  C4_4 
REMARK    3  A    between atoms: C4_4  and  N1_5 
REMARK    4  A    between atoms: C14_17  and  C15_18 
REMARK    5  A    between atoms: C15_18  and  C16_19 
REMARK    6  A    between atoms: C16_19  and  C17_20 
REMARK    7  A    between atoms: C19_23  and  N3_24 
ROOT
HETATM    1  C1  UNL     1      38.027  42.542  38.122  1.00  0.00     0.043 C 
HETATM    2  C2  UNL     1      36.931  42.204  39.111  1.00  0.00    -0.086 C 
HETATM    3  C3  UNL     1      37.043  41.133  39.862  1.00  0.00     0.005 C 
ENDROOT
BRANCH   3   4
HETATM    4  C4  UNL     1      36.108  40.630  40.872  1.00  0.00     0.300 C 
BRANCH   4   5
HETATM    5  N1  UNL     1      36.294  41.279  42.178  1.00  0.00     0.094 N 
HETATM    6  C5  UNL     1      37.577  41.047  42.745  1.00  0.00     0.296 C 
HETATM    7  C6  UNL     1      38.159  42.160  43.549  1.00  0.00     0.101 C 
HETATM    8  C7  UNL     1      38.868  43.139  42.598  1.00  0.00     0.033 C 
HETATM    9  N2  UNL     1      37.353  42.759  44.507  1.00  0.00    -0.407 N 
HETATM   10  C8  UNL     1      35.964  42.711  44.510  1.00  0.00     0.023 C 
ATOM     11  H2  UNL     1      37.812  43.270  45.261  1.00  0.00     0.154 HD
HETATM   12  C9  UNL     1      35.268  43.609  43.515  1.00  0.00     0.038 C 
HETATM   13  C10 UNL     1      35.522  43.236  45.897  1.00  0.00     0.038 C 
HETATM   14  C11 UNL     1      35.360  41.332  44.443  1.00  0.00     0.037 C 
HETATM   15  C12 UNL     1      35.994  40.438  45.466  1.00  0.00     0.014 C 
HETATM   16  C13 UNL     1      35.294  40.738  43.077  1.00  0.00     0.279 C 
ENDBRANCH   4   5
ENDBRANCH   3   4
BRANCH   2  17
HETATM   17  C14 UNL     1      35.778  43.122  39.174  1.00  0.00     0.034 C 
BRANCH  17  18
HETATM   18  C15 UNL     1      36.208  44.324  39.985  1.00  0.00     0.009 C 
BRANCH  18  19
HETATM   19  C16 UNL     1      35.771  45.632  39.328  1.00  0.00     0.048 C 
BRANCH  19  20
HETATM   20  C17 UNL     1      34.889  46.288  40.360  1.00  0.00     0.009 A 
HETATM   21  C18 UNL     1      33.744  45.798  40.934  1.00  0.00     0.159 A 
HETATM   22  O1  UNL     1      33.154  46.514  41.786  1.00  0.00    -0.299 OA
HETATM   23  C19 UNL     1      33.603  47.672  42.116  1.00  0.00     0.184 A 
HETATM   24  S1  UNL     1      35.011  47.805  41.142  1.00  0.00    -0.050 SA
BRANCH  23  25
HETATM   25  N3  UNL     1      33.118  48.539  42.977  1.00  0.00    -0.374 N 
ATOM     26  H32 UNL     1      33.158  48.514  43.995  1.00  0.00     0.158 HD
ATOM     27  H31 UNL     1      32.606  49.404  42.804  1.00  0.00     0.158 HD
ENDBRANCH  23  25
ENDBRANCH  19  20
ENDBRANCH  18  19
ENDBRANCH  17  18
ENDBRANCH   2  17
TORSDOF 7
ENDMDL
MODEL 4
REMARK VINA RESULT: -6.335724189      0.993      1.434
REMARK  7 active torsions:
REMARK  status: ('A' for Active; 'I' for Inactive)
REMARK    1  A    between atoms: C2_2  and  C14_17 
REMARK    2  A    between atoms: C3_3  and  C4_4 
REMARK    3  A    between atoms: C4_4  and  N1_5 
REMARK    4  A    between atoms: C14_17  and  C15_18 
REMARK    5  A    between atoms: C15_18  and  C16_19 
REMARK    6  A    between atoms: C16_19  and  C17_20 
REMARK    7  A    between atoms: C19_23  and  N3_24 
ROOT
HETATM    1  C1  UNL     1      38.706  42.792  37.881  1.00  0.00     0.043 C 
HETATM    2  C2  UNL     1      38.386  41.474  38.556  1.00  0.00    -0.086 C 
HETATM    3  C3  UNL     1      39.260  40.939  39.378  1.00  0.00     0.005 C 
ENDROOT
BRANCH   3   4
HETATM    4  C4  UNL     1      39.151  39.684  40.127  1.00  0.00     0.300 C 
BRANCH   4   5
HETATM    5  N1  UNL     1      38.738  39.900  41.521  1.00  0.00     0.094 N 
HETATM    6  C5  UNL     1      39.453  39.098  42.452  1.00  0.00     0.296 C 
HETATM    7  C6  UNL     1      39.722  39.708  43.786  1.00  0.00     0.101 C 
HETATM    8  C7  UNL     1      41.000  40.559  43.692  1.00  0.00     0.033 C 
HETATM    9  N2  UNL     1      38.664  40.316  44.447  1.00  0.00    -0.407 N 
HETATM   10  C8  UNL     1      37.506  40.771  43.828  1.00  0.00     0.023 C 
ATOM     11  H2  UNL     1      38.742  40.437  45.457  1.00  0.00     0.154 HD
HETATM   12  C9  UNL     1      37.630  42.064  43.058  1.00  0.00     0.038 C 
HETATM   13  C10 UNL     1      36.507  41.081  44.969  1.00  0.00     0.038 C 
HETATM   14  C11 UNL     1      36.777  39.756  42.984  1.00  0.00     0.037 C 
HETATM   15  C12 UNL     1      36.588  38.483  43.752  1.00  0.00     0.014 C 
HETATM   16  C13 UNL     1      37.332  39.562  41.614  1.00  0.00     0.279 C 
ENDBRANCH   4   5
ENDBRANCH   3   4
BRANCH   2  17
HETATM   17  C14 UNL     1      37.084  40.857  38.242  1.00  0.00     0.034 C 
BRANCH  17  18
HETATM   18  C15 UNL     1      36.032  41.934  38.396  1.00  0.00     0.009 C 
BRANCH  18  19
HETATM   19  C16 UNL     1      35.786  42.275  39.864  1.00  0.00     0.048 C 
BRANCH  19  20
HETATM   20  C17 UNL     1      35.556  43.766  39.864  1.00  0.00     0.009 A 
HETATM   21  C18 UNL     1      35.661  44.641  38.814  1.00  0.00     0.159 A 
HETATM   22  O1  UNL     1      35.421  45.859  39.031  1.00  0.00    -0.299 OA
HETATM   23  C19 UNL     1      35.086  46.280  40.198  1.00  0.00     0.184 A 
HETATM   24  S1  UNL     1      35.099  44.833  41.122  1.00  0.00    -0.050 SA
BRANCH  23  25
HETATM   25  N3  UNL     1      34.805  47.501  40.593  1.00  0.00    -0.374 N 
ATOM     26  H32 UNL     1      34.657  48.335  40.025  1.00  0.00     0.158 HD
ATOM     27  H31 UNL     1      34.679  47.862  41.539  1.00  0.00     0.158 HD
ENDBRANCH  23  25
ENDBRANCH  19  20
ENDBRANCH  18  19
ENDBRANCH  17  18
ENDBRANCH   2  17
TORSDOF 7
ENDMDL
MODEL 5
REMARK VINA RESULT: -6.280230217      1.498      2.366
REMARK  7 active torsions:
REMARK  status: ('A' for Active; 'I' for Inactive)
REMARK    1  A    between atoms: C2_2  and  C14_17 
REMARK    2  A    between atoms: C3_3  and  C4_4 
REMARK    3  A    between atoms: C4_4  and  N1_5 
REMARK    4  A    between atoms: C14_17  and  C15_18 
REMARK    5  A    between atoms: C15_18  and  C16_19 
REMARK    6  A    between atoms: C16_19  and  C17_20 
REMARK    7  A    between atoms: C19_23  and  N3_24 
ROOT
HETATM    1  C1  UNL     1      39.823  39.769  38.596  1.00  0.00     0.043 C 
HETATM    2  C2  UNL     1      39.542  40.137  40.039  1.00  0.00    -0.086 C 
HETATM    3  C3  UNL     1      40.053  39.408  41.004  1.00  0.00     0.005 C 
ENDROOT
BRANCH   3   4
HETATM    4  C4  UNL     1      39.906  39.588  42.452  1.00  0.00     0.300 C 
BRANCH   4   5
HETATM    5  N1  UNL     1      38.748  38.861  42.991  1.00  0.00     0.094 N 
HETATM    6  C5  UNL     1      37.836  39.694  43.693  1.00  0.00     0.296 C 
HETATM    7  C6  UNL     1      36.392  39.333  43.592  1.00  0.00     0.101 C 
HETATM    8  C7  UNL     1      35.815  39.955  42.308  1.00  0.00     0.033 C 
HETATM    9  N2  UNL     1      36.038  38.009  43.808  1.00  0.00    -0.407 N 
HETATM   10  C8  UNL     1      36.911  36.932  43.700  1.00  0.00     0.023 C 
ATOM     11  H2  UNL     1      35.070  37.812  44.064  1.00  0.00     0.154 HD
HETATM   12  C9  UNL     1      37.259  36.500  42.297  1.00  0.00     0.038 C 
HETATM   13  C10 UNL     1      36.171  35.722  44.318  1.00  0.00     0.038 C 
HETATM   14  C11 UNL     1      38.173  37.033  44.518  1.00  0.00     0.037 C 
HETATM   15  C12 UNL     1      37.845  37.402  45.934  1.00  0.00     0.014 C 
HETATM   16  C13 UNL     1      39.253  37.861  43.911  1.00  0.00     0.279 C 
ENDBRANCH   4   5
ENDBRANCH   3   4
BRANCH   2  17
HETATM   17  C14 UNL     1      38.692  41.319  40.276  1.00  0.00     0.034 C 
BRANCH  17  18
HETATM   18  C15 UNL     1      38.161  41.764  38.931  1.00  0.00     0.009 C 
BRANCH  18  19
HETATM   19  C16 UNL     1      36.637  41.688  38.874  1.00  0.00     0.048 C 
BRANCH  19  20
HETATM   20  C17 UNL     1      36.191  43.125  38.995  1.00  0.00     0.009 A 
HETATM   21  C18 UNL     1      36.099  44.071  38.008  1.00  0.00     0.159 A 
HETATM   22  O1  UNL     1      35.698  45.222  38.326  1.00  0.00    -0.299 OA
HETATM   23  C19 UNL     1      35.381  45.512  39.537  1.00  0.00     0.184 A 
HETATM   24  S1  UNL     1      35.665  44.027  40.351  1.00  0.00    -0.050 SA
BRANCH  23  25
HETATM   25  N3  UNL     1      34.949  46.649  40.035  1.00  0.00    -0.374 N 
ATOM     26  H32 UNL     1      34.037  47.090  39.916  1.00  0.00     0.158 HD
ATOM     27  H31 UNL     1      35.434  47.317  40.635  1.00  0.00     0.158 HD
ENDBRANCH  23  25
ENDBRANCH  19  20
ENDBRANCH  18  19
ENDBRANCH  17  18
ENDBRANCH   2  17
TORSDOF 7
ENDMDL
