MODEL 1
REMARK VINA RESULT: -6.517545099      0.000      0.000
REMARK  7 active torsions:
REMARK  status: ('A' for Active; 'I' for Inactive)
REMARK    1  A    between atoms: C2_2  and  C3_3 
REMARK    2  A    between atoms: C3_3  and  N1_6 
REMARK    3  A    between atoms: N1_6  and  C6_7 
REMARK    4  A    between atoms: C7_8  and  C8_9 
REMARK    5  A    between atoms: C11_16  and  O3_17 
REMARK    6  A    between atoms: C13_19  and  O4_20 
REMARK    7  A    between atoms: C15_22  and  O5_23 
ROOT
HETATM    1  C6  UNL     1      35.380  43.313  41.475  1.00  0.00     0.132 A 
HETATM    2  C7  UNL     1      34.708  44.393  42.012  1.00  0.00     0.097 A 
HETATM    3  C9  UNL     1      34.272  44.250  43.346  1.00  0.00     0.110 A 
HETATM    4  N2  UNL     1      34.471  43.170  44.081  1.00  0.00    -0.362 N 
ATOM      5  H2  UNL     1      34.121  43.149  45.039  1.00  0.00     0.165 HD
HETATM    6  C10 UNL     1      35.123  42.103  43.600  1.00  0.00     0.082 A 
HETATM    7  C11 UNL     1      35.311  41.004  44.429  1.00  0.00     0.132 A 
HETATM    8  C13 UNL     1      35.992  39.916  43.933  1.00  0.00     0.137 A 
HETATM    9  C15 UNL     1      36.469  39.931  42.641  1.00  0.00     0.105 A 
HETATM   10  C17 UNL     1      36.251  41.057  41.860  1.00  0.00     0.057 A 
HETATM   11  C18 UNL     1      35.571  42.184  42.303  1.00  0.00     0.038 A 
ENDROOT
BRANCH   1  12
HETATM   12  N1  UNL     1      35.740  43.258  40.325  1.00  0.00    -0.435 NA
BRANCH  12  13
HETATM   13  C3  UNL     1      36.309  43.146  39.120  1.00  0.00     0.086 C 
HETATM   14  C4  UNL     1      37.878  43.160  39.061  1.00  0.00     0.054 C 
HETATM   15  C5  UNL     1      35.997  44.389  38.255  1.00  0.00     0.054 C 
BRANCH  13  16
HETATM   16  C2  UNL     1      36.042  41.881  38.306  1.00  0.00     0.040 C 
HETATM   17  C1  UNL     1      37.270  41.008  38.263  1.00  0.00     0.009 C 
ENDBRANCH  13  16
ENDBRANCH  12  13
ENDBRANCH   1  12
BRANCH   2  18
HETATM   18  C8  UNL     1      34.485  45.688  41.398  1.00  0.00     0.214 C 
HETATM   19  O1  UNL     1      35.290  46.527  41.039  1.00  0.00    -0.644 OA
HETATM   20  O2  UNL     1      33.125  46.037  41.176  1.00  0.00    -0.644 OA
ENDBRANCH   2  18
BRANCH   7  21
HETATM   21  O3  UNL     1      34.831  40.986  45.731  1.00  0.00    -0.351 OA
HETATM   22  C12 UNL     1      35.515  41.506  46.830  1.00  0.00     0.210 C 
ENDBRANCH   7  21
BRANCH   9  23
HETATM   23  O5  UNL     1      37.149  38.839  42.155  1.00  0.00    -0.353 OA
HETATM   24  C16 UNL     1      38.387  38.871  41.514  1.00  0.00     0.210 C 
ENDBRANCH   9  23
BRANCH   8  25
HETATM   25  O4  UNL     1      36.196  38.809  44.729  1.00  0.00    -0.351 OA
HETATM   26  C14 UNL     1      37.411  38.671  45.440  1.00  0.00     0.210 C 
ENDBRANCH   8  25
TORSDOF 7
ENDMDL
MODEL 2
REMARK VINA RESULT: -6.203267288      1.473      5.398
REMARK  7 active torsions:
REMARK  status: ('A' for Active; 'I' for Inactive)
REMARK    1  A    between atoms: C2_2  and  C3_3 
REMARK    2  A    between atoms: C3_3  and  N1_6 
REMARK    3  A    between atoms: N1_6  and  C6_7 
REMARK    4  A    between atoms: C7_8  and  C8_9 
REMARK    5  A    between atoms: C11_16  and  O3_17 
REMARK    6  A    between atoms: C13_19  and  O4_20 
REMARK    7  A    between atoms: C15_22  and  O5_23 
ROOT
HETATM    1  C6  UNL     1      36.266  41.804  42.058  1.00  0.00     0.132 A 
HETATM    2  C7  UNL     1      36.133  41.087  43.230  1.00  0.00     0.097 A 
HETATM    3  C9  UNL     1      35.292  41.654  44.211  1.00  0.00     0.110 A 
HETATM    4  N2  UNL     1      34.645  42.796  44.063  1.00  0.00    -0.362 N 
ATOM      5  H2  UNL     1      34.056  43.136  44.824  1.00  0.00     0.165 HD
HETATM    6  C10 UNL     1      34.741  43.520  42.939  1.00  0.00     0.082 A 
HETATM    7  C11 UNL     1      34.025  44.706  42.843  1.00  0.00     0.132 A 
HETATM    8  C13 UNL     1      34.119  45.437  41.681  1.00  0.00     0.137 A 
HETATM    9  C15 UNL     1      34.911  44.991  40.647  1.00  0.00     0.105 A 
HETATM   10  C17 UNL     1      35.604  43.798  40.802  1.00  0.00     0.057 A 
HETATM   11  C18 UNL     1      35.550  43.017  41.948  1.00  0.00     0.038 A 
ENDROOT
BRANCH   1  12
HETATM   12  N1  UNL     1      37.013  41.487  41.166  1.00  0.00    -0.435 NA
BRANCH  12  13
HETATM   13  C3  UNL     1      37.693  41.166  40.059  1.00  0.00     0.086 C 
HETATM   14  C4  UNL     1      36.865  40.958  38.740  1.00  0.00     0.054 C 
HETATM   15  C5  UNL     1      38.328  39.763  40.200  1.00  0.00     0.054 C 
BRANCH  13  16
HETATM   16  C2  UNL     1      38.740  42.149  39.540  1.00  0.00     0.040 C 
HETATM   17  C1  UNL     1      38.349  42.676  38.183  1.00  0.00     0.009 C 
ENDBRANCH  13  16
ENDBRANCH  12  13
ENDBRANCH   1  12
BRANCH   2  18
HETATM   18  C8  UNL     1      36.681  39.778  43.532  1.00  0.00     0.214 C 
HETATM   19  O1  UNL     1      36.434  38.699  43.029  1.00  0.00    -0.644 OA
HETATM   20  O2  UNL     1      37.653  39.742  44.569  1.00  0.00    -0.644 OA
ENDBRANCH   2  18
BRANCH   7  21
HETATM   21  O3  UNL     1      33.226  45.159  43.883  1.00  0.00    -0.351 OA
HETATM   22  C12 UNL     1      33.685  45.933  44.950  1.00  0.00     0.210 C 
ENDBRANCH   7  21
BRANCH   9  23
HETATM   23  O5  UNL     1      34.998  45.729  39.490  1.00  0.00    -0.353 OA
HETATM   24  C16 UNL     1      36.002  45.618  38.528  1.00  0.00     0.210 C 
ENDBRANCH   9  23
BRANCH   8  25
HETATM   25  O4  UNL     1      33.420  46.619  41.552  1.00  0.00    -0.351 OA
HETATM   26  C14 UNL     1      34.062  47.846  41.836  1.00  0.00     0.210 C 
ENDBRANCH   8  25
TORSDOF 7
ENDMDL
MODEL 3
REMARK VINA RESULT: -6.189169617      0.421      1.240
REMARK  7 active torsions:
REMARK  status: ('A' for Active; 'I' for Inactive)
REMARK    1  A    between atoms: C2_2  and  C3_3 
REMARK    2  A    between atoms: C3_3  and  N1_6 
REMARK    3  A    between atoms: N1_6  and  C6_7 
REMARK    4  A    between atoms: C7_8  and  C8_9 
REMARK    5  A    between atoms: C11_16  and  O3_17 
REMARK    6  A    between atoms: C13_19  and  O4_20 
REMARK    7  A    between atoms: C15_22  and  O5_23 
ROOT
HETATM    1  C6  UNL     1      35.362  43.266  41.720  1.00  0.00     0.132 A 
HETATM    2  C7  UNL     1      34.707  44.368  42.232  1.00  0.00     0.097 A 
HETATM    3  C9  UNL     1      34.296  44.274  43.579  1.00  0.00     0.110 A 
HETATM    4  N2  UNL     1      34.505  43.220  44.346  1.00  0.00    -0.362 N 
ATOM      5  H2  UNL     1      34.174  43.235  45.311  1.00  0.00     0.165 HD
HETATM    6  C10 UNL     1      35.141  42.132  43.891  1.00  0.00     0.082 A 
HETATM    7  C11 UNL     1      35.339  41.062  44.754  1.00  0.00     0.132 A 
HETATM    8  C13 UNL     1      36.004  39.954  44.282  1.00  0.00     0.137 A 
HETATM    9  C15 UNL     1      36.455  39.920  42.982  1.00  0.00     0.105 A 
HETATM   10  C17 UNL     1      36.227  41.020  42.166  1.00  0.00     0.057 A 
HETATM   11  C18 UNL     1      35.563  42.165  42.583  1.00  0.00     0.038 A 
ENDROOT
BRANCH   1  12
HETATM   12  N1  UNL     1      35.697  43.169  40.566  1.00  0.00    -0.435 NA
BRANCH  12  13
HETATM   13  C3  UNL     1      36.242  43.118  39.344  1.00  0.00     0.086 C 
HETATM   14  C4  UNL     1      36.112  41.767  38.554  1.00  0.00     0.054 C 
HETATM   15  C5  UNL     1      37.781  43.230  39.432  1.00  0.00     0.054 C 
BRANCH  13  16
HETATM   16  C2  UNL     1      35.722  44.079  38.278  1.00  0.00     0.040 C 
HETATM   17  C1  UNL     1      36.395  45.423  38.398  1.00  0.00     0.009 C 
ENDBRANCH  13  16
ENDBRANCH  12  13
ENDBRANCH   1  12
BRANCH   2  18
HETATM   18  C8  UNL     1      34.477  45.643  41.577  1.00  0.00     0.214 C 
HETATM   19  O1  UNL     1      35.263  46.535  41.319  1.00  0.00    -0.644 OA
HETATM   20  O2  UNL     1      33.139  45.893  41.171  1.00  0.00    -0.644 OA
ENDBRANCH   2  18
BRANCH   7  21
HETATM   21  O3  UNL     1      34.886  41.092  46.065  1.00  0.00    -0.351 OA
HETATM   22  C12 UNL     1      35.591  41.654  47.130  1.00  0.00     0.210 C 
ENDBRANCH   7  21
BRANCH   9  23
HETATM   23  O5  UNL     1      37.119  38.808  42.521  1.00  0.00    -0.353 OA
HETATM   24  C16 UNL     1      38.407  38.793  41.986  1.00  0.00     0.210 C 
ENDBRANCH   9  23
BRANCH   8  25
HETATM   25  O4  UNL     1      36.219  38.873  45.113  1.00  0.00    -0.351 OA
HETATM   26  C14 UNL     1      37.440  38.762  45.816  1.00  0.00     0.210 C 
ENDBRANCH   8  25
TORSDOF 7
ENDMDL
MODEL 4
REMARK VINA RESULT: -6.139065153      2.162      5.548
REMARK  7 active torsions:
REMARK  status: ('A' for Active; 'I' for Inactive)
REMARK    1  A    between atoms: C2_2  and  C3_3 
REMARK    2  A    between atoms: C3_3  and  N1_6 
REMARK    3  A    between atoms: N1_6  and  C6_7 
REMARK    4  A    between atoms: C7_8  and  C8_9 
REMARK    5  A    between atoms: C11_16  and  O3_17 
REMARK    6  A    between atoms: C13_19  and  O4_20 
REMARK    7  A    between atoms: C15_22  and  O5_23 
ROOT
HETATM    1  C6  UNL     1      35.338  43.362  42.094  1.00  0.00     0.132 A 
HETATM    2  C7  UNL     1      35.566  42.273  42.912  1.00  0.00     0.097 A 
HETATM    3  C9  UNL     1      35.163  42.414  44.257  1.00  0.00     0.110 A 
HETATM    4  N2  UNL     1      34.595  43.499  44.751  1.00  0.00    -0.362 N 
ATOM      5  H2  UNL     1      34.335  43.519  45.738  1.00  0.00     0.165 HD
HETATM    6  C10 UNL     1      34.351  44.575  43.991  1.00  0.00     0.082 A 
HETATM    7  C11 UNL     1      33.740  45.680  44.570  1.00  0.00     0.132 A 
HETATM    8  C13 UNL     1      33.481  46.776  43.779  1.00  0.00     0.137 A 
HETATM    9  C15 UNL     1      33.829  46.764  42.447  1.00  0.00     0.105 A 
HETATM   10  C17 UNL     1      34.438  45.632  41.925  1.00  0.00     0.057 A 
HETATM   11  C18 UNL     1      34.725  44.497  42.670  1.00  0.00     0.038 A 
ENDROOT
BRANCH   1  12
HETATM   12  N1  UNL     1      35.702  43.418  40.946  1.00  0.00    -0.435 NA
BRANCH  12  13
HETATM   13  C3  UNL     1      36.193  43.313  39.705  1.00  0.00     0.086 C 
HETATM   14  C4  UNL     1      37.754  43.374  39.541  1.00  0.00     0.054 C 
HETATM   15  C5  UNL     1      35.786  44.538  38.855  1.00  0.00     0.054 C 
BRANCH  13  16
HETATM   16  C2  UNL     1      35.912  42.033  38.920  1.00  0.00     0.040 C 
HETATM   17  C1  UNL     1      37.131  41.146  38.896  1.00  0.00     0.009 C 
ENDBRANCH  13  16
ENDBRANCH  12  13
ENDBRANCH   1  12
BRANCH   2  18
HETATM   18  C8  UNL     1      36.081  40.972  42.528  1.00  0.00     0.214 C 
HETATM   19  O1  UNL     1      35.483  39.944  42.273  1.00  0.00    -0.644 OA
HETATM   20  O2  UNL     1      37.496  40.875  42.432  1.00  0.00    -0.644 OA
ENDBRANCH   2  18
BRANCH   7  21
HETATM   21  O3  UNL     1      33.389  45.695  45.912  1.00  0.00    -0.351 OA
HETATM   22  C12 UNL     1      34.261  46.023  46.951  1.00  0.00     0.210 C 
ENDBRANCH   7  21
BRANCH   9  23
HETATM   23  O5  UNL     1      33.566  47.865  41.666  1.00  0.00    -0.353 OA
HETATM   24  C16 UNL     1      34.503  48.809  41.249  1.00  0.00     0.210 C 
ENDBRANCH   9  23
BRANCH   8  25
HETATM   25  O4  UNL     1      32.875  47.890  44.322  1.00  0.00    -0.351 OA
HETATM   26  C14 UNL     1      33.670  48.937  44.842  1.00  0.00     0.210 C 
ENDBRANCH   8  25
TORSDOF 7
ENDMDL
MODEL 5
REMARK VINA RESULT: -6.128342011      2.863      6.124
REMARK  7 active torsions:
REMARK  status: ('A' for Active; 'I' for Inactive)
REMARK    1  A    between atoms: C2_2  and  C3_3 
REMARK    2  A    between atoms: C3_3  and  N1_6 
REMARK    3  A    between atoms: N1_6  and  C6_7 
REMARK    4  A    between atoms: C7_8  and  C8_9 
REMARK    5  A    between atoms: C11_16  and  O3_17 
REMARK    6  A    between atoms: C13_19  and  O4_20 
REMARK    7  A    between atoms: C15_22  and  O5_23 
ROOT
HETATM    1  C6  UNL     1      35.516  44.177  40.897  1.00  0.00     0.132 A 
HETATM    2  C7  UNL     1      35.811  44.567  39.606  1.00  0.00     0.097 A 
HETATM    3  C9  UNL     1      35.399  45.867  39.243  1.00  0.00     0.110 A 
HETATM    4  N2  UNL     1      34.769  46.700  40.052  1.00  0.00    -0.362 N 
ATOM      5  H2  UNL     1      34.505  47.623  39.708  1.00  0.00     0.165 HD
HETATM    6  C10 UNL     1      34.469  46.362  41.313  1.00  0.00     0.082 A 
HETATM    7  C11 UNL     1      33.817  47.289  42.117  1.00  0.00     0.132 A 
HETATM    8  C13 UNL     1      33.523  46.940  43.415  1.00  0.00     0.137 A 
HETATM    9  C15 UNL     1      33.872  45.697  43.892  1.00  0.00     0.105 A 
HETATM   10  C17 UNL     1      34.521  44.813  43.042  1.00  0.00     0.057 A 
HETATM   11  C18 UNL     1      34.844  45.105  41.724  1.00  0.00     0.038 A 
ENDROOT
BRANCH   1  12
HETATM   12  N1  UNL     1      35.732  43.070  41.322  1.00  0.00    -0.435 NA
BRANCH  12  13
HETATM   13  C3  UNL     1      36.155  41.895  41.805  1.00  0.00     0.086 C 
HETATM   14  C4  UNL     1      36.664  40.832  40.767  1.00  0.00     0.054 C 
HETATM   15  C5  UNL     1      34.980  41.113  42.435  1.00  0.00     0.054 C 
BRANCH  13  16
HETATM   16  C2  UNL     1      37.343  41.891  42.765  1.00  0.00     0.040 C 
HETATM   17  C1  UNL     1      38.466  42.738  42.224  1.00  0.00     0.009 C 
ENDBRANCH  13  16
ENDBRANCH  12  13
ENDBRANCH   1  12
BRANCH   2  18
HETATM   18  C8  UNL     1      36.577  43.835  38.615  1.00  0.00     0.214 C 
HETATM   19  O1  UNL     1      36.204  43.291  37.593  1.00  0.00    -0.644 OA
HETATM   20  O2  UNL     1      37.972  43.735  38.866  1.00  0.00    -0.644 OA
ENDBRANCH   2  18
BRANCH   7  21
HETATM   21  O3  UNL     1      33.463  48.543  41.640  1.00  0.00    -0.351 OA
HETATM   22  C12 UNL     1      34.298  49.662  41.669  1.00  0.00     0.210 C 
ENDBRANCH   7  21
BRANCH   9  23
HETATM   23  O5  UNL     1      33.574  45.358  45.191  1.00  0.00    -0.353 OA
HETATM   24  C16 UNL     1      34.493  45.247  46.234  1.00  0.00     0.210 C 
ENDBRANCH   9  23
BRANCH   8  25
HETATM   25  O4  UNL     1      32.876  47.837  44.241  1.00  0.00    -0.351 OA
HETATM   26  C14 UNL     1      33.632  48.687  45.080  1.00  0.00     0.210 C 
ENDBRANCH   8  25
TORSDOF 7
ENDMDL
