MODEL 1
REMARK VINA RESULT: -5.983329160      0.000      0.000
REMARK  10 active torsions:
REMARK  status: ('A' for Active; 'I' for Inactive)
REMARK    1  A    between atoms: C2_2  and  C4_4 
REMARK    2  A    between atoms: C10_10  and  O1_11 
REMARK    3  A    between atoms: C13_16  and  C14_17 
REMARK    4  A    between atoms: C14_17  and  C15_19 
REMARK    5  A    between atoms: C18_23  and  C19_24 
REMARK    6  A    between atoms: C18_23  and  C21_26 
REMARK    7  A    between atoms: C24_30  and  C25_31 
REMARK    8  A    between atoms: C25_31  and  C27_33 
REMARK    9  A    between atoms: C27_33  and  C28_34 
REMARK   10  A    between atoms: C28_34  and  C30_36 
ROOT
HETATM    1  C4  UNL     1       4.536   1.754  26.084  1.00  0.00     0.047 C 
HETATM    2  C5  UNL     1       4.106   3.125  25.638  1.00  0.00     0.026 C 
HETATM    3  C6  UNL     1       5.157   4.100  25.321  1.00  0.00    -0.013 C 
HETATM    4  C7  UNL     1       5.881   4.591  26.598  1.00  0.00     0.021 C 
HETATM    5  C8  UNL     1       6.186   3.400  24.523  1.00  0.00    -0.059 C 
HETATM    6  C9  UNL     1       6.592   2.205  25.014  1.00  0.00     0.009 C 
HETATM    7  C10 UNL     1       6.030   1.648  26.276  1.00  0.00     0.149 C 
HETATM    8  C11 UNL     1       6.554   4.205  23.351  1.00  0.00     0.115 C 
HETATM    9  C12 UNL     1       8.027   4.224  23.115  1.00  0.00     0.156 C 
HETATM   10  O2  UNL     1       8.636   3.258  23.448  1.00  0.00    -0.296 OA
HETATM   11  C13 UNL     1       8.796   5.345  22.502  1.00  0.00     0.198 C 
HETATM   12  C17 UNL     1       7.885   6.160  21.695  1.00  0.00     0.179 C 
HETATM   13  O4  UNL     1       7.962   6.009  20.501  1.00  0.00    -0.293 OA
HETATM   14  C18 UNL     1       6.879   7.145  22.154  1.00  0.00     0.122 C 
HETATM   15  O5  UNL     1       5.829   6.431  22.678  1.00  0.00    -0.366 OA
HETATM   16  C23 UNL     1       6.084   5.594  23.709  1.00  0.00     0.144 C 
HETATM   17  C24 UNL     1       4.814   5.277  24.516  1.00  0.00     0.032 C 
ENDROOT
BRANCH  17  18
HETATM   18  C25 UNL     1       3.586   5.440  23.751  1.00  0.00    -0.010 C 
HETATM   19  C26 UNL     1       2.402   5.857  24.594  1.00  0.00     0.010 C 
BRANCH  18  20
HETATM   20  C27 UNL     1       3.156   4.485  22.717  1.00  0.00     0.019 C 
BRANCH  20  21
HETATM   21  C28 UNL     1       2.412   5.172  21.591  1.00  0.00     0.083 C 
HETATM   22  C29 UNL     1       1.491   4.070  20.985  1.00  0.00     0.021 C 
BRANCH  21  23
HETATM   23  C30 UNL     1       3.241   5.565  20.439  1.00  0.00     0.176 C 
HETATM   24  O6  UNL     1       2.859   6.492  19.696  1.00  0.00    -0.648 OA
HETATM   25  O7  UNL     1       4.459   4.904  20.178  1.00  0.00    -0.648 OA
ENDBRANCH  21  23
ENDBRANCH  20  21
ENDBRANCH  18  20
ENDBRANCH  17  18
BRANCH   1  26
HETATM   26  C2  UNL     1       3.810   1.237  27.271  1.00  0.00    -0.086 C 
HETATM   27  C1  UNL     1       3.644   1.975  28.377  1.00  0.00     0.014 C 
HETATM   28  C3  UNL     1       3.221  -0.134  27.301  1.00  0.00     0.043 C 
ENDBRANCH   1  26
BRANCH  14  29
HETATM   29  C19 UNL     1       7.497   8.124  23.108  1.00  0.00     0.042 C 
HETATM   30  C20 UNL     1       8.560   8.974  22.506  1.00  0.00     0.009 C 
ENDBRANCH  14  29
BRANCH  14  31
HETATM   31  C21 UNL     1       6.388   7.899  20.942  1.00  0.00     0.042 C 
HETATM   32  C22 UNL     1       5.137   8.668  21.187  1.00  0.00     0.009 C 
ENDBRANCH  14  31
BRANCH   7  33
HETATM   33  O1  UNL     1       6.340   0.267  26.273  1.00  0.00    -0.391 OA
ATOM     34  H1  UNL     1       7.226   0.188  26.608  1.00  0.00     0.210 HD
ENDBRANCH   7  33
BRANCH  11  35
HETATM   35  C14 UNL     1       9.870   4.796  21.656  1.00  0.00     0.145 C 
HETATM   36  O3  UNL     1      11.012   5.176  21.826  1.00  0.00    -0.297 OA
BRANCH  35  37
HETATM   37  C15 UNL     1       9.624   3.785  20.586  1.00  0.00     0.075 C 
HETATM   38  C16 UNL     1      10.851   3.679  19.713  1.00  0.00     0.013 C 
ENDBRANCH  35  37
ENDBRANCH  11  35
TORSDOF 10
ENDMDL
MODEL 2
REMARK VINA RESULT: -5.914209813      0.590      1.024
REMARK  10 active torsions:
REMARK  status: ('A' for Active; 'I' for Inactive)
REMARK    1  A    between atoms: C2_2  and  C4_4 
REMARK    2  A    between atoms: C10_10  and  O1_11 
REMARK    3  A    between atoms: C13_16  and  C14_17 
REMARK    4  A    between atoms: C14_17  and  C15_19 
REMARK    5  A    between atoms: C18_23  and  C19_24 
REMARK    6  A    between atoms: C18_23  and  C21_26 
REMARK    7  A    between atoms: C24_30  and  C25_31 
REMARK    8  A    between atoms: C25_31  and  C27_33 
REMARK    9  A    between atoms: C27_33  and  C28_34 
REMARK   10  A    between atoms: C28_34  and  C30_36 
ROOT
HETATM    1  C4  UNL     1       4.516   1.730  26.108  1.00  0.00     0.047 C 
HETATM    2  C5  UNL     1       4.098   3.103  25.657  1.00  0.00     0.026 C 
HETATM    3  C6  UNL     1       5.156   4.069  25.337  1.00  0.00    -0.013 C 
HETATM    4  C7  UNL     1       5.884   4.558  26.613  1.00  0.00     0.021 C 
HETATM    5  C8  UNL     1       6.180   3.357  24.542  1.00  0.00    -0.059 C 
HETATM    6  C9  UNL     1       6.576   2.161  25.037  1.00  0.00     0.009 C 
HETATM    7  C10 UNL     1       6.009   1.613  26.301  1.00  0.00     0.149 C 
HETATM    8  C11 UNL     1       6.555   4.156  23.368  1.00  0.00     0.115 C 
HETATM    9  C12 UNL     1       8.028   4.162  23.132  1.00  0.00     0.156 C 
HETATM   10  O2  UNL     1       8.630   3.193  23.469  1.00  0.00    -0.296 OA
HETATM   11  C13 UNL     1       8.806   5.274  22.515  1.00  0.00     0.198 C 
HETATM   12  C17 UNL     1       7.902   6.094  21.705  1.00  0.00     0.179 C 
HETATM   13  O4  UNL     1       7.978   5.938  20.512  1.00  0.00    -0.293 OA
HETATM   14  C18 UNL     1       6.904   7.089  22.160  1.00  0.00     0.122 C 
HETATM   15  O5  UNL     1       5.848   6.385  22.686  1.00  0.00    -0.366 OA
HETATM   16  C23 UNL     1       6.096   5.550  23.720  1.00  0.00     0.144 C 
HETATM   17  C24 UNL     1       4.823   5.245  24.527  1.00  0.00     0.032 C 
ENDROOT
BRANCH  17  18
HETATM   18  C25 UNL     1       3.596   5.416  23.762  1.00  0.00    -0.010 C 
HETATM   19  C26 UNL     1       2.417   5.850  24.603  1.00  0.00     0.010 C 
BRANCH  18  20
HETATM   20  C27 UNL     1       3.158   4.458  22.734  1.00  0.00     0.019 C 
BRANCH  20  21
HETATM   21  C28 UNL     1       2.404   5.143  21.613  1.00  0.00     0.083 C 
HETATM   22  C29 UNL     1       1.491   4.034  21.006  1.00  0.00     0.021 C 
BRANCH  21  23
HETATM   23  C30 UNL     1       3.225   5.548  20.460  1.00  0.00     0.176 C 
HETATM   24  O6  UNL     1       2.835   6.479  19.726  1.00  0.00    -0.648 OA
HETATM   25  O7  UNL     1       4.445   4.895  20.189  1.00  0.00    -0.648 OA
ENDBRANCH  21  23
ENDBRANCH  20  21
ENDBRANCH  18  20
ENDBRANCH  17  18
BRANCH   1  26
HETATM   26  C2  UNL     1       3.786   1.223  27.297  1.00  0.00    -0.086 C 
HETATM   27  C1  UNL     1       3.288  -0.020  27.347  1.00  0.00     0.014 C 
HETATM   28  C3  UNL     1       3.565   2.070  28.506  1.00  0.00     0.043 C 
ENDBRANCH   1  26
BRANCH  14  29
HETATM   29  C19 UNL     1       7.530   8.066  23.112  1.00  0.00     0.042 C 
HETATM   30  C20 UNL     1       8.642   8.861  22.525  1.00  0.00     0.009 C 
ENDBRANCH  14  29
BRANCH  14  31
HETATM   31  C21 UNL     1       6.419   7.842  20.945  1.00  0.00     0.042 C 
HETATM   32  C22 UNL     1       5.188   8.641  21.194  1.00  0.00     0.009 C 
ENDBRANCH  14  31
BRANCH   7  33
HETATM   33  O1  UNL     1       6.309   0.229  26.303  1.00  0.00    -0.391 OA
ATOM     34  H1  UNL     1       7.103   0.125  26.813  1.00  0.00     0.210 HD
ENDBRANCH   7  33
BRANCH  11  35
HETATM   35  C14 UNL     1       9.877   4.714  21.671  1.00  0.00     0.145 C 
HETATM   36  O3  UNL     1       9.607   3.837  20.876  1.00  0.00    -0.297 OA
BRANCH  35  37
HETATM   37  C15 UNL     1      11.293   5.178  21.745  1.00  0.00     0.075 C 
HETATM   38  C16 UNL     1      11.558   5.739  23.122  1.00  0.00     0.013 C 
ENDBRANCH  35  37
ENDBRANCH  11  35
TORSDOF 10
ENDMDL
MODEL 3
REMARK VINA RESULT: -5.910457209      0.848      1.136
REMARK  10 active torsions:
REMARK  status: ('A' for Active; 'I' for Inactive)
REMARK    1  A    between atoms: C2_2  and  C4_4 
REMARK    2  A    between atoms: C10_10  and  O1_11 
REMARK    3  A    between atoms: C13_16  and  C14_17 
REMARK    4  A    between atoms: C14_17  and  C15_19 
REMARK    5  A    between atoms: C18_23  and  C19_24 
REMARK    6  A    between atoms: C18_23  and  C21_26 
REMARK    7  A    between atoms: C24_30  and  C25_31 
REMARK    8  A    between atoms: C25_31  and  C27_33 
REMARK    9  A    between atoms: C27_33  and  C28_34 
REMARK   10  A    between atoms: C28_34  and  C30_36 
ROOT
HETATM    1  C4  UNL     1       4.511   1.920  26.131  1.00  0.00     0.047 C 
HETATM    2  C5  UNL     1       4.067   3.261  25.613  1.00  0.00     0.026 C 
HETATM    3  C6  UNL     1       5.102   4.185  25.133  1.00  0.00    -0.013 C 
HETATM    4  C7  UNL     1       5.936   4.760  26.304  1.00  0.00     0.021 C 
HETATM    5  C8  UNL     1       6.050   3.402  24.314  1.00  0.00    -0.059 C 
HETATM    6  C9  UNL     1       6.478   2.242  24.864  1.00  0.00     0.009 C 
HETATM    7  C10 UNL     1       6.015   1.798  26.209  1.00  0.00     0.149 C 
HETATM    8  C11 UNL     1       6.332   4.105  23.054  1.00  0.00     0.115 C 
HETATM    9  C12 UNL     1       7.780   4.073  22.698  1.00  0.00     0.156 C 
HETATM   10  O2  UNL     1       8.401   3.124  23.057  1.00  0.00    -0.296 OA
HETATM   11  C13 UNL     1       8.512   5.125  21.936  1.00  0.00     0.198 C 
HETATM   12  C17 UNL     1       7.549   5.893  21.143  1.00  0.00     0.179 C 
HETATM   13  O4  UNL     1       7.524   5.647  19.963  1.00  0.00    -0.293 OA
HETATM   14  C18 UNL     1       6.599   6.933  21.602  1.00  0.00     0.122 C 
HETATM   15  O5  UNL     1       5.586   6.286  22.266  1.00  0.00    -0.366 OA
HETATM   16  C23 UNL     1       5.914   5.527  23.336  1.00  0.00     0.144 C 
HETATM   17  C24 UNL     1       4.710   5.301  24.267  1.00  0.00     0.032 C 
ENDROOT
BRANCH  17  18
HETATM   18  C25 UNL     1       3.425   5.431  23.595  1.00  0.00    -0.010 C 
HETATM   19  C26 UNL     1       2.320   5.929  24.498  1.00  0.00     0.010 C 
BRANCH  18  20
HETATM   20  C27 UNL     1       2.902   4.410  22.672  1.00  0.00     0.019 C 
BRANCH  20  21
HETATM   21  C28 UNL     1       1.699   4.913  21.901  1.00  0.00     0.083 C 
HETATM   22  C29 UNL     1       1.193   3.679  21.094  1.00  0.00     0.021 C 
BRANCH  21  23
HETATM   23  C30 UNL     1       1.998   5.889  20.840  1.00  0.00     0.176 C 
HETATM   24  O6  UNL     1       2.937   5.669  20.049  1.00  0.00    -0.648 OA
HETATM   25  O7  UNL     1       1.227   7.063  20.714  1.00  0.00    -0.648 OA
ENDBRANCH  21  23
ENDBRANCH  20  21
ENDBRANCH  18  20
ENDBRANCH  17  18
BRANCH   1  26
HETATM   26  C2  UNL     1       3.879   1.515  27.411  1.00  0.00    -0.086 C 
HETATM   27  C1  UNL     1       3.815   2.341  28.464  1.00  0.00     0.014 C 
HETATM   28  C3  UNL     1       3.275   0.163  27.600  1.00  0.00     0.043 C 
ENDBRANCH   1  26
BRANCH  14  29
HETATM   29  C19 UNL     1       7.310   7.971  22.421  1.00  0.00     0.042 C 
HETATM   30  C20 UNL     1       8.385   8.694  21.689  1.00  0.00     0.009 C 
ENDBRANCH  14  29
BRANCH  14  31
HETATM   31  C21 UNL     1       6.020   7.599  20.377  1.00  0.00     0.042 C 
HETATM   32  C22 UNL     1       4.841   8.458  20.670  1.00  0.00     0.009 C 
ENDBRANCH  14  31
BRANCH   7  33
HETATM   33  O1  UNL     1       6.303   0.414  26.291  1.00  0.00    -0.391 OA
ATOM     34  H1  UNL     1       7.033   0.255  25.705  1.00  0.00     0.210 HD
ENDBRANCH   7  33
BRANCH  11  35
HETATM   35  C14 UNL     1       9.504   4.489  21.052  1.00  0.00     0.145 C 
HETATM   36  O3  UNL     1       9.189   3.500  20.421  1.00  0.00    -0.297 OA
BRANCH  35  37
HETATM   37  C15 UNL     1      10.895   5.006  20.890  1.00  0.00     0.075 C 
HETATM   38  C16 UNL     1      11.223   5.913  22.051  1.00  0.00     0.013 C 
ENDBRANCH  35  37
ENDBRANCH  11  35
TORSDOF 10
ENDMDL
MODEL 4
REMARK VINA RESULT: -5.696850786      5.276     10.197
REMARK  10 active torsions:
REMARK  status: ('A' for Active; 'I' for Inactive)
REMARK    1  A    between atoms: C2_2  and  C4_4 
REMARK    2  A    between atoms: C10_10  and  O1_11 
REMARK    3  A    between atoms: C13_16  and  C14_17 
REMARK    4  A    between atoms: C14_17  and  C15_19 
REMARK    5  A    between atoms: C18_23  and  C19_24 
REMARK    6  A    between atoms: C18_23  and  C21_26 
REMARK    7  A    between atoms: C24_30  and  C25_31 
REMARK    8  A    between atoms: C25_31  and  C27_33 
REMARK    9  A    between atoms: C27_33  and  C28_34 
REMARK   10  A    between atoms: C28_34  and  C30_36 
ROOT
HETATM    1  C4  UNL     1       6.363   1.947  26.702  1.00  0.00     0.047 C 
HETATM    2  C5  UNL     1       6.225   0.463  26.503  1.00  0.00     0.026 C 
HETATM    3  C6  UNL     1       7.312  -0.396  26.988  1.00  0.00    -0.013 C 
HETATM    4  C7  UNL     1       8.580  -0.257  26.110  1.00  0.00     0.021 C 
HETATM    5  C8  UNL     1       7.699   0.094  28.328  1.00  0.00    -0.059 C 
HETATM    6  C9  UNL     1       7.887   1.430  28.430  1.00  0.00     0.009 C 
HETATM    7  C10 UNL     1       7.713   2.335  27.258  1.00  0.00     0.149 C 
HETATM    8  C11 UNL     1       7.813  -1.031  29.266  1.00  0.00     0.115 C 
HETATM    9  C12 UNL     1       9.017  -0.923  30.140  1.00  0.00     0.156 C 
HETATM   10  O2  UNL     1       9.391   0.175  30.405  1.00  0.00    -0.296 OA
HETATM   11  C13 UNL     1       9.788  -2.067  30.704  1.00  0.00     0.198 C 
HETATM   12  C17 UNL     1       8.925  -3.250  30.741  1.00  0.00     0.179 C 
HETATM   13  O4  UNL     1       8.492  -3.551  31.824  1.00  0.00    -0.293 OA
HETATM   14  C18 UNL     1       8.513  -4.124  29.619  1.00  0.00     0.122 C 
HETATM   15  O5  UNL     1       7.583  -3.427  28.888  1.00  0.00    -0.366 OA
HETATM   16  C23 UNL     1       7.951  -2.236  28.366  1.00  0.00     0.144 C 
HETATM   17  C24 UNL     1       7.054  -1.826  27.186  1.00  0.00     0.032 C 
ENDROOT
BRANCH  17  18
HETATM   18  C25 UNL     1       5.736  -2.443  27.219  1.00  0.00    -0.010 C 
HETATM   19  C26 UNL     1       5.177  -2.744  25.846  1.00  0.00     0.010 C 
BRANCH  18  20
HETATM   20  C27 UNL     1       4.660  -1.980  28.110  1.00  0.00     0.019 C 
BRANCH  20  21
HETATM   21  C28 UNL     1       3.382  -1.698  27.349  1.00  0.00     0.083 C 
HETATM   22  C29 UNL     1       3.037  -0.213  27.677  1.00  0.00     0.021 C 
BRANCH  21  23
HETATM   23  C30 UNL     1       2.191  -2.417  27.833  1.00  0.00     0.176 C 
HETATM   24  O6  UNL     1       2.087  -3.643  27.624  1.00  0.00    -0.648 OA
HETATM   25  O7  UNL     1       1.178  -1.729  28.531  1.00  0.00    -0.648 OA
ENDBRANCH  21  23
ENDBRANCH  20  21
ENDBRANCH  18  20
ENDBRANCH  17  18
BRANCH   1  26
HETATM   26  C2  UNL     1       6.028   2.762  25.507  1.00  0.00    -0.086 C 
HETATM   27  C1  UNL     1       4.861   3.411  25.394  1.00  0.00     0.014 C 
HETATM   28  C3  UNL     1       6.974   2.907  24.361  1.00  0.00     0.043 C 
ENDBRANCH   1  26
BRANCH  14  29
HETATM   29  C19 UNL     1       9.711  -4.569  28.830  1.00  0.00     0.042 C 
HETATM   30  C20 UNL     1       9.918  -6.043  28.817  1.00  0.00     0.009 C 
ENDBRANCH  14  29
BRANCH  14  31
HETATM   31  C21 UNL     1       7.844  -5.343  30.207  1.00  0.00     0.042 C 
HETATM   32  C22 UNL     1       6.378  -5.393  29.960  1.00  0.00     0.009 C 
ENDBRANCH  14  31
BRANCH   7  33
HETATM   33  O1  UNL     1       7.572   3.642  27.784  1.00  0.00    -0.391 OA
ATOM     34  H1  UNL     1       8.451   3.982  27.902  1.00  0.00     0.210 HD
ENDBRANCH   7  33
BRANCH  11  35
HETATM   35  C14 UNL     1      10.242  -1.728  32.065  1.00  0.00     0.145 C 
HETATM   36  O3  UNL     1       9.462  -1.211  32.839  1.00  0.00    -0.297 OA
BRANCH  35  37
HETATM   37  C15 UNL     1      11.630  -1.994  32.546  1.00  0.00     0.075 C 
HETATM   38  C16 UNL     1      12.483  -2.426  31.379  1.00  0.00     0.013 C 
ENDBRANCH  35  37
ENDBRANCH  11  35
TORSDOF 10
ENDMDL
MODEL 5
REMARK VINA RESULT: -5.364085075      1.093      1.315
REMARK  10 active torsions:
REMARK  status: ('A' for Active; 'I' for Inactive)
REMARK    1  A    between atoms: C2_2  and  C4_4 
REMARK    2  A    between atoms: C10_10  and  O1_11 
REMARK    3  A    between atoms: C13_16  and  C14_17 
REMARK    4  A    between atoms: C14_17  and  C15_19 
REMARK    5  A    between atoms: C18_23  and  C19_24 
REMARK    6  A    between atoms: C18_23  and  C21_26 
REMARK    7  A    between atoms: C24_30  and  C25_31 
REMARK    8  A    between atoms: C25_31  and  C27_33 
REMARK    9  A    between atoms: C27_33  and  C28_34 
REMARK   10  A    between atoms: C28_34  and  C30_36 
ROOT
HETATM    1  C4  UNL     1       4.865   2.189  25.767  1.00  0.00     0.047 C 
HETATM    2  C5  UNL     1       4.207   3.483  25.370  1.00  0.00     0.026 C 
HETATM    3  C6  UNL     1       5.074   4.579  24.920  1.00  0.00    -0.013 C 
HETATM    4  C7  UNL     1       5.878   5.187  26.095  1.00  0.00     0.021 C 
HETATM    5  C8  UNL     1       6.081   4.000  24.005  1.00  0.00    -0.059 C 
HETATM    6  C9  UNL     1       6.697   2.880  24.448  1.00  0.00     0.009 C 
HETATM    7  C10 UNL     1       6.372   2.282  25.774  1.00  0.00     0.149 C 
HETATM    8  C11 UNL     1       6.195   4.821  22.792  1.00  0.00     0.115 C 
HETATM    9  C12 UNL     1       7.612   5.026  22.375  1.00  0.00     0.156 C 
HETATM   10  O2  UNL     1       8.379   4.155  22.635  1.00  0.00    -0.296 OA
HETATM   11  C13 UNL     1       8.146   6.223  21.665  1.00  0.00     0.198 C 
HETATM   12  C17 UNL     1       7.044   6.895  20.972  1.00  0.00     0.179 C 
HETATM   13  O4  UNL     1       6.994   6.729  19.779  1.00  0.00    -0.293 OA
HETATM   14  C18 UNL     1       5.981   7.751  21.547  1.00  0.00     0.122 C 
HETATM   15  O5  UNL     1       5.106   6.919  22.201  1.00  0.00    -0.366 OA
HETATM   16  C23 UNL     1       5.593   6.145  23.197  1.00  0.00     0.144 C 
HETATM   17  C24 UNL     1       4.483   5.683  24.156  1.00  0.00     0.032 C 
ENDROOT
BRANCH  17  18
HETATM   18  C25 UNL     1       3.160   5.669  23.549  1.00  0.00    -0.010 C 
HETATM   19  C26 UNL     1       2.056   6.073  24.500  1.00  0.00     0.010 C 
BRANCH  18  20
HETATM   20  C27 UNL     1       2.697   4.582  22.671  1.00  0.00     0.019 C 
BRANCH  20  21
HETATM   21  C28 UNL     1       1.495   4.997  21.849  1.00  0.00     0.083 C 
HETATM   22  C29 UNL     1       1.158   3.754  20.971  1.00  0.00     0.021 C 
BRANCH  21  23
HETATM   23  C30 UNL     1       1.752   6.040  20.843  1.00  0.00     0.176 C 
HETATM   24  O6  UNL     1       1.005   7.038  20.786  1.00  0.00    -0.648 OA
HETATM   25  O7  UNL     1       2.837   5.917  19.950  1.00  0.00    -0.648 OA
ENDBRANCH  21  23
ENDBRANCH  20  21
ENDBRANCH  18  20
ENDBRANCH  17  18
BRANCH   1  26
HETATM   26  C2  UNL     1       4.363   1.609  27.039  1.00  0.00    -0.086 C 
HETATM   27  C1  UNL     1       3.603   0.506  27.064  1.00  0.00     0.014 C 
HETATM   28  C3  UNL     1       4.679   2.220  28.363  1.00  0.00     0.043 C 
ENDBRANCH   1  26
BRANCH  14  29
HETATM   29  C19 UNL     1       6.577   8.823  22.411  1.00  0.00     0.042 C 
HETATM   30  C20 UNL     1       7.564   9.691  21.713  1.00  0.00     0.009 C 
ENDBRANCH  14  29
BRANCH  14  31
HETATM   31  C21 UNL     1       5.251   8.408  20.400  1.00  0.00     0.042 C 
HETATM   32  C22 UNL     1       4.018   9.129  20.817  1.00  0.00     0.009 C 
ENDBRANCH  14  31
BRANCH   7  33
HETATM   33  O1  UNL     1       6.858   0.953  25.740  1.00  0.00    -0.391 OA
ATOM     34  H1  UNL     1       6.765   0.609  26.620  1.00  0.00     0.210 HD
ENDBRANCH   7  33
BRANCH  11  35
HETATM   35  C14 UNL     1       9.172   5.800  20.695  1.00  0.00     0.145 C 
HETATM   36  O3  UNL     1      10.210   6.426  20.619  1.00  0.00    -0.297 OA
BRANCH  35  37
HETATM   37  C15 UNL     1       8.998   4.626  19.790  1.00  0.00     0.075 C 
HETATM   38  C16 UNL     1       9.640   4.929  18.458  1.00  0.00     0.013 C 
ENDBRANCH  35  37
ENDBRANCH  11  35
TORSDOF 10
ENDMDL
