MODEL 1
REMARK VINA RESULT: -7.878355089      0.000      0.000
REMARK  10 active torsions:
REMARK  status: ('A' for Active; 'I' for Inactive)
REMARK    1  A    between atoms: C2_2  and  C4_4 
REMARK    2  A    between atoms: C4_4  and  C5_5 
REMARK    3  A    between atoms: C6_6  and  C7_7 
REMARK    4  A    between atoms: C7_7  and  C9_9 
REMARK    5  A    between atoms: C18_18  and  C19_19 
REMARK    6  A    between atoms: C19_19  and  O1_20 
REMARK    7  A    between atoms: C25_30  and  O5_31 
REMARK    8  A    between atoms: O5_31  and  C26_32 
REMARK    9  A    between atoms: C26_32  and  C27_34 
REMARK   10  A    between atoms: C27_34  and  O7_36 
ROOT
HETATM    1  C9  UNL     1       4.304   4.497  24.351  1.00  0.00     0.004 C 
HETATM    2  C10 UNL     1       3.275   4.900  25.385  1.00  0.00     0.006 C 
HETATM    3  C11 UNL     1       3.723   4.222  26.712  1.00  0.00     0.007 C 
HETATM    4  C12 UNL     1       4.691   3.249  26.143  1.00  0.00     0.005 C 
HETATM    5  C13 UNL     1       5.394   2.289  26.939  1.00  0.00    -0.029 C 
HETATM    6  C14 UNL     1       6.522   2.719  27.837  1.00  0.00     0.016 C 
HETATM    7  C15 UNL     1       4.428   1.564  27.833  1.00  0.00     0.011 C 
HETATM    8  C16 UNL     1       3.538   0.555  27.265  1.00  0.00     0.012 C 
HETATM    9  C17 UNL     1       3.720  -0.832  27.886  1.00  0.00     0.072 A 
HETATM   10  C18 UNL     1       3.704  -2.022  27.024  1.00  0.00     0.130 A 
HETATM   11  O2  UNL     1       4.619  -2.301  26.066  1.00  0.00    -0.351 OA
HETATM   12  C20 UNL     1       4.858  -1.605  27.391  1.00  0.00     0.170 A 
HETATM   13  C21 UNL     1       6.105  -0.940  27.293  1.00  0.00     0.233 C 
HETATM   14  O3  UNL     1       7.017  -1.520  27.930  1.00  0.00    -0.286 OA
HETATM   15  C22 UNL     1       6.672   0.263  26.646  1.00  0.00     0.203 C 
HETATM   16  O4  UNL     1       7.914   0.333  26.775  1.00  0.00    -0.289 OA
HETATM   17  C23 UNL     1       6.023   1.360  25.896  1.00  0.00     0.074 C 
HETATM   18  C24 UNL     1       6.925   2.075  24.999  1.00  0.00     0.046 C 
HETATM   19  C25 UNL     1       6.665   3.519  24.660  1.00  0.00     0.141 C 
HETATM   20  C29 UNL     1       5.485   4.183  25.202  1.00  0.00    -0.009 C 
HETATM   21  C30 UNL     1       5.843   5.450  25.989  1.00  0.00     0.018 C 
ENDROOT
BRANCH   1  22
HETATM   22  C7  UNL     1       4.366   5.392  23.202  1.00  0.00     0.009 C 
HETATM   23  C8  UNL     1       3.903   6.800  23.404  1.00  0.00     0.014 C 
BRANCH  22  24
HETATM   24  C6  UNL     1       3.805   4.878  21.916  1.00  0.00    -0.026 C 
HETATM   25  C5  UNL     1       2.537   4.209  21.765  1.00  0.00    -0.030 C 
BRANCH  25  26
HETATM   26  C4  UNL     1       1.229   4.833  22.039  1.00  0.00     0.030 C 
BRANCH  26  27
HETATM   27  C2  UNL     1       0.022   4.136  21.457  1.00  0.00    -0.019 C 
HETATM   28  C1  UNL     1      -0.821   5.137  20.658  1.00  0.00     0.010 C 
HETATM   29  C3  UNL     1       0.565   3.141  20.429  1.00  0.00     0.010 C 
ENDBRANCH  26  27
ENDBRANCH  25  26
ENDBRANCH  22  24
ENDBRANCH   1  22
BRANCH  19  30
HETATM   30  O5  UNL     1       7.058   3.811  23.333  1.00  0.00    -0.313 OA
BRANCH  30  31
HETATM   31  C26 UNL     1       8.343   3.855  22.849  1.00  0.00     0.287 C 
HETATM   32  O6  UNL     1       9.203   4.112  23.723  1.00  0.00    -0.262 OA
BRANCH  31  33
HETATM   33  C27 UNL     1       8.724   3.623  21.442  1.00  0.00     0.213 C 
HETATM   34  C28 UNL     1       7.944   4.441  20.475  1.00  0.00     0.050 C 
BRANCH  33  35
HETATM   35  O7  UNL     1      10.080   3.993  21.282  1.00  0.00    -0.386 OA
ATOM     36  H7  UNL     1      10.444   3.489  20.564  1.00  0.00     0.210 HD
ENDBRANCH  33  35
ENDBRANCH  31  33
ENDBRANCH  30  31
ENDBRANCH  19  30
BRANCH  10  37
HETATM   37  C19 UNL     1       2.936  -3.218  27.543  1.00  0.00     0.206 C 
BRANCH  37  38
HETATM   38  O1  UNL     1       2.161  -3.814  26.562  1.00  0.00    -0.398 OA
ATOM     39  H1  UNL     1       1.341  -3.356  26.419  1.00  0.00     0.209 HD
ENDBRANCH  37  38
ENDBRANCH  10  37
TORSDOF 10
ENDMDL
MODEL 2
REMARK VINA RESULT: -7.455075557      1.432      2.066
REMARK  10 active torsions:
REMARK  status: ('A' for Active; 'I' for Inactive)
REMARK    1  A    between atoms: C2_2  and  C4_4 
REMARK    2  A    between atoms: C4_4  and  C5_5 
REMARK    3  A    between atoms: C6_6  and  C7_7 
REMARK    4  A    between atoms: C7_7  and  C9_9 
REMARK    5  A    between atoms: C18_18  and  C19_19 
REMARK    6  A    between atoms: C19_19  and  O1_20 
REMARK    7  A    between atoms: C25_30  and  O5_31 
REMARK    8  A    between atoms: O5_31  and  C26_32 
REMARK    9  A    between atoms: C26_32  and  C27_34 
REMARK   10  A    between atoms: C27_34  and  O7_36 
ROOT
HETATM    1  C9  UNL     1       3.473   4.835  23.183  1.00  0.00     0.004 C 
HETATM    2  C10 UNL     1       2.643   5.383  24.323  1.00  0.00     0.006 C 
HETATM    3  C11 UNL     1       3.489   5.156  25.608  1.00  0.00     0.007 C 
HETATM    4  C12 UNL     1       4.467   4.183  25.055  1.00  0.00     0.005 C 
HETATM    5  C13 UNL     1       5.491   3.570  25.845  1.00  0.00    -0.029 C 
HETATM    6  C14 UNL     1       6.693   4.360  26.288  1.00  0.00     0.016 C 
HETATM    7  C15 UNL     1       4.895   3.011  27.106  1.00  0.00     0.011 C 
HETATM    8  C16 UNL     1       4.100   1.788  27.047  1.00  0.00     0.012 C 
HETATM    9  C17 UNL     1       4.665   0.656  27.912  1.00  0.00     0.072 A 
HETATM   10  C18 UNL     1       4.675  -0.718  27.393  1.00  0.00     0.130 A 
HETATM   11  O2  UNL     1       5.390  -1.141  26.323  1.00  0.00    -0.351 OA
HETATM   12  C20 UNL     1       5.786  -0.084  27.335  1.00  0.00     0.170 A 
HETATM   13  C21 UNL     1       6.838   0.670  26.759  1.00  0.00     0.233 C 
HETATM   14  O3  UNL     1       7.958   0.400  27.256  1.00  0.00    -0.286 OA
HETATM   15  C22 UNL     1       7.020   1.706  25.719  1.00  0.00     0.203 C 
HETATM   16  O4  UNL     1       8.225   1.954  25.499  1.00  0.00    -0.289 OA
HETATM   17  C23 UNL     1       6.032   2.469  24.927  1.00  0.00     0.074 C 
HETATM   18  C24 UNL     1       6.568   3.010  23.681  1.00  0.00     0.046 C 
HETATM   19  C25 UNL     1       5.981   4.264  23.088  1.00  0.00     0.141 C 
HETATM   20  C29 UNL     1       4.850   4.908  23.745  1.00  0.00    -0.009 C 
HETATM   21  C30 UNL     1       5.137   6.376  24.086  1.00  0.00     0.018 C 
ENDROOT
BRANCH   1  22
HETATM   22  C7  UNL     1       3.116   5.379  21.878  1.00  0.00     0.009 C 
HETATM   23  C8  UNL     1       2.331   6.652  21.859  1.00  0.00     0.014 C 
BRANCH  22  24
HETATM   24  C6  UNL     1       2.521   4.428  20.892  1.00  0.00    -0.026 C 
HETATM   25  C5  UNL     1       1.316   3.662  21.090  1.00  0.00    -0.030 C 
BRANCH  25  26
HETATM   26  C4  UNL     1      -0.025   4.251  21.269  1.00  0.00     0.030 C 
BRANCH  26  27
HETATM   27  C2  UNL     1      -0.695   4.775  20.022  1.00  0.00    -0.019 C 
HETATM   28  C1  UNL     1      -1.524   3.663  19.370  1.00  0.00     0.010 C 
HETATM   29  C3  UNL     1      -1.707   5.821  20.495  1.00  0.00     0.010 C 
ENDBRANCH  26  27
ENDBRANCH  25  26
ENDBRANCH  22  24
ENDBRANCH   1  22
BRANCH  19  30
HETATM   30  O5  UNL     1       6.011   4.224  21.675  1.00  0.00    -0.313 OA
BRANCH  30  31
HETATM   31  C26 UNL     1       6.889   4.889  20.853  1.00  0.00     0.287 C 
HETATM   32  O6  UNL     1       6.444   5.976  20.415  1.00  0.00    -0.262 OA
BRANCH  31  33
HETATM   33  C27 UNL     1       8.239   4.412  20.495  1.00  0.00     0.213 C 
HETATM   34  C28 UNL     1       9.289   4.827  21.464  1.00  0.00     0.050 C 
BRANCH  33  35
HETATM   35  O7  UNL     1       8.226   2.998  20.495  1.00  0.00    -0.386 OA
ATOM     36  H7  UNL     1       7.816   2.703  19.690  1.00  0.00     0.210 HD
ENDBRANCH  33  35
ENDBRANCH  31  33
ENDBRANCH  30  31
ENDBRANCH  19  30
BRANCH  10  37
HETATM   37  C19 UNL     1       4.271  -1.806  28.363  1.00  0.00     0.206 C 
BRANCH  37  38
HETATM   38  O1  UNL     1       4.931  -3.000  28.123  1.00  0.00    -0.398 OA
ATOM     39  H1  UNL     1       4.740  -3.353  27.262  1.00  0.00     0.209 HD
ENDBRANCH  37  38
ENDBRANCH  10  37
TORSDOF 10
ENDMDL
MODEL 3
REMARK VINA RESULT: -7.361927468      1.403      1.810
REMARK  10 active torsions:
REMARK  status: ('A' for Active; 'I' for Inactive)
REMARK    1  A    between atoms: C2_2  and  C4_4 
REMARK    2  A    between atoms: C4_4  and  C5_5 
REMARK    3  A    between atoms: C6_6  and  C7_7 
REMARK    4  A    between atoms: C7_7  and  C9_9 
REMARK    5  A    between atoms: C18_18  and  C19_19 
REMARK    6  A    between atoms: C19_19  and  O1_20 
REMARK    7  A    between atoms: C25_30  and  O5_31 
REMARK    8  A    between atoms: O5_31  and  C26_32 
REMARK    9  A    between atoms: C26_32  and  C27_34 
REMARK   10  A    between atoms: C27_34  and  O7_36 
ROOT
HETATM    1  C9  UNL     1       3.699   4.649  23.265  1.00  0.00     0.004 C 
HETATM    2  C10 UNL     1       2.805   5.164  24.370  1.00  0.00     0.006 C 
HETATM    3  C11 UNL     1       3.558   4.864  25.698  1.00  0.00     0.007 C 
HETATM    4  C12 UNL     1       4.553   3.896  25.168  1.00  0.00     0.005 C 
HETATM    5  C13 UNL     1       5.511   3.228  25.996  1.00  0.00    -0.029 C 
HETATM    6  C14 UNL     1       6.694   3.973  26.553  1.00  0.00     0.016 C 
HETATM    7  C15 UNL     1       4.822   2.628  27.189  1.00  0.00     0.011 C 
HETATM    8  C16 UNL     1       4.011   1.425  27.024  1.00  0.00     0.012 C 
HETATM    9  C17 UNL     1       4.495   0.246  27.872  1.00  0.00     0.072 A 
HETATM   10  C18 UNL     1       4.515  -1.104  27.295  1.00  0.00     0.130 A 
HETATM   11  O2  UNL     1       5.293  -1.496  26.258  1.00  0.00    -0.351 OA
HETATM   12  C20 UNL     1       5.639  -0.492  27.339  1.00  0.00     0.170 A 
HETATM   13  C21 UNL     1       6.741   0.264  26.868  1.00  0.00     0.233 C 
HETATM   14  O3  UNL     1       7.820  -0.051  27.426  1.00  0.00    -0.286 OA
HETATM   15  C22 UNL     1       7.011   1.340  25.890  1.00  0.00     0.203 C 
HETATM   16  O4  UNL     1       8.233   1.571  25.761  1.00  0.00    -0.289 OA
HETATM   17  C23 UNL     1       6.092   2.157  25.068  1.00  0.00     0.074 C 
HETATM   18  C24 UNL     1       6.720   2.739  23.886  1.00  0.00     0.046 C 
HETATM   19  C25 UNL     1       6.198   4.030  23.312  1.00  0.00     0.141 C 
HETATM   20  C29 UNL     1       5.037   4.669  23.920  1.00  0.00    -0.009 C 
HETATM   21  C30 UNL     1       5.326   6.114  24.344  1.00  0.00     0.018 C 
ENDROOT
BRANCH   1  22
HETATM   22  C7  UNL     1       3.440   5.255  21.964  1.00  0.00     0.009 C 
HETATM   23  C8  UNL     1       2.827   6.620  21.956  1.00  0.00     0.014 C 
BRANCH  22  24
HETATM   24  C6  UNL     1       2.746   4.406  20.951  1.00  0.00    -0.026 C 
HETATM   25  C5  UNL     1       1.474   3.753  21.136  1.00  0.00    -0.030 C 
BRANCH  25  26
HETATM   26  C4  UNL     1       0.200   4.461  21.356  1.00  0.00     0.030 C 
BRANCH  26  27
HETATM   27  C2  UNL     1      -0.589   4.816  20.118  1.00  0.00    -0.019 C 
HETATM   28  C1  UNL     1      -1.522   3.658  19.746  1.00  0.00     0.010 C 
HETATM   29  C3  UNL     1      -1.507   5.973  20.520  1.00  0.00     0.010 C 
ENDBRANCH  26  27
ENDBRANCH  25  26
ENDBRANCH  22  24
ENDBRANCH   1  22
BRANCH  19  30
HETATM   30  O5  UNL     1       6.322   4.049  21.903  1.00  0.00    -0.313 OA
BRANCH  30  31
HETATM   31  C26 UNL     1       7.003   4.977  21.152  1.00  0.00     0.287 C 
HETATM   32  O6  UNL     1       7.931   5.546  21.773  1.00  0.00    -0.262 OA
BRANCH  31  33
HETATM   33  C27 UNL     1       6.710   5.303  19.743  1.00  0.00     0.213 C 
HETATM   34  C28 UNL     1       6.233   6.699  19.546  1.00  0.00     0.050 C 
BRANCH  33  35
HETATM   35  O7  UNL     1       7.907   5.177  18.999  1.00  0.00    -0.386 OA
ATOM     36  H7  UNL     1       7.795   5.636  18.174  1.00  0.00     0.210 HD
ENDBRANCH  33  35
ENDBRANCH  31  33
ENDBRANCH  30  31
ENDBRANCH  19  30
BRANCH  10  37
HETATM   37  C19 UNL     1       4.027  -2.225  28.188  1.00  0.00     0.206 C 
BRANCH  37  38
HETATM   38  O1  UNL     1       3.101  -3.038  27.556  1.00  0.00    -0.398 OA
ATOM     39  H1  UNL     1       2.995  -3.875  27.993  1.00  0.00     0.209 HD
ENDBRANCH  37  38
ENDBRANCH  10  37
TORSDOF 10
ENDMDL
MODEL 4
REMARK VINA RESULT: -7.300862191      1.697      2.399
REMARK  10 active torsions:
REMARK  status: ('A' for Active; 'I' for Inactive)
REMARK    1  A    between atoms: C2_2  and  C4_4 
REMARK    2  A    between atoms: C4_4  and  C5_5 
REMARK    3  A    between atoms: C6_6  and  C7_7 
REMARK    4  A    between atoms: C7_7  and  C9_9 
REMARK    5  A    between atoms: C18_18  and  C19_19 
REMARK    6  A    between atoms: C19_19  and  O1_20 
REMARK    7  A    between atoms: C25_30  and  O5_31 
REMARK    8  A    between atoms: O5_31  and  C26_32 
REMARK    9  A    between atoms: C26_32  and  C27_34 
REMARK   10  A    between atoms: C27_34  and  O7_36 
ROOT
HETATM    1  C9  UNL     1       3.342   4.694  23.127  1.00  0.00     0.004 C 
HETATM    2  C10 UNL     1       2.531   5.268  24.268  1.00  0.00     0.006 C 
HETATM    3  C11 UNL     1       3.423   5.126  25.534  1.00  0.00     0.007 C 
HETATM    4  C12 UNL     1       4.414   4.158  24.993  1.00  0.00     0.005 C 
HETATM    5  C13 UNL     1       5.481   3.613  25.776  1.00  0.00    -0.029 C 
HETATM    6  C14 UNL     1       6.671   4.458  26.143  1.00  0.00     0.016 C 
HETATM    7  C15 UNL     1       4.943   3.095  27.079  1.00  0.00     0.011 C 
HETATM    8  C16 UNL     1       4.186   1.847  27.102  1.00  0.00     0.012 C 
HETATM    9  C17 UNL     1       4.812   0.774  27.997  1.00  0.00     0.072 A 
HETATM   10  C18 UNL     1       4.849  -0.621  27.541  1.00  0.00     0.130 A 
HETATM   11  O2  UNL     1       5.543  -1.072  26.469  1.00  0.00    -0.351 OA
HETATM   12  C20 UNL     1       5.937   0.042  27.418  1.00  0.00     0.170 A 
HETATM   13  C21 UNL     1       6.947   0.800  26.775  1.00  0.00     0.233 C 
HETATM   14  O3  UNL     1       8.090   0.586  27.246  1.00  0.00    -0.286 OA
HETATM   15  C22 UNL     1       7.063   1.792  25.684  1.00  0.00     0.203 C 
HETATM   16  O4  UNL     1       8.253   2.066  25.413  1.00  0.00    -0.289 OA
HETATM   17  C23 UNL     1       6.027   2.488  24.891  1.00  0.00     0.074 C 
HETATM   18  C24 UNL     1       6.506   2.987  23.605  1.00  0.00     0.046 C 
HETATM   19  C25 UNL     1       5.862   4.194  22.976  1.00  0.00     0.141 C 
HETATM   20  C29 UNL     1       4.733   4.834  23.640  1.00  0.00    -0.009 C 
HETATM   21  C30 UNL     1       4.984   6.324  23.905  1.00  0.00     0.018 C 
ENDROOT
BRANCH   1  22
HETATM   22  C7  UNL     1       2.927   5.165  21.811  1.00  0.00     0.009 C 
HETATM   23  C8  UNL     1       2.382   6.556  21.723  1.00  0.00     0.014 C 
BRANCH  22  24
HETATM   24  C6  UNL     1       2.055   4.253  21.012  1.00  0.00    -0.026 C 
HETATM   25  C5  UNL     1       0.630   4.105  21.171  1.00  0.00    -0.030 C 
BRANCH  25  26
HETATM   26  C4  UNL     1      -0.350   5.181  20.935  1.00  0.00     0.030 C 
BRANCH  26  27
HETATM   27  C2  UNL     1      -1.679   4.758  20.356  1.00  0.00    -0.019 C 
HETATM   28  C1  UNL     1      -2.316   5.932  19.603  1.00  0.00     0.010 C 
HETATM   29  C3  UNL     1      -1.358   3.709  19.289  1.00  0.00     0.010 C 
ENDBRANCH  26  27
ENDBRANCH  25  26
ENDBRANCH  22  24
ENDBRANCH   1  22
BRANCH  19  30
HETATM   30  O5  UNL     1       5.849   4.089  21.565  1.00  0.00    -0.313 OA
BRANCH  30  31
HETATM   31  C26 UNL     1       6.480   4.924  20.674  1.00  0.00     0.287 C 
HETATM   32  O6  UNL     1       7.720   4.750  20.612  1.00  0.00    -0.262 OA
BRANCH  31  33
HETATM   33  C27 UNL     1       5.805   5.941  19.845  1.00  0.00     0.213 C 
HETATM   34  C28 UNL     1       6.734   6.692  18.958  1.00  0.00     0.050 C 
BRANCH  33  35
HETATM   35  O7  UNL     1       4.882   5.283  18.998  1.00  0.00    -0.386 OA
ATOM     36  H7  UNL     1       5.371   4.790  18.350  1.00  0.00     0.210 HD
ENDBRANCH  33  35
ENDBRANCH  31  33
ENDBRANCH  30  31
ENDBRANCH  19  30
BRANCH  10  37
HETATM   37  C19 UNL     1       4.510  -1.676  28.572  1.00  0.00     0.206 C 
BRANCH  37  38
HETATM   38  O1  UNL     1       5.117  -2.891  28.304  1.00  0.00    -0.398 OA
ATOM     39  H1  UNL     1       5.980  -2.960  28.694  1.00  0.00     0.209 HD
ENDBRANCH  37  38
ENDBRANCH  10  37
TORSDOF 10
ENDMDL
MODEL 5
REMARK VINA RESULT: -7.244463956      0.898      1.130
REMARK  10 active torsions:
REMARK  status: ('A' for Active; 'I' for Inactive)
REMARK    1  A    between atoms: C2_2  and  C4_4 
REMARK    2  A    between atoms: C4_4  and  C5_5 
REMARK    3  A    between atoms: C6_6  and  C7_7 
REMARK    4  A    between atoms: C7_7  and  C9_9 
REMARK    5  A    between atoms: C18_18  and  C19_19 
REMARK    6  A    between atoms: C19_19  and  O1_20 
REMARK    7  A    between atoms: C25_30  and  O5_31 
REMARK    8  A    between atoms: O5_31  and  C26_32 
REMARK    9  A    between atoms: C26_32  and  C27_34 
REMARK   10  A    between atoms: C27_34  and  O7_36 
ROOT
HETATM    1  C9  UNL     1       5.145   4.349  23.948  1.00  0.00     0.004 C 
HETATM    2  C10 UNL     1       3.971   4.859  24.754  1.00  0.00     0.006 C 
HETATM    3  C11 UNL     1       4.140   4.253  26.176  1.00  0.00     0.007 C 
HETATM    4  C12 UNL     1       5.142   3.206  25.848  1.00  0.00     0.005 C 
HETATM    5  C13 UNL     1       5.642   2.274  26.812  1.00  0.00    -0.029 C 
HETATM    6  C14 UNL     1       6.613   2.716  27.873  1.00  0.00     0.016 C 
HETATM    7  C15 UNL     1       4.497   1.648  27.557  1.00  0.00     0.011 C 
HETATM    8  C16 UNL     1       3.672   0.641  26.896  1.00  0.00     0.012 C 
HETATM    9  C17 UNL     1       3.670  -0.710  27.618  1.00  0.00     0.072 A 
HETATM   10  C18 UNL     1       3.747  -1.951  26.837  1.00  0.00     0.130 A 
HETATM   11  O2  UNL     1       4.802  -2.329  26.077  1.00  0.00    -0.351 OA
HETATM   12  C20 UNL     1       4.837  -1.558  27.382  1.00  0.00     0.170 A 
HETATM   13  C21 UNL     1       6.114  -0.951  27.473  1.00  0.00     0.233 C 
HETATM   14  O3  UNL     1       6.867  -1.524  28.297  1.00  0.00    -0.286 OA
HETATM   15  C22 UNL     1       6.848   0.184  26.871  1.00  0.00     0.203 C 
HETATM   16  O4  UNL     1       8.049   0.212  27.219  1.00  0.00    -0.289 OA
HETATM   17  C23 UNL     1       6.399   1.254  25.955  1.00  0.00     0.074 C 
HETATM   18  C24 UNL     1       7.481   1.872  25.196  1.00  0.00     0.046 C 
HETATM   19  C25 UNL     1       7.360   3.300  24.734  1.00  0.00     0.141 C 
HETATM   20  C29 UNL     1       6.139   4.044  25.014  1.00  0.00    -0.009 C 
HETATM   21  C30 UNL     1       6.415   5.345  25.780  1.00  0.00     0.018 C 
ENDROOT
BRANCH   1  22
HETATM   22  C7  UNL     1       5.456   5.163  22.779  1.00  0.00     0.009 C 
HETATM   23  C8  UNL     1       5.126   6.621  22.852  1.00  0.00     0.014 C 
BRANCH  22  24
HETATM   24  C6  UNL     1       5.019   4.634  21.453  1.00  0.00    -0.026 C 
HETATM   25  C5  UNL     1       3.651   4.453  21.033  1.00  0.00    -0.030 C 
BRANCH  25  26
HETATM   26  C4  UNL     1       2.679   5.550  20.870  1.00  0.00     0.030 C 
BRANCH  26  27
HETATM   27  C2  UNL     1       1.241   5.219  21.187  1.00  0.00    -0.019 C 
HETATM   28  C1  UNL     1       0.952   3.757  20.828  1.00  0.00     0.010 C 
HETATM   29  C3  UNL     1       1.115   5.301  22.710  1.00  0.00     0.010 C 
ENDBRANCH  26  27
ENDBRANCH  25  26
ENDBRANCH  22  24
ENDBRANCH   1  22
BRANCH  19  30
HETATM   30  O5  UNL     1       7.997   3.489  23.485  1.00  0.00    -0.313 OA
BRANCH  30  31
HETATM   31  C26 UNL     1       8.981   4.404  23.196  1.00  0.00     0.287 C 
HETATM   32  O6  UNL     1       9.637   4.773  24.198  1.00  0.00    -0.262 OA
BRANCH  31  33
HETATM   33  C27 UNL     1       9.278   4.929  21.850  1.00  0.00     0.213 C 
HETATM   34  C28 UNL     1       8.700   4.106  20.753  1.00  0.00     0.050 C 
BRANCH  33  35
HETATM   35  O7  UNL     1       8.699   6.215  21.736  1.00  0.00    -0.386 OA
ATOM     36  H7  UNL     1       8.599   6.417  20.813  1.00  0.00     0.210 HD
ENDBRANCH  33  35
ENDBRANCH  31  33
ENDBRANCH  30  31
ENDBRANCH  19  30
BRANCH  10  37
HETATM   37  C19 UNL     1       2.838  -3.079  27.276  1.00  0.00     0.206 C 
BRANCH  37  38
HETATM   38  O1  UNL     1       2.157  -3.652  26.215  1.00  0.00    -0.398 OA
ATOM     39  H1  UNL     1       1.768  -4.488  26.442  1.00  0.00     0.209 HD
ENDBRANCH  37  38
ENDBRANCH  10  37
TORSDOF 10
ENDMDL
