MODEL 1
REMARK VINA RESULT: -6.199118904      0.000      0.000
REMARK  11 active torsions:
REMARK  status: ('A' for Active; 'I' for Inactive)
REMARK    1  A    between atoms: O1_2  and  C2_3 
REMARK    2  A    between atoms: C2_3  and  C3_4 
REMARK    3  A    between atoms: C3_4  and  C4_5 
REMARK    4  A    between atoms: C4_5  and  C5_6 
REMARK    5  A    between atoms: C4_5  and  C31_37 
REMARK    6  A    between atoms: C6_7  and  C7_8 
REMARK    7  A    between atoms: C7_8  and  C8_9 
REMARK    8  A    between atoms: C9_10  and  C10_11 
REMARK    9  A    between atoms: C10_11  and  O2_12 
REMARK   10  A    between atoms: O2_12  and  C11_13 
REMARK   11  A    between atoms: C29_33  and  O5_34 
ROOT
HETATM    1  C8  UNL     1       5.852  -0.314  27.186  1.00  0.00     0.013 C 
HETATM    2  C9  UNL     1       6.713  -0.392  28.405  1.00  0.00    -0.005 C 
HETATM    3  C13 UNL     1       8.170  -0.666  28.038  1.00  0.00    -0.001 C 
HETATM    4  C14 UNL     1       9.223  -0.158  28.943  1.00  0.00     0.006 C 
HETATM    5  C15 UNL     1       9.976  -1.181  29.733  1.00  0.00     0.012 C 
HETATM    6  C16 UNL     1       9.248  -2.510  29.721  1.00  0.00    -0.018 C 
HETATM    7  C17 UNL     1      10.246  -3.465  30.420  1.00  0.00     0.018 C 
HETATM    8  C18 UNL     1       7.969  -2.524  30.407  1.00  0.00     0.012 C 
HETATM    9  C19 UNL     1       6.731  -2.682  29.572  1.00  0.00     0.007 C 
HETATM   10  C20 UNL     1       6.046  -1.381  29.276  1.00  0.00     0.006 C 
HETATM   11  C21 UNL     1       4.684  -1.646  28.736  1.00  0.00    -0.022 C 
HETATM   12  C22 UNL     1       3.679  -0.884  29.586  1.00  0.00     0.017 C 
HETATM   13  C23 UNL     1       4.177  -3.060  28.794  1.00  0.00     0.093 C 
HETATM   14  C24 UNL     1       2.915  -3.008  27.956  1.00  0.00     0.149 C 
HETATM   15  O4  UNL     1       2.298  -4.070  27.789  1.00  0.00    -0.293 OA
HETATM   16  C25 UNL     1       2.440  -1.736  27.363  1.00  0.00     0.047 C 
HETATM   17  C26 UNL     1       3.348  -0.800  27.002  1.00  0.00    -0.013 C 
HETATM   18  C27 UNL     1       4.721  -1.286  27.296  1.00  0.00    -0.013 C 
HETATM   19  C28 UNL     1       4.836  -2.411  26.294  1.00  0.00     0.021 C 
HETATM   20  C29 UNL     1       9.303  -2.905  28.277  1.00  0.00     0.126 C 
HETATM   21  C30 UNL     1       8.532  -1.932  27.376  1.00  0.00     0.038 C 
ENDROOT
BRANCH   1  22
HETATM   22  C7  UNL     1       5.442   0.914  26.532  1.00  0.00     0.033 C 
BRANCH  22  23
HETATM   23  C6  UNL     1       6.372   1.533  25.549  1.00  0.00    -0.029 C 
HETATM   24  C5  UNL     1       6.467   2.846  25.381  1.00  0.00    -0.015 C 
BRANCH  24  25
HETATM   25  C4  UNL     1       7.394   3.482  24.404  1.00  0.00     0.111 C 
BRANCH  25  26
HETATM   26  C3  UNL     1       7.795   2.500  23.366  1.00  0.00     0.045 C 
BRANCH  26  27
HETATM   27  C2  UNL     1       7.522   2.967  21.961  1.00  0.00     0.168 C 
BRANCH  27  28
HETATM   28  O1  UNL     1       6.388   3.812  22.059  1.00  0.00    -0.396 OA
HETATM   29  C1  UNL     1       6.366   4.714  20.996  1.00  0.00     0.201 C 
ENDBRANCH  27  28
ENDBRANCH  26  27
ENDBRANCH  25  26
BRANCH  25  30
HETATM   30  C31 UNL     1       8.566   4.051  25.080  1.00  0.00     0.180 C 
HETATM   31  O6  UNL     1       9.351   4.795  24.429  1.00  0.00    -0.647 OA
HETATM   32  O7  UNL     1       8.825   3.794  26.400  1.00  0.00    -0.647 OA
ENDBRANCH  25  30
ENDBRANCH  24  25
ENDBRANCH  22  23
ENDBRANCH   1  22
BRANCH   2  33
HETATM   33  C10 UNL     1       6.825   0.900  29.178  1.00  0.00     0.189 C 
BRANCH  33  34
HETATM   34  O2  UNL     1       6.365   0.905  30.491  1.00  0.00    -0.321 OA
BRANCH  34  35
HETATM   35  C11 UNL     1       7.122   1.462  31.468  1.00  0.00     0.254 C 
HETATM   36  C12 UNL     1       7.940   0.618  32.388  1.00  0.00     0.126 C 
HETATM   37  O3  UNL     1       7.135   2.718  31.601  1.00  0.00    -0.266 OA
ENDBRANCH  34  35
ENDBRANCH  33  34
ENDBRANCH   2  33
BRANCH  20  38
HETATM   38  O5  UNL     1       8.981  -4.227  28.028  1.00  0.00    -0.395 OA
ATOM     39  H5  UNL     1       9.534  -4.655  27.385  1.00  0.00     0.210 HD
ENDBRANCH  20  38
TORSDOF 11
ENDMDL
MODEL 2
REMARK VINA RESULT: -5.982086519      0.688      2.055
REMARK  11 active torsions:
REMARK  status: ('A' for Active; 'I' for Inactive)
REMARK    1  A    between atoms: O1_2  and  C2_3 
REMARK    2  A    between atoms: C2_3  and  C3_4 
REMARK    3  A    between atoms: C3_4  and  C4_5 
REMARK    4  A    between atoms: C4_5  and  C5_6 
REMARK    5  A    between atoms: C4_5  and  C31_37 
REMARK    6  A    between atoms: C6_7  and  C7_8 
REMARK    7  A    between atoms: C7_8  and  C8_9 
REMARK    8  A    between atoms: C9_10  and  C10_11 
REMARK    9  A    between atoms: C10_11  and  O2_12 
REMARK   10  A    between atoms: O2_12  and  C11_13 
REMARK   11  A    between atoms: C29_33  and  O5_34 
ROOT
HETATM    1  C8  UNL     1       6.172  -0.384  27.139  1.00  0.00     0.013 C 
HETATM    2  C9  UNL     1       6.964  -0.497  28.401  1.00  0.00    -0.005 C 
HETATM    3  C13 UNL     1       8.416  -0.874  28.112  1.00  0.00    -0.001 C 
HETATM    4  C14 UNL     1       9.454  -0.421  29.061  1.00  0.00     0.006 C 
HETATM    5  C15 UNL     1      10.097  -1.477  29.903  1.00  0.00     0.012 C 
HETATM    6  C16 UNL     1       9.284  -2.756  29.873  1.00  0.00    -0.018 C 
HETATM    7  C17 UNL     1      10.179  -3.763  30.634  1.00  0.00     0.018 C 
HETATM    8  C18 UNL     1       7.974  -2.673  30.493  1.00  0.00     0.012 C 
HETATM    9  C19 UNL     1       6.771  -2.763  29.600  1.00  0.00     0.007 C 
HETATM   10  C20 UNL     1       6.190  -1.425  29.251  1.00  0.00     0.006 C 
HETATM   11  C21 UNL     1       4.842  -1.609  28.646  1.00  0.00    -0.022 C 
HETATM   12  C22 UNL     1       3.849  -0.767  29.434  1.00  0.00     0.017 C 
HETATM   13  C23 UNL     1       4.239  -2.985  28.698  1.00  0.00     0.093 C 
HETATM   14  C24 UNL     1       3.027  -2.864  27.798  1.00  0.00     0.149 C 
HETATM   15  O4  UNL     1       2.349  -3.885  27.614  1.00  0.00    -0.293 OA
HETATM   16  C25 UNL     1       2.668  -1.574  27.163  1.00  0.00     0.047 C 
HETATM   17  C26 UNL     1       3.654  -0.706  26.836  1.00  0.00    -0.013 C 
HETATM   18  C27 UNL     1       4.974  -1.277  27.205  1.00  0.00    -0.013 C 
HETATM   19  C28 UNL     1       5.063  -2.424  26.226  1.00  0.00     0.021 C 
HETATM   20  C29 UNL     1       9.383  -3.179  28.439  1.00  0.00     0.126 C 
HETATM   21  C30 UNL     1       8.725  -2.172  27.487  1.00  0.00     0.038 C 
ENDROOT
BRANCH   1  22
HETATM   22  C7  UNL     1       5.878   0.857  26.448  1.00  0.00     0.033 C 
BRANCH  22  23
HETATM   23  C6  UNL     1       6.887   1.387  25.492  1.00  0.00    -0.029 C 
HETATM   24  C5  UNL     1       6.715   2.520  24.822  1.00  0.00    -0.015 C 
BRANCH  24  25
HETATM   25  C4  UNL     1       7.716   3.065  23.864  1.00  0.00     0.111 C 
BRANCH  25  26
HETATM   26  C3  UNL     1       8.304   4.319  24.396  1.00  0.00     0.045 C 
BRANCH  26  27
HETATM   27  C2  UNL     1       7.954   4.580  25.836  1.00  0.00     0.168 C 
BRANCH  27  28
HETATM   28  O1  UNL     1       9.050   4.084  26.587  1.00  0.00    -0.396 OA
HETATM   29  C1  UNL     1       8.726   4.040  27.942  1.00  0.00     0.201 C 
ENDBRANCH  27  28
ENDBRANCH  26  27
ENDBRANCH  25  26
BRANCH  25  30
HETATM   30  C31 UNL     1       7.119   3.275  22.539  1.00  0.00     0.180 C 
HETATM   31  O6  UNL     1       5.955   3.757  22.459  1.00  0.00    -0.647 OA
HETATM   32  O7  UNL     1       7.796   2.961  21.391  1.00  0.00    -0.647 OA
ENDBRANCH  25  30
ENDBRANCH  24  25
ENDBRANCH  22  23
ENDBRANCH   1  22
BRANCH   2  33
HETATM   33  C10 UNL     1       7.124   0.798  29.161  1.00  0.00     0.189 C 
BRANCH  33  34
HETATM   34  O2  UNL     1       6.596   0.857  30.446  1.00  0.00    -0.321 OA
BRANCH  34  35
HETATM   35  C11 UNL     1       7.338   1.372  31.456  1.00  0.00     0.254 C 
HETATM   36  C12 UNL     1       8.035   0.485  32.433  1.00  0.00     0.126 C 
HETATM   37  O3  UNL     1       7.442   2.626  31.573  1.00  0.00    -0.266 OA
ENDBRANCH  34  35
ENDBRANCH  33  34
ENDBRANCH   2  33
BRANCH  20  38
HETATM   38  O5  UNL     1       8.986  -4.481  28.193  1.00  0.00    -0.395 OA
ATOM     39  H5  UNL     1       8.620  -4.626  27.328  1.00  0.00     0.210 HD
ENDBRANCH  20  38
TORSDOF 11
ENDMDL
MODEL 3
REMARK VINA RESULT: -5.907962337      1.068      1.337
REMARK  11 active torsions:
REMARK  status: ('A' for Active; 'I' for Inactive)
REMARK    1  A    between atoms: O1_2  and  C2_3 
REMARK    2  A    between atoms: C2_3  and  C3_4 
REMARK    3  A    between atoms: C3_4  and  C4_5 
REMARK    4  A    between atoms: C4_5  and  C5_6 
REMARK    5  A    between atoms: C4_5  and  C31_37 
REMARK    6  A    between atoms: C6_7  and  C7_8 
REMARK    7  A    between atoms: C7_8  and  C8_9 
REMARK    8  A    between atoms: C9_10  and  C10_11 
REMARK    9  A    between atoms: C10_11  and  O2_12 
REMARK   10  A    between atoms: O2_12  and  C11_13 
REMARK   11  A    between atoms: C29_33  and  O5_34 
ROOT
HETATM    1  C8  UNL     1       5.577  -0.226  27.286  1.00  0.00     0.013 C 
HETATM    2  C9  UNL     1       6.495  -0.291  28.463  1.00  0.00    -0.005 C 
HETATM    3  C13 UNL     1       7.949  -0.464  28.024  1.00  0.00    -0.001 C 
HETATM    4  C14 UNL     1       9.009   0.076  28.900  1.00  0.00     0.006 C 
HETATM    5  C15 UNL     1       9.856  -0.924  29.620  1.00  0.00     0.012 C 
HETATM    6  C16 UNL     1       9.209  -2.294  29.592  1.00  0.00    -0.018 C 
HETATM    7  C17 UNL     1      10.292  -3.209  30.212  1.00  0.00     0.018 C 
HETATM    8  C18 UNL     1       7.965  -2.408  30.331  1.00  0.00     0.012 C 
HETATM    9  C19 UNL     1       6.702  -2.613  29.546  1.00  0.00     0.007 C 
HETATM   10  C20 UNL     1       5.929  -1.347  29.327  1.00  0.00     0.006 C 
HETATM   11  C21 UNL     1       4.562  -1.677  28.837  1.00  0.00    -0.022 C 
HETATM   12  C22 UNL     1       3.553  -1.006  29.756  1.00  0.00     0.017 C 
HETATM   13  C23 UNL     1       4.142  -3.120  28.866  1.00  0.00     0.093 C 
HETATM   14  C24 UNL     1       2.843  -3.117  28.086  1.00  0.00     0.149 C 
HETATM   15  O4  UNL     1       2.283  -4.209  27.908  1.00  0.00    -0.293 OA
HETATM   16  C25 UNL     1       2.268  -1.858  27.560  1.00  0.00     0.047 C 
HETATM   17  C26 UNL     1       3.101  -0.856  27.194  1.00  0.00    -0.013 C 
HETATM   18  C27 UNL     1       4.512  -1.268  27.410  1.00  0.00    -0.013 C 
HETATM   19  C28 UNL     1       4.648  -2.350  26.364  1.00  0.00     0.021 C 
HETATM   20  C29 UNL     1       9.222  -2.637  28.134  1.00  0.00     0.126 C 
HETATM   21  C30 UNL     1       8.354  -1.683  27.302  1.00  0.00     0.038 C 
ENDROOT
BRANCH   1  22
HETATM   22  C7  UNL     1       5.066   0.996  26.695  1.00  0.00     0.033 C 
BRANCH  22  23
HETATM   23  C6  UNL     1       5.949   1.753  25.767  1.00  0.00    -0.029 C 
HETATM   24  C5  UNL     1       5.553   2.851  25.137  1.00  0.00    -0.015 C 
BRANCH  24  25
HETATM   25  C4  UNL     1       6.426   3.622  24.207  1.00  0.00     0.111 C 
BRANCH  25  26
HETATM   26  C3  UNL     1       5.602   4.302  23.178  1.00  0.00     0.045 C 
BRANCH  26  27
HETATM   27  C2  UNL     1       4.131   4.309  23.496  1.00  0.00     0.168 C 
BRANCH  27  28
HETATM   28  O1  UNL     1       3.473   4.357  22.241  1.00  0.00    -0.396 OA
HETATM   29  C1  UNL     1       4.261   5.031  21.309  1.00  0.00     0.201 C 
ENDBRANCH  27  28
ENDBRANCH  26  27
ENDBRANCH  25  26
BRANCH  25  30
HETATM   30  C31 UNL     1       7.438   2.755  23.593  1.00  0.00     0.180 C 
HETATM   31  O6  UNL     1       7.197   2.225  22.473  1.00  0.00    -0.647 OA
HETATM   32  O7  UNL     1       8.637   2.508  24.206  1.00  0.00    -0.647 OA
ENDBRANCH  25  30
ENDBRANCH  24  25
ENDBRANCH  22  23
ENDBRANCH   1  22
BRANCH   2  33
HETATM   33  C10 UNL     1       6.566   0.979  29.277  1.00  0.00     0.189 C 
BRANCH  33  34
HETATM   34  O2  UNL     1       6.169   0.912  30.608  1.00  0.00    -0.321 OA
BRANCH  34  35
HETATM   35  C11 UNL     1       6.957   1.443  31.574  1.00  0.00     0.254 C 
HETATM   36  C12 UNL     1       7.710   0.571  32.523  1.00  0.00     0.126 C 
HETATM   37  O3  UNL     1       7.056   2.698  31.672  1.00  0.00    -0.266 OA
ENDBRANCH  34  35
ENDBRANCH  33  34
ENDBRANCH   2  33
BRANCH  20  38
HETATM   38  O5  UNL     1       8.967  -3.967  27.852  1.00  0.00    -0.395 OA
ATOM     39  H5  UNL     1       9.389  -4.293  27.066  1.00  0.00     0.210 HD
ENDBRANCH  20  38
TORSDOF 11
ENDMDL
MODEL 4
REMARK VINA RESULT: -5.841311802      1.490      4.836
REMARK  11 active torsions:
REMARK  status: ('A' for Active; 'I' for Inactive)
REMARK    1  A    between atoms: O1_2  and  C2_3 
REMARK    2  A    between atoms: C2_3  and  C3_4 
REMARK    3  A    between atoms: C3_4  and  C4_5 
REMARK    4  A    between atoms: C4_5  and  C5_6 
REMARK    5  A    between atoms: C4_5  and  C31_37 
REMARK    6  A    between atoms: C6_7  and  C7_8 
REMARK    7  A    between atoms: C7_8  and  C8_9 
REMARK    8  A    between atoms: C9_10  and  C10_11 
REMARK    9  A    between atoms: C10_11  and  O2_12 
REMARK   10  A    between atoms: O2_12  and  C11_13 
REMARK   11  A    between atoms: C29_33  and  O5_34 
ROOT
HETATM    1  C8  UNL     1       6.826   0.416  28.056  1.00  0.00     0.013 C 
HETATM    2  C9  UNL     1       6.318  -0.983  27.918  1.00  0.00    -0.005 C 
HETATM    3  C13 UNL     1       5.196  -1.066  26.885  1.00  0.00    -0.001 C 
HETATM    4  C14 UNL     1       5.018  -2.337  26.152  1.00  0.00     0.006 C 
HETATM    5  C15 UNL     1       3.799  -3.137  26.487  1.00  0.00     0.012 C 
HETATM    6  C16 UNL     1       3.183  -2.657  27.786  1.00  0.00    -0.018 C 
HETATM    7  C17 UNL     1       1.864  -3.462  27.870  1.00  0.00     0.018 C 
HETATM    8  C18 UNL     1       3.988  -2.877  28.973  1.00  0.00     0.012 C 
HETATM    9  C19 UNL     1       4.560  -1.672  29.663  1.00  0.00     0.007 C 
HETATM   10  C20 UNL     1       5.990  -1.403  29.296  1.00  0.00     0.006 C 
HETATM   11  C21 UNL     1       6.569  -0.413  30.244  1.00  0.00    -0.022 C 
HETATM   12  C22 UNL     1       7.835  -1.011  30.841  1.00  0.00     0.017 C 
HETATM   13  C23 UNL     1       5.757  -0.054  31.457  1.00  0.00     0.093 C 
HETATM   14  C24 UNL     1       6.511   1.124  32.040  1.00  0.00     0.149 C 
HETATM   15  O4  UNL     1       6.030   1.666  33.046  1.00  0.00    -0.293 OA
HETATM   16  C25 UNL     1       7.771   1.607  31.429  1.00  0.00     0.047 C 
HETATM   17  C26 UNL     1       7.944   1.483  30.093  1.00  0.00    -0.013 C 
HETATM   18  C27 UNL     1       6.745   0.851  29.484  1.00  0.00    -0.013 C 
HETATM   19  C28 UNL     1       5.721   1.942  29.691  1.00  0.00     0.021 C 
HETATM   20  C29 UNL     1       2.748  -1.263  27.451  1.00  0.00     0.126 C 
HETATM   21  C30 UNL     1       3.932  -0.346  27.118  1.00  0.00     0.038 C 
ENDROOT
BRANCH   1  22
HETATM   22  C7  UNL     1       8.009   0.942  27.401  1.00  0.00     0.033 C 
BRANCH  22  23
HETATM   23  C6  UNL     1       7.851   1.576  26.065  1.00  0.00    -0.029 C 
HETATM   24  C5  UNL     1       6.703   2.095  25.649  1.00  0.00    -0.015 C 
BRANCH  24  25
HETATM   25  C4  UNL     1       6.528   2.735  24.315  1.00  0.00     0.111 C 
BRANCH  25  26
HETATM   26  C3  UNL     1       7.746   2.538  23.490  1.00  0.00     0.045 C 
BRANCH  26  27
HETATM   27  C2  UNL     1       7.476   2.545  22.010  1.00  0.00     0.168 C 
BRANCH  27  28
HETATM   28  O1  UNL     1       8.134   3.698  21.512  1.00  0.00    -0.396 OA
HETATM   29  C1  UNL     1       7.237   4.499  20.807  1.00  0.00     0.201 C 
ENDBRANCH  27  28
ENDBRANCH  26  27
ENDBRANCH  25  26
BRANCH  25  30
HETATM   30  C31 UNL     1       6.200   4.159  24.451  1.00  0.00     0.180 C 
HETATM   31  O6  UNL     1       6.922   4.888  25.187  1.00  0.00    -0.647 OA
HETATM   32  O7  UNL     1       5.132   4.713  23.800  1.00  0.00    -0.647 OA
ENDBRANCH  25  30
ENDBRANCH  24  25
ENDBRANCH  22  23
ENDBRANCH   1  22
BRANCH   2  33
HETATM   33  C10 UNL     1       7.323  -1.964  27.365  1.00  0.00     0.189 C 
BRANCH  33  34
HETATM   34  O2  UNL     1       7.655  -3.059  28.158  1.00  0.00    -0.321 OA
BRANCH  34  35
HETATM   35  C11 UNL     1       8.957  -3.361  28.378  1.00  0.00     0.254 C 
HETATM   36  C12 UNL     1       9.968  -2.292  28.629  1.00  0.00     0.126 C 
HETATM   37  O3  UNL     1       9.322  -4.571  28.370  1.00  0.00    -0.266 OA
ENDBRANCH  34  35
ENDBRANCH  33  34
ENDBRANCH   2  33
BRANCH  20  38
HETATM   38  O5  UNL     1       1.878  -0.696  28.365  1.00  0.00    -0.395 OA
ATOM     39  H5  UNL     1       2.300  -0.258  29.095  1.00  0.00     0.210 HD
ENDBRANCH  20  38
TORSDOF 11
ENDMDL
MODEL 5
REMARK VINA RESULT: -5.837349675      1.543      4.885
REMARK  11 active torsions:
REMARK  status: ('A' for Active; 'I' for Inactive)
REMARK    1  A    between atoms: O1_2  and  C2_3 
REMARK    2  A    between atoms: C2_3  and  C3_4 
REMARK    3  A    between atoms: C3_4  and  C4_5 
REMARK    4  A    between atoms: C4_5  and  C5_6 
REMARK    5  A    between atoms: C4_5  and  C31_37 
REMARK    6  A    between atoms: C6_7  and  C7_8 
REMARK    7  A    between atoms: C7_8  and  C8_9 
REMARK    8  A    between atoms: C9_10  and  C10_11 
REMARK    9  A    between atoms: C10_11  and  O2_12 
REMARK   10  A    between atoms: O2_12  and  C11_13 
REMARK   11  A    between atoms: C29_33  and  O5_34 
ROOT
HETATM    1  C8  UNL     1       6.840   0.386  28.250  1.00  0.00     0.013 C 
HETATM    2  C9  UNL     1       6.334  -1.007  28.052  1.00  0.00    -0.005 C 
HETATM    3  C13 UNL     1       5.260  -1.057  26.966  1.00  0.00    -0.001 C 
HETATM    4  C14 UNL     1       5.111  -2.308  26.193  1.00  0.00     0.006 C 
HETATM    5  C15 UNL     1       3.875  -3.109  26.450  1.00  0.00     0.012 C 
HETATM    6  C16 UNL     1       3.201  -2.660  27.731  1.00  0.00    -0.018 C 
HETATM    7  C17 UNL     1       1.876  -3.460  27.733  1.00  0.00     0.018 C 
HETATM    8  C18 UNL     1       3.949  -2.915  28.948  1.00  0.00     0.012 C 
HETATM    9  C19 UNL     1       4.494  -1.732  29.695  1.00  0.00     0.007 C 
HETATM   10  C20 UNL     1       5.940  -1.461  29.402  1.00  0.00     0.006 C 
HETATM   11  C21 UNL     1       6.479  -0.499  30.402  1.00  0.00    -0.022 C 
HETATM   12  C22 UNL     1       7.712  -1.119  31.040  1.00  0.00     0.017 C 
HETATM   13  C23 UNL     1       5.613  -0.168  31.585  1.00  0.00     0.093 C 
HETATM   14  C24 UNL     1       6.343   0.991  32.233  1.00  0.00     0.149 C 
HETATM   15  O4  UNL     1       5.819   1.509  33.230  1.00  0.00    -0.293 OA
HETATM   16  C25 UNL     1       7.633   1.483  31.694  1.00  0.00     0.047 C 
HETATM   17  C26 UNL     1       7.866   1.393  30.364  1.00  0.00    -0.013 C 
HETATM   18  C27 UNL     1       6.695   0.783  29.684  1.00  0.00    -0.013 C 
HETATM   19  C28 UNL     1       5.667   1.875  29.872  1.00  0.00     0.021 C 
HETATM   20  C29 UNL     1       2.788  -1.255  27.413  1.00  0.00     0.126 C 
HETATM   21  C30 UNL     1       3.990  -0.336  27.159  1.00  0.00     0.038 C 
ENDROOT
BRANCH   1  22
HETATM   22  C7  UNL     1       8.054   0.921  27.665  1.00  0.00     0.033 C 
BRANCH  22  23
HETATM   23  C6  UNL     1       7.933   2.042  26.694  1.00  0.00    -0.029 C 
HETATM   24  C5  UNL     1       6.995   2.078  25.756  1.00  0.00    -0.015 C 
BRANCH  24  25
HETATM   25  C4  UNL     1       6.859   3.193  24.777  1.00  0.00     0.111 C 
BRANCH  25  26
HETATM   26  C3  UNL     1       5.445   3.326  24.347  1.00  0.00     0.045 C 
BRANCH  26  27
HETATM   27  C2  UNL     1       5.131   4.659  23.722  1.00  0.00     0.168 C 
BRANCH  27  28
HETATM   28  O1  UNL     1       4.601   4.360  22.442  1.00  0.00    -0.396 OA
HETATM   29  C1  UNL     1       3.212   4.473  22.456  1.00  0.00     0.201 C 
ENDBRANCH  27  28
ENDBRANCH  26  27
ENDBRANCH  25  26
BRANCH  25  30
HETATM   30  C31 UNL     1       7.751   2.999  23.627  1.00  0.00     0.180 C 
HETATM   31  O6  UNL     1       8.850   3.619  23.590  1.00  0.00    -0.647 OA
HETATM   32  O7  UNL     1       7.418   2.162  22.597  1.00  0.00    -0.647 OA
ENDBRANCH  25  30
ENDBRANCH  24  25
ENDBRANCH  22  23
ENDBRANCH   1  22
BRANCH   2  33
HETATM   33  C10 UNL     1       7.359  -1.979  27.521  1.00  0.00     0.189 C 
BRANCH  33  34
HETATM   34  O2  UNL     1       7.678  -3.074  28.317  1.00  0.00    -0.321 OA
BRANCH  34  35
HETATM   35  C11 UNL     1       8.977  -3.405  28.520  1.00  0.00     0.254 C 
HETATM   36  C12 UNL     1      10.004  -2.361  28.806  1.00  0.00     0.126 C 
HETATM   37  O3  UNL     1       9.323  -4.618  28.466  1.00  0.00    -0.266 OA
ENDBRANCH  34  35
ENDBRANCH  33  34
ENDBRANCH   2  33
BRANCH  20  38
HETATM   38  O5  UNL     1       1.879  -0.707  28.300  1.00  0.00    -0.395 OA
ATOM     39  H5  UNL     1       1.145  -1.272  28.515  1.00  0.00     0.210 HD
ENDBRANCH  20  38
TORSDOF 11
ENDMDL
