MODEL 1
REMARK VINA RESULT: -6.961451906      0.000      0.000
REMARK  8 active torsions:
REMARK  status: ('A' for Active; 'I' for Inactive)
REMARK    1  A    between atoms: C2_2  and  C3_3 
REMARK    2  A    between atoms: C2_2  and  C24_31 
REMARK    3  A    between atoms: C3_3  and  C4_5 
REMARK    4  A    between atoms: C13_14  and  O2_15 
REMARK    5  A    between atoms: O2_15  and  S1_16 
REMARK    6  A    between atoms: C21_27  and  C22_28 
REMARK    7  A    between atoms: C24_31  and  C26_33 
REMARK    8  A    between atoms: C26_33  and  C27_34 
ROOT
HETATM    1  C4  UNL     1       4.060   6.846  21.941  1.00  0.00     0.076 C 
HETATM    2  C5  UNL     1       5.263   6.691  20.982  1.00  0.00     0.014 C 
HETATM    3  C6  UNL     1       6.301   5.854  21.653  1.00  0.00     0.007 C 
HETATM    4  C7  UNL     1       5.474   5.126  22.671  1.00  0.00     0.007 C 
HETATM    5  C8  UNL     1       6.251   4.406  23.705  1.00  0.00    -0.001 C 
HETATM    6  C9  UNL     1       6.796   3.169  23.024  1.00  0.00     0.033 C 
HETATM    7  C10 UNL     1       7.168   2.160  24.013  1.00  0.00    -0.023 C 
HETATM    8  C11 UNL     1       6.751   2.069  25.251  1.00  0.00    -0.072 C 
HETATM    9  C12 UNL     1       7.247   0.962  26.105  1.00  0.00     0.068 C 
HETATM   10  C13 UNL     1       5.997   0.243  26.590  1.00  0.00     0.149 C 
HETATM   11  C14 UNL     1       5.136   1.208  27.323  1.00  0.00     0.035 C 
HETATM   12  C15 UNL     1       4.600   2.286  26.385  1.00  0.00     0.016 C 
HETATM   13  C16 UNL     1       5.801   3.047  25.806  1.00  0.00    -0.017 C 
HETATM   14  C17 UNL     1       6.447   3.667  27.071  1.00  0.00     0.020 C 
HETATM   15  C18 UNL     1       5.426   4.170  24.912  1.00  0.00     0.003 C 
HETATM   16  C19 UNL     1       3.941   4.137  24.593  1.00  0.00     0.007 C 
HETATM   17  C20 UNL     1       3.459   5.417  23.918  1.00  0.00     0.019 C 
HETATM   18  C21 UNL     1       4.553   6.157  23.229  1.00  0.00     0.035 C 
ENDROOT
BRANCH   1  19
HETATM   19  C3  UNL     1       2.864   6.264  21.342  1.00  0.00     0.160 C 
HETATM   20  O1  UNL     1       3.065   5.322  20.511  1.00  0.00    -0.292 OA
BRANCH  19  21
HETATM   21  C2  UNL     1       1.495   6.645  21.602  1.00  0.00    -0.017 C 
HETATM   22  C1  UNL     1       1.115   7.564  22.457  1.00  0.00     0.023 C 
BRANCH  21  23
HETATM   23  C24 UNL     1       0.383   5.985  20.830  1.00  0.00     0.027 C 
HETATM   24  C25 UNL     1      -0.803   6.862  20.638  1.00  0.00     0.015 C 
BRANCH  23  25
HETATM   25  C26 UNL     1      -0.038   4.665  21.417  1.00  0.00     0.122 C 
BRANCH  25  26
HETATM   26  C27 UNL     1       0.054   3.634  20.361  1.00  0.00     0.173 C 
HETATM   27  O7  UNL     1       1.006   2.835  20.349  1.00  0.00    -0.648 OA
HETATM   28  O8  UNL     1      -0.924   3.573  19.399  1.00  0.00    -0.648 OA
ENDBRANCH  25  26
ENDBRANCH  23  25
ENDBRANCH  21  23
ENDBRANCH  19  21
ENDBRANCH   1  19
BRANCH  18  29
HETATM   29  C22 UNL     1       5.201   7.223  24.016  1.00  0.00     0.133 C 
HETATM   30  C23 UNL     1       4.402   8.205  24.768  1.00  0.00     0.091 C 
HETATM   31  O6  UNL     1       6.397   7.336  24.072  1.00  0.00    -0.297 OA
ENDBRANCH  18  29
BRANCH  10  32
HETATM   32  O2  UNL     1       6.291  -0.907  27.284  1.00  0.00    -0.251 OA
BRANCH  32  33
HETATM   33  S1  UNL     1       5.293  -2.183  27.064  1.00  0.00     0.251 S 
HETATM   34  O3  UNL     1       5.573  -2.838  25.742  1.00  0.00    -0.572 OA
HETATM   35  O4  UNL     1       3.837  -1.870  27.214  1.00  0.00    -0.572 OA
HETATM   36  O5  UNL     1       5.647  -3.346  28.254  1.00  0.00    -0.572 OA
ENDBRANCH  32  33
ENDBRANCH  10  32
TORSDOF 8
ENDMDL
MODEL 2
REMARK VINA RESULT: -6.747527641      1.102      1.322
REMARK  8 active torsions:
REMARK  status: ('A' for Active; 'I' for Inactive)
REMARK    1  A    between atoms: C2_2  and  C3_3 
REMARK    2  A    between atoms: C2_2  and  C24_31 
REMARK    3  A    between atoms: C3_3  and  C4_5 
REMARK    4  A    between atoms: C13_14  and  O2_15 
REMARK    5  A    between atoms: O2_15  and  S1_16 
REMARK    6  A    between atoms: C21_27  and  C22_28 
REMARK    7  A    between atoms: C24_31  and  C26_33 
REMARK    8  A    between atoms: C26_33  and  C27_34 
ROOT
HETATM    1  C4  UNL     1       4.640   6.276  21.315  1.00  0.00     0.076 C 
HETATM    2  C5  UNL     1       5.794   5.916  20.352  1.00  0.00     0.014 C 
HETATM    3  C6  UNL     1       6.829   5.156  21.112  1.00  0.00     0.007 C 
HETATM    4  C7  UNL     1       6.022   4.641  22.267  1.00  0.00     0.007 C 
HETATM    5  C8  UNL     1       6.817   4.068  23.376  1.00  0.00    -0.001 C 
HETATM    6  C9  UNL     1       7.287   2.713  22.889  1.00  0.00     0.033 C 
HETATM    7  C10 UNL     1       7.666   1.866  24.017  1.00  0.00    -0.023 C 
HETATM    8  C11 UNL     1       7.300   1.995  25.267  1.00  0.00    -0.072 C 
HETATM    9  C12 UNL     1       7.793   1.024  26.274  1.00  0.00     0.068 C 
HETATM   10  C13 UNL     1       6.540   0.447  26.916  1.00  0.00     0.149 C 
HETATM   11  C14 UNL     1       5.747   1.555  27.511  1.00  0.00     0.035 C 
HETATM   12  C15 UNL     1       5.209   2.486  26.428  1.00  0.00     0.016 C 
HETATM   13  C16 UNL     1       6.410   3.091  25.688  1.00  0.00    -0.017 C 
HETATM   14  C17 UNL     1       7.132   3.881  26.808  1.00  0.00     0.020 C 
HETATM   15  C18 UNL     1       6.038   4.067  24.635  1.00  0.00     0.003 C 
HETATM   16  C19 UNL     1       4.539   4.045  24.381  1.00  0.00     0.007 C 
HETATM   17  C20 UNL     1       4.075   5.217  23.522  1.00  0.00     0.019 C 
HETATM   18  C21 UNL     1       5.164   5.787  22.680  1.00  0.00     0.035 C 
ENDROOT
BRANCH   1  19
HETATM   19  C3  UNL     1       3.399   5.655  20.865  1.00  0.00     0.160 C 
HETATM   20  O1  UNL     1       3.514   4.493  20.361  1.00  0.00    -0.292 OA
BRANCH  19  21
HETATM   21  C2  UNL     1       2.073   6.222  20.940  1.00  0.00    -0.017 C 
HETATM   22  C1  UNL     1       1.748   7.440  20.576  1.00  0.00     0.023 C 
BRANCH  21  23
HETATM   23  C24 UNL     1       0.932   5.374  21.439  1.00  0.00     0.027 C 
HETATM   24  C25 UNL     1       1.103   4.924  22.846  1.00  0.00     0.015 C 
BRANCH  23  25
HETATM   25  C26 UNL     1       0.641   4.197  20.550  1.00  0.00     0.122 C 
BRANCH  25  26
HETATM   26  C27 UNL     1      -0.726   4.348  20.006  1.00  0.00     0.173 C 
HETATM   27  O7  UNL     1      -1.150   3.552  19.151  1.00  0.00    -0.648 OA
HETATM   28  O8  UNL     1      -1.514   5.377  20.458  1.00  0.00    -0.648 OA
ENDBRANCH  25  26
ENDBRANCH  23  25
ENDBRANCH  21  23
ENDBRANCH  19  21
ENDBRANCH   1  19
BRANCH  18  29
HETATM   29  C22 UNL     1       5.883   6.939  23.256  1.00  0.00     0.133 C 
HETATM   30  C23 UNL     1       5.151   8.072  23.849  1.00  0.00     0.091 C 
HETATM   31  O6  UNL     1       7.083   7.003  23.260  1.00  0.00    -0.297 OA
ENDBRANCH  18  29
BRANCH  10  32
HETATM   32  O2  UNL     1       6.823  -0.585  27.780  1.00  0.00    -0.251 OA
BRANCH  32  33
HETATM   33  S1  UNL     1       6.701  -2.104  27.187  1.00  0.00     0.251 S 
HETATM   34  O3  UNL     1       8.023  -2.550  26.630  1.00  0.00    -0.572 OA
HETATM   35  O4  UNL     1       5.601  -2.299  26.191  1.00  0.00    -0.572 OA
HETATM   36  O5  UNL     1       6.353  -3.153  28.481  1.00  0.00    -0.572 OA
ENDBRANCH  32  33
ENDBRANCH  10  32
TORSDOF 8
ENDMDL
MODEL 3
REMARK VINA RESULT: -6.574500954      1.359      1.871
REMARK  8 active torsions:
REMARK  status: ('A' for Active; 'I' for Inactive)
REMARK    1  A    between atoms: C2_2  and  C3_3 
REMARK    2  A    between atoms: C2_2  and  C24_31 
REMARK    3  A    between atoms: C3_3  and  C4_5 
REMARK    4  A    between atoms: C13_14  and  O2_15 
REMARK    5  A    between atoms: O2_15  and  S1_16 
REMARK    6  A    between atoms: C21_27  and  C22_28 
REMARK    7  A    between atoms: C24_31  and  C26_33 
REMARK    8  A    between atoms: C26_33  and  C27_34 
ROOT
HETATM    1  C4  UNL     1       4.947   6.280  21.439  1.00  0.00     0.076 C 
HETATM    2  C5  UNL     1       6.377   6.164  20.863  1.00  0.00     0.014 C 
HETATM    3  C6  UNL     1       7.238   5.466  21.863  1.00  0.00     0.007 C 
HETATM    4  C7  UNL     1       6.208   4.742  22.678  1.00  0.00     0.007 C 
HETATM    5  C8  UNL     1       6.710   4.164  23.945  1.00  0.00    -0.001 C 
HETATM    6  C9  UNL     1       7.501   2.934  23.552  1.00  0.00     0.033 C 
HETATM    7  C10 UNL     1       7.646   2.031  24.691  1.00  0.00    -0.023 C 
HETATM    8  C11 UNL     1       6.907   1.989  25.771  1.00  0.00    -0.072 C 
HETATM    9  C12 UNL     1       7.215   0.990  26.824  1.00  0.00     0.068 C 
HETATM   10  C13 UNL     1       5.927   0.201  27.012  1.00  0.00     0.149 C 
HETATM   11  C14 UNL     1       4.837   1.137  27.393  1.00  0.00     0.035 C 
HETATM   12  C15 UNL     1       4.515   2.098  26.251  1.00  0.00     0.016 C 
HETATM   13  C16 UNL     1       5.780   2.918  25.956  1.00  0.00    -0.017 C 
HETATM   14  C17 UNL     1       6.006   3.676  27.289  1.00  0.00     0.020 C 
HETATM   15  C18 UNL     1       5.599   3.941  24.897  1.00  0.00     0.003 C 
HETATM   16  C19 UNL     1       4.266   3.759  24.189  1.00  0.00     0.007 C 
HETATM   17  C20 UNL     1       3.911   4.943  23.297  1.00  0.00     0.019 C 
HETATM   18  C21 UNL     1       5.105   5.726  22.869  1.00  0.00     0.035 C 
ENDROOT
BRANCH   1  19
HETATM   19  C3  UNL     1       4.005   5.558  20.591  1.00  0.00     0.160 C 
HETATM   20  O1  UNL     1       4.523   4.825  19.689  1.00  0.00    -0.292 OA
BRANCH  19  21
HETATM   21  C2  UNL     1       2.564   5.590  20.680  1.00  0.00    -0.017 C 
HETATM   22  C1  UNL     1       1.796   4.550  20.906  1.00  0.00     0.023 C 
BRANCH  21  23
HETATM   23  C24 UNL     1       1.842   6.904  20.541  1.00  0.00     0.027 C 
HETATM   24  C25 UNL     1       2.753   8.080  20.537  1.00  0.00     0.015 C 
BRANCH  23  25
HETATM   25  C26 UNL     1       0.758   7.091  21.567  1.00  0.00     0.122 C 
BRANCH  25  26
HETATM   26  C27 UNL     1      -0.517   7.338  20.860  1.00  0.00     0.173 C 
HETATM   27  O7  UNL     1      -0.872   8.500  20.598  1.00  0.00    -0.648 OA
HETATM   28  O8  UNL     1      -1.299   6.269  20.499  1.00  0.00    -0.648 OA
ENDBRANCH  25  26
ENDBRANCH  23  25
ENDBRANCH  21  23
ENDBRANCH  19  21
ENDBRANCH   1  19
BRANCH  18  29
HETATM   29  C22 UNL     1       5.438   6.894  23.705  1.00  0.00     0.133 C 
HETATM   30  C23 UNL     1       4.422   7.908  24.034  1.00  0.00     0.091 C 
HETATM   31  O6  UNL     1       6.544   7.069  24.143  1.00  0.00    -0.297 OA
ENDBRANCH  18  29
BRANCH  10  32
HETATM   32  O2  UNL     1       6.088  -0.868  27.860  1.00  0.00    -0.251 OA
BRANCH  32  33
HETATM   33  S1  UNL     1       6.334  -2.331  27.173  1.00  0.00     0.251 S 
HETATM   34  O3  UNL     1       7.778  -2.488  26.788  1.00  0.00    -0.572 OA
HETATM   35  O4  UNL     1       5.432  -2.638  26.018  1.00  0.00    -0.572 OA
HETATM   36  O5  UNL     1       6.022  -3.528  28.341  1.00  0.00    -0.572 OA
ENDBRANCH  32  33
ENDBRANCH  10  32
TORSDOF 8
ENDMDL
MODEL 4
REMARK VINA RESULT: -6.573932621      1.769      2.361
REMARK  8 active torsions:
REMARK  status: ('A' for Active; 'I' for Inactive)
REMARK    1  A    between atoms: C2_2  and  C3_3 
REMARK    2  A    between atoms: C2_2  and  C24_31 
REMARK    3  A    between atoms: C3_3  and  C4_5 
REMARK    4  A    between atoms: C13_14  and  O2_15 
REMARK    5  A    between atoms: O2_15  and  S1_16 
REMARK    6  A    between atoms: C21_27  and  C22_28 
REMARK    7  A    between atoms: C24_31  and  C26_33 
REMARK    8  A    between atoms: C26_33  and  C27_34 
ROOT
HETATM    1  C4  UNL     1       3.555   6.171  21.124  1.00  0.00     0.076 C 
HETATM    2  C5  UNL     1       4.581   5.884  20.004  1.00  0.00     0.014 C 
HETATM    3  C6  UNL     1       5.792   5.262  20.615  1.00  0.00     0.007 C 
HETATM    4  C7  UNL     1       5.225   4.720  21.894  1.00  0.00     0.007 C 
HETATM    5  C8  UNL     1       6.234   4.274  22.882  1.00  0.00    -0.001 C 
HETATM    6  C9  UNL     1       6.762   2.953  22.365  1.00  0.00     0.033 C 
HETATM    7  C10 UNL     1       7.391   2.195  23.443  1.00  0.00    -0.023 C 
HETATM    8  C11 UNL     1       7.208   2.341  24.731  1.00  0.00    -0.072 C 
HETATM    9  C12 UNL     1       7.945   1.466  25.675  1.00  0.00     0.068 C 
HETATM   10  C13 UNL     1       6.870   0.798  26.519  1.00  0.00     0.149 C 
HETATM   11  C14 UNL     1       6.066   1.847  27.199  1.00  0.00     0.035 C 
HETATM   12  C15 UNL     1       5.277   2.674  26.188  1.00  0.00     0.016 C 
HETATM   13  C16 UNL     1       6.284   3.362  25.254  1.00  0.00    -0.017 C 
HETATM   14  C17 UNL     1       7.082   4.265  26.228  1.00  0.00     0.020 C 
HETATM   15  C18 UNL     1       5.658   4.252  24.246  1.00  0.00     0.003 C 
HETATM   16  C19 UNL     1       4.149   4.073  24.228  1.00  0.00     0.007 C 
HETATM   17  C20 UNL     1       3.442   5.156  23.420  1.00  0.00     0.019 C 
HETATM   18  C21 UNL     1       4.327   5.793  22.404  1.00  0.00     0.035 C 
ENDROOT
BRANCH   1  19
HETATM   19  C3  UNL     1       2.331   5.413  20.889  1.00  0.00     0.160 C 
HETATM   20  O1  UNL     1       2.490   4.204  20.527  1.00  0.00    -0.292 OA
BRANCH  19  21
HETATM   21  C2  UNL     1       0.976   5.895  21.030  1.00  0.00    -0.017 C 
HETATM   22  C1  UNL     1      -0.097   5.141  21.046  1.00  0.00     0.023 C 
BRANCH  21  23
HETATM   23  C24 UNL     1       0.729   7.369  21.211  1.00  0.00     0.027 C 
HETATM   24  C25 UNL     1       0.914   7.831  22.612  1.00  0.00     0.015 C 
BRANCH  23  25
HETATM   25  C26 UNL     1      -0.614   7.808  20.693  1.00  0.00     0.122 C 
BRANCH  25  26
HETATM   26  C27 UNL     1      -0.521   9.232  20.302  1.00  0.00     0.173 C 
HETATM   27  O7  UNL     1      -1.493   9.989  20.465  1.00  0.00    -0.648 OA
HETATM   28  O8  UNL     1       0.650   9.700  19.760  1.00  0.00    -0.648 OA
ENDBRANCH  25  26
ENDBRANCH  23  25
ENDBRANCH  21  23
ENDBRANCH  19  21
ENDBRANCH   1  19
BRANCH  18  29
HETATM   29  C22 UNL     1       5.002   7.033  22.831  1.00  0.00     0.133 C 
HETATM   30  C23 UNL     1       4.447   7.869  23.909  1.00  0.00     0.091 C 
HETATM   31  O6  UNL     1       6.021   7.412  22.317  1.00  0.00    -0.297 OA
ENDBRANCH  18  29
BRANCH  10  32
HETATM   32  O2  UNL     1       7.384  -0.164  27.356  1.00  0.00    -0.251 OA
BRANCH  32  33
HETATM   33  S1  UNL     1       6.728  -1.659  27.262  1.00  0.00     0.251 S 
HETATM   34  O3  UNL     1       7.770  -2.657  26.845  1.00  0.00    -0.572 OA
HETATM   35  O4  UNL     1       5.511  -1.753  26.394  1.00  0.00    -0.572 OA
HETATM   36  O5  UNL     1       6.227  -2.119  28.822  1.00  0.00    -0.572 OA
ENDBRANCH  32  33
ENDBRANCH  10  32
TORSDOF 8
ENDMDL
MODEL 5
REMARK VINA RESULT: -6.432121573      1.613      2.492
REMARK  8 active torsions:
REMARK  status: ('A' for Active; 'I' for Inactive)
REMARK    1  A    between atoms: C2_2  and  C3_3 
REMARK    2  A    between atoms: C2_2  and  C24_31 
REMARK    3  A    between atoms: C3_3  and  C4_5 
REMARK    4  A    between atoms: C13_14  and  O2_15 
REMARK    5  A    between atoms: O2_15  and  S1_16 
REMARK    6  A    between atoms: C21_27  and  C22_28 
REMARK    7  A    between atoms: C24_31  and  C26_33 
REMARK    8  A    between atoms: C26_33  and  C27_34 
ROOT
HETATM    1  C4  UNL     1       5.274   6.294  21.437  1.00  0.00     0.076 C 
HETATM    2  C5  UNL     1       6.634   6.037  20.748  1.00  0.00     0.014 C 
HETATM    3  C6  UNL     1       7.506   5.273  21.688  1.00  0.00     0.007 C 
HETATM    4  C7  UNL     1       6.483   4.657  22.597  1.00  0.00     0.007 C 
HETATM    5  C8  UNL     1       7.033   4.048  23.829  1.00  0.00    -0.001 C 
HETATM    6  C9  UNL     1       7.670   2.744  23.395  1.00  0.00     0.033 C 
HETATM    7  C10 UNL     1       7.824   1.844  24.535  1.00  0.00    -0.023 C 
HETATM    8  C11 UNL     1       7.177   1.883  25.673  1.00  0.00    -0.072 C 
HETATM    9  C12 UNL     1       7.476   0.871  26.715  1.00  0.00     0.068 C 
HETATM   10  C13 UNL     1       6.141   0.209  27.021  1.00  0.00     0.149 C 
HETATM   11  C14 UNL     1       5.177   1.247  27.472  1.00  0.00     0.035 C 
HETATM   12  C15 UNL     1       4.853   2.222  26.343  1.00  0.00     0.016 C 
HETATM   13  C16 UNL     1       6.160   2.917  25.932  1.00  0.00    -0.017 C 
HETATM   14  C17 UNL     1       6.565   3.663  27.227  1.00  0.00     0.020 C 
HETATM   15  C18 UNL     1       5.988   3.941  24.872  1.00  0.00     0.003 C 
HETATM   16  C19 UNL     1       4.590   3.877  24.279  1.00  0.00     0.007 C 
HETATM   17  C20 UNL     1       4.275   5.080  23.397  1.00  0.00     0.019 C 
HETATM   18  C21 UNL     1       5.496   5.742  22.859  1.00  0.00     0.035 C 
ENDROOT
BRANCH   1  19
HETATM   19  C3  UNL     1       4.201   5.655  20.682  1.00  0.00     0.160 C 
HETATM   20  O1  UNL     1       4.572   4.879  19.744  1.00  0.00    -0.292 OA
BRANCH  19  21
HETATM   21  C2  UNL     1       2.782   5.811  20.896  1.00  0.00    -0.017 C 
HETATM   22  C1  UNL     1       1.875   4.894  20.658  1.00  0.00     0.023 C 
BRANCH  21  23
HETATM   23  C24 UNL     1       2.256   7.101  21.470  1.00  0.00     0.027 C 
HETATM   24  C25 UNL     1       1.148   6.906  22.442  1.00  0.00     0.015 C 
BRANCH  23  25
HETATM   25  C26 UNL     1       1.851   8.093  20.414  1.00  0.00     0.122 C 
BRANCH  25  26
HETATM   26  C27 UNL     1       2.852   9.181  20.385  1.00  0.00     0.173 C 
HETATM   27  O7  UNL     1       3.545   9.419  21.389  1.00  0.00    -0.648 OA
HETATM   28  O8  UNL     1       3.003   9.919  19.238  1.00  0.00    -0.648 OA
ENDBRANCH  25  26
ENDBRANCH  23  25
ENDBRANCH  21  23
ENDBRANCH  19  21
ENDBRANCH   1  19
BRANCH  18  29
HETATM   29  C22 UNL     1       6.005   6.883  23.643  1.00  0.00     0.133 C 
HETATM   30  C23 UNL     1       5.083   7.851  24.263  1.00  0.00     0.091 C 
HETATM   31  O6  UNL     1       7.181   7.072  23.803  1.00  0.00    -0.297 OA
ENDBRANCH  18  29
BRANCH  10  32
HETATM   32  O2  UNL     1       6.271  -0.862  27.873  1.00  0.00    -0.251 OA
BRANCH  32  33
HETATM   33  S1  UNL     1       6.438  -2.338  27.190  1.00  0.00     0.251 S 
HETATM   34  O3  UNL     1       7.877  -2.588  26.840  1.00  0.00    -0.572 OA
HETATM   35  O4  UNL     1       5.546  -2.587  26.014  1.00  0.00    -0.572 OA
HETATM   36  O5  UNL     1       6.022  -3.511  28.350  1.00  0.00    -0.572 OA
ENDBRANCH  32  33
ENDBRANCH  10  32
TORSDOF 8
ENDMDL
