MODEL 1
REMARK VINA RESULT: -6.717350352      0.000      0.000
REMARK  9 active torsions:
REMARK  status: ('A' for Active; 'I' for Inactive)
REMARK    1  A    between atoms: C2_2  and  C3_3 
REMARK    2  A    between atoms: C13_14  and  N1_15 
REMARK    3  A    between atoms: N1_15  and  C15_17 
REMARK    4  A    between atoms: C15_17  and  C16_18 
REMARK    5  A    between atoms: C16_18  and  O2_19 
REMARK    6  A    between atoms: C16_18  and  C17_21 
REMARK    7  A    between atoms: C17_21  and  N2_22 
REMARK    8  A    between atoms: N2_22  and  S1_24 
REMARK    9  A    between atoms: S1_24  and  C18_27 
ROOT
HETATM    1  C3  UNL     1       6.900   5.804  21.120  1.00  0.00    -0.022 C 
HETATM    2  C4  UNL     1       8.256   5.583  20.476  1.00  0.00     0.020 C 
HETATM    3  C5  UNL     1       5.962   5.733  19.888  1.00  0.00     0.014 C 
HETATM    4  C6  UNL     1       4.574   6.058  20.445  1.00  0.00     0.013 C 
HETATM    5  C7  UNL     1       4.205   4.783  21.084  1.00  0.00     0.062 C 
HETATM    6  C8  UNL     1       3.116   4.651  22.044  1.00  0.00     0.140 C 
HETATM    7  O1  UNL     1       1.916   4.450  22.136  1.00  0.00    -0.297 OA
HETATM    8  C9  UNL     1       4.131   4.889  23.145  1.00  0.00     0.022 C 
HETATM    9  C10 UNL     1       3.923   6.238  23.633  1.00  0.00     0.024 C 
HETATM   10  C11 UNL     1       4.081   3.898  24.295  1.00  0.00     0.019 C 
HETATM   11  C12 UNL     1       5.098   4.350  25.291  1.00  0.00     0.026 C 
HETATM   12  C13 UNL     1       6.498   3.894  25.043  1.00  0.00     0.083 C 
HETATM   13  C22 UNL     1       6.830   3.096  23.884  1.00  0.00     0.034 C 
HETATM   14  C23 UNL     1       7.408   3.834  22.668  1.00  0.00    -0.041 C 
HETATM   15  C24 UNL     1       7.481   2.727  21.607  1.00  0.00     0.015 C 
HETATM   16  C25 UNL     1       8.802   4.214  23.013  1.00  0.00     0.015 C 
HETATM   17  C26 UNL     1       6.498   4.977  22.234  1.00  0.00     0.011 C 
HETATM   18  C27 UNL     1       5.127   4.403  22.201  1.00  0.00     0.018 C 
ENDROOT
BRANCH  12  19
HETATM   19  N1  UNL     1       6.827   3.179  26.276  1.00  0.00    -0.390 N 
HETATM   20  C14 UNL     1       6.442   3.800  27.453  1.00  0.00     0.149 C 
BRANCH  19  21
HETATM   21  C15 UNL     1       7.876   2.273  26.158  1.00  0.00     0.091 C 
BRANCH  21  22
HETATM   22  C16 UNL     1       7.760   0.958  26.872  1.00  0.00     0.174 C 
BRANCH  22  23
HETATM   23  O2  UNL     1       8.807   0.102  26.486  1.00  0.00    -0.389 OA
ATOM     24  H2  UNL     1       8.546  -0.416  25.733  1.00  0.00     0.210 HD
ENDBRANCH  22  23
BRANCH  22  25
HETATM   25  C17 UNL     1       6.449   0.263  26.826  1.00  0.00     0.169 C 
BRANCH  25  26
HETATM   26  N2  UNL     1       6.340  -0.440  28.122  1.00  0.00    -0.312 N 
ATOM     27  H2  UNL     1       6.248   0.020  29.027  1.00  0.00     0.172 HD
BRANCH  26  28
HETATM   28  S1  UNL     1       6.387  -2.144  27.888  1.00  0.00     0.265 S 
HETATM   29  O3  UNL     1       6.709  -2.765  29.214  1.00  0.00    -0.200 OA
HETATM   30  O4  UNL     1       7.333  -2.589  26.847  1.00  0.00    -0.200 OA
BRANCH  28  31
HETATM   31  C18 UNL     1       4.727  -2.647  27.491  1.00  0.00     0.119 A 
HETATM   32  C19 UNL     1       4.123  -2.727  26.268  1.00  0.00     0.033 A 
HETATM   33  C20 UNL     1       2.836  -3.105  26.249  1.00  0.00     0.009 A 
HETATM   34  C21 UNL     1       2.237  -3.377  27.445  1.00  0.00     0.051 A 
HETATM   35  S2  UNL     1       3.483  -3.098  28.570  1.00  0.00    -0.088 SA
ENDBRANCH  28  31
ENDBRANCH  26  28
ENDBRANCH  25  26
ENDBRANCH  22  25
ENDBRANCH  21  22
ENDBRANCH  19  21
ENDBRANCH  12  19
BRANCH   1  36
HETATM   36  C2  UNL     1       6.964   7.288  21.371  1.00  0.00    -0.027 C 
HETATM   37  C1  UNL     1       7.140   7.848  22.551  1.00  0.00     0.007 C 
ENDBRANCH   1  36
TORSDOF 9
ENDMDL
MODEL 2
REMARK VINA RESULT: -6.693109298      0.926      1.004
REMARK  9 active torsions:
REMARK  status: ('A' for Active; 'I' for Inactive)
REMARK    1  A    between atoms: C2_2  and  C3_3 
REMARK    2  A    between atoms: C13_14  and  N1_15 
REMARK    3  A    between atoms: N1_15  and  C15_17 
REMARK    4  A    between atoms: C15_17  and  C16_18 
REMARK    5  A    between atoms: C16_18  and  O2_19 
REMARK    6  A    between atoms: C16_18  and  C17_21 
REMARK    7  A    between atoms: C17_21  and  N2_22 
REMARK    8  A    between atoms: N2_22  and  S1_24 
REMARK    9  A    between atoms: S1_24  and  C18_27 
ROOT
HETATM    1  C3  UNL     1       7.403   6.033  20.986  1.00  0.00    -0.022 C 
HETATM    2  C4  UNL     1       8.870   5.716  20.760  1.00  0.00     0.020 C 
HETATM    3  C5  UNL     1       6.868   6.050  19.530  1.00  0.00     0.014 C 
HETATM    4  C6  UNL     1       5.405   6.474  19.666  1.00  0.00     0.013 C 
HETATM    5  C7  UNL     1       4.775   5.223  20.123  1.00  0.00     0.062 C 
HETATM    6  C8  UNL     1       3.444   5.163  20.716  1.00  0.00     0.140 C 
HETATM    7  O1  UNL     1       2.260   5.054  20.444  1.00  0.00    -0.297 OA
HETATM    8  C9  UNL     1       4.102   5.308  22.074  1.00  0.00     0.022 C 
HETATM    9  C10 UNL     1       3.854   6.662  22.527  1.00  0.00     0.024 C 
HETATM   10  C11 UNL     1       3.646   4.308  23.123  1.00  0.00     0.019 C 
HETATM   11  C12 UNL     1       4.352   4.667  24.389  1.00  0.00     0.026 C 
HETATM   12  C13 UNL     1       5.727   4.107  24.547  1.00  0.00     0.083 C 
HETATM   13  C22 UNL     1       6.331   3.301  23.509  1.00  0.00     0.034 C 
HETATM   14  C23 UNL     1       7.292   4.009  22.543  1.00  0.00    -0.041 C 
HETATM   15  C24 UNL     1       7.598   2.914  21.512  1.00  0.00     0.015 C 
HETATM   16  C25 UNL     1       8.545   4.275  23.296  1.00  0.00     0.015 C 
HETATM   17  C26 UNL     1       6.633   5.224  21.902  1.00  0.00     0.011 C 
HETATM   18  C27 UNL     1       5.296   4.759  21.447  1.00  0.00     0.018 C 
ENDROOT
BRANCH  12  19
HETATM   19  N1  UNL     1       5.626   3.353  25.797  1.00  0.00    -0.390 N 
HETATM   20  C14 UNL     1       5.379   4.103  26.934  1.00  0.00     0.149 C 
BRANCH  19  21
HETATM   21  C15 UNL     1       6.261   2.115  25.779  1.00  0.00     0.091 C 
BRANCH  21  22
HETATM   22  C16 UNL     1       7.305   1.839  26.821  1.00  0.00     0.174 C 
BRANCH  22  23
HETATM   23  O2  UNL     1       8.520   2.452  26.464  1.00  0.00    -0.389 OA
ATOM     24  H2  UNL     1       9.128   2.423  27.194  1.00  0.00     0.210 HD
ENDBRANCH  22  23
BRANCH  22  25
HETATM   25  C17 UNL     1       7.512   0.427  27.230  1.00  0.00     0.169 C 
BRANCH  25  26
HETATM   26  N2  UNL     1       6.187  -0.213  27.088  1.00  0.00    -0.312 N 
ATOM     27  H2  UNL     1       5.334   0.271  26.806  1.00  0.00     0.172 HD
BRANCH  26  28
HETATM   28  S1  UNL     1       6.284  -1.889  27.464  1.00  0.00     0.265 S 
HETATM   29  O3  UNL     1       6.635  -1.999  28.918  1.00  0.00    -0.200 OA
HETATM   30  O4  UNL     1       7.234  -2.647  26.627  1.00  0.00    -0.200 OA
BRANCH  28  31
HETATM   31  C18 UNL     1       4.636  -2.541  27.299  1.00  0.00     0.119 A 
HETATM   32  C19 UNL     1       3.895  -2.726  26.165  1.00  0.00     0.033 A 
HETATM   33  C20 UNL     1       2.653  -3.206  26.323  1.00  0.00     0.009 A 
HETATM   34  C21 UNL     1       2.232  -3.470  27.594  1.00  0.00     0.051 A 
HETATM   35  S2  UNL     1       3.578  -3.041  28.541  1.00  0.00    -0.088 SA
ENDBRANCH  28  31
ENDBRANCH  26  28
ENDBRANCH  25  26
ENDBRANCH  22  25
ENDBRANCH  21  22
ENDBRANCH  19  21
ENDBRANCH  12  19
BRANCH   1  36
HETATM   36  C2  UNL     1       7.493   7.504  21.297  1.00  0.00    -0.027 C 
HETATM   37  C1  UNL     1       7.346   8.033  22.495  1.00  0.00     0.007 C 
ENDBRANCH   1  36
TORSDOF 9
ENDMDL
MODEL 3
REMARK VINA RESULT: -6.599590223      2.205      4.266
REMARK  9 active torsions:
REMARK  status: ('A' for Active; 'I' for Inactive)
REMARK    1  A    between atoms: C2_2  and  C3_3 
REMARK    2  A    between atoms: C13_14  and  N1_15 
REMARK    3  A    between atoms: N1_15  and  C15_17 
REMARK    4  A    between atoms: C15_17  and  C16_18 
REMARK    5  A    between atoms: C16_18  and  O2_19 
REMARK    6  A    between atoms: C16_18  and  C17_21 
REMARK    7  A    between atoms: C17_21  and  N2_22 
REMARK    8  A    between atoms: N2_22  and  S1_24 
REMARK    9  A    between atoms: S1_24  and  C18_27 
ROOT
HETATM    1  C3  UNL     1       2.112   5.762  21.851  1.00  0.00    -0.022 C 
HETATM    2  C4  UNL     1       1.330   5.300  23.067  1.00  0.00     0.020 C 
HETATM    3  C5  UNL     1       1.574   7.205  21.674  1.00  0.00     0.014 C 
HETATM    4  C6  UNL     1       2.239   7.706  20.390  1.00  0.00     0.013 C 
HETATM    5  C7  UNL     1       3.596   8.027  20.865  1.00  0.00     0.062 C 
HETATM    6  C8  UNL     1       4.732   8.235  19.975  1.00  0.00     0.140 C 
HETATM    7  O1  UNL     1       5.317   9.085  19.325  1.00  0.00    -0.297 OA
HETATM    8  C9  UNL     1       5.048   6.760  20.123  1.00  0.00     0.022 C 
HETATM    9  C10 UNL     1       4.653   6.113  18.887  1.00  0.00     0.024 C 
HETATM   10  C11 UNL     1       6.497   6.439  20.448  1.00  0.00     0.019 C 
HETATM   11  C12 UNL     1       6.607   4.950  20.477  1.00  0.00     0.026 C 
HETATM   12  C13 UNL     1       6.240   4.296  21.769  1.00  0.00     0.083 C 
HETATM   13  C22 UNL     1       5.774   5.074  22.895  1.00  0.00     0.034 C 
HETATM   14  C23 UNL     1       4.256   5.161  23.106  1.00  0.00    -0.041 C 
HETATM   15  C24 UNL     1       4.135   6.170  24.256  1.00  0.00     0.015 C 
HETATM   16  C25 UNL     1       3.814   3.840  23.623  1.00  0.00     0.015 C 
HETATM   17  C26 UNL     1       3.551   5.649  21.846  1.00  0.00     0.011 C 
HETATM   18  C27 UNL     1       4.329   6.830  21.387  1.00  0.00     0.018 C 
ENDROOT
BRANCH  12  19
HETATM   19  N1  UNL     1       7.456   3.560  22.114  1.00  0.00    -0.390 N 
HETATM   20  C14 UNL     1       8.492   3.646  21.200  1.00  0.00     0.149 C 
BRANCH  19  21
HETATM   21  C15 UNL     1       7.264   2.510  23.006  1.00  0.00     0.091 C 
BRANCH  21  22
HETATM   22  C16 UNL     1       7.974   2.563  24.327  1.00  0.00     0.174 C 
BRANCH  22  23
HETATM   23  O2  UNL     1       8.763   1.412  24.500  1.00  0.00    -0.389 OA
ATOM     24  H2  UNL     1       9.410   1.557  25.180  1.00  0.00     0.210 HD
ENDBRANCH  22  23
BRANCH  22  25
HETATM   25  C17 UNL     1       7.159   2.846  25.535  1.00  0.00     0.169 C 
BRANCH  25  26
HETATM   26  N2  UNL     1       6.125   1.790  25.559  1.00  0.00    -0.312 N 
ATOM     27  H2  UNL     1       5.372   1.698  24.877  1.00  0.00     0.172 HD
BRANCH  26  28
HETATM   28  S1  UNL     1       6.369   0.738  26.897  1.00  0.00     0.265 S 
HETATM   29  O3  UNL     1       6.174   1.550  28.143  1.00  0.00    -0.200 OA
HETATM   30  O4  UNL     1       7.677   0.056  26.905  1.00  0.00    -0.200 OA
BRANCH  28  31
HETATM   31  C18 UNL     1       5.040  -0.445  26.861  1.00  0.00     0.119 A 
HETATM   32  C19 UNL     1       3.703  -0.243  27.064  1.00  0.00     0.033 A 
HETATM   33  C20 UNL     1       2.911  -1.323  27.016  1.00  0.00     0.009 A 
HETATM   34  C21 UNL     1       3.498  -2.531  26.769  1.00  0.00     0.051 A 
HETATM   35  S2  UNL     1       5.145  -2.130  26.611  1.00  0.00    -0.088 SA
ENDBRANCH  28  31
ENDBRANCH  26  28
ENDBRANCH  25  26
ENDBRANCH  22  25
ENDBRANCH  21  22
ENDBRANCH  19  21
ENDBRANCH  12  19
BRANCH   1  36
HETATM   36  C2  UNL     1       1.374   5.024  20.764  1.00  0.00    -0.027 C 
HETATM   37  C1  UNL     1       0.965   3.773  20.844  1.00  0.00     0.007 C 
ENDBRANCH   1  36
TORSDOF 9
ENDMDL
MODEL 4
REMARK VINA RESULT: -6.510966198      3.511      8.527
REMARK  9 active torsions:
REMARK  status: ('A' for Active; 'I' for Inactive)
REMARK    1  A    between atoms: C2_2  and  C3_3 
REMARK    2  A    between atoms: C13_14  and  N1_15 
REMARK    3  A    between atoms: N1_15  and  C15_17 
REMARK    4  A    between atoms: C15_17  and  C16_18 
REMARK    5  A    between atoms: C16_18  and  O2_19 
REMARK    6  A    between atoms: C16_18  and  C17_21 
REMARK    7  A    between atoms: C17_21  and  N2_22 
REMARK    8  A    between atoms: N2_22  and  S1_24 
REMARK    9  A    between atoms: S1_24  and  C18_27 
ROOT
HETATM    1  C3  UNL     1       2.884   0.020  29.778  1.00  0.00    -0.022 C 
HETATM    2  C4  UNL     1       2.592   1.408  30.319  1.00  0.00     0.020 C 
HETATM    3  C5  UNL     1       1.455  -0.485  29.449  1.00  0.00     0.014 C 
HETATM    4  C6  UNL     1       1.656  -1.933  28.997  1.00  0.00     0.013 C 
HETATM    5  C7  UNL     1       2.152  -1.747  27.622  1.00  0.00     0.062 C 
HETATM    6  C8  UNL     1       2.807  -2.800  26.855  1.00  0.00     0.140 C 
HETATM    7  O1  UNL     1       2.592  -3.734  26.100  1.00  0.00    -0.297 OA
HETATM    8  C9  UNL     1       4.132  -2.286  27.384  1.00  0.00     0.022 C 
HETATM    9  C10 UNL     1       4.585  -3.227  28.388  1.00  0.00     0.024 C 
HETATM   10  C11 UNL     1       5.208  -2.074  26.333  1.00  0.00     0.019 C 
HETATM   11  C12 UNL     1       6.437  -1.642  27.063  1.00  0.00     0.026 C 
HETATM   12  C13 UNL     1       6.535  -0.182  27.363  1.00  0.00     0.083 C 
HETATM   13  C22 UNL     1       5.476   0.730  26.993  1.00  0.00     0.034 C 
HETATM   14  C23 UNL     1       4.461   1.103  28.082  1.00  0.00    -0.041 C 
HETATM   15  C24 UNL     1       3.425   1.929  27.306  1.00  0.00     0.015 C 
HETATM   16  C25 UNL     1       5.152   2.024  29.021  1.00  0.00     0.015 C 
HETATM   17  C26 UNL     1       3.842  -0.140  28.709  1.00  0.00     0.011 C 
HETATM   18  C27 UNL     1       3.454  -1.010  27.567  1.00  0.00     0.018 C 
ENDROOT
BRANCH  12  19
HETATM   19  N1  UNL     1       7.794   0.195  26.721  1.00  0.00    -0.390 N 
HETATM   20  C14 UNL     1       8.816  -0.735  26.806  1.00  0.00     0.149 C 
BRANCH  19  21
HETATM   21  C15 UNL     1       7.973   1.565  26.557  1.00  0.00     0.091 C 
BRANCH  21  22
HETATM   22  C16 UNL     1       7.579   2.179  25.246  1.00  0.00     0.174 C 
BRANCH  22  23
HETATM   23  O2  UNL     1       8.584   1.960  24.287  1.00  0.00    -0.389 OA
ATOM     24  H2  UNL     1       8.235   2.088  23.412  1.00  0.00     0.210 HD
ENDBRANCH  22  23
BRANCH  22  25
HETATM   25  C17 UNL     1       7.141   3.597  25.255  1.00  0.00     0.169 C 
BRANCH  25  26
HETATM   26  N2  UNL     1       5.879   3.616  24.484  1.00  0.00    -0.312 N 
ATOM     27  H2  UNL     1       4.982   3.274  24.828  1.00  0.00     0.172 HD
BRANCH  26  28
HETATM   28  S1  UNL     1       6.136   4.296  22.925  1.00  0.00     0.265 S 
HETATM   29  O3  UNL     1       6.767   3.235  22.075  1.00  0.00    -0.200 OA
HETATM   30  O4  UNL     1       6.945   5.530  22.925  1.00  0.00    -0.200 OA
BRANCH  28  31
HETATM   31  C18 UNL     1       4.525   4.597  22.232  1.00  0.00     0.119 A 
HETATM   32  C19 UNL     1       3.298   4.255  22.730  1.00  0.00     0.033 A 
HETATM   33  C20 UNL     1       2.230   4.572  21.983  1.00  0.00     0.009 A 
HETATM   34  C21 UNL     1       2.452   5.206  20.795  1.00  0.00     0.051 A 
HETATM   35  S2  UNL     1       4.147   5.345  20.745  1.00  0.00    -0.088 SA
ENDBRANCH  28  31
ENDBRANCH  26  28
ENDBRANCH  25  26
ENDBRANCH  22  25
ENDBRANCH  21  22
ENDBRANCH  19  21
ENDBRANCH  12  19
BRANCH   1  36
HETATM   36  C2  UNL     1       3.179  -0.709  31.063  1.00  0.00    -0.027 C 
HETATM   37  C1  UNL     1       4.380  -1.074  31.466  1.00  0.00     0.007 C 
ENDBRANCH   1  36
TORSDOF 9
ENDMDL
MODEL 5
REMARK VINA RESULT: -6.320776056      5.765      8.657
REMARK  9 active torsions:
REMARK  status: ('A' for Active; 'I' for Inactive)
REMARK    1  A    between atoms: C2_2  and  C3_3 
REMARK    2  A    between atoms: C13_14  and  N1_15 
REMARK    3  A    between atoms: N1_15  and  C15_17 
REMARK    4  A    between atoms: C15_17  and  C16_18 
REMARK    5  A    between atoms: C16_18  and  O2_19 
REMARK    6  A    between atoms: C16_18  and  C17_21 
REMARK    7  A    between atoms: C17_21  and  N2_22 
REMARK    8  A    between atoms: N2_22  and  S1_24 
REMARK    9  A    between atoms: S1_24  and  C18_27 
ROOT
HETATM    1  C3  UNL     1       2.175   5.864  21.936  1.00  0.00    -0.022 C 
HETATM    2  C4  UNL     1       1.588   5.326  23.228  1.00  0.00     0.020 C 
HETATM    3  C5  UNL     1       1.583   7.298  21.909  1.00  0.00     0.014 C 
HETATM    4  C6  UNL     1       2.045   7.875  20.569  1.00  0.00     0.013 C 
HETATM    5  C7  UNL     1       3.448   8.215  20.860  1.00  0.00     0.062 C 
HETATM    6  C8  UNL     1       4.438   8.496  19.827  1.00  0.00     0.140 C 
HETATM    7  O1  UNL     1       4.904   9.392  19.142  1.00  0.00    -0.297 OA
HETATM    8  C9  UNL     1       4.807   7.026  19.856  1.00  0.00     0.022 C 
HETATM    9  C10 UNL     1       4.253   6.423  18.661  1.00  0.00     0.024 C 
HETATM   10  C11 UNL     1       6.294   6.735  19.955  1.00  0.00     0.019 C 
HETATM   11  C12 UNL     1       6.442   5.250  19.896  1.00  0.00     0.026 C 
HETATM   12  C13 UNL     1       6.281   4.528  21.193  1.00  0.00     0.083 C 
HETATM   13  C22 UNL     1       5.964   5.241  22.411  1.00  0.00     0.034 C 
HETATM   14  C23 UNL     1       4.491   5.273  22.841  1.00  0.00    -0.041 C 
HETATM   15  C24 UNL     1       4.514   6.225  24.044  1.00  0.00     0.015 C 
HETATM   16  C25 UNL     1       4.160   3.918  23.351  1.00  0.00     0.015 C 
HETATM   17  C26 UNL     1       3.601   5.795  21.720  1.00  0.00     0.011 C 
HETATM   18  C27 UNL     1       4.276   7.018  21.212  1.00  0.00     0.018 C 
ENDROOT
BRANCH  12  19
HETATM   19  N1  UNL     1       7.551   3.815  21.325  1.00  0.00    -0.390 N 
HETATM   20  C14 UNL     1       7.572   2.790  22.256  1.00  0.00     0.149 C 
BRANCH  19  21
HETATM   21  C15 UNL     1       8.665   4.532  20.902  1.00  0.00     0.091 C 
BRANCH  21  22
HETATM   22  C16 UNL     1       9.736   3.800  20.149  1.00  0.00     0.174 C 
BRANCH  22  23
HETATM   23  O2  UNL     1      10.895   3.687  20.938  1.00  0.00    -0.389 OA
ATOM     24  H2  UNL     1      10.729   4.017  21.814  1.00  0.00     0.210 HD
ENDBRANCH  22  23
BRANCH  22  25
HETATM   25  C17 UNL     1      10.060   4.271  18.779  1.00  0.00     0.169 C 
BRANCH  25  26
HETATM   26  N2  UNL     1      10.419   3.051  18.025  1.00  0.00    -0.312 N 
ATOM     27  H2  UNL     1       9.748   2.376  17.659  1.00  0.00     0.172 HD
BRANCH  26  28
HETATM   28  S1  UNL     1      12.126   2.931  17.853  1.00  0.00     0.265 S 
HETATM   29  O3  UNL     1      12.624   2.049  18.958  1.00  0.00    -0.200 OA
HETATM   30  O4  UNL     1      12.831   4.227  17.846  1.00  0.00    -0.200 OA
BRANCH  28  31
HETATM   31  C18 UNL     1      12.420   2.044  16.337  1.00  0.00     0.119 A 
HETATM   32  C19 UNL     1      11.894   2.268  15.096  1.00  0.00     0.033 A 
HETATM   33  C20 UNL     1      12.257   1.421  14.121  1.00  0.00     0.009 A 
HETATM   34  C21 UNL     1      13.116   0.411  14.445  1.00  0.00     0.051 A 
HETATM   35  S2  UNL     1      13.398   0.665  16.104  1.00  0.00    -0.088 SA
ENDBRANCH  28  31
ENDBRANCH  26  28
ENDBRANCH  25  26
ENDBRANCH  22  25
ENDBRANCH  21  22
ENDBRANCH  19  21
ENDBRANCH  12  19
BRANCH   1  36
HETATM   36  C2  UNL     1       1.305   5.154  20.933  1.00  0.00    -0.027 C 
HETATM   37  C1  UNL     1       1.106   3.852  20.893  1.00  0.00     0.007 C 
ENDBRANCH   1  36
TORSDOF 9
ENDMDL
