MODEL 1
REMARK VINA RESULT: -7.806078467      0.000      0.000
REMARK  7 active torsions:
REMARK  status: ('A' for Active; 'I' for Inactive)
REMARK    1  A    between atoms: C2_2  and  C3_3 
REMARK    2  A    between atoms: C3_3  and  C4_4 
REMARK    3  A    between atoms: C4_4  and  C5_5 
REMARK    4  A    between atoms: C5_5  and  C6_6 
REMARK    5  A    between atoms: C9_10  and  O2_11 
REMARK    6  A    between atoms: C14_17  and  O3_18 
REMARK    7  A    between atoms: C16_21  and  O4_22 
ROOT
HETATM    1  C6  UNL     1      -1.430  36.443  43.575  1.00  0.00     0.087 A 
HETATM    2  O1  UNL     1      -2.461  35.748  43.175  1.00  0.00    -0.308 OA
HETATM    3  C7  UNL     1      -2.516  35.731  41.864  1.00  0.00     0.131 A 
HETATM    4  C8  UNL     1      -1.471  36.449  41.359  1.00  0.00     0.019 A 
HETATM    5  C9  UNL     1      -0.767  36.911  42.462  1.00  0.00     0.104 A 
HETATM    6  C10 UNL     1      -1.192  36.662  39.911  1.00  0.00     0.080 C 
HETATM    7  C11 UNL     1      -2.351  36.167  39.101  1.00  0.00    -0.057 C 
HETATM    8  C12 UNL     1      -2.723  36.906  38.068  1.00  0.00    -0.052 C 
HETATM    9  C13 UNL     1      -2.029  38.177  37.713  1.00  0.00     0.046 C 
HETATM   10  C14 UNL     1      -3.869  36.481  37.227  1.00  0.00     0.149 C 
HETATM   11  C15 UNL     1      -3.988  34.999  37.257  1.00  0.00     0.069 C 
HETATM   12  C16 UNL     1      -4.079  34.436  38.655  1.00  0.00     0.136 C 
HETATM   13  C17 UNL     1      -2.959  34.905  39.536  1.00  0.00     0.121 C 
HETATM   14  C18 UNL     1      -3.450  35.110  40.920  1.00  0.00     0.194 C 
HETATM   15  O5  UNL     1      -4.602  34.778  41.289  1.00  0.00    -0.289 OA
ENDROOT
BRANCH   1  16
HETATM   16  C5  UNL     1      -1.074  36.664  44.996  1.00  0.00     0.068 C 
BRANCH  16  17
HETATM   17  C4  UNL     1      -0.862  35.383  45.743  1.00  0.00     0.007 C 
BRANCH  17  18
HETATM   18  C3  UNL     1       0.277  34.629  45.101  1.00  0.00     0.000 C 
BRANCH  18  19
HETATM   19  C2  UNL     1       0.109  33.143  45.097  1.00  0.00    -0.005 C 
HETATM   20  C1  UNL     1      -0.302  32.766  43.666  1.00  0.00     0.005 C 
ENDBRANCH  18  19
ENDBRANCH  17  18
ENDBRANCH  16  17
ENDBRANCH   1  16
BRANCH   5  21
HETATM   21  O2  UNL     1       0.368  37.684  42.412  1.00  0.00    -0.357 OA
ATOM     22  H2  UNL     1       0.629  38.300  41.739  1.00  0.00     0.217 HD
ENDBRANCH   5  21
BRANCH  12  23
HETATM   23  O4  UNL     1      -3.968  33.043  38.544  1.00  0.00    -0.394 OA
ATOM     24  H4  UNL     1      -4.595  32.665  39.149  1.00  0.00     0.210 HD
ENDBRANCH  12  23
BRANCH  10  25
HETATM   25  O3  UNL     1      -5.025  37.102  37.701  1.00  0.00    -0.391 OA
ATOM     26  H3  UNL     1      -5.715  36.991  37.058  1.00  0.00     0.210 HD
ENDBRANCH  10  25
TORSDOF 7
ENDMDL
MODEL 2
REMARK VINA RESULT: -7.708000968      2.485      7.165
REMARK  7 active torsions:
REMARK  status: ('A' for Active; 'I' for Inactive)
REMARK    1  A    between atoms: C2_2  and  C3_3 
REMARK    2  A    between atoms: C3_3  and  C4_4 
REMARK    3  A    between atoms: C4_4  and  C5_5 
REMARK    4  A    between atoms: C5_5  and  C6_6 
REMARK    5  A    between atoms: C9_10  and  O2_11 
REMARK    6  A    between atoms: C14_17  and  O3_18 
REMARK    7  A    between atoms: C16_21  and  O4_22 
ROOT
HETATM    1  C6  UNL     1      -1.522  36.471  41.924  1.00  0.00     0.087 A 
HETATM    2  O1  UNL     1      -0.877  35.395  42.289  1.00  0.00    -0.308 OA
HETATM    3  C7  UNL     1      -0.746  35.365  43.595  1.00  0.00     0.131 A 
HETATM    4  C8  UNL     1      -1.333  36.474  44.132  1.00  0.00     0.019 A 
HETATM    5  C9  UNL     1      -1.835  37.191  43.055  1.00  0.00     0.104 A 
HETATM    6  C10 UNL     1      -1.392  36.799  45.586  1.00  0.00     0.080 C 
HETATM    7  C11 UNL     1      -0.516  35.849  46.345  1.00  0.00    -0.057 C 
HETATM    8  C12 UNL     1       0.211  36.356  47.328  1.00  0.00    -0.052 C 
HETATM    9  C13 UNL     1       0.172  37.806  47.675  1.00  0.00     0.046 C 
HETATM   10  C14 UNL     1       1.108  35.476  48.117  1.00  0.00     0.149 C 
HETATM   11  C15 UNL     1       0.562  34.093  48.133  1.00  0.00     0.069 C 
HETATM   12  C16 UNL     1       0.301  33.537  46.754  1.00  0.00     0.136 C 
HETATM   13  C17 UNL     1      -0.555  34.446  45.922  1.00  0.00     0.121 C 
HETATM   14  C18 UNL     1      -0.119  34.404  44.506  1.00  0.00     0.194 C 
HETATM   15  O5  UNL     1       0.743  33.594  44.084  1.00  0.00    -0.289 OA
ENDROOT
BRANCH   1  16
HETATM   16  C5  UNL     1      -1.840  36.815  40.519  1.00  0.00     0.068 C 
BRANCH  16  17
HETATM   17  C4  UNL     1      -2.446  35.670  39.767  1.00  0.00     0.007 C 
BRANCH  17  18
HETATM   18  C3  UNL     1      -3.678  35.204  40.502  1.00  0.00     0.000 C 
BRANCH  18  19
HETATM   19  C2  UNL     1      -3.823  33.719  40.585  1.00  0.00    -0.005 C 
HETATM   20  C1  UNL     1      -3.576  33.349  42.055  1.00  0.00     0.005 C 
ENDBRANCH  18  19
ENDBRANCH  17  18
ENDBRANCH  16  17
ENDBRANCH   1  16
BRANCH   5  21
HETATM   21  O2  UNL     1      -2.509  38.385  43.143  1.00  0.00    -0.357 OA
ATOM     22  H2  UNL     1      -3.412  38.567  42.915  1.00  0.00     0.217 HD
ENDBRANCH   5  21
BRANCH  12  23
HETATM   23  O4  UNL     1      -0.402  32.337  46.921  1.00  0.00    -0.394 OA
ATOM     24  H4  UNL     1      -1.239  32.558  47.313  1.00  0.00     0.210 HD
ENDBRANCH  12  23
BRANCH  10  25
HETATM   25  O3  UNL     1       2.385  35.520  47.555  1.00  0.00    -0.391 OA
ATOM     26  H3  UNL     1       2.349  35.130  46.689  1.00  0.00     0.210 HD
ENDBRANCH  10  25
TORSDOF 7
ENDMDL
MODEL 3
REMARK VINA RESULT: -7.498627865      5.875     10.068
REMARK  7 active torsions:
REMARK  status: ('A' for Active; 'I' for Inactive)
REMARK    1  A    between atoms: C2_2  and  C3_3 
REMARK    2  A    between atoms: C3_3  and  C4_4 
REMARK    3  A    between atoms: C4_4  and  C5_5 
REMARK    4  A    between atoms: C5_5  and  C6_6 
REMARK    5  A    between atoms: C9_10  and  O2_11 
REMARK    6  A    between atoms: C14_17  and  O3_18 
REMARK    7  A    between atoms: C16_21  and  O4_22 
ROOT
HETATM    1  C6  UNL     1       0.633  34.379  47.220  1.00  0.00     0.087 A 
HETATM    2  O1  UNL     1       0.255  35.607  46.983  1.00  0.00    -0.308 OA
HETATM    3  C7  UNL     1       0.638  36.397  47.959  1.00  0.00     0.131 A 
HETATM    4  C8  UNL     1       1.306  35.663  48.896  1.00  0.00     0.019 A 
HETATM    5  C9  UNL     1       1.304  34.359  48.422  1.00  0.00     0.104 A 
HETATM    6  C10 UNL     1       1.895  36.203  50.154  1.00  0.00     0.080 C 
HETATM    7  C11 UNL     1       1.448  37.620  50.346  1.00  0.00    -0.057 C 
HETATM    8  C12 UNL     1       1.119  37.987  51.575  1.00  0.00    -0.052 C 
HETATM    9  C13 UNL     1       1.186  37.042  52.727  1.00  0.00     0.046 C 
HETATM   10  C14 UNL     1       0.658  39.372  51.838  1.00  0.00     0.149 C 
HETATM   11  C15 UNL     1       1.265  40.297  50.844  1.00  0.00     0.069 C 
HETATM   12  C16 UNL     1       1.015  39.884  49.413  1.00  0.00     0.136 C 
HETATM   13  C17 UNL     1       1.420  38.464  49.147  1.00  0.00     0.121 C 
HETATM   14  C18 UNL     1       0.478  37.835  48.191  1.00  0.00     0.194 C 
HETATM   15  O5  UNL     1      -0.421  38.480  47.597  1.00  0.00    -0.289 OA
ENDROOT
BRANCH   1  16
HETATM   16  C5  UNL     1       0.362  33.236  46.318  1.00  0.00     0.068 C 
BRANCH  16  17
HETATM   17  C4  UNL     1      -0.867  33.435  45.485  1.00  0.00     0.007 C 
BRANCH  17  18
HETATM   18  C3  UNL     1      -0.486  33.350  44.028  1.00  0.00     0.000 C 
BRANCH  18  19
HETATM   19  C2  UNL     1       0.127  32.047  43.625  1.00  0.00    -0.005 C 
HETATM   20  C1  UNL     1      -1.040  31.133  43.224  1.00  0.00     0.005 C 
ENDBRANCH  18  19
ENDBRANCH  17  18
ENDBRANCH  16  17
ENDBRANCH   1  16
BRANCH   5  21
HETATM   21  O2  UNL     1       1.874  33.283  49.058  1.00  0.00    -0.357 OA
ATOM     22  H2  UNL     1       2.602  33.279  49.668  1.00  0.00     0.217 HD
ENDBRANCH   5  21
BRANCH  12  23
HETATM   23  O4  UNL     1       1.812  40.705  48.604  1.00  0.00    -0.394 OA
ATOM     24  H4  UNL     1       2.014  41.483  49.110  1.00  0.00     0.210 HD
ENDBRANCH  12  23
BRANCH  10  25
HETATM   25  O3  UNL     1      -0.736  39.397  51.782  1.00  0.00    -0.391 OA
ATOM     26  H3  UNL     1      -1.044  40.173  52.234  1.00  0.00     0.210 HD
ENDBRANCH  10  25
TORSDOF 7
ENDMDL
MODEL 4
REMARK VINA RESULT: -7.429178026      3.115      7.839
REMARK  7 active torsions:
REMARK  status: ('A' for Active; 'I' for Inactive)
REMARK    1  A    between atoms: C2_2  and  C3_3 
REMARK    2  A    between atoms: C3_3  and  C4_4 
REMARK    3  A    between atoms: C4_4  and  C5_5 
REMARK    4  A    between atoms: C5_5  and  C6_6 
REMARK    5  A    between atoms: C9_10  and  O2_11 
REMARK    6  A    between atoms: C14_17  and  O3_18 
REMARK    7  A    between atoms: C16_21  and  O4_22 
ROOT
HETATM    1  C6  UNL     1      -0.982  36.911  42.774  1.00  0.00     0.087 A 
HETATM    2  O1  UNL     1       0.003  36.165  43.198  1.00  0.00    -0.308 OA
HETATM    3  C7  UNL     1       0.095  36.236  44.506  1.00  0.00     0.131 A 
HETATM    4  C8  UNL     1      -0.876  37.069  44.982  1.00  0.00     0.019 A 
HETATM    5  C9  UNL     1      -1.573  37.507  43.865  1.00  0.00     0.104 A 
HETATM    6  C10 UNL     1      -1.095  37.405  46.417  1.00  0.00     0.080 C 
HETATM    7  C11 UNL     1       0.045  36.877  47.233  1.00  0.00    -0.057 C 
HETATM    8  C12 UNL     1       0.503  37.654  48.201  1.00  0.00    -0.052 C 
HETATM    9  C13 UNL     1      -0.079  38.999  48.479  1.00  0.00     0.046 C 
HETATM   10  C14 UNL     1       1.637  37.201  49.044  1.00  0.00     0.149 C 
HETATM   11  C15 UNL     1       1.640  35.715  49.118  1.00  0.00     0.069 C 
HETATM   12  C16 UNL     1       1.646  35.049  47.763  1.00  0.00     0.136 C 
HETATM   13  C17 UNL     1       0.540  35.544  46.877  1.00  0.00     0.121 C 
HETATM   14  C18 UNL     1       1.005  35.611  45.470  1.00  0.00     0.194 C 
HETATM   15  O5  UNL     1       2.118  35.163  45.100  1.00  0.00    -0.289 OA
ENDROOT
BRANCH   1  16
HETATM   16  C5  UNL     1      -1.361  37.058  41.349  1.00  0.00     0.068 C 
BRANCH  16  17
HETATM   17  C4  UNL     1      -2.016  35.829  40.796  1.00  0.00     0.007 C 
BRANCH  17  18
HETATM   18  C3  UNL     1      -3.110  35.396  41.739  1.00  0.00     0.000 C 
BRANCH  18  19
HETATM   19  C2  UNL     1      -3.235  33.915  41.902  1.00  0.00    -0.005 C 
HETATM   20  C1  UNL     1      -2.490  33.565  43.198  1.00  0.00     0.005 C 
ENDBRANCH  18  19
ENDBRANCH  17  18
ENDBRANCH  16  17
ENDBRANCH   1  16
BRANCH   5  21
HETATM   21  O2  UNL     1      -2.643  38.369  43.886  1.00  0.00    -0.357 OA
ATOM     22  H2  UNL     1      -2.665  39.282  43.627  1.00  0.00     0.217 HD
ENDBRANCH   5  21
BRANCH  12  23
HETATM   23  O4  UNL     1       1.431  33.682  47.977  1.00  0.00    -0.394 OA
ATOM     24  H4  UNL     1       2.270  33.249  47.876  1.00  0.00     0.210 HD
ENDBRANCH  12  23
BRANCH  10  25
HETATM   25  O3  UNL     1       2.824  37.692  48.499  1.00  0.00    -0.391 OA
ATOM     26  H3  UNL     1       2.784  37.605  47.554  1.00  0.00     0.210 HD
ENDBRANCH  10  25
TORSDOF 7
ENDMDL
MODEL 5
REMARK VINA RESULT: -7.421630952      5.324     10.182
REMARK  7 active torsions:
REMARK  status: ('A' for Active; 'I' for Inactive)
REMARK    1  A    between atoms: C2_2  and  C3_3 
REMARK    2  A    between atoms: C3_3  and  C4_4 
REMARK    3  A    between atoms: C4_4  and  C5_5 
REMARK    4  A    between atoms: C5_5  and  C6_6 
REMARK    5  A    between atoms: C9_10  and  O2_11 
REMARK    6  A    between atoms: C14_17  and  O3_18 
REMARK    7  A    between atoms: C16_21  and  O4_22 
ROOT
HETATM    1  C6  UNL     1      -0.508  35.995  46.259  1.00  0.00     0.087 A 
HETATM    2  O1  UNL     1      -0.526  37.223  46.705  1.00  0.00    -0.308 OA
HETATM    3  C7  UNL     1       0.242  37.333  47.763  1.00  0.00     0.131 A 
HETATM    4  C8  UNL     1       0.804  36.121  48.041  1.00  0.00     0.019 A 
HETATM    5  C9  UNL     1       0.322  35.254  47.070  1.00  0.00     0.104 A 
HETATM    6  C10 UNL     1       1.737  35.842  49.169  1.00  0.00     0.080 C 
HETATM    7  C11 UNL     1       1.785  37.028  50.082  1.00  0.00    -0.057 C 
HETATM    8  C12 UNL     1       1.801  36.786  51.383  1.00  0.00    -0.052 C 
HETATM    9  C13 UNL     1       1.773  35.399  51.931  1.00  0.00     0.046 C 
HETATM   10  C14 UNL     1       1.839  37.913  52.347  1.00  0.00     0.149 C 
HETATM   11  C15 UNL     1       2.519  39.080  51.725  1.00  0.00     0.069 C 
HETATM   12  C16 UNL     1       1.912  39.491  50.404  1.00  0.00     0.136 C 
HETATM   13  C17 UNL     1       1.811  38.346  49.439  1.00  0.00     0.121 C 
HETATM   14  C18 UNL     1       0.572  38.465  48.634  1.00  0.00     0.194 C 
HETATM   15  O5  UNL     1      -0.174  39.474  48.679  1.00  0.00    -0.289 OA
ENDROOT
BRANCH   1  16
HETATM   16  C5  UNL     1      -1.266  35.527  45.075  1.00  0.00     0.068 C 
BRANCH  16  17
HETATM   17  C4  UNL     1      -0.387  34.904  44.035  1.00  0.00     0.007 C 
BRANCH  17  18
HETATM   18  C3  UNL     1      -0.980  33.577  43.631  1.00  0.00     0.000 C 
BRANCH  18  19
HETATM   19  C2  UNL     1      -0.026  32.428  43.698  1.00  0.00    -0.005 C 
HETATM   20  C1  UNL     1      -0.835  31.180  43.313  1.00  0.00     0.005 C 
ENDBRANCH  18  19
ENDBRANCH  17  18
ENDBRANCH  16  17
ENDBRANCH   1  16
BRANCH   5  21
HETATM   21  O2  UNL     1       0.635  33.920  46.972  1.00  0.00    -0.357 OA
ATOM     22  H2  UNL     1       1.237  33.417  47.508  1.00  0.00     0.217 HD
ENDBRANCH   5  21
BRANCH  12  23
HETATM   23  O4  UNL     1       2.770  40.442  49.837  1.00  0.00    -0.394 OA
ATOM     24  H4  UNL     1       3.283  39.993  49.175  1.00  0.00     0.210 HD
ENDBRANCH  12  23
BRANCH  10  25
HETATM   25  O3  UNL     1       0.531  38.220  52.727  1.00  0.00    -0.391 OA
ATOM     26  H3  UNL     1       0.547  39.003  53.264  1.00  0.00     0.210 HD
ENDBRANCH  10  25
TORSDOF 7
ENDMDL
