MODEL 1
REMARK VINA RESULT: -8.288850956      0.000      0.000
REMARK  8 active torsions:
REMARK  status: ('A' for Active; 'I' for Inactive)
REMARK    1  A    between atoms: O1_1  and  C1_3 
REMARK    2  A    between atoms: C1_3  and  C2_4 
REMARK    3  A    between atoms: C2_4  and  O2_5 
REMARK    4  A    between atoms: C2_4  and  C3_7 
REMARK    5  A    between atoms: C7_11  and  O3_12 
REMARK    6  A    between atoms: C8_15  and  O5_16 
REMARK    7  A    between atoms: O5_16  and  C9_17 
REMARK    8  A    between atoms: C17_25  and  O6_26 
ROOT
HETATM    1  C3  UNL     1       1.924  39.636  49.987  1.00  0.00     0.050 C 
HETATM    2  C4  UNL     1       1.986  39.089  51.389  1.00  0.00     0.015 C 
HETATM    3  C5  UNL     1       1.061  37.904  51.592  1.00  0.00     0.045 C 
HETATM    4  C6  UNL     1       1.352  36.950  50.503  1.00  0.00     0.014 A 
HETATM    5  C7  UNL     1       1.659  35.615  50.405  1.00  0.00     0.192 A 
HETATM    6  O4  UNL     1       1.822  35.289  49.134  1.00  0.00    -0.264 OA
HETATM    7  C8  UNL     1       1.630  36.378  48.397  1.00  0.00     0.197 A 
HETATM    8  C16 UNL     1       1.336  37.431  49.212  1.00  0.00     0.040 A 
HETATM    9  C17 UNL     1       1.023  38.876  49.069  1.00  0.00     0.163 C 
ENDROOT
BRANCH   7  10
HETATM   10  O5  UNL     1       1.719  36.410  47.036  1.00  0.00    -0.324 OA
BRANCH  10  11
HETATM   11  C9  UNL     1       0.706  36.083  46.120  1.00  0.00     0.131 C 
HETATM   12  C10 UNL     1       0.399  34.625  46.252  1.00  0.00     0.032 C 
HETATM   13  C11 UNL     1       0.124  34.003  44.891  1.00  0.00     0.002 C 
HETATM   14  C12 UNL     1      -1.352  34.177  44.553  1.00  0.00     0.000 C 
HETATM   15  C13 UNL     1      -1.595  35.659  44.425  1.00  0.00     0.000 C 
HETATM   16  C14 UNL     1      -1.772  36.273  45.778  1.00  0.00     0.002 C 
HETATM   17  C15 UNL     1      -0.521  36.951  46.293  1.00  0.00     0.032 C 
ENDBRANCH  10  11
ENDBRANCH   7  10
BRANCH   5  18
HETATM   18  O3  UNL     1       1.771  34.765  51.494  1.00  0.00    -0.340 OA
ATOM     19  H3  UNL     1       1.344  33.919  51.552  1.00  0.00     0.220 HD
ENDBRANCH   5  18
BRANCH   9  20
HETATM   20  O6  UNL     1      -0.322  39.030  49.332  1.00  0.00    -0.390 OA
ATOM     21  H6  UNL     1      -0.578  38.809  50.220  1.00  0.00     0.210 HD
ENDBRANCH   9  20
BRANCH   1  22
HETATM   22  C2  UNL     1       1.620  41.099  50.085  1.00  0.00     0.148 C 
BRANCH  22  23
HETATM   23  C1  UNL     1       2.686  41.901  50.769  1.00  0.00     0.196 C 
BRANCH  23  24
HETATM   24  O1  UNL     1       3.094  43.001  50.040  1.00  0.00    -0.398 OA
ATOM     25  H1  UNL     1       4.001  43.238  50.194  1.00  0.00     0.209 HD
ENDBRANCH  23  24
ENDBRANCH  22  23
BRANCH  22  26
HETATM   26  O2  UNL     1       1.376  41.647  48.834  1.00  0.00    -0.393 OA
ATOM     27  H2  UNL     1       1.547  40.990  48.170  1.00  0.00     0.210 HD
ENDBRANCH  22  26
ENDBRANCH   1  22
TORSDOF 8
ENDMDL
MODEL 2
REMARK VINA RESULT: -8.251705304      2.541      6.502
REMARK  8 active torsions:
REMARK  status: ('A' for Active; 'I' for Inactive)
REMARK    1  A    between atoms: O1_1  and  C1_3 
REMARK    2  A    between atoms: C1_3  and  C2_4 
REMARK    3  A    between atoms: C2_4  and  O2_5 
REMARK    4  A    between atoms: C2_4  and  C3_7 
REMARK    5  A    between atoms: C7_11  and  O3_12 
REMARK    6  A    between atoms: C8_15  and  O5_16 
REMARK    7  A    between atoms: O5_16  and  C9_17 
REMARK    8  A    between atoms: C17_25  and  O6_26 
ROOT
HETATM    1  C3  UNL     1      -1.186  36.946  44.539  1.00  0.00     0.050 C 
HETATM    2  C4  UNL     1      -1.901  35.632  44.361  1.00  0.00     0.015 C 
HETATM    3  C5  UNL     1      -0.949  34.452  44.333  1.00  0.00     0.045 C 
HETATM    4  C6  UNL     1      -0.089  34.573  45.528  1.00  0.00     0.014 A 
HETATM    5  C7  UNL     1       0.282  33.764  46.573  1.00  0.00     0.192 A 
HETATM    6  O4  UNL     1       1.099  34.423  47.376  1.00  0.00    -0.264 OA
HETATM    7  C8  UNL     1       1.273  35.645  46.883  1.00  0.00     0.197 A 
HETATM    8  C16 UNL     1       0.550  35.776  45.734  1.00  0.00     0.040 A 
HETATM    9  C17 UNL     1       0.293  36.824  44.712  1.00  0.00     0.163 C 
ENDROOT
BRANCH   7  10
HETATM   10  O5  UNL     1       2.058  36.601  47.457  1.00  0.00    -0.324 OA
BRANCH  10  11
HETATM   11  C9  UNL     1       1.769  37.343  48.614  1.00  0.00     0.131 C 
HETATM   12  C10 UNL     1       0.438  38.004  48.433  1.00  0.00     0.032 C 
HETATM   13  C11 UNL     1       0.442  39.403  49.030  1.00  0.00     0.002 C 
HETATM   14  C12 UNL     1       0.080  39.314  50.507  1.00  0.00     0.000 C 
HETATM   15  C13 UNL     1       1.186  38.539  51.178  1.00  0.00     0.000 C 
HETATM   16  C14 UNL     1       0.981  37.070  50.980  1.00  0.00     0.002 C 
HETATM   17  C15 UNL     1       1.830  36.496  49.865  1.00  0.00     0.032 C 
ENDBRANCH  10  11
ENDBRANCH   7  10
BRANCH   5  18
HETATM   18  O3  UNL     1      -0.152  32.458  46.732  1.00  0.00    -0.340 OA
ATOM     19  H3  UNL     1       0.302  31.809  47.257  1.00  0.00     0.220 HD
ENDBRANCH   5  18
BRANCH   9  20
HETATM   20  O6  UNL     1       0.973  36.456  43.570  1.00  0.00    -0.390 OA
ATOM     21  H6  UNL     1       1.890  36.249  43.707  1.00  0.00     0.210 HD
ENDBRANCH   9  20
BRANCH   1  22
HETATM   22  C2  UNL     1      -1.609  37.846  43.420  1.00  0.00     0.148 C 
BRANCH  22  23
HETATM   23  C1  UNL     1      -1.646  37.178  42.078  1.00  0.00     0.196 C 
BRANCH  23  24
HETATM   24  O1  UNL     1      -0.536  37.448  41.303  1.00  0.00    -0.398 OA
ATOM     25  H1  UNL     1      -0.740  37.563  40.382  1.00  0.00     0.209 HD
ENDBRANCH  23  24
ENDBRANCH  22  23
BRANCH  22  26
HETATM   26  O2  UNL     1      -2.846  38.418  43.674  1.00  0.00    -0.393 OA
ATOM     27  H2  UNL     1      -3.513  37.934  43.202  1.00  0.00     0.210 HD
ENDBRANCH  22  26
ENDBRANCH   1  22
TORSDOF 8
ENDMDL
MODEL 3
REMARK VINA RESULT: -8.224619022      1.023      1.364
REMARK  8 active torsions:
REMARK  status: ('A' for Active; 'I' for Inactive)
REMARK    1  A    between atoms: O1_1  and  C1_3 
REMARK    2  A    between atoms: C1_3  and  C2_4 
REMARK    3  A    between atoms: C2_4  and  O2_5 
REMARK    4  A    between atoms: C2_4  and  C3_7 
REMARK    5  A    between atoms: C7_11  and  O3_12 
REMARK    6  A    between atoms: C8_15  and  O5_16 
REMARK    7  A    between atoms: O5_16  and  C9_17 
REMARK    8  A    between atoms: C17_25  and  O6_26 
ROOT
HETATM    1  C3  UNL     1       2.007  39.376  49.887  1.00  0.00     0.050 C 
HETATM    2  C4  UNL     1       2.140  38.690  51.223  1.00  0.00     0.015 C 
HETATM    3  C5  UNL     1       1.184  37.523  51.374  1.00  0.00     0.045 C 
HETATM    4  C6  UNL     1       1.363  36.672  50.180  1.00  0.00     0.014 A 
HETATM    5  C7  UNL     1       1.608  35.344  49.932  1.00  0.00     0.192 A 
HETATM    6  O4  UNL     1       1.673  35.141  48.627  1.00  0.00    -0.264 OA
HETATM    7  C8  UNL     1       1.476  36.303  48.014  1.00  0.00     0.197 A 
HETATM    8  C16 UNL     1       1.280  37.279  48.946  1.00  0.00     0.040 A 
HETATM    9  C17 UNL     1       1.017  38.741  48.966  1.00  0.00     0.163 C 
ENDROOT
BRANCH   7  10
HETATM   10  O5  UNL     1       1.476  36.467  46.660  1.00  0.00    -0.324 OA
BRANCH  10  11
HETATM   11  C9  UNL     1       0.412  36.935  45.870  1.00  0.00     0.131 C 
HETATM   12  C10 UNL     1       0.644  36.500  44.457  1.00  0.00     0.032 C 
HETATM   13  C11 UNL     1       0.223  37.586  43.479  1.00  0.00     0.002 C 
HETATM   14  C12 UNL     1      -1.262  37.432  43.173  1.00  0.00     0.000 C 
HETATM   15  C13 UNL     1      -1.998  37.683  44.465  1.00  0.00     0.000 C 
HETATM   16  C14 UNL     1      -1.986  36.451  45.314  1.00  0.00     0.002 C 
HETATM   17  C15 UNL     1      -0.932  36.488  46.401  1.00  0.00     0.032 C 
ENDBRANCH  10  11
ENDBRANCH   7  10
BRANCH   5  18
HETATM   18  O3  UNL     1       1.758  34.386  50.922  1.00  0.00    -0.340 OA
ATOM     19  H3  UNL     1       1.936  33.469  50.751  1.00  0.00     0.220 HD
ENDBRANCH   5  18
BRANCH   9  20
HETATM   20  O6  UNL     1      -0.300  38.914  49.337  1.00  0.00    -0.390 OA
ATOM     21  H6  UNL     1      -0.636  38.244  49.921  1.00  0.00     0.210 HD
ENDBRANCH   9  20
BRANCH   1  22
HETATM   22  C2  UNL     1       1.770  40.831  50.148  1.00  0.00     0.148 C 
BRANCH  22  23
HETATM   23  C1  UNL     1       2.888  41.511  50.880  1.00  0.00     0.196 C 
BRANCH  23  24
HETATM   24  O1  UNL     1       3.253  42.719  50.317  1.00  0.00    -0.398 OA
ATOM     25  H1  UNL     1       4.168  42.935  50.455  1.00  0.00     0.209 HD
ENDBRANCH  23  24
ENDBRANCH  22  23
BRANCH  22  26
HETATM   26  O2  UNL     1       1.518  41.518  48.970  1.00  0.00    -0.393 OA
ATOM     27  H2  UNL     1       0.588  41.476  48.781  1.00  0.00     0.210 HD
ENDBRANCH  22  26
ENDBRANCH   1  22
TORSDOF 8
ENDMDL
MODEL 4
REMARK VINA RESULT: -8.193109550      1.285      1.591
REMARK  8 active torsions:
REMARK  status: ('A' for Active; 'I' for Inactive)
REMARK    1  A    between atoms: O1_1  and  C1_3 
REMARK    2  A    between atoms: C1_3  and  C2_4 
REMARK    3  A    between atoms: C2_4  and  O2_5 
REMARK    4  A    between atoms: C2_4  and  C3_7 
REMARK    5  A    between atoms: C7_11  and  O3_12 
REMARK    6  A    between atoms: C8_15  and  O5_16 
REMARK    7  A    between atoms: O5_16  and  C9_17 
REMARK    8  A    between atoms: C17_25  and  O6_26 
ROOT
HETATM    1  C3  UNL     1       1.793  39.840  49.731  1.00  0.00     0.050 C 
HETATM    2  C4  UNL     1       2.222  38.973  50.887  1.00  0.00     0.015 C 
HETATM    3  C5  UNL     1       1.379  37.718  51.016  1.00  0.00     0.045 C 
HETATM    4  C6  UNL     1       1.367  37.078  49.685  1.00  0.00     0.014 A 
HETATM    5  C7  UNL     1       1.631  35.829  49.180  1.00  0.00     0.192 A 
HETATM    6  O4  UNL     1       1.450  35.832  47.871  1.00  0.00    -0.264 OA
HETATM    7  C8  UNL     1       1.074  37.054  47.505  1.00  0.00     0.197 A 
HETATM    8  C16 UNL     1       1.011  37.856  48.606  1.00  0.00     0.040 A 
HETATM    9  C17 UNL     1       0.678  39.271  48.916  1.00  0.00     0.163 C 
ENDROOT
BRANCH   7  10
HETATM   10  O5  UNL     1       0.800  37.421  46.221  1.00  0.00    -0.324 OA
BRANCH  10  11
HETATM   11  C9  UNL     1       0.192  36.630  45.232  1.00  0.00     0.131 C 
HETATM   12  C10 UNL     1      -1.213  36.337  45.657  1.00  0.00     0.032 C 
HETATM   13  C11 UNL     1      -1.606  34.914  45.288  1.00  0.00     0.002 C 
HETATM   14  C12 UNL     1      -2.144  34.900  43.863  1.00  0.00     0.000 C 
HETATM   15  C13 UNL     1      -1.000  35.295  42.964  1.00  0.00     0.000 C 
HETATM   16  C14 UNL     1      -0.843  36.783  42.952  1.00  0.00     0.002 C 
HETATM   17  C15 UNL     1       0.261  37.273  43.864  1.00  0.00     0.032 C 
ENDBRANCH  10  11
ENDBRANCH   7  10
BRANCH   5  18
HETATM   18  O3  UNL     1       2.024  34.748  49.954  1.00  0.00    -0.340 OA
ATOM     19  H3  UNL     1       1.940  33.842  49.680  1.00  0.00     0.220 HD
ENDBRANCH   5  18
BRANCH   9  20
HETATM   20  O6  UNL     1      -0.549  39.272  49.547  1.00  0.00    -0.390 OA
ATOM     21  H6  UNL     1      -1.285  39.455  48.975  1.00  0.00     0.210 HD
ENDBRANCH   9  20
BRANCH   1  22
HETATM   22  C2  UNL     1       1.532  41.213  50.268  1.00  0.00     0.148 C 
BRANCH  22  23
HETATM   23  C1  UNL     1       1.120  42.209  49.226  1.00  0.00     0.196 C 
BRANCH  23  24
HETATM   24  O1  UNL     1       2.163  43.001  48.786  1.00  0.00    -0.398 OA
ATOM     25  H1  UNL     1       1.886  43.867  48.512  1.00  0.00     0.209 HD
ENDBRANCH  23  24
ENDBRANCH  22  23
BRANCH  22  26
HETATM   26  O2  UNL     1       0.575  41.187  51.271  1.00  0.00    -0.393 OA
ATOM     27  H2  UNL     1       0.612  40.346  51.711  1.00  0.00     0.210 HD
ENDBRANCH  22  26
ENDBRANCH   1  22
TORSDOF 8
ENDMDL
MODEL 5
REMARK VINA RESULT: -8.114082046      2.538      6.528
REMARK  8 active torsions:
REMARK  status: ('A' for Active; 'I' for Inactive)
REMARK    1  A    between atoms: O1_1  and  C1_3 
REMARK    2  A    between atoms: C1_3  and  C2_4 
REMARK    3  A    between atoms: C2_4  and  O2_5 
REMARK    4  A    between atoms: C2_4  and  C3_7 
REMARK    5  A    between atoms: C7_11  and  O3_12 
REMARK    6  A    between atoms: C8_15  and  O5_16 
REMARK    7  A    between atoms: O5_16  and  C9_17 
REMARK    8  A    between atoms: C17_25  and  O6_26 
ROOT
HETATM    1  C3  UNL     1      -1.256  36.776  44.538  1.00  0.00     0.050 C 
HETATM    2  C4  UNL     1      -1.824  35.435  44.150  1.00  0.00     0.015 C 
HETATM    3  C5  UNL     1      -0.774  34.341  44.139  1.00  0.00     0.045 C 
HETATM    4  C6  UNL     1      -0.081  34.407  45.442  1.00  0.00     0.014 A 
HETATM    5  C7  UNL     1       0.230  33.527  46.449  1.00  0.00     0.192 A 
HETATM    6  O4  UNL     1       0.880  34.163  47.408  1.00  0.00    -0.264 OA
HETATM    7  C8  UNL     1       1.004  35.438  47.054  1.00  0.00     0.197 A 
HETATM    8  C16 UNL     1       0.418  35.628  45.837  1.00  0.00     0.040 A 
HETATM    9  C17 UNL     1       0.196  36.751  44.889  1.00  0.00     0.163 C 
ENDROOT
BRANCH   7  10
HETATM   10  O5  UNL     1       1.626  36.388  47.809  1.00  0.00    -0.324 OA
BRANCH  10  11
HETATM   11  C9  UNL     1       1.023  37.245  48.745  1.00  0.00     0.131 C 
HETATM   12  C10 UNL     1       1.976  37.456  49.879  1.00  0.00     0.032 C 
HETATM   13  C11 UNL     1       1.237  37.502  51.207  1.00  0.00     0.002 C 
HETATM   14  C12 UNL     1       0.774  38.930  51.469  1.00  0.00     0.000 C 
HETATM   15  C13 UNL     1      -0.224  39.266  50.390  1.00  0.00     0.000 C 
HETATM   16  C14 UNL     1       0.487  39.665  49.135  1.00  0.00     0.002 C 
HETATM   17  C15 UNL     1       0.572  38.546  48.118  1.00  0.00     0.032 C 
ENDBRANCH  10  11
ENDBRANCH   7  10
BRANCH   5  18
HETATM   18  O3  UNL     1      -0.102  32.182  46.432  1.00  0.00    -0.340 OA
ATOM     19  H3  UNL     1       0.497  31.491  46.176  1.00  0.00     0.220 HD
ENDBRANCH   5  18
BRANCH   9  20
HETATM   20  O6  UNL     1       1.040  36.553  43.817  1.00  0.00    -0.390 OA
ATOM     21  H6  UNL     1       1.965  36.596  44.031  1.00  0.00     0.210 HD
ENDBRANCH   9  20
BRANCH   1  22
HETATM   22  C2  UNL     1      -1.617  37.749  43.459  1.00  0.00     0.148 C 
BRANCH  22  23
HETATM   23  C1  UNL     1      -1.652  37.153  42.083  1.00  0.00     0.196 C 
BRANCH  23  24
HETATM   24  O1  UNL     1      -0.450  37.258  41.412  1.00  0.00    -0.398 OA
ATOM     25  H1  UNL     1      -0.112  36.423  41.113  1.00  0.00     0.209 HD
ENDBRANCH  23  24
ENDBRANCH  22  23
BRANCH  22  26
HETATM   26  O2  UNL     1      -2.835  38.358  43.718  1.00  0.00    -0.393 OA
ATOM     27  H2  UNL     1      -3.535  37.757  43.492  1.00  0.00     0.210 HD
ENDBRANCH  22  26
ENDBRANCH   1  22
TORSDOF 8
ENDMDL
