MODEL 1
REMARK VINA RESULT: -8.641095884      0.000      0.000
REMARK  8 active torsions:
REMARK  status: ('A' for Active; 'I' for Inactive)
REMARK    1  A    between atoms: O1_1  and  N1_3 
REMARK    2  A    between atoms: C1_5  and  O2_6 
REMARK    3  A    between atoms: C1_5  and  C2_8 
REMARK    4  A    between atoms: C2_8  and  C3_9 
REMARK    5  A    between atoms: C5_11  and  C6_12 
REMARK    6  A    between atoms: C6_12  and  C7_13 
REMARK    7  A    between atoms: C10_16  and  O3_17 
REMARK    8  A    between atoms: C12_20  and  O4_21 
ROOT
HETATM    1  C3  UNL     1      -1.660  34.828  45.244  1.00  0.00     0.138 C 
HETATM    2  C4  UNL     1      -0.364  35.170  45.935  1.00  0.00     0.040 C 
HETATM    3  C5  UNL     1      -0.766  36.549  46.525  1.00  0.00     0.016 C 
HETATM    4  C13 UNL     1      -1.643  37.078  45.460  1.00  0.00     0.173 C 
HETATM    5  O5  UNL     1      -2.322  35.974  44.919  1.00  0.00    -0.384 OA
ENDROOT
BRANCH   1   6
HETATM    6  C2  UNL     1      -1.437  33.999  44.007  1.00  0.00     0.052 C 
HETATM    7  C14 UNL     1      -2.118  32.646  44.137  1.00  0.00     0.020 C 
HETATM    8  C15 UNL     1      -0.992  31.689  44.464  1.00  0.00     0.001 C 
HETATM    9  C16 UNL     1       0.099  32.233  43.532  1.00  0.00     0.001 C 
HETATM   10  C17 UNL     1       0.065  33.699  43.910  1.00  0.00     0.020 C 
BRANCH   6  11
HETATM   11  C1  UNL     1      -1.824  34.685  42.762  1.00  0.00     0.146 C 
HETATM   12  N1  UNL     1      -2.904  34.383  42.165  1.00  0.00    -0.250 N 
ATOM     13  H1  UNL     1      -3.464  33.651  42.603  1.00  0.00     0.196 HD
BRANCH  12  14
HETATM   14  O1  UNL     1      -3.408  34.905  41.028  1.00  0.00    -0.288 OA
ATOM     15  H1  UNL     1      -4.210  34.673  40.577  1.00  0.00     0.244 HD
ENDBRANCH  12  14
BRANCH  11  16
HETATM   16  O2  UNL     1      -1.006  35.660  42.243  1.00  0.00    -0.347 OA
ATOM     17  H2  UNL     1      -1.361  36.304  41.642  1.00  0.00     0.219 HD
ENDBRANCH  11  16
ENDBRANCH   6  11
ENDBRANCH   1   6
BRANCH   3  18
HETATM   18  C6  UNL     1       0.475  37.246  46.892  1.00  0.00     0.048 C 
BRANCH  18  19
HETATM   19  C7  UNL     1       0.789  37.368  48.313  1.00  0.00    -0.024 A 
HETATM   20  C8  UNL     1       1.437  36.287  48.917  1.00  0.00     0.012 A 
HETATM   21  C9  UNL     1       1.720  36.233  50.264  1.00  0.00     0.037 A 
HETATM   22  C10 UNL     1       1.359  37.283  51.083  1.00  0.00     0.068 A 
HETATM   23  C11 UNL     1       0.726  38.347  50.495  1.00  0.00     0.073 A 
HETATM   24  C12 UNL     1       0.436  38.407  49.117  1.00  0.00     0.074 A 
BRANCH  22  25
HETATM   25  O3  UNL     1       1.635  37.252  52.453  1.00  0.00    -0.361 OA
ATOM     26  H3  UNL     1       1.857  38.046  52.924  1.00  0.00     0.217 HD
ENDBRANCH  22  25
BRANCH  24  27
HETATM   27  O4  UNL     1      -0.192  39.525  48.628  1.00  0.00    -0.360 OA
ATOM     28  H4  UNL     1       0.108  40.403  48.835  1.00  0.00     0.217 HD
ENDBRANCH  24  27
ENDBRANCH  18  19
ENDBRANCH   3  18
TORSDOF 8
ENDMDL
MODEL 2
REMARK VINA RESULT: -8.535954030      3.611      8.198
REMARK  8 active torsions:
REMARK  status: ('A' for Active; 'I' for Inactive)
REMARK    1  A    between atoms: O1_1  and  N1_3 
REMARK    2  A    between atoms: C1_5  and  O2_6 
REMARK    3  A    between atoms: C1_5  and  C2_8 
REMARK    4  A    between atoms: C2_8  and  C3_9 
REMARK    5  A    between atoms: C5_11  and  C6_12 
REMARK    6  A    between atoms: C6_12  and  C7_13 
REMARK    7  A    between atoms: C10_16  and  O3_17 
REMARK    8  A    between atoms: C12_20  and  O4_21 
ROOT
HETATM    1  C3  UNL     1      -0.971  36.455  44.326  1.00  0.00     0.138 C 
HETATM    2  C4  UNL     1      -0.157  36.733  43.087  1.00  0.00     0.040 C 
HETATM    3  C5  UNL     1      -1.308  36.744  42.045  1.00  0.00     0.016 C 
HETATM    4  C13 UNL     1      -2.204  35.704  42.587  1.00  0.00     0.173 C 
HETATM    5  O5  UNL     1      -2.108  35.785  43.986  1.00  0.00    -0.384 OA
ENDROOT
BRANCH   1   6
HETATM    6  C2  UNL     1      -0.196  35.661  45.343  1.00  0.00     0.052 C 
HETATM    7  C14 UNL     1       0.896  34.845  44.670  1.00  0.00     0.020 C 
HETATM    8  C15 UNL     1       0.340  33.438  44.624  1.00  0.00     0.001 C 
HETATM    9  C16 UNL     1      -0.326  33.369  46.005  1.00  0.00     0.001 C 
HETATM   10  C17 UNL     1      -1.155  34.636  45.963  1.00  0.00     0.020 C 
BRANCH   6  11
HETATM   11  C1  UNL     1       0.338  36.478  46.446  1.00  0.00     0.146 C 
HETATM   12  N1  UNL     1      -0.384  37.361  47.006  1.00  0.00    -0.250 N 
ATOM     13  H1  UNL     1      -1.332  37.457  46.641  1.00  0.00     0.196 HD
BRANCH  12  14
HETATM   14  O1  UNL     1      -0.060  38.190  48.020  1.00  0.00    -0.288 OA
ATOM     15  H1  UNL     1      -0.469  39.011  48.264  1.00  0.00     0.244 HD
ENDBRANCH  12  14
BRANCH  11  16
HETATM   16  O2  UNL     1       1.630  36.281  46.872  1.00  0.00    -0.347 OA
ATOM     17  H2  UNL     1       2.333  36.219  46.237  1.00  0.00     0.219 HD
ENDBRANCH  11  16
ENDBRANCH   6  11
ENDBRANCH   1   6
BRANCH   3  18
HETATM   18  C6  UNL     1      -0.696  36.592  40.716  1.00  0.00     0.048 C 
BRANCH  18  19
HETATM   19  C7  UNL     1      -1.538  36.838  39.549  1.00  0.00    -0.024 A 
HETATM   20  C8  UNL     1      -2.547  35.907  39.284  1.00  0.00     0.012 A 
HETATM   21  C9  UNL     1      -3.361  35.971  38.175  1.00  0.00     0.037 A 
HETATM   22  C10 UNL     1      -3.198  36.993  37.263  1.00  0.00     0.068 A 
HETATM   23  C11 UNL     1      -2.212  37.910  37.519  1.00  0.00     0.073 A 
HETATM   24  C12 UNL     1      -1.377  37.849  38.654  1.00  0.00     0.074 A 
BRANCH  22  25
HETATM   25  O3  UNL     1      -4.010  37.078  36.129  1.00  0.00    -0.361 OA
ATOM     26  H3  UNL     1      -4.696  37.733  36.069  1.00  0.00     0.217 HD
ENDBRANCH  22  25
BRANCH  24  27
HETATM   27  O4  UNL     1      -0.428  38.826  38.821  1.00  0.00    -0.360 OA
ATOM     28  H4  UNL     1       0.496  38.663  38.671  1.00  0.00     0.217 HD
ENDBRANCH  24  27
ENDBRANCH  18  19
ENDBRANCH   3  18
TORSDOF 8
ENDMDL
MODEL 3
REMARK VINA RESULT: -8.382837933      0.881      1.085
REMARK  8 active torsions:
REMARK  status: ('A' for Active; 'I' for Inactive)
REMARK    1  A    between atoms: O1_1  and  N1_3 
REMARK    2  A    between atoms: C1_5  and  O2_6 
REMARK    3  A    between atoms: C1_5  and  C2_8 
REMARK    4  A    between atoms: C2_8  and  C3_9 
REMARK    5  A    between atoms: C5_11  and  C6_12 
REMARK    6  A    between atoms: C6_12  and  C7_13 
REMARK    7  A    between atoms: C10_16  and  O3_17 
REMARK    8  A    between atoms: C12_20  and  O4_21 
ROOT
HETATM    1  C3  UNL     1      -1.416  34.736  45.425  1.00  0.00     0.138 C 
HETATM    2  C4  UNL     1      -0.077  34.990  46.072  1.00  0.00     0.040 C 
HETATM    3  C5  UNL     1      -0.395  36.350  46.749  1.00  0.00     0.016 C 
HETATM    4  C13 UNL     1      -1.294  36.969  45.755  1.00  0.00     0.173 C 
HETATM    5  O5  UNL     1      -2.042  35.924  45.190  1.00  0.00    -0.384 OA
ENDROOT
BRANCH   1   6
HETATM    6  C2  UNL     1      -1.283  33.966  44.138  1.00  0.00     0.052 C 
HETATM    7  C14 UNL     1      -2.038  32.650  44.219  1.00  0.00     0.020 C 
HETATM    8  C15 UNL     1      -0.961  31.613  44.454  1.00  0.00     0.001 C 
HETATM    9  C16 UNL     1       0.130  32.144  43.514  1.00  0.00     0.001 C 
HETATM   10  C17 UNL     1       0.194  33.586  43.972  1.00  0.00     0.020 C 
BRANCH   6  11
HETATM   11  C1  UNL     1      -1.669  34.741  42.946  1.00  0.00     0.146 C 
HETATM   12  N1  UNL     1      -0.879  35.605  42.452  1.00  0.00    -0.250 N 
ATOM     13  H1  UNL     1       0.014  35.717  42.933  1.00  0.00     0.196 HD
BRANCH  12  14
HETATM   14  O1  UNL     1      -1.068  36.395  41.375  1.00  0.00    -0.288 OA
ATOM     15  H1  UNL     1      -0.504  37.083  41.041  1.00  0.00     0.244 HD
ENDBRANCH  12  14
BRANCH  11  16
HETATM   16  O2  UNL     1      -2.895  34.524  42.364  1.00  0.00    -0.347 OA
ATOM     17  H2  UNL     1      -3.087  33.684  41.966  1.00  0.00     0.219 HD
ENDBRANCH  11  16
ENDBRANCH   6  11
ENDBRANCH   1   6
BRANCH   3  18
HETATM   18  C6  UNL     1       0.890  36.977  47.094  1.00  0.00     0.048 C 
BRANCH  18  19
HETATM   19  C7  UNL     1       1.219  37.114  48.510  1.00  0.00    -0.024 A 
HETATM   20  C8  UNL     1       1.092  35.972  49.307  1.00  0.00     0.012 A 
HETATM   21  C9  UNL     1       1.291  35.977  50.670  1.00  0.00     0.037 A 
HETATM   22  C10 UNL     1       1.634  37.151  51.309  1.00  0.00     0.068 A 
HETATM   23  C11 UNL     1       1.763  38.272  50.532  1.00  0.00     0.073 A 
HETATM   24  C12 UNL     1       1.561  38.272  49.136  1.00  0.00     0.074 A 
BRANCH  22  25
HETATM   25  O3  UNL     1       1.840  37.181  52.691  1.00  0.00    -0.361 OA
ATOM     26  H3  UNL     1       2.632  36.821  53.074  1.00  0.00     0.217 HD
ENDBRANCH  22  25
BRANCH  24  27
HETATM   27  O4  UNL     1       1.727  39.449  48.451  1.00  0.00    -0.360 OA
ATOM     28  H4  UNL     1       1.496  40.290  48.829  1.00  0.00     0.217 HD
ENDBRANCH  24  27
ENDBRANCH  18  19
ENDBRANCH   3  18
TORSDOF 8
ENDMDL
MODEL 4
REMARK VINA RESULT: -8.257774018      0.957      1.436
REMARK  8 active torsions:
REMARK  status: ('A' for Active; 'I' for Inactive)
REMARK    1  A    between atoms: O1_1  and  N1_3 
REMARK    2  A    between atoms: C1_5  and  O2_6 
REMARK    3  A    between atoms: C1_5  and  C2_8 
REMARK    4  A    between atoms: C2_8  and  C3_9 
REMARK    5  A    between atoms: C5_11  and  C6_12 
REMARK    6  A    between atoms: C6_12  and  C7_13 
REMARK    7  A    between atoms: C10_16  and  O3_17 
REMARK    8  A    between atoms: C12_20  and  O4_21 
ROOT
HETATM    1  C3  UNL     1      -1.702  34.762  45.191  1.00  0.00     0.138 C 
HETATM    2  C4  UNL     1      -0.404  35.018  45.915  1.00  0.00     0.040 C 
HETATM    3  C5  UNL     1      -0.739  36.409  46.518  1.00  0.00     0.016 C 
HETATM    4  C13 UNL     1      -1.560  37.003  45.444  1.00  0.00     0.173 C 
HETATM    5  O5  UNL     1      -2.290  35.949  44.871  1.00  0.00    -0.384 OA
ENDROOT
BRANCH   1   6
HETATM    6  C2  UNL     1      -1.501  33.940  43.946  1.00  0.00     0.052 C 
HETATM    7  C14 UNL     1      -2.202  32.597  44.068  1.00  0.00     0.020 C 
HETATM    8  C15 UNL     1      -1.089  31.619  44.380  1.00  0.00     0.001 C 
HETATM    9  C16 UNL     1       0.005  32.154  43.446  1.00  0.00     0.001 C 
HETATM   10  C17 UNL     1      -0.004  33.616  43.837  1.00  0.00     0.020 C 
BRANCH   6  11
HETATM   11  C1  UNL     1      -1.884  34.642  42.708  1.00  0.00     0.146 C 
HETATM   12  N1  UNL     1      -2.969  34.357  42.112  1.00  0.00    -0.250 N 
ATOM     13  H1  UNL     1      -3.534  33.626  42.544  1.00  0.00     0.196 HD
BRANCH  12  14
HETATM   14  O1  UNL     1      -3.470  34.896  40.982  1.00  0.00    -0.288 OA
ATOM     15  H1  UNL     1      -3.724  35.796  40.820  1.00  0.00     0.244 HD
ENDBRANCH  12  14
BRANCH  11  16
HETATM   16  O2  UNL     1      -1.057  35.615  42.197  1.00  0.00    -0.347 OA
ATOM     17  H2  UNL     1      -0.856  35.624  41.269  1.00  0.00     0.219 HD
ENDBRANCH  11  16
ENDBRANCH   6  11
ENDBRANCH   1   6
BRANCH   3  18
HETATM   18  C6  UNL     1       0.532  37.027  46.923  1.00  0.00     0.048 C 
BRANCH  18  19
HETATM   19  C7  UNL     1       0.769  37.217  48.351  1.00  0.00    -0.024 A 
HETATM   20  C8  UNL     1       0.415  38.455  48.896  1.00  0.00     0.012 A 
HETATM   21  C9  UNL     1       0.656  38.799  50.208  1.00  0.00     0.037 A 
HETATM   22  C10 UNL     1       1.275  37.899  51.051  1.00  0.00     0.068 A 
HETATM   23  C11 UNL     1       1.621  36.683  50.521  1.00  0.00     0.073 A 
HETATM   24  C12 UNL     1       1.376  36.326  49.180  1.00  0.00     0.074 A 
BRANCH  22  25
HETATM   25  O3  UNL     1       1.531  38.225  52.385  1.00  0.00    -0.361 OA
ATOM     26  H3  UNL     1       2.361  38.611  52.642  1.00  0.00     0.217 HD
ENDBRANCH  22  25
BRANCH  24  27
HETATM   27  O4  UNL     1       1.754  35.077  48.755  1.00  0.00    -0.360 OA
ATOM     28  H4  UNL     1       1.853  34.865  47.834  1.00  0.00     0.217 HD
ENDBRANCH  24  27
ENDBRANCH  18  19
ENDBRANCH   3  18
TORSDOF 8
ENDMDL
MODEL 5
REMARK VINA RESULT: -8.084018526      3.551      8.056
REMARK  8 active torsions:
REMARK  status: ('A' for Active; 'I' for Inactive)
REMARK    1  A    between atoms: O1_1  and  N1_3 
REMARK    2  A    between atoms: C1_5  and  O2_6 
REMARK    3  A    between atoms: C1_5  and  C2_8 
REMARK    4  A    between atoms: C2_8  and  C3_9 
REMARK    5  A    between atoms: C5_11  and  C6_12 
REMARK    6  A    between atoms: C6_12  and  C7_13 
REMARK    7  A    between atoms: C10_16  and  O3_17 
REMARK    8  A    between atoms: C12_20  and  O4_21 
ROOT
HETATM    1  C3  UNL     1      -1.141  35.664  44.403  1.00  0.00     0.138 C 
HETATM    2  C4  UNL     1      -0.430  36.468  43.345  1.00  0.00     0.040 C 
HETATM    3  C5  UNL     1      -1.423  36.250  42.172  1.00  0.00     0.016 C 
HETATM    4  C13 UNL     1      -1.864  34.862  42.418  1.00  0.00     0.173 C 
HETATM    5  O5  UNL     1      -1.895  34.695  43.811  1.00  0.00    -0.384 OA
ENDROOT
BRANCH   1   6
HETATM    6  C2  UNL     1      -0.179  35.038  45.377  1.00  0.00     0.052 C 
HETATM    7  C14 UNL     1      -0.631  35.279  46.808  1.00  0.00     0.020 C 
HETATM    8  C15 UNL     1       0.262  36.397  47.301  1.00  0.00     0.001 C 
HETATM    9  C16 UNL     1       1.596  35.968  46.677  1.00  0.00     0.001 C 
HETATM   10  C17 UNL     1       1.165  35.767  45.240  1.00  0.00     0.020 C 
BRANCH   6  11
HETATM   11  C1  UNL     1       0.074  33.610  45.120  1.00  0.00     0.146 C 
HETATM   12  N1  UNL     1      -0.263  32.729  45.971  1.00  0.00    -0.250 N 
ATOM     13  H1  UNL     1      -0.707  33.079  46.820  1.00  0.00     0.196 HD
BRANCH  12  14
HETATM   14  O1  UNL     1      -0.110  31.391  45.898  1.00  0.00    -0.288 OA
ATOM     15  H1  UNL     1       0.550  30.849  46.314  1.00  0.00     0.244 HD
ENDBRANCH  12  14
BRANCH  11  16
HETATM   16  O2  UNL     1       0.680  33.230  43.946  1.00  0.00    -0.347 OA
ATOM     17  H2  UNL     1       0.767  32.307  43.736  1.00  0.00     0.219 HD
ENDBRANCH  11  16
ENDBRANCH   6  11
ENDBRANCH   1   6
BRANCH   3  18
HETATM   18  C6  UNL     1      -0.720  36.607  40.930  1.00  0.00     0.048 C 
BRANCH  18  19
HETATM   19  C7  UNL     1      -1.527  36.833  39.735  1.00  0.00    -0.024 A 
HETATM   20  C8  UNL     1      -2.542  35.910  39.467  1.00  0.00     0.012 A 
HETATM   21  C9  UNL     1      -3.325  35.956  38.335  1.00  0.00     0.037 A 
HETATM   22  C10 UNL     1      -3.122  36.950  37.401  1.00  0.00     0.068 A 
HETATM   23  C11 UNL     1      -2.129  37.860  37.660  1.00  0.00     0.073 A 
HETATM   24  C12 UNL     1      -1.327  37.817  38.818  1.00  0.00     0.074 A 
BRANCH  22  25
HETATM   25  O3  UNL     1      -3.902  37.017  36.244  1.00  0.00    -0.361 OA
ATOM     26  H3  UNL     1      -4.629  37.626  36.180  1.00  0.00     0.217 HD
ENDBRANCH  22  25
BRANCH  24  27
HETATM   27  O4  UNL     1      -0.368  38.785  38.985  1.00  0.00    -0.360 OA
ATOM     28  H4  UNL     1      -0.590  39.688  39.181  1.00  0.00     0.217 HD
ENDBRANCH  24  27
ENDBRANCH  18  19
ENDBRANCH   3  18
TORSDOF 8
ENDMDL
