MODEL 1
REMARK VINA RESULT: -8.382826662      0.000      0.000
REMARK  7 active torsions:
REMARK  status: ('A' for Active; 'I' for Inactive)
REMARK    1  A    between atoms: N1_1  and  S1_4 
REMARK    2  A    between atoms: S1_4  and  C1_7 
REMARK    3  A    between atoms: C4_10  and  C5_11 
REMARK    4  A    between atoms: C6_12  and  C7_13 
REMARK    5  A    between atoms: C14_22  and  C15_23 
REMARK    6  A    between atoms: C18_26  and  C19_27 
REMARK    7  A    between atoms: C19_27  and  N2_28 
ROOT
HETATM    1  C5  UNL     1      35.430  14.831  -7.360  1.00  0.00     0.123 A 
HETATM    2  C6  UNL     1      35.285  14.574  -8.633  1.00  0.00     0.123 A 
HETATM    3  O3  UNL     1      34.108  13.836  -8.785  1.00  0.00    -0.284 OA
HETATM    4  C13 UNL     1      33.512  13.635  -7.553  1.00  0.00     0.192 A 
HETATM    5  C14 UNL     1      32.388  12.984  -7.269  1.00  0.00     0.075 C 
HETATM    6  O6  UNL     1      34.348  14.264  -6.656  1.00  0.00    -0.284 OA
ENDROOT
BRANCH   1   7
HETATM    7  C4  UNL     1      36.486  15.563  -6.669  1.00  0.00     0.001 A 
HETATM    8  C3  UNL     1      36.429  16.919  -6.437  1.00  0.00     0.016 A 
HETATM    9  C2  UNL     1      37.464  17.571  -5.762  1.00  0.00     0.026 A 
HETATM   10  C1  UNL     1      38.558  16.877  -5.316  1.00  0.00     0.079 A 
HETATM   11  C23 UNL     1      38.621  15.525  -5.543  1.00  0.00     0.026 A 
HETATM   12  C22 UNL     1      37.589  14.885  -6.214  1.00  0.00     0.016 A 
BRANCH  10  13
HETATM   13  S1  UNL     1      39.882  17.706  -4.479  1.00  0.00     0.256 S 
HETATM   14  O1  UNL     1      40.177  19.034  -5.063  1.00  0.00    -0.201 OA
HETATM   15  O2  UNL     1      41.100  16.793  -4.542  1.00  0.00    -0.201 OA
BRANCH  13  16
HETATM   16  N1  UNL     1      39.453  17.791  -2.795  1.00  0.00    -0.324 N 
ATOM     17  H12 UNL     1      39.880  17.195  -2.086  1.00  0.00     0.169 HD
ATOM     18  H11 UNL     1      38.739  18.495  -2.605  1.00  0.00     0.169 HD
ENDBRANCH  13  16
ENDBRANCH  10  13
ENDBRANCH   1   7
BRANCH   2  19
HETATM   19  C7  UNL     1      36.192  14.984  -9.716  1.00  0.00     0.001 A 
HETATM   20  C8  UNL     1      35.810  16.044 -10.503  1.00  0.00     0.016 A 
HETATM   21  C9  UNL     1      36.622  16.498 -11.532  1.00  0.00     0.024 A 
HETATM   22  C10 UNL     1      37.844  15.881 -11.780  1.00  0.00     0.034 A 
HETATM   23 CL1  UNL     1      38.867  16.463 -13.086  1.00  0.00    -0.084 Cl
HETATM   24  C11 UNL     1      38.236  14.816 -10.995  1.00  0.00     0.024 A 
HETATM   25  C12 UNL     1      37.400  14.387  -9.973  1.00  0.00     0.016 A 
ENDBRANCH   2  19
BRANCH   5  26
HETATM   26  C15 UNL     1      31.621  12.378  -8.318  1.00  0.00    -0.032 A 
HETATM   27  C16 UNL     1      30.282  12.631  -8.436  1.00  0.00     0.012 A 
HETATM   28  C17 UNL     1      29.532  12.040  -9.477  1.00  0.00     0.014 A 
HETATM   29  C18 UNL     1      30.125  11.217 -10.374  1.00  0.00    -0.015 A 
HETATM   30  C20 UNL     1      31.483  10.983 -10.226  1.00  0.00     0.014 A 
HETATM   31  C21 UNL     1      32.219  11.547  -9.223  1.00  0.00     0.012 A 
BRANCH  29  32
HETATM   32  C19 UNL     1      29.432  10.563 -11.442  1.00  0.00     0.178 C 
BRANCH  32  33
HETATM   33  N2  UNL     1      29.129  11.047 -12.565  1.00  0.00    -0.127 N 
HETATM   34  O4  UNL     1      29.449  12.281 -13.046  1.00  0.00    -0.532 OA
HETATM   35  O5  UNL     1      28.379  10.263 -13.450  1.00  0.00    -0.532 OA
ENDBRANCH  32  33
ENDBRANCH  29  32
ENDBRANCH   5  26
TORSDOF 7
ENDMDL
MODEL 2
REMARK VINA RESULT: -8.332073180      0.666      1.365
REMARK  7 active torsions:
REMARK  status: ('A' for Active; 'I' for Inactive)
REMARK    1  A    between atoms: N1_1  and  S1_4 
REMARK    2  A    between atoms: S1_4  and  C1_7 
REMARK    3  A    between atoms: C4_10  and  C5_11 
REMARK    4  A    between atoms: C6_12  and  C7_13 
REMARK    5  A    between atoms: C14_22  and  C15_23 
REMARK    6  A    between atoms: C18_26  and  C19_27 
REMARK    7  A    between atoms: C19_27  and  N2_28 
ROOT
HETATM    1  C5  UNL     1      35.480  14.825  -7.358  1.00  0.00     0.123 A 
HETATM    2  C6  UNL     1      35.325  14.580  -8.632  1.00  0.00     0.123 A 
HETATM    3  O3  UNL     1      34.143  13.849  -8.783  1.00  0.00    -0.284 OA
HETATM    4  C13 UNL     1      33.555  13.640  -7.549  1.00  0.00     0.192 A 
HETATM    5  C14 UNL     1      32.429  12.992  -7.263  1.00  0.00     0.075 C 
HETATM    6  O6  UNL     1      34.400  14.256  -6.652  1.00  0.00    -0.284 OA
ENDROOT
BRANCH   1   7
HETATM    7  C4  UNL     1      36.544  15.545  -6.667  1.00  0.00     0.001 A 
HETATM    8  C3  UNL     1      37.685  14.930  -6.202  1.00  0.00     0.016 A 
HETATM    9  C2  UNL     1      38.679  15.668  -5.554  1.00  0.00     0.026 A 
HETATM   10  C1  UNL     1      38.542  17.018  -5.367  1.00  0.00     0.079 A 
HETATM   11  C23 UNL     1      37.407  17.637  -5.829  1.00  0.00     0.026 A 
HETATM   12  C22 UNL     1      36.425  16.897  -6.471  1.00  0.00     0.016 A 
BRANCH  10  13
HETATM   13  S1  UNL     1      39.791  17.951  -4.525  1.00  0.00     0.256 S 
HETATM   14  O1  UNL     1      41.160  17.516  -4.884  1.00  0.00    -0.201 OA
HETATM   15  O2  UNL     1      39.539  17.801  -3.030  1.00  0.00    -0.201 OA
BRANCH  13  16
HETATM   16  N1  UNL     1      39.505  19.630  -4.877  1.00  0.00    -0.324 N 
ATOM     17  H12 UNL     1      39.566  20.015  -5.820  1.00  0.00     0.169 HD
ATOM     18  H11 UNL     1      39.272  20.174  -4.046  1.00  0.00     0.169 HD
ENDBRANCH  13  16
ENDBRANCH  10  13
ENDBRANCH   1   7
BRANCH   2  19
HETATM   19  C7  UNL     1      36.226  14.997  -9.717  1.00  0.00     0.001 A 
HETATM   20  C8  UNL     1      35.819  16.032 -10.525  1.00  0.00     0.016 A 
HETATM   21  C9  UNL     1      36.624  16.490 -11.558  1.00  0.00     0.024 A 
HETATM   22  C10 UNL     1      37.864  15.903 -11.788  1.00  0.00     0.034 A 
HETATM   23 CL1  UNL     1      38.878  16.490 -13.099  1.00  0.00    -0.084 Cl
HETATM   24  C11 UNL     1      38.281  14.863 -10.982  1.00  0.00     0.024 A 
HETATM   25  C12 UNL     1      37.452  14.429  -9.958  1.00  0.00     0.016 A 
ENDBRANCH   2  19
BRANCH   5  26
HETATM   26  C15 UNL     1      31.652  12.399  -8.313  1.00  0.00    -0.032 A 
HETATM   27  C16 UNL     1      32.234  11.553  -9.216  1.00  0.00     0.012 A 
HETATM   28  C17 UNL     1      31.463  10.964 -10.242  1.00  0.00     0.014 A 
HETATM   29  C18 UNL     1      30.139  11.225 -10.349  1.00  0.00    -0.015 A 
HETATM   30  C20 UNL     1      29.581  12.087  -9.417  1.00  0.00     0.014 A 
HETATM   31  C21 UNL     1      30.316  12.664  -8.420  1.00  0.00     0.012 A 
BRANCH  29  32
HETATM   32  C19 UNL     1      29.295  10.687 -11.372  1.00  0.00     0.178 C 
BRANCH  32  33
HETATM   33  N2  UNL     1      28.991  11.223 -12.470  1.00  0.00    -0.127 N 
HETATM   34  O4  UNL     1      29.469  12.392 -12.980  1.00  0.00    -0.532 OA
HETATM   35  O5  UNL     1      28.059  10.578 -13.293  1.00  0.00    -0.532 OA
ENDBRANCH  32  33
ENDBRANCH  29  32
ENDBRANCH   5  26
TORSDOF 7
ENDMDL
MODEL 3
REMARK VINA RESULT: -8.307868470      0.196      1.180
REMARK  7 active torsions:
REMARK  status: ('A' for Active; 'I' for Inactive)
REMARK    1  A    between atoms: N1_1  and  S1_4 
REMARK    2  A    between atoms: S1_4  and  C1_7 
REMARK    3  A    between atoms: C4_10  and  C5_11 
REMARK    4  A    between atoms: C6_12  and  C7_13 
REMARK    5  A    between atoms: C14_22  and  C15_23 
REMARK    6  A    between atoms: C18_26  and  C19_27 
REMARK    7  A    between atoms: C19_27  and  N2_28 
ROOT
HETATM    1  C5  UNL     1      35.485  14.839  -7.347  1.00  0.00     0.123 A 
HETATM    2  C6  UNL     1      35.302  14.632  -8.624  1.00  0.00     0.123 A 
HETATM    3  O3  UNL     1      34.130  13.884  -8.770  1.00  0.00    -0.284 OA
HETATM    4  C13 UNL     1      33.578  13.624  -7.528  1.00  0.00     0.192 A 
HETATM    5  C14 UNL     1      32.472  12.944  -7.236  1.00  0.00     0.075 C 
HETATM    6  O6  UNL     1      34.434  14.227  -6.633  1.00  0.00    -0.284 OA
ENDROOT
BRANCH   1   7
HETATM    7  C4  UNL     1      36.552  15.558  -6.660  1.00  0.00     0.001 A 
HETATM    8  C3  UNL     1      37.698  14.943  -6.208  1.00  0.00     0.016 A 
HETATM    9  C2  UNL     1      38.695  15.679  -5.563  1.00  0.00     0.026 A 
HETATM   10  C1  UNL     1      38.556  17.028  -5.366  1.00  0.00     0.079 A 
HETATM   11  C23 UNL     1      37.416  17.647  -5.815  1.00  0.00     0.026 A 
HETATM   12  C22 UNL     1      36.431  16.909  -6.454  1.00  0.00     0.016 A 
BRANCH  10  13
HETATM   13  S1  UNL     1      39.809  17.959  -4.528  1.00  0.00     0.256 S 
HETATM   14  O1  UNL     1      39.793  19.392  -4.900  1.00  0.00    -0.201 OA
HETATM   15  O2  UNL     1      41.150  17.318  -4.864  1.00  0.00    -0.201 OA
BRANCH  13  16
HETATM   16  N1  UNL     1      39.587  17.703  -2.822  1.00  0.00    -0.324 N 
ATOM     17  H12 UNL     1      40.281  17.236  -2.239  1.00  0.00     0.169 HD
ATOM     18  H11 UNL     1      38.698  18.069  -2.480  1.00  0.00     0.169 HD
ENDBRANCH  13  16
ENDBRANCH  10  13
ENDBRANCH   1   7
BRANCH   2  19
HETATM   19  C7  UNL     1      36.167  15.101  -9.718  1.00  0.00     0.001 A 
HETATM   20  C8  UNL     1      37.351  14.435  -9.927  1.00  0.00     0.016 A 
HETATM   21  C9  UNL     1      38.210  14.810 -10.950  1.00  0.00     0.024 A 
HETATM   22  C10 UNL     1      37.878  15.873 -11.784  1.00  0.00     0.034 A 
HETATM   23 CL1  UNL     1      38.973  16.340 -13.078  1.00  0.00    -0.084 Cl
HETATM   24  C11 UNL     1      36.692  16.547 -11.582  1.00  0.00     0.024 A 
HETATM   25  C12 UNL     1      35.855  16.147 -10.549  1.00  0.00     0.016 A 
ENDBRANCH   2  19
BRANCH   5  26
HETATM   26  C15 UNL     1      31.680  12.371  -8.285  1.00  0.00    -0.032 A 
HETATM   27  C16 UNL     1      30.341  12.637  -8.369  1.00  0.00     0.012 A 
HETATM   28  C17 UNL     1      29.566  12.078  -9.410  1.00  0.00     0.014 A 
HETATM   29  C18 UNL     1      30.134  11.273 -10.339  1.00  0.00    -0.015 A 
HETATM   30  C20 UNL     1      31.493  11.026 -10.224  1.00  0.00     0.014 A 
HETATM   31  C21 UNL     1      32.253  11.559  -9.222  1.00  0.00     0.012 A 
BRANCH  29  32
HETATM   32  C19 UNL     1      29.415  10.652 -11.408  1.00  0.00     0.178 C 
BRANCH  32  33
HETATM   33  N2  UNL     1      29.036  11.186 -12.485  1.00  0.00    -0.127 N 
HETATM   34  O4  UNL     1      29.463  12.364 -13.018  1.00  0.00    -0.532 OA
HETATM   35  O5  UNL     1      28.066  10.529 -13.251  1.00  0.00    -0.532 OA
ENDBRANCH  32  33
ENDBRANCH  29  32
ENDBRANCH   5  26
TORSDOF 7
ENDMDL
MODEL 4
REMARK VINA RESULT: -8.304317182      0.148      1.171
REMARK  7 active torsions:
REMARK  status: ('A' for Active; 'I' for Inactive)
REMARK    1  A    between atoms: N1_1  and  S1_4 
REMARK    2  A    between atoms: S1_4  and  C1_7 
REMARK    3  A    between atoms: C4_10  and  C5_11 
REMARK    4  A    between atoms: C6_12  and  C7_13 
REMARK    5  A    between atoms: C14_22  and  C15_23 
REMARK    6  A    between atoms: C18_26  and  C19_27 
REMARK    7  A    between atoms: C19_27  and  N2_28 
ROOT
HETATM    1  C5  UNL     1      35.450  14.857  -7.369  1.00  0.00     0.123 A 
HETATM    2  C6  UNL     1      35.281  14.642  -8.647  1.00  0.00     0.123 A 
HETATM    3  O3  UNL     1      34.116  13.885  -8.801  1.00  0.00    -0.284 OA
HETATM    4  C13 UNL     1      33.552  13.629  -7.564  1.00  0.00     0.192 A 
HETATM    5  C14 UNL     1      32.447  12.945  -7.278  1.00  0.00     0.075 C 
HETATM    6  O6  UNL     1      34.395  14.244  -6.663  1.00  0.00    -0.284 OA
ENDROOT
BRANCH   1   7
HETATM    7  C4  UNL     1      36.506  15.586  -6.676  1.00  0.00     0.001 A 
HETATM    8  C3  UNL     1      36.447  16.940  -6.434  1.00  0.00     0.016 A 
HETATM    9  C2  UNL     1      37.482  17.589  -5.757  1.00  0.00     0.026 A 
HETATM   10  C1  UNL     1      38.579  16.894  -5.318  1.00  0.00     0.079 A 
HETATM   11  C23 UNL     1      38.643  15.543  -5.555  1.00  0.00     0.026 A 
HETATM   12  C22 UNL     1      37.611  14.907  -6.228  1.00  0.00     0.016 A 
BRANCH  10  13
HETATM   13  S1  UNL     1      39.903  17.720  -4.478  1.00  0.00     0.256 S 
HETATM   14  O1  UNL     1      40.013  19.146  -4.860  1.00  0.00    -0.201 OA
HETATM   15  O2  UNL     1      41.185  16.963  -4.801  1.00  0.00    -0.201 OA
BRANCH  13  16
HETATM   16  N1  UNL     1      39.649  17.496  -2.772  1.00  0.00    -0.324 N 
ATOM     17  H12 UNL     1      40.416  17.462  -2.100  1.00  0.00     0.169 HD
ATOM     18  H11 UNL     1      38.663  17.406  -2.528  1.00  0.00     0.169 HD
ENDBRANCH  13  16
ENDBRANCH  10  13
ENDBRANCH   1   7
BRANCH   2  19
HETATM   19  C7  UNL     1      36.156  15.109  -9.734  1.00  0.00     0.001 A 
HETATM   20  C8  UNL     1      37.337  14.436  -9.939  1.00  0.00     0.016 A 
HETATM   21  C9  UNL     1      38.203  14.809 -10.956  1.00  0.00     0.024 A 
HETATM   22  C10 UNL     1      37.883  15.877 -11.788  1.00  0.00     0.034 A 
HETATM   23 CL1  UNL     1      38.987  16.343 -13.075  1.00  0.00    -0.084 Cl
HETATM   24  C11 UNL     1      36.699  16.558 -11.591  1.00  0.00     0.024 A 
HETATM   25  C12 UNL     1      35.855  16.159 -10.564  1.00  0.00     0.016 A 
ENDBRANCH   2  19
BRANCH   5  26
HETATM   26  C15 UNL     1      31.670  12.361  -8.332  1.00  0.00    -0.032 A 
HETATM   27  C16 UNL     1      32.253  11.523  -9.243  1.00  0.00     0.012 A 
HETATM   28  C17 UNL     1      31.481  10.941 -10.274  1.00  0.00     0.014 A 
HETATM   29  C18 UNL     1      30.156  11.201 -10.376  1.00  0.00    -0.015 A 
HETATM   30  C20 UNL     1      29.598  12.053  -9.435  1.00  0.00     0.014 A 
HETATM   31  C21 UNL     1      30.333  12.623  -8.435  1.00  0.00     0.012 A 
BRANCH  29  32
HETATM   32  C19 UNL     1      29.312  10.669 -11.402  1.00  0.00     0.178 C 
BRANCH  32  33
HETATM   33  N2  UNL     1      29.010  11.211 -12.498  1.00  0.00    -0.127 N 
HETATM   34  O4  UNL     1      29.482  12.388 -12.997  1.00  0.00    -0.532 OA
HETATM   35  O5  UNL     1      28.086  10.567 -13.330  1.00  0.00    -0.532 OA
ENDBRANCH  32  33
ENDBRANCH  29  32
ENDBRANCH   5  26
TORSDOF 7
ENDMDL
MODEL 5
REMARK VINA RESULT: -8.152824543      0.736      1.150
REMARK  7 active torsions:
REMARK  status: ('A' for Active; 'I' for Inactive)
REMARK    1  A    between atoms: N1_1  and  S1_4 
REMARK    2  A    between atoms: S1_4  and  C1_7 
REMARK    3  A    between atoms: C4_10  and  C5_11 
REMARK    4  A    between atoms: C6_12  and  C7_13 
REMARK    5  A    between atoms: C14_22  and  C15_23 
REMARK    6  A    between atoms: C18_26  and  C19_27 
REMARK    7  A    between atoms: C19_27  and  N2_28 
ROOT
HETATM    1  C5  UNL     1      35.329  14.714  -7.640  1.00  0.00     0.123 A 
HETATM    2  C6  UNL     1      35.252  14.562  -8.935  1.00  0.00     0.123 A 
HETATM    3  O3  UNL     1      34.078  13.857  -9.212  1.00  0.00    -0.284 OA
HETATM    4  C13 UNL     1      33.412  13.567  -8.034  1.00  0.00     0.192 A 
HETATM    5  C14 UNL     1      32.267  12.912  -7.866  1.00  0.00     0.075 C 
HETATM    6  O6  UNL     1      34.204  14.109  -7.044  1.00  0.00    -0.284 OA
ENDROOT
BRANCH   1   7
HETATM    7  C4  UNL     1      36.353  15.371  -6.835  1.00  0.00     0.001 A 
HETATM    8  C3  UNL     1      37.481  14.724  -6.384  1.00  0.00     0.016 A 
HETATM    9  C2  UNL     1      38.436  15.403  -5.623  1.00  0.00     0.026 A 
HETATM   10  C1  UNL     1      38.272  16.727  -5.308  1.00  0.00     0.079 A 
HETATM   11  C23 UNL     1      37.149  17.378  -5.755  1.00  0.00     0.026 A 
HETATM   12  C22 UNL     1      36.206  16.696  -6.510  1.00  0.00     0.016 A 
BRANCH  10  13
HETATM   13  S1  UNL     1      39.471  17.583  -4.324  1.00  0.00     0.256 S 
HETATM   14  O1  UNL     1      39.615  19.003  -4.716  1.00  0.00    -0.201 OA
HETATM   15  O2  UNL     1      40.791  16.835  -4.467  1.00  0.00    -0.201 OA
BRANCH  13  16
HETATM   16  N1  UNL     1      39.005  17.388  -2.659  1.00  0.00    -0.324 N 
ATOM     17  H12 UNL     1      38.306  17.977  -2.209  1.00  0.00     0.169 HD
ATOM     18  H11 UNL     1      39.505  16.627  -2.196  1.00  0.00     0.169 HD
ENDBRANCH  13  16
ENDBRANCH  10  13
ENDBRANCH   1   7
BRANCH   2  19
HETATM   19  C7  UNL     1      36.223  15.044  -9.930  1.00  0.00     0.001 A 
HETATM   20  C8  UNL     1      35.882  16.149 -10.674  1.00  0.00     0.016 A 
HETATM   21  C9  UNL     1      36.753  16.671 -11.618  1.00  0.00     0.024 A 
HETATM   22  C10 UNL     1      37.994  16.078 -11.824  1.00  0.00     0.034 A 
HETATM   23 CL1  UNL     1      39.093  16.746 -13.023  1.00  0.00    -0.084 Cl
HETATM   24  C11 UNL     1      38.346  14.968 -11.083  1.00  0.00     0.024 A 
HETATM   25  C12 UNL     1      37.451  14.472 -10.146  1.00  0.00     0.016 A 
ENDBRANCH   2  19
BRANCH   5  26
HETATM   26  C15 UNL     1      31.553  12.404  -9.002  1.00  0.00    -0.032 A 
HETATM   27  C16 UNL     1      30.657  13.194  -9.669  1.00  0.00     0.012 A 
HETATM   28  C17 UNL     1      29.964  12.693 -10.793  1.00  0.00     0.014 A 
HETATM   29  C18 UNL     1      30.174  11.428 -11.228  1.00  0.00    -0.015 A 
HETATM   30  C20 UNL     1      31.089  10.657 -10.529  1.00  0.00     0.014 A 
HETATM   31  C21 UNL     1      31.766  11.128  -9.440  1.00  0.00     0.012 A 
BRANCH  29  32
HETATM   32  C19 UNL     1      29.497  10.841 -12.344  1.00  0.00     0.178 C 
BRANCH  32  33
HETATM   33  N2  UNL     1      28.259  10.853 -12.576  1.00  0.00    -0.127 N 
HETATM   34  O4  UNL     1      27.644  11.068 -13.773  1.00  0.00    -0.532 OA
HETATM   35  O5  UNL     1      27.377  10.623 -11.513  1.00  0.00    -0.532 OA
ENDBRANCH  32  33
ENDBRANCH  29  32
ENDBRANCH   5  26
TORSDOF 7
ENDMDL
