MODEL 1
REMARK VINA RESULT: -7.703720801      0.000      0.000
REMARK  6 active torsions:
REMARK  status: ('A' for Active; 'I' for Inactive)
REMARK    1  A    between atoms: C11_12  and  C12_13 
REMARK    2  A    between atoms: C14_16  and  O1_17 
REMARK    3  A    between atoms: O1_17  and  C15_18 
REMARK    4  A    between atoms: C15_18  and  C16_19 
REMARK    5  A    between atoms: C16_19  and  N2_20 
REMARK    6  A    between atoms: C21_27  and  O4_28 
ROOT
HETATM    1  C1  UNL     1      26.104  11.499 -11.626  1.00  0.00     0.010 C 
HETATM    2  C2  UNL     1      27.472  11.549 -10.960  1.00  0.00    -0.013 C 
HETATM    3  C3  UNL     1      28.307  10.486 -11.597  1.00  0.00     0.005 C 
HETATM    4  C4  UNL     1      29.425  10.190 -10.647  1.00  0.00     0.006 C 
HETATM    5  C5  UNL     1      30.608  11.035 -10.816  1.00  0.00    -0.002 A 
HETATM    6  C6  UNL     1      31.220  11.353  -9.440  1.00  0.00     0.014 A 
HETATM    7  C7  UNL     1      32.638  10.789  -9.276  1.00  0.00     0.012 C 
HETATM    8  C8  UNL     1      31.156  12.786  -9.807  1.00  0.00     0.114 A 
HETATM    9  C9  UNL     1      32.536  13.338  -9.873  1.00  0.00     0.075 C 
HETATM   10  N1  UNL     1      33.610  13.765  -9.945  1.00  0.00    -0.196 NA
HETATM   11  C10 UNL     1      30.553  12.416 -11.146  1.00  0.00     0.036 A 
HETATM   12  C11 UNL     1      29.352  13.196 -11.473  1.00  0.00     0.038 C 
HETATM   13  C14 UNL     1      29.726  14.625 -11.120  1.00  0.00     0.276 C 
HETATM   14  O3  UNL     1      30.009  14.816  -9.788  1.00  0.00    -0.323 OA
HETATM   15  C21 UNL     1      30.314  13.714  -9.042  1.00  0.00     0.186 C 
HETATM   16  C22 UNL     1      29.020  13.175  -8.514  1.00  0.00     0.071 C 
HETATM   17  C23 UNL     1      27.866  13.439  -9.432  1.00  0.00     0.011 C 
HETATM   18  C24 UNL     1      28.066  12.898 -10.848  1.00  0.00     0.007 C 
ENDROOT
BRANCH  15  19
HETATM   19  O4  UNL     1      31.073  14.169  -7.935  1.00  0.00    -0.364 OA
ATOM     20  H4  UNL     1      30.524  14.102  -7.163  1.00  0.00     0.213 HD
ENDBRANCH  15  19
BRANCH  12  21
HETATM   21  C12 UNL     1      29.197  13.232 -12.966  1.00  0.00    -0.004 C 
HETATM   22  C13 UNL     1      28.110  13.395 -13.651  1.00  0.00     0.053 C 
HETATM   23 BR1  UNL     1      28.257  13.389 -15.586  1.00  0.00    -0.064 Br
ENDBRANCH  12  21
BRANCH  13  24
HETATM   24  O1  UNL     1      28.817  15.573 -11.499  1.00  0.00    -0.358 OA
BRANCH  24  25
HETATM   25  C15 UNL     1      29.352  16.857 -11.487  1.00  0.00     0.201 C 
BRANCH  25  26
HETATM   26  C16 UNL     1      30.312  16.951 -12.674  1.00  0.00     0.298 C 
BRANCH  26  27
HETATM   27  N2  UNL     1      31.140  18.108 -12.651  1.00  0.00     0.094 N 
HETATM   28  C17 UNL     1      31.924  18.299 -11.472  1.00  0.00     0.298 C 
HETATM   29  C18 UNL     1      32.357  19.758 -11.463  1.00  0.00     0.198 C 
HETATM   30  O2  UNL     1      32.145  20.350 -12.717  1.00  0.00    -0.388 OA
HETATM   31  C19 UNL     1      32.800  19.538 -13.660  1.00  0.00     0.198 C 
HETATM   32  C20 UNL     1      31.937  18.281 -13.837  1.00  0.00     0.298 C 
ENDBRANCH  26  27
ENDBRANCH  25  26
ENDBRANCH  24  25
ENDBRANCH  13  24
TORSDOF 6
ENDMDL
MODEL 2
REMARK VINA RESULT: -7.149940630      2.956      4.746
REMARK  6 active torsions:
REMARK  status: ('A' for Active; 'I' for Inactive)
REMARK    1  A    between atoms: C11_12  and  C12_13 
REMARK    2  A    between atoms: C14_16  and  O1_17 
REMARK    3  A    between atoms: O1_17  and  C15_18 
REMARK    4  A    between atoms: C15_18  and  C16_19 
REMARK    5  A    between atoms: C16_19  and  N2_20 
REMARK    6  A    between atoms: C21_27  and  O4_28 
ROOT
HETATM    1  C1  UNL     1      28.104  15.361  -8.670  1.00  0.00     0.010 C 
HETATM    2  C2  UNL     1      28.343  13.990  -9.288  1.00  0.00    -0.013 C 
HETATM    3  C3  UNL     1      27.406  13.863 -10.445  1.00  0.00     0.005 C 
HETATM    4  C4  UNL     1      27.269  12.400 -10.727  1.00  0.00     0.006 C 
HETATM    5  C5  UNL     1      28.271  11.861 -11.649  1.00  0.00    -0.002 A 
HETATM    6  C6  UNL     1      28.671  10.441 -11.209  1.00  0.00     0.014 A 
HETATM    7  C7  UNL     1      28.310   9.373 -12.249  1.00  0.00     0.012 C 
HETATM    8  C8  UNL     1      30.081  10.892 -11.239  1.00  0.00     0.114 A 
HETATM    9  C9  UNL     1      30.820  10.123 -12.278  1.00  0.00     0.075 C 
HETATM   10  N1  UNL     1      31.392   9.541 -13.099  1.00  0.00    -0.196 NA
HETATM   11  C10 UNL     1      29.631  12.272 -11.669  1.00  0.00     0.036 A 
HETATM   12  C11 UNL     1      30.235  13.350 -10.875  1.00  0.00     0.038 C 
HETATM   13  C14 UNL     1      31.703  12.969 -10.784  1.00  0.00     0.276 C 
HETATM   14  O3  UNL     1      31.932  11.779 -10.133  1.00  0.00    -0.323 OA
HETATM   15  C21 UNL     1      30.884  10.913 -10.010  1.00  0.00     0.186 C 
HETATM   16  C22 UNL     1      30.170  11.273  -8.743  1.00  0.00     0.071 C 
HETATM   17  C23 UNL     1      30.270  12.731  -8.416  1.00  0.00     0.011 C 
HETATM   18  C24 UNL     1      29.762  13.651  -9.526  1.00  0.00     0.007 C 
ENDROOT
BRANCH  15  19
HETATM   19  O4  UNL     1      31.440   9.622  -9.839  1.00  0.00    -0.364 OA
ATOM     20  H4  UNL     1      30.742   8.989  -9.963  1.00  0.00     0.213 HD
ENDBRANCH  15  19
BRANCH  12  21
HETATM   21  C12 UNL     1      30.248  14.604 -11.702  1.00  0.00    -0.004 C 
HETATM   22  C13 UNL     1      30.358  15.827 -11.293  1.00  0.00     0.053 C 
HETATM   23 BR1  UNL     1      30.337  17.230 -12.633  1.00  0.00    -0.064 Br
ENDBRANCH  12  21
BRANCH  13  24
HETATM   24  O1  UNL     1      32.515  13.917 -10.228  1.00  0.00    -0.358 OA
BRANCH  24  25
HETATM   25  C15 UNL     1      33.691  13.377  -9.716  1.00  0.00     0.201 C 
BRANCH  25  26
HETATM   26  C16 UNL     1      34.827  14.315 -10.126  1.00  0.00     0.298 C 
BRANCH  26  27
HETATM   27  N2  UNL     1      35.517  14.893  -9.024  1.00  0.00     0.094 N 
HETATM   28  C17 UNL     1      36.130  13.980  -8.114  1.00  0.00     0.298 C 
HETATM   29  C18 UNL     1      36.400  14.751  -6.830  1.00  0.00     0.198 C 
HETATM   30  O2  UNL     1      36.276  16.132  -7.041  1.00  0.00    -0.388 OA
HETATM   31  C19 UNL     1      37.122  16.450  -8.119  1.00  0.00     0.198 C 
HETATM   32  C20 UNL     1      36.427  15.947  -9.391  1.00  0.00     0.298 C 
ENDBRANCH  26  27
ENDBRANCH  25  26
ENDBRANCH  24  25
ENDBRANCH  13  24
TORSDOF 6
ENDMDL
MODEL 3
REMARK VINA RESULT: -6.810443264      3.083      5.215
REMARK  6 active torsions:
REMARK  status: ('A' for Active; 'I' for Inactive)
REMARK    1  A    between atoms: C11_12  and  C12_13 
REMARK    2  A    between atoms: C14_16  and  O1_17 
REMARK    3  A    between atoms: O1_17  and  C15_18 
REMARK    4  A    between atoms: C15_18  and  C16_19 
REMARK    5  A    between atoms: C16_19  and  N2_20 
REMARK    6  A    between atoms: C21_27  and  O4_28 
ROOT
HETATM    1  C1  UNL     1      26.471  15.460 -11.075  1.00  0.00     0.010 C 
HETATM    2  C2  UNL     1      27.000  14.215 -11.773  1.00  0.00    -0.013 C 
HETATM    3  C3  UNL     1      27.471  14.639 -13.127  1.00  0.00     0.005 C 
HETATM    4  C4  UNL     1      27.509  13.405 -13.974  1.00  0.00     0.006 C 
HETATM    5  C5  UNL     1      28.770  12.664 -13.913  1.00  0.00    -0.002 A 
HETATM    6  C6  UNL     1      28.487  11.152 -13.965  1.00  0.00     0.014 A 
HETATM    7  C7  UNL     1      29.081  10.479 -15.209  1.00  0.00     0.012 C 
HETATM    8  C8  UNL     1      29.297  11.016 -12.733  1.00  0.00     0.114 A 
HETATM    9  C9  UNL     1      30.497  10.186 -13.025  1.00  0.00     0.075 C 
HETATM   10  N1  UNL     1      31.442   9.558 -13.254  1.00  0.00    -0.196 NA
HETATM   11  C10 UNL     1      29.542  12.510 -12.730  1.00  0.00     0.036 A 
HETATM   12  C11 UNL     1      29.285  13.134 -11.425  1.00  0.00     0.038 C 
HETATM   13  C14 UNL     1      29.950  12.201 -10.427  1.00  0.00     0.276 C 
HETATM   14  O3  UNL     1      29.418  10.933 -10.407  1.00  0.00    -0.323 OA
HETATM   15  C21 UNL     1      28.684  10.537 -11.488  1.00  0.00     0.186 C 
HETATM   16  C22 UNL     1      27.269  10.951 -11.227  1.00  0.00     0.071 C 
HETATM   17  C23 UNL     1      27.173  12.188 -10.387  1.00  0.00     0.011 C 
HETATM   18  C24 UNL     1      27.922  13.388 -10.965  1.00  0.00     0.007 C 
ENDROOT
BRANCH  15  19
HETATM   19  O4  UNL     1      28.722   9.121 -11.509  1.00  0.00    -0.364 OA
ATOM     20  H4  UNL     1      28.307   8.834 -12.314  1.00  0.00     0.213 HD
ENDBRANCH  15  19
BRANCH  12  21
HETATM   21  C12 UNL     1      30.099  14.392 -11.327  1.00  0.00    -0.004 C 
HETATM   22  C13 UNL     1      30.030  15.445 -12.076  1.00  0.00     0.053 C 
HETATM   23 BR1  UNL     1      31.238  16.911 -11.680  1.00  0.00    -0.064 Br
ENDBRANCH  12  21
BRANCH  13  24
HETATM   24  O1  UNL     1      29.993  12.662  -9.142  1.00  0.00    -0.358 OA
BRANCH  24  25
HETATM   25  C15 UNL     1      30.831  11.902  -8.331  1.00  0.00     0.201 C 
BRANCH  25  26
HETATM   26  C16 UNL     1      31.500  12.868  -7.353  1.00  0.00     0.298 C 
BRANCH  26  27
HETATM   27  N2  UNL     1      32.831  13.219  -7.716  1.00  0.00     0.094 N 
HETATM   28  C17 UNL     1      33.778  13.288  -6.650  1.00  0.00     0.298 C 
HETATM   29  C18 UNL     1      34.965  14.089  -7.167  1.00  0.00     0.198 C 
HETATM   30  O2  UNL     1      34.910  14.221  -8.562  1.00  0.00    -0.388 OA
HETATM   31  C19 UNL     1      34.795  12.920  -9.084  1.00  0.00     0.198 C 
HETATM   32  C20 UNL     1      33.353  12.465  -8.826  1.00  0.00     0.298 C 
ENDBRANCH  26  27
ENDBRANCH  25  26
ENDBRANCH  24  25
ENDBRANCH  13  24
TORSDOF 6
ENDMDL
MODEL 4
REMARK VINA RESULT: -6.531465655      2.971      5.070
REMARK  6 active torsions:
REMARK  status: ('A' for Active; 'I' for Inactive)
REMARK    1  A    between atoms: C11_12  and  C12_13 
REMARK    2  A    between atoms: C14_16  and  O1_17 
REMARK    3  A    between atoms: O1_17  and  C15_18 
REMARK    4  A    between atoms: C15_18  and  C16_19 
REMARK    5  A    between atoms: C16_19  and  N2_20 
REMARK    6  A    between atoms: C21_27  and  O4_28 
ROOT
HETATM    1  C1  UNL     1      27.937  16.084  -9.505  1.00  0.00     0.010 C 
HETATM    2  C2  UNL     1      28.057  14.813 -10.334  1.00  0.00    -0.013 C 
HETATM    3  C3  UNL     1      27.894  15.208 -11.766  1.00  0.00     0.005 C 
HETATM    4  C4  UNL     1      27.510  13.969 -12.512  1.00  0.00     0.006 C 
HETATM    5  C5  UNL     1      28.640  13.174 -12.997  1.00  0.00    -0.002 A 
HETATM    6  C6  UNL     1      28.309  11.676 -12.882  1.00  0.00     0.014 A 
HETATM    7  C7  UNL     1      28.266  10.970 -14.244  1.00  0.00     0.012 C 
HETATM    8  C8  UNL     1      29.575  11.513 -12.133  1.00  0.00     0.114 A 
HETATM    9  C9  UNL     1      30.492  10.630 -12.905  1.00  0.00     0.075 C 
HETATM   10  N1  UNL     1      31.214   9.961 -13.513  1.00  0.00    -0.196 NA
HETATM   11  C10 UNL     1      29.849  12.995 -12.274  1.00  0.00     0.036 A 
HETATM   12  C11 UNL     1      30.220  13.637 -11.006  1.00  0.00     0.038 C 
HETATM   13  C14 UNL     1      31.224  12.683 -10.383  1.00  0.00     0.276 C 
HETATM   14  O3  UNL     1      30.711  11.439 -10.098  1.00  0.00    -0.323 OA
HETATM   15  C21 UNL     1      29.561  11.068 -10.734  1.00  0.00     0.186 C 
HETATM   16  C22 UNL     1      28.424  11.544  -9.884  1.00  0.00     0.071 C 
HETATM   17  C23 UNL     1      28.754  12.789  -9.118  1.00  0.00     0.011 C 
HETATM   18  C24 UNL     1      29.211  13.953  -9.997  1.00  0.00     0.007 C 
ENDROOT
BRANCH  15  19
HETATM   19  O4  UNL     1      29.535   9.652 -10.734  1.00  0.00    -0.364 OA
ATOM     20  H4  UNL     1      30.320   9.350 -10.292  1.00  0.00     0.213 HD
ENDBRANCH  15  19
BRANCH  12  21
HETATM   21  C12 UNL     1      31.037  14.860 -11.309  1.00  0.00    -0.004 C 
HETATM   22  C13 UNL     1      30.658  15.944 -11.907  1.00  0.00     0.053 C 
HETATM   23 BR1  UNL     1      31.976  17.348 -12.145  1.00  0.00    -0.064 Br
ENDBRANCH  12  21
BRANCH  13  24
HETATM   24  O1  UNL     1      31.848  13.149  -9.261  1.00  0.00    -0.358 OA
BRANCH  24  25
HETATM   25  C15 UNL     1      32.811  12.266  -8.781  1.00  0.00     0.201 C 
BRANCH  25  26
HETATM   26  C16 UNL     1      34.089  12.523  -9.582  1.00  0.00     0.298 C 
BRANCH  26  27
HETATM   27  N2  UNL     1      34.929  13.520  -9.014  1.00  0.00     0.094 N 
HETATM   28  C17 UNL     1      34.906  13.629  -7.590  1.00  0.00     0.298 C 
HETATM   29  C18 UNL     1      35.491  14.991  -7.243  1.00  0.00     0.198 C 
HETATM   30  O2  UNL     1      36.143  15.552  -8.350  1.00  0.00    -0.388 OA
HETATM   31  C19 UNL     1      37.076  14.597  -8.792  1.00  0.00     0.198 C 
HETATM   32  C20 UNL     1      36.280  13.500  -9.510  1.00  0.00     0.298 C 
ENDBRANCH  26  27
ENDBRANCH  25  26
ENDBRANCH  24  25
ENDBRANCH  13  24
TORSDOF 6
ENDMDL
MODEL 5
REMARK VINA RESULT: -6.360347315      6.149      9.746
REMARK  6 active torsions:
REMARK  status: ('A' for Active; 'I' for Inactive)
REMARK    1  A    between atoms: C11_12  and  C12_13 
REMARK    2  A    between atoms: C14_16  and  O1_17 
REMARK    3  A    between atoms: O1_17  and  C15_18 
REMARK    4  A    between atoms: C15_18  and  C16_19 
REMARK    5  A    between atoms: C16_19  and  N2_20 
REMARK    6  A    between atoms: C21_27  and  O4_28 
ROOT
HETATM    1  C1  UNL     1      40.376  15.485  -9.410  1.00  0.00     0.010 C 
HETATM    2  C2  UNL     1      39.689  16.451  -8.456  1.00  0.00    -0.013 C 
HETATM    3  C3  UNL     1      39.686  17.791  -9.118  1.00  0.00     0.005 C 
HETATM    4  C4  UNL     1      39.493  18.805  -8.035  1.00  0.00     0.006 C 
HETATM    5  C5  UNL     1      38.094  19.103  -7.722  1.00  0.00    -0.002 A 
HETATM    6  C6  UNL     1      37.937  19.327  -6.207  1.00  0.00     0.014 A 
HETATM    7  C7  UNL     1      37.479  20.749  -5.860  1.00  0.00     0.012 C 
HETATM    8  C8  UNL     1      36.859  18.311  -6.227  1.00  0.00     0.114 A 
HETATM    9  C9  UNL     1      35.573  18.952  -5.841  1.00  0.00     0.075 C 
HETATM   10  N1  UNL     1      34.568  19.453  -5.562  1.00  0.00    -0.196 NA
HETATM   11  C10 UNL     1      37.059  18.130  -7.717  1.00  0.00     0.036 A 
HETATM   12  C11 UNL     1      37.175  16.721  -8.117  1.00  0.00     0.038 C 
HETATM   13  C14 UNL     1      36.058  16.024  -7.358  1.00  0.00     0.276 C 
HETATM   14  O3  UNL     1      36.186  16.091  -5.991  1.00  0.00    -0.323 OA
HETATM   15  C21 UNL     1      37.004  17.056  -5.478  1.00  0.00     0.186 C 
HETATM   16  C22 UNL     1      38.378  16.466  -5.406  1.00  0.00     0.071 C 
HETATM   17  C23 UNL     1      38.627  15.447  -6.475  1.00  0.00     0.011 C 
HETATM   18  C24 UNL     1      38.409  15.972  -7.894  1.00  0.00     0.007 C 
ENDROOT
BRANCH  15  19
HETATM   19  O4  UNL     1      36.568  17.297  -4.151  1.00  0.00    -0.364 OA
ATOM     20  H4  UNL     1      35.979  16.592  -3.910  1.00  0.00     0.213 HD
ENDBRANCH  15  19
BRANCH  12  21
HETATM   21  C12 UNL     1      36.755  16.595  -9.554  1.00  0.00    -0.004 C 
HETATM   22  C13 UNL     1      36.307  17.524 -10.337  1.00  0.00     0.053 C 
HETATM   23 BR1  UNL     1      35.849  17.023 -12.155  1.00  0.00    -0.064 Br
ENDBRANCH  12  21
BRANCH  13  24
HETATM   24  O1  UNL     1      35.854  14.717  -7.699  1.00  0.00    -0.358 OA
BRANCH  24  25
HETATM   25  C15 UNL     1      34.677  14.204  -7.160  1.00  0.00     0.201 C 
BRANCH  25  26
HETATM   26  C16 UNL     1      34.445  12.841  -7.815  1.00  0.00     0.298 C 
BRANCH  26  27
HETATM   27  N2  UNL     1      33.072  12.535  -8.025  1.00  0.00     0.094 N 
HETATM   28  C17 UNL     1      32.142  13.167  -7.144  1.00  0.00     0.298 C 
HETATM   29  C18 UNL     1      30.841  12.382  -7.240  1.00  0.00     0.198 C 
HETATM   30  O2  UNL     1      30.853  11.528  -8.352  1.00  0.00    -0.388 OA
HETATM   31  C19 UNL     1      31.150  12.329  -9.470  1.00  0.00     0.198 C 
HETATM   32  C20 UNL     1      32.649  12.652  -9.396  1.00  0.00     0.298 C 
ENDBRANCH  26  27
ENDBRANCH  25  26
ENDBRANCH  24  25
ENDBRANCH  13  24
TORSDOF 6
ENDMDL
