MODEL 1
REMARK VINA RESULT: -9.479868275      0.000      0.000
REMARK  8 active torsions:
REMARK  status: ('A' for Active; 'I' for Inactive)
REMARK    1  A    between atoms: C5_6  and  N2_7 
REMARK    2  A    between atoms: N2_7  and  S1_9 
REMARK    3  A    between atoms: S1_9  and  C6_12 
REMARK    4  A    between atoms: C9_15  and  O3_16 
REMARK    5  A    between atoms: O3_16  and  C10_17 
REMARK    6  A    between atoms: C13_20  and  C14_21 
REMARK    7  A    between atoms: C15_22  and  C16_23 
REMARK    8  A    between atoms: N4_29  and  O4_30 
ROOT
HETATM    1  N1  UNL     1      26.898  12.868 -14.870  1.00  0.00    -0.191 NA
HETATM    2  C1  UNL     1      27.381  12.980 -13.824  1.00  0.00     0.099 C 
HETATM    3  C2  UNL     1      27.982  13.109 -12.518  1.00  0.00     0.047 A 
HETATM    4  C3  UNL     1      27.308  12.724 -11.382  1.00  0.00     0.025 A 
HETATM    5  C4  UNL     1      27.919  12.863 -10.130  1.00  0.00     0.035 A 
HETATM    6  C5  UNL     1      29.187  13.380 -10.015  1.00  0.00     0.081 A 
HETATM    7  C24 UNL     1      29.822  13.752 -11.204  1.00  0.00     0.145 A 
HETATM    8  F1  UNL     1      31.077  14.262 -11.066  1.00  0.00    -0.204 F 
HETATM    9  C25 UNL     1      29.255  13.631 -12.444  1.00  0.00     0.067 A 
ENDROOT
BRANCH   6  10
HETATM   10  N2  UNL     1      29.845  13.524  -8.771  1.00  0.00    -0.278 N 
ATOM     11  H2  UNL     1      29.675  14.366  -8.222  1.00  0.00     0.179 HD
BRANCH  10  12
HETATM   12  S1  UNL     1      30.912  12.346  -8.153  1.00  0.00     0.263 S 
HETATM   13  O1  UNL     1      30.620  11.981  -6.710  1.00  0.00    -0.200 OA
HETATM   14  O2  UNL     1      30.787  11.052  -8.925  1.00  0.00    -0.200 OA
BRANCH  12  15
HETATM   15  C6  UNL     1      32.592  12.813  -8.261  1.00  0.00     0.080 A 
HETATM   16  C7  UNL     1      33.326  12.510  -9.380  1.00  0.00     0.028 A 
HETATM   17  C8  UNL     1      34.670  12.903  -9.417  1.00  0.00     0.039 A 
HETATM   18  C9  UNL     1      35.250  13.574  -8.367  1.00  0.00     0.076 A 
HETATM   19  C22 UNL     1      34.490  13.870  -7.249  1.00  0.00     0.039 A 
HETATM   20  C23 UNL     1      33.147  13.487  -7.194  1.00  0.00     0.028 A 
BRANCH  18  21
HETATM   21  O3  UNL     1      36.585  13.950  -8.434  1.00  0.00    -0.311 OA
BRANCH  21  22
HETATM   22  C10 UNL     1      37.013  14.802  -9.458  1.00  0.00     0.076 A 
HETATM   23  C11 UNL     1      36.399  16.018  -9.663  1.00  0.00     0.039 A 
HETATM   24  C12 UNL     1      36.863  16.812 -10.684  1.00  0.00     0.023 A 
HETATM   25  C13 UNL     1      37.916  16.428 -11.502  1.00  0.00     0.018 A 
HETATM   26  C20 UNL     1      38.506  15.186 -11.252  1.00  0.00     0.023 A 
HETATM   27  C21 UNL     1      38.056  14.373 -10.234  1.00  0.00     0.039 A 
BRANCH  25  28
HETATM   28  C14 UNL     1      38.407  17.251 -12.569  1.00  0.00    -0.060 C 
HETATM   29  C15 UNL     1      38.804  17.943 -13.482  1.00  0.00    -0.039 C 
BRANCH  29  30
HETATM   30  C16 UNL     1      39.283  18.748 -14.572  1.00  0.00     0.130 A 
HETATM   31  C17 UNL     1      40.631  18.913 -14.828  1.00  0.00     0.129 A 
HETATM   32  N3  UNL     1      41.082  19.667 -15.849  1.00  0.00    -0.371 N 
HETATM   33  C18 UNL     1      40.225  20.298 -16.671  1.00  0.00     0.107 A 
ATOM     34  H3  UNL     1      42.086  19.760 -16.000  1.00  0.00     0.164 HD
HETATM   35  C19 UNL     1      38.879  20.142 -16.425  1.00  0.00     0.141 A 
HETATM   36  N4  UNL     1      38.429  19.387 -15.404  1.00  0.00    -0.225 N 
BRANCH  36  37
HETATM   37  O4  UNL     1      37.084  19.217 -15.140  1.00  0.00    -0.282 OA
ATOM     38  H4  UNL     1      36.483  19.599 -15.770  1.00  0.00     0.245 HD
ENDBRANCH  36  37
ENDBRANCH  29  30
ENDBRANCH  25  28
ENDBRANCH  21  22
ENDBRANCH  18  21
ENDBRANCH  12  15
ENDBRANCH  10  12
ENDBRANCH   6  10
TORSDOF 8
ENDMDL
MODEL 2
REMARK VINA RESULT: -9.458525453      4.663      9.063
REMARK  8 active torsions:
REMARK  status: ('A' for Active; 'I' for Inactive)
REMARK    1  A    between atoms: C5_6  and  N2_7 
REMARK    2  A    between atoms: N2_7  and  S1_9 
REMARK    3  A    between atoms: S1_9  and  C6_12 
REMARK    4  A    between atoms: C9_15  and  O3_16 
REMARK    5  A    between atoms: O3_16  and  C10_17 
REMARK    6  A    between atoms: C13_20  and  C14_21 
REMARK    7  A    between atoms: C15_22  and  C16_23 
REMARK    8  A    between atoms: N4_29  and  O4_30 
ROOT
HETATM    1  N1  UNL     1      37.908  15.312  -9.505  1.00  0.00    -0.191 NA
HETATM    2  C1  UNL     1      36.966  14.741  -9.150  1.00  0.00     0.099 C 
HETATM    3  C2  UNL     1      35.795  14.020  -8.713  1.00  0.00     0.047 A 
HETATM    4  C3  UNL     1      34.924  13.459  -9.618  1.00  0.00     0.025 A 
HETATM    5  C4  UNL     1      33.797  12.766  -9.162  1.00  0.00     0.035 A 
HETATM    6  C5  UNL     1      33.542  12.637  -7.817  1.00  0.00     0.081 A 
HETATM    7  C24 UNL     1      34.463  13.228  -6.946  1.00  0.00     0.145 A 
HETATM    8  F1  UNL     1      34.190  13.088  -5.619  1.00  0.00    -0.204 F 
HETATM    9  C25 UNL     1      35.575  13.912  -7.357  1.00  0.00     0.067 A 
ENDROOT
BRANCH   6  10
HETATM   10  N2  UNL     1      32.422  11.934  -7.314  1.00  0.00    -0.278 N 
ATOM     11  H2  UNL     1      32.572  11.028  -6.870  1.00  0.00     0.179 HD
BRANCH  10  12
HETATM   12  S1  UNL     1      30.832  12.540  -7.419  1.00  0.00     0.263 S 
HETATM   13  O1  UNL     1      29.972  12.158  -6.229  1.00  0.00    -0.200 OA
HETATM   14  O2  UNL     1      30.835  14.052  -7.440  1.00  0.00    -0.200 OA
BRANCH  12  15
HETATM   15  C6  UNL     1      29.998  12.039  -8.869  1.00  0.00     0.080 A 
HETATM   16  C7  UNL     1      30.632  11.252  -9.798  1.00  0.00     0.028 A 
HETATM   17  C8  UNL     1      29.921  10.879 -10.946  1.00  0.00     0.039 A 
HETATM   18  C9  UNL     1      28.624  11.283 -11.149  1.00  0.00     0.076 A 
HETATM   19  C22 UNL     1      28.004  12.075 -10.198  1.00  0.00     0.039 A 
HETATM   20  C23 UNL     1      28.696  12.458  -9.047  1.00  0.00     0.028 A 
BRANCH  18  21
HETATM   21  O3  UNL     1      27.946  10.896 -12.298  1.00  0.00    -0.311 OA
BRANCH  21  22
HETATM   22  C10 UNL     1      28.133  11.612 -13.485  1.00  0.00     0.076 A 
HETATM   23  C11 UNL     1      27.936  12.976 -13.522  1.00  0.00     0.039 A 
HETATM   24  C12 UNL     1      28.136  13.625 -14.717  1.00  0.00     0.023 A 
HETATM   25  C13 UNL     1      28.523  12.956 -15.869  1.00  0.00     0.018 A 
HETATM   26  C20 UNL     1      28.710  11.574 -15.778  1.00  0.00     0.023 A 
HETATM   27  C21 UNL     1      28.516  10.902 -14.591  1.00  0.00     0.039 A 
BRANCH  25  28
HETATM   28  C14 UNL     1      28.734  13.625 -17.119  1.00  0.00    -0.060 C 
HETATM   29  C15 UNL     1      28.918  14.210 -18.166  1.00  0.00    -0.039 C 
BRANCH  29  30
HETATM   30  C16 UNL     1      29.116  14.906 -19.408  1.00  0.00     0.130 A 
HETATM   31  C17 UNL     1      28.479  16.098 -19.692  1.00  0.00     0.129 A 
HETATM   32  N3  UNL     1      28.663  16.752 -20.855  1.00  0.00    -0.371 N 
HETATM   33  C18 UNL     1      29.487  16.262 -21.798  1.00  0.00     0.107 A 
ATOM     34  H3  UNL     1      28.171  17.629 -21.023  1.00  0.00     0.164 HD
HETATM   35  C19 UNL     1      30.127  15.073 -21.527  1.00  0.00     0.141 A 
HETATM   36  N4  UNL     1      29.942  14.420 -20.362  1.00  0.00    -0.225 N 
BRANCH  36  37
HETATM   37  O4  UNL     1      30.575  13.228 -20.069  1.00  0.00    -0.282 OA
ATOM     38  H4  UNL     1      31.184  13.246 -19.340  1.00  0.00     0.245 HD
ENDBRANCH  36  37
ENDBRANCH  29  30
ENDBRANCH  25  28
ENDBRANCH  21  22
ENDBRANCH  18  21
ENDBRANCH  12  15
ENDBRANCH  10  12
ENDBRANCH   6  10
TORSDOF 8
ENDMDL
MODEL 3
REMARK VINA RESULT: -9.341782273      1.206      1.773
REMARK  8 active torsions:
REMARK  status: ('A' for Active; 'I' for Inactive)
REMARK    1  A    between atoms: C5_6  and  N2_7 
REMARK    2  A    between atoms: N2_7  and  S1_9 
REMARK    3  A    between atoms: S1_9  and  C6_12 
REMARK    4  A    between atoms: C9_15  and  O3_16 
REMARK    5  A    between atoms: O3_16  and  C10_17 
REMARK    6  A    between atoms: C13_20  and  C14_21 
REMARK    7  A    between atoms: C15_22  and  C16_23 
REMARK    8  A    between atoms: N4_29  and  O4_30 
ROOT
HETATM    1  N1  UNL     1      27.125  13.418 -14.957  1.00  0.00    -0.191 NA
HETATM    2  C1  UNL     1      27.597  13.439 -13.900  1.00  0.00     0.099 C 
HETATM    3  C2  UNL     1      28.189  13.474 -12.585  1.00  0.00     0.047 A 
HETATM    4  C3  UNL     1      29.539  13.680 -12.417  1.00  0.00     0.025 A 
HETATM    5  C4  UNL     1      30.083  13.708 -11.127  1.00  0.00     0.035 A 
HETATM    6  C5  UNL     1      29.288  13.531 -10.020  1.00  0.00     0.081 A 
HETATM    7  C24 UNL     1      27.925  13.326 -10.254  1.00  0.00     0.145 A 
HETATM    8  F1  UNL     1      27.157  13.153  -9.143  1.00  0.00    -0.204 F 
HETATM    9  C25 UNL     1      27.359  13.293 -11.500  1.00  0.00     0.067 A 
ENDROOT
BRANCH   6  10
HETATM   10  N2  UNL     1      29.795  13.566  -8.700  1.00  0.00    -0.278 N 
ATOM     11  H2  UNL     1      29.516  14.333  -8.089  1.00  0.00     0.179 HD
BRANCH  10  12
HETATM   12  S1  UNL     1      30.854  12.377  -8.089  1.00  0.00     0.263 S 
HETATM   13  O1  UNL     1      30.536  11.977  -6.661  1.00  0.00    -0.200 OA
HETATM   14  O2  UNL     1      30.748  11.101  -8.894  1.00  0.00    -0.200 OA
BRANCH  12  15
HETATM   15  C6  UNL     1      32.534  12.851  -8.153  1.00  0.00     0.080 A 
HETATM   16  C7  UNL     1      33.115  13.490  -7.087  1.00  0.00     0.028 A 
HETATM   17  C8  UNL     1      34.464  13.854  -7.188  1.00  0.00     0.039 A 
HETATM   18  C9  UNL     1      35.197  13.584  -8.319  1.00  0.00     0.076 A 
HETATM   19  C22 UNL     1      34.589  12.938  -9.382  1.00  0.00     0.039 A 
HETATM   20  C23 UNL     1      33.245  12.567  -9.300  1.00  0.00     0.028 A 
BRANCH  18  21
HETATM   21  O3  UNL     1      36.533  13.957  -8.389  1.00  0.00    -0.311 OA
BRANCH  21  22
HETATM   22  C10 UNL     1      36.962  14.802  -9.417  1.00  0.00     0.076 A 
HETATM   23  C11 UNL     1      36.521  16.107  -9.485  1.00  0.00     0.039 A 
HETATM   24  C12 UNL     1      36.978  16.889 -10.518  1.00  0.00     0.023 A 
HETATM   25  C13 UNL     1      37.855  16.410 -11.480  1.00  0.00     0.018 A 
HETATM   26  C20 UNL     1      38.271  15.082 -11.367  1.00  0.00     0.023 A 
HETATM   27  C21 UNL     1      37.827  14.278 -10.339  1.00  0.00     0.039 A 
BRANCH  25  28
HETATM   28  C14 UNL     1      38.336  17.220 -12.561  1.00  0.00    -0.060 C 
HETATM   29  C15 UNL     1      38.748  17.888 -13.487  1.00  0.00    -0.039 C 
BRANCH  29  30
HETATM   30  C16 UNL     1      39.254  18.681 -14.573  1.00  0.00     0.130 A 
HETATM   31  C17 UNL     1      38.420  19.270 -15.505  1.00  0.00     0.129 A 
HETATM   32  N3  UNL     1      38.893  20.013 -16.523  1.00  0.00    -0.371 N 
HETATM   33  C18 UNL     1      40.214  20.215 -16.675  1.00  0.00     0.107 A 
ATOM     34  H3  UNL     1      38.241  20.428 -17.188  1.00  0.00     0.164 HD
HETATM   35  C19 UNL     1      41.055  19.632 -15.753  1.00  0.00     0.141 A 
HETATM   36  N4  UNL     1      40.581  18.889 -14.733  1.00  0.00    -0.225 N 
BRANCH  36  37
HETATM   37  O4  UNL     1      41.406  18.296 -13.797  1.00  0.00    -0.282 OA
ATOM     38  H4  UNL     1      42.324  18.230 -14.032  1.00  0.00     0.245 HD
ENDBRANCH  36  37
ENDBRANCH  29  30
ENDBRANCH  25  28
ENDBRANCH  21  22
ENDBRANCH  18  21
ENDBRANCH  12  15
ENDBRANCH  10  12
ENDBRANCH   6  10
TORSDOF 8
ENDMDL
MODEL 4
REMARK VINA RESULT: -9.312515334      3.090      4.258
REMARK  8 active torsions:
REMARK  status: ('A' for Active; 'I' for Inactive)
REMARK    1  A    between atoms: C5_6  and  N2_7 
REMARK    2  A    between atoms: N2_7  and  S1_9 
REMARK    3  A    between atoms: S1_9  and  C6_12 
REMARK    4  A    between atoms: C9_15  and  O3_16 
REMARK    5  A    between atoms: O3_16  and  C10_17 
REMARK    6  A    between atoms: C13_20  and  C14_21 
REMARK    7  A    between atoms: C15_22  and  C16_23 
REMARK    8  A    between atoms: N4_29  and  O4_30 
ROOT
HETATM    1  N1  UNL     1      29.216  11.082 -16.914  1.00  0.00    -0.191 NA
HETATM    2  C1  UNL     1      28.859  11.285 -15.832  1.00  0.00     0.099 C 
HETATM    3  C2  UNL     1      28.404  11.540 -14.486  1.00  0.00     0.047 A 
HETATM    4  C3  UNL     1      27.783  12.722 -14.156  1.00  0.00     0.025 A 
HETATM    5  C4  UNL     1      27.354  12.939 -12.841  1.00  0.00     0.035 A 
HETATM    6  C5  UNL     1      27.544  11.986 -11.869  1.00  0.00     0.081 A 
HETATM    7  C24 UNL     1      28.180  10.806 -12.265  1.00  0.00     0.145 A 
HETATM    8  F1  UNL     1      28.358   9.877 -11.285  1.00  0.00    -0.204 F 
HETATM    9  C25 UNL     1      28.612  10.560 -13.540  1.00  0.00     0.067 A 
ENDROOT
BRANCH   6  10
HETATM   10  N2  UNL     1      27.114  12.160 -10.533  1.00  0.00    -0.278 N 
ATOM     11  H2  UNL     1      26.429  11.508 -10.150  1.00  0.00     0.179 HD
BRANCH  10  12
HETATM   12  S1  UNL     1      27.694  13.415  -9.534  1.00  0.00     0.263 S 
HETATM   13  O1  UNL     1      27.794  14.746 -10.254  1.00  0.00    -0.200 OA
HETATM   14  O2  UNL     1      26.753  13.657  -8.376  1.00  0.00    -0.200 OA
BRANCH  12  15
HETATM   15  C6  UNL     1      29.253  13.068  -8.827  1.00  0.00     0.080 A 
HETATM   16  C7  UNL     1      29.853  11.850  -9.032  1.00  0.00     0.028 A 
HETATM   17  C8  UNL     1      31.101  11.619  -8.440  1.00  0.00     0.039 A 
HETATM   18  C9  UNL     1      31.719  12.577  -7.672  1.00  0.00     0.076 A 
HETATM   19  C22 UNL     1      31.096  13.797  -7.480  1.00  0.00     0.039 A 
HETATM   20  C23 UNL     1      29.851  14.047  -8.062  1.00  0.00     0.028 A 
BRANCH  18  21
HETATM   21  O3  UNL     1      32.957  12.317  -7.099  1.00  0.00    -0.311 OA
BRANCH  21  22
HETATM   22  C10 UNL     1      34.114  12.838  -7.686  1.00  0.00     0.076 A 
HETATM   23  C11 UNL     1      34.960  13.657  -6.969  1.00  0.00     0.039 A 
HETATM   24  C12 UNL     1      36.081  14.139  -7.599  1.00  0.00     0.023 A 
HETATM   25  C13 UNL     1      36.381  13.830  -8.918  1.00  0.00     0.018 A 
HETATM   26  C20 UNL     1      35.493  12.996  -9.602  1.00  0.00     0.023 A 
HETATM   27  C21 UNL     1      34.362  12.501  -8.990  1.00  0.00     0.039 A 
BRANCH  25  28
HETATM   28  C14 UNL     1      37.550  14.328  -9.583  1.00  0.00    -0.060 C 
HETATM   29  C15 UNL     1      38.527  14.766 -10.154  1.00  0.00    -0.039 C 
BRANCH  29  30
HETATM   30  C16 UNL     1      39.681  15.271 -10.845  1.00  0.00     0.130 A 
HETATM   31  C17 UNL     1      40.855  15.581 -10.187  1.00  0.00     0.129 A 
HETATM   32  N3  UNL     1      41.937  16.055 -10.834  1.00  0.00    -0.371 N 
HETATM   33  C18 UNL     1      41.916  16.248 -12.165  1.00  0.00     0.107 A 
ATOM     34  H3  UNL     1      42.783  16.271 -10.307  1.00  0.00     0.164 HD
HETATM   35  C19 UNL     1      40.751  15.943 -12.832  1.00  0.00     0.141 A 
HETATM   36  N4  UNL     1      39.668  15.468 -12.184  1.00  0.00    -0.225 N 
BRANCH  36  37
HETATM   37  O4  UNL     1      38.490  15.156 -12.833  1.00  0.00    -0.282 OA
ATOM     38  H4  UNL     1      38.578  14.704 -13.663  1.00  0.00     0.245 HD
ENDBRANCH  36  37
ENDBRANCH  29  30
ENDBRANCH  25  28
ENDBRANCH  21  22
ENDBRANCH  18  21
ENDBRANCH  12  15
ENDBRANCH  10  12
ENDBRANCH   6  10
TORSDOF 8
ENDMDL
MODEL 5
REMARK VINA RESULT: -9.308367991      1.308      1.863
REMARK  8 active torsions:
REMARK  status: ('A' for Active; 'I' for Inactive)
REMARK    1  A    between atoms: C5_6  and  N2_7 
REMARK    2  A    between atoms: N2_7  and  S1_9 
REMARK    3  A    between atoms: S1_9  and  C6_12 
REMARK    4  A    between atoms: C9_15  and  O3_16 
REMARK    5  A    between atoms: O3_16  and  C10_17 
REMARK    6  A    between atoms: C13_20  and  C14_21 
REMARK    7  A    between atoms: C15_22  and  C16_23 
REMARK    8  A    between atoms: N4_29  and  O4_30 
ROOT
HETATM    1  N1  UNL     1      28.102  13.523 -15.777  1.00  0.00    -0.191 NA
HETATM    2  C1  UNL     1      28.518  13.166 -14.757  1.00  0.00     0.099 C 
HETATM    3  C2  UNL     1      29.029  12.726 -13.482  1.00  0.00     0.047 A 
HETATM    4  C3  UNL     1      29.303  13.623 -12.476  1.00  0.00     0.025 A 
HETATM    5  C4  UNL     1      29.798  13.164 -11.250  1.00  0.00     0.035 A 
HETATM    6  C5  UNL     1      30.017  11.825 -11.032  1.00  0.00     0.081 A 
HETATM    7  C24 UNL     1      29.719  10.961 -12.091  1.00  0.00     0.145 A 
HETATM    8  F1  UNL     1      29.944   9.640 -11.853  1.00  0.00    -0.204 F 
HETATM    9  C25 UNL     1      29.234  11.375 -13.302  1.00  0.00     0.067 A 
ENDROOT
BRANCH   6  10
HETATM   10  N2  UNL     1      30.503  11.318  -9.804  1.00  0.00    -0.278 N 
ATOM     11  H2  UNL     1      30.646  10.312  -9.712  1.00  0.00     0.179 HD
BRANCH  10  12
HETATM   12  S1  UNL     1      30.860  12.320  -8.472  1.00  0.00     0.263 S 
HETATM   13  O1  UNL     1      29.992  13.564  -8.417  1.00  0.00    -0.200 OA
HETATM   14  O2  UNL     1      30.599  11.595  -7.171  1.00  0.00    -0.200 OA
BRANCH  12  15
HETATM   15  C6  UNL     1      32.530  12.827  -8.417  1.00  0.00     0.080 A 
HETATM   16  C7  UNL     1      33.024  13.473  -7.311  1.00  0.00     0.028 A 
HETATM   17  C8  UNL     1      34.369  13.862  -7.317  1.00  0.00     0.039 A 
HETATM   18  C9  UNL     1      35.184  13.611  -8.395  1.00  0.00     0.076 A 
HETATM   19  C22 UNL     1      34.664  12.957  -9.499  1.00  0.00     0.039 A 
HETATM   20  C23 UNL     1      33.325  12.560  -9.512  1.00  0.00     0.028 A 
BRANCH  18  21
HETATM   21  O3  UNL     1      36.514  14.009  -8.371  1.00  0.00    -0.311 OA
BRANCH  21  22
HETATM   22  C10 UNL     1      37.029  14.763  -9.431  1.00  0.00     0.076 A 
HETATM   23  C11 UNL     1      38.079  14.286 -10.187  1.00  0.00     0.039 A 
HETATM   24  C12 UNL     1      38.542  15.070 -11.216  1.00  0.00     0.023 A 
HETATM   25  C13 UNL     1      37.992  16.310 -11.509  1.00  0.00     0.018 A 
HETATM   26  C20 UNL     1      36.930  16.748 -10.713  1.00  0.00     0.023 A 
HETATM   27  C21 UNL     1      36.449  15.978  -9.676  1.00  0.00     0.039 A 
BRANCH  25  28
HETATM   28  C14 UNL     1      38.470  17.134 -12.580  1.00  0.00    -0.060 C 
HETATM   29  C15 UNL     1      38.888  17.840 -13.474  1.00  0.00    -0.039 C 
BRANCH  29  30
HETATM   30  C16 UNL     1      39.370  18.690 -14.528  1.00  0.00     0.130 A 
HETATM   31  C17 UNL     1      40.718  18.860 -14.778  1.00  0.00     0.129 A 
HETATM   32  N3  UNL     1      41.170  19.656 -15.766  1.00  0.00    -0.371 N 
HETATM   33  C18 UNL     1      40.314  20.326 -16.559  1.00  0.00     0.107 A 
ATOM     34  H3  UNL     1      42.174  19.753 -15.914  1.00  0.00     0.164 HD
HETATM   35  C19 UNL     1      38.968  20.165 -16.319  1.00  0.00     0.141 A 
HETATM   36  N4  UNL     1      38.516  19.367 -15.330  1.00  0.00    -0.225 N 
BRANCH  36  37
HETATM   37  O4  UNL     1      37.171  19.191 -15.072  1.00  0.00    -0.282 OA
ATOM     38  H4  UNL     1      36.937  19.027 -14.166  1.00  0.00     0.245 HD
ENDBRANCH  36  37
ENDBRANCH  29  30
ENDBRANCH  25  28
ENDBRANCH  21  22
ENDBRANCH  18  21
ENDBRANCH  12  15
ENDBRANCH  10  12
ENDBRANCH   6  10
TORSDOF 8
ENDMDL
