MODEL 1
REMARK VINA RESULT: -9.790790758      0.000      0.000
REMARK  6 active torsions:
REMARK  status: ('A' for Active; 'I' for Inactive)
REMARK    1  A    between atoms: C2_2  and  N1_3 
REMARK    2  A    between atoms: N1_3  and  C3_5 
REMARK    3  A    between atoms: C7_12  and  N3_13 
REMARK    4  A    between atoms: N4_18  and  C12_19 
REMARK    5  A    between atoms: C12_19  and  C13_20 
REMARK    6  A    between atoms: C13_20  and  N5_21 
ROOT
HETATM    1  N3  UNL     1      32.553  12.852  -8.930  1.00  0.00    -0.376 N 
HETATM    2  C8  UNL     1      32.808  13.473  -7.627  1.00  0.00     0.130 C 
HETATM    3  C9  UNL     1      34.009  12.675  -7.150  1.00  0.00     0.040 C 
HETATM    4  C10 UNL     1      34.810  13.558  -6.246  1.00  0.00     0.038 C 
HETATM    5  C11 UNL     1      35.651  14.431  -7.176  1.00  0.00     0.274 C 
HETATM    6  N4  UNL     1      35.442  13.925  -8.496  1.00  0.00     0.099 N 
HETATM    7  C24 UNL     1      34.853  12.641  -8.412  1.00  0.00     0.246 C 
HETATM    8  C25 UNL     1      33.787  12.337  -9.448  1.00  0.00     0.159 C 
ENDROOT
BRANCH   1   9
HETATM    9  C7  UNL     1      31.256  12.833  -9.490  1.00  0.00     0.072 A 
HETATM   10  C6  UNL     1      30.190  12.400  -8.736  1.00  0.00     0.145 A 
HETATM   11  C5  UNL     1      28.907  12.375  -9.275  1.00  0.00     0.077 A 
HETATM   12  F1  UNL     1      30.427  12.007  -7.461  1.00  0.00    -0.204 F 
HETATM   13  C4  UNL     1      28.697  12.788 -10.580  1.00  0.00     0.072 A 
HETATM   14  N2  UNL     1      27.618  12.887 -11.376  1.00  0.00    -0.320 N 
HETATM   15  C27 UNL     1      29.750  13.230 -11.366  1.00  0.00     0.108 A 
HETATM   16  C3  UNL     1      27.987  13.366 -12.594  1.00  0.00     0.225 A 
ATOM     17  H2  UNL     1      26.665  12.640 -11.107  1.00  0.00     0.169 HD
HETATM   18  O2  UNL     1      29.271  13.553 -12.531  1.00  0.00    -0.277 OA
HETATM   19  C26 UNL     1      31.008  13.242 -10.804  1.00  0.00     0.072 A 
BRANCH  16  20
HETATM   20  N1  UNL     1      27.198  13.585 -13.597  1.00  0.00    -0.356 N 
ATOM     21  H1  UNL     1      26.582  14.397 -13.552  1.00  0.00     0.163 HD
BRANCH  20  22
HETATM   22  C2  UNL     1      27.133  12.763 -14.764  1.00  0.00     0.118 C 
HETATM   23  C1  UNL     1      28.239  13.172 -15.710  1.00  0.00     0.026 C 
ENDBRANCH  20  22
ENDBRANCH  16  20
ENDBRANCH   1   9
BRANCH   6  24
HETATM   24  C12 UNL     1      36.619  14.024  -9.292  1.00  0.00     0.317 C 
BRANCH  24  25
HETATM   25  C13 UNL     1      36.667  15.085 -10.324  1.00  0.00     0.093 C 
BRANCH  25  26
HETATM   26  N5  UNL     1      35.865  16.228 -10.218  1.00  0.00    -0.372 N 
HETATM   27  C14 UNL     1      36.440  17.493 -10.021  1.00  0.00     0.067 C 
HETATM   28  C15 UNL     1      36.468  18.464 -11.133  1.00  0.00     0.095 C 
HETATM   29  C16 UNL     1      35.342  18.347 -12.135  1.00  0.00     0.118 C 
HETATM   30  C17 UNL     1      34.071  18.888 -11.810  1.00  0.00    -0.145 C 
HETATM   31  O1  UNL     1      35.854  18.929 -13.346  1.00  0.00    -0.368 OA
HETATM   32  C22 UNL     1      35.342  16.835 -12.460  1.00  0.00     0.071 C 
HETATM   33  C18 UNL     1      32.863  19.621 -11.742  1.00  0.00     0.083 C 
HETATM   34  C19 UNL     1      32.845  20.646 -12.918  1.00  0.00     0.013 C 
HETATM   35  C20 UNL     1      33.854  20.261 -14.002  1.00  0.00     0.027 C 
HETATM   36  C21 UNL     1      35.259  20.126 -13.690  1.00  0.00     0.170 C 
HETATM   37  C23 UNL     1      34.800  16.192 -11.203  1.00  0.00     0.131 C 
ENDBRANCH  25  26
ENDBRANCH  24  25
ENDBRANCH   6  24
TORSDOF 6
ENDMDL
MODEL 2
REMARK VINA RESULT: -9.259580717      2.672      3.810
REMARK  6 active torsions:
REMARK  status: ('A' for Active; 'I' for Inactive)
REMARK    1  A    between atoms: C2_2  and  N1_3 
REMARK    2  A    between atoms: N1_3  and  C3_5 
REMARK    3  A    between atoms: C7_12  and  N3_13 
REMARK    4  A    between atoms: N4_18  and  C12_19 
REMARK    5  A    between atoms: C12_19  and  C13_20 
REMARK    6  A    between atoms: C13_20  and  N5_21 
ROOT
HETATM    1  N3  UNL     1      32.465  12.834  -9.013  1.00  0.00    -0.376 N 
HETATM    2  C8  UNL     1      32.583  13.285  -7.624  1.00  0.00     0.130 C 
HETATM    3  C9  UNL     1      33.857  12.579  -7.191  1.00  0.00     0.040 C 
HETATM    4  C10 UNL     1      34.498  13.413  -6.128  1.00  0.00     0.038 C 
HETATM    5  C11 UNL     1      35.256  14.509  -6.876  1.00  0.00     0.274 C 
HETATM    6  N4  UNL     1      35.169  14.179  -8.263  1.00  0.00     0.099 N 
HETATM    7  C24 UNL     1      34.750  12.833  -8.393  1.00  0.00     0.246 C 
HETATM    8  C25 UNL     1      33.776  12.554  -9.523  1.00  0.00     0.159 C 
ENDROOT
BRANCH   1   9
HETATM    9  C7  UNL     1      31.207  12.736  -9.647  1.00  0.00     0.072 A 
HETATM   10  C6  UNL     1      30.157  12.127  -8.998  1.00  0.00     0.145 A 
HETATM   11  C5  UNL     1      28.912  12.024  -9.611  1.00  0.00     0.077 A 
HETATM   12  F1  UNL     1      30.373  11.640  -7.753  1.00  0.00    -0.204 F 
HETATM   13  C4  UNL     1      28.722  12.537 -10.883  1.00  0.00     0.072 A 
HETATM   14  N2  UNL     1      27.679  12.603 -11.729  1.00  0.00    -0.320 N 
HETATM   15  C27 UNL     1      29.759  13.157 -11.564  1.00  0.00     0.108 A 
HETATM   16  C3  UNL     1      28.053  13.232 -12.874  1.00  0.00     0.225 A 
ATOM     17  H2  UNL     1      26.745  12.236 -11.539  1.00  0.00     0.169 HD
HETATM   18  O2  UNL     1      29.305  13.540 -12.720  1.00  0.00    -0.277 OA
HETATM   19  C26 UNL     1      30.980  13.243 -10.931  1.00  0.00     0.072 A 
BRANCH  16  20
HETATM   20  N1  UNL     1      27.294  13.464 -13.898  1.00  0.00    -0.356 N 
ATOM     21  H1  UNL     1      26.347  13.800 -13.723  1.00  0.00     0.163 HD
BRANCH  20  22
HETATM   22  C2  UNL     1      27.697  13.283 -15.257  1.00  0.00     0.118 C 
HETATM   23  C1  UNL     1      28.202  11.869 -15.430  1.00  0.00     0.026 C 
ENDBRANCH  20  22
ENDBRANCH  16  20
ENDBRANCH   1   9
BRANCH   6  24
HETATM   24  C12 UNL     1      36.356  14.535  -8.966  1.00  0.00     0.317 C 
BRANCH  24  25
HETATM   25  C13 UNL     1      36.213  15.367 -10.183  1.00  0.00     0.093 C 
BRANCH  25  26
HETATM   26  N5  UNL     1      37.210  16.278 -10.552  1.00  0.00    -0.372 N 
HETATM   27  C14 UNL     1      38.282  16.558  -9.690  1.00  0.00     0.067 C 
HETATM   28  C15 UNL     1      39.625  16.028  -9.998  1.00  0.00     0.095 C 
HETATM   29  C16 UNL     1      39.930  15.827 -11.466  1.00  0.00     0.118 C 
HETATM   30  C17 UNL     1      40.289  16.950 -12.256  1.00  0.00    -0.145 C 
HETATM   31  O1  UNL     1      40.960  14.824 -11.501  1.00  0.00    -0.368 OA
HETATM   32  C22 UNL     1      38.686  15.053 -11.961  1.00  0.00     0.071 C 
HETATM   33  C18 UNL     1      40.927  17.909 -13.076  1.00  0.00     0.083 C 
HETATM   34  C19 UNL     1      42.345  17.372 -13.443  1.00  0.00     0.013 C 
HETATM   35  C20 UNL     1      42.443  15.863 -13.212  1.00  0.00     0.027 C 
HETATM   36  C21 UNL     1      42.192  15.297 -11.906  1.00  0.00     0.170 C 
HETATM   37  C23 UNL     1      37.583  16.086 -11.942  1.00  0.00     0.131 C 
ENDBRANCH  25  26
ENDBRANCH  24  25
ENDBRANCH   6  24
TORSDOF 6
ENDMDL
MODEL 3
REMARK VINA RESULT: -9.218594680      0.994      1.652
REMARK  6 active torsions:
REMARK  status: ('A' for Active; 'I' for Inactive)
REMARK    1  A    between atoms: C2_2  and  N1_3 
REMARK    2  A    between atoms: N1_3  and  C3_5 
REMARK    3  A    between atoms: C7_12  and  N3_13 
REMARK    4  A    between atoms: N4_18  and  C12_19 
REMARK    5  A    between atoms: C12_19  and  C13_20 
REMARK    6  A    between atoms: C13_20  and  N5_21 
ROOT
HETATM    1  N3  UNL     1      32.334  12.801  -9.005  1.00  0.00    -0.376 N 
HETATM    2  C8  UNL     1      32.420  13.305  -7.631  1.00  0.00     0.130 C 
HETATM    3  C9  UNL     1      33.655  12.578  -7.127  1.00  0.00     0.040 C 
HETATM    4  C10 UNL     1      34.287  13.434  -6.076  1.00  0.00     0.038 C 
HETATM    5  C11 UNL     1      35.105  14.474  -6.840  1.00  0.00     0.274 C 
HETATM    6  N4  UNL     1      35.054  14.090  -8.216  1.00  0.00     0.099 N 
HETATM    7  C24 UNL     1      34.595  12.754  -8.307  1.00  0.00     0.246 C 
HETATM    8  C25 UNL     1      33.651  12.460  -9.458  1.00  0.00     0.159 C 
ENDROOT
BRANCH   1   9
HETATM    9  C7  UNL     1      31.094  12.717  -9.677  1.00  0.00     0.072 A 
HETATM   10  C6  UNL     1      30.021  12.110  -9.066  1.00  0.00     0.145 A 
HETATM   11  C5  UNL     1      28.795  12.021  -9.717  1.00  0.00     0.077 A 
HETATM   12  F1  UNL     1      30.196  11.612  -7.818  1.00  0.00    -0.204 F 
HETATM   13  C4  UNL     1      28.648  12.545 -10.990  1.00  0.00     0.072 A 
HETATM   14  N2  UNL     1      27.631  12.625 -11.867  1.00  0.00    -0.320 N 
HETATM   15  C27 UNL     1      29.709  13.163 -11.634  1.00  0.00     0.108 A 
HETATM   16  C3  UNL     1      28.044  13.260 -12.995  1.00  0.00     0.225 A 
ATOM     17  H2  UNL     1      26.690  12.263 -11.708  1.00  0.00     0.169 HD
HETATM   18  O2  UNL     1      29.293  13.558 -12.801  1.00  0.00    -0.277 OA
HETATM   19  C26 UNL     1      30.910  13.235 -10.964  1.00  0.00     0.072 A 
BRANCH  16  20
HETATM   20  N1  UNL     1      27.319  13.506 -14.040  1.00  0.00    -0.356 N 
ATOM     21  H1  UNL     1      26.402  13.928 -13.894  1.00  0.00     0.163 HD
BRANCH  20  22
HETATM   22  C2  UNL     1      27.719  13.225 -15.382  1.00  0.00     0.118 C 
HETATM   23  C1  UNL     1      28.296  11.829 -15.436  1.00  0.00     0.026 C 
ENDBRANCH  20  22
ENDBRANCH  16  20
ENDBRANCH   1   9
BRANCH   6  24
HETATM   24  C12 UNL     1      36.275  14.380  -8.891  1.00  0.00     0.317 C 
BRANCH  24  25
HETATM   25  C13 UNL     1      36.579  15.799  -9.185  1.00  0.00     0.093 C 
BRANCH  25  26
HETATM   26  N5  UNL     1      36.636  16.263 -10.505  1.00  0.00    -0.372 N 
HETATM   27  C14 UNL     1      35.486  16.281 -11.310  1.00  0.00     0.067 C 
HETATM   28  C15 UNL     1      34.832  17.568 -11.620  1.00  0.00     0.095 C 
HETATM   29  C16 UNL     1      35.743  18.775 -11.658  1.00  0.00     0.118 C 
HETATM   30  C17 UNL     1      36.537  19.002 -12.811  1.00  0.00    -0.145 C 
HETATM   31  O1  UNL     1      34.886  19.900 -11.395  1.00  0.00    -0.368 OA
HETATM   32  C22 UNL     1      36.535  18.636 -10.338  1.00  0.00     0.071 C 
HETATM   33  C18 UNL     1      37.153  19.500 -13.984  1.00  0.00     0.083 C 
HETATM   34  C19 UNL     1      36.501  20.874 -14.332  1.00  0.00     0.013 C 
HETATM   35  C20 UNL     1      35.769  21.461 -13.124  1.00  0.00     0.027 C 
HETATM   36  C21 UNL     1      34.699  20.731 -12.481  1.00  0.00     0.170 C 
HETATM   37  C23 UNL     1      37.453  17.460 -10.586  1.00  0.00     0.131 C 
ENDBRANCH  25  26
ENDBRANCH  24  25
ENDBRANCH   6  24
TORSDOF 6
ENDMDL
MODEL 4
REMARK VINA RESULT: -9.153868377      1.752      2.250
REMARK  6 active torsions:
REMARK  status: ('A' for Active; 'I' for Inactive)
REMARK    1  A    between atoms: C2_2  and  N1_3 
REMARK    2  A    between atoms: N1_3  and  C3_5 
REMARK    3  A    between atoms: C7_12  and  N3_13 
REMARK    4  A    between atoms: N4_18  and  C12_19 
REMARK    5  A    between atoms: C12_19  and  C13_20 
REMARK    6  A    between atoms: C13_20  and  N5_21 
ROOT
HETATM    1  N3  UNL     1      32.246  12.792  -8.958  1.00  0.00    -0.376 N 
HETATM    2  C8  UNL     1      32.375  13.323  -7.598  1.00  0.00     0.130 C 
HETATM    3  C9  UNL     1      33.570  12.538  -7.087  1.00  0.00     0.040 C 
HETATM    4  C10 UNL     1      34.261  13.381  -6.063  1.00  0.00     0.038 C 
HETATM    5  C11 UNL     1      35.131  14.353  -6.859  1.00  0.00     0.274 C 
HETATM    6  N4  UNL     1      35.044  13.939  -8.224  1.00  0.00     0.099 N 
HETATM    7  C24 UNL     1      34.507  12.631  -8.278  1.00  0.00     0.246 C 
HETATM    8  C25 UNL     1      33.536  12.364  -9.414  1.00  0.00     0.159 C 
ENDROOT
BRANCH   1   9
HETATM    9  C7  UNL     1      30.997  12.765  -9.617  1.00  0.00     0.072 A 
HETATM   10  C6  UNL     1      29.875  12.337  -8.945  1.00  0.00     0.145 A 
HETATM   11  C5  UNL     1      28.638  12.305  -9.583  1.00  0.00     0.077 A 
HETATM   12  F1  UNL     1      30.012  11.956  -7.652  1.00  0.00    -0.204 F 
HETATM   13  C4  UNL     1      28.531  12.705 -10.904  1.00  0.00     0.072 A 
HETATM   14  N2  UNL     1      27.518  12.795 -11.784  1.00  0.00    -0.320 N 
HETATM   15  C27 UNL     1      29.642  13.142 -11.610  1.00  0.00     0.108 A 
HETATM   16  C3  UNL     1      27.981  13.264 -12.973  1.00  0.00     0.225 A 
ATOM     17  H2  UNL     1      26.547  12.549 -11.588  1.00  0.00     0.169 HD
HETATM   18  O2  UNL     1      29.255  13.453 -12.811  1.00  0.00    -0.277 OA
HETATM   19  C26 UNL     1      30.852  13.162 -10.951  1.00  0.00     0.072 A 
BRANCH  16  20
HETATM   20  N1  UNL     1      27.272  13.472 -14.037  1.00  0.00    -0.356 N 
ATOM     21  H1  UNL     1      26.315  13.805 -13.915  1.00  0.00     0.163 HD
BRANCH  20  22
HETATM   22  C2  UNL     1      27.742  13.265 -15.370  1.00  0.00     0.118 C 
HETATM   23  C1  UNL     1      28.271  11.854 -15.487  1.00  0.00     0.026 C 
ENDBRANCH  20  22
ENDBRANCH  16  20
ENDBRANCH   1   9
BRANCH   6  24
HETATM   24  C12 UNL     1      36.272  14.141  -8.917  1.00  0.00     0.317 C 
BRANCH  24  25
HETATM   25  C13 UNL     1      37.013  15.397  -8.656  1.00  0.00     0.093 C 
BRANCH  25  26
HETATM   26  N5  UNL     1      36.822  16.525  -9.462  1.00  0.00    -0.372 N 
HETATM   27  C14 UNL     1      37.614  17.672  -9.293  1.00  0.00     0.067 C 
HETATM   28  C15 UNL     1      38.655  17.994 -10.289  1.00  0.00     0.095 C 
HETATM   29  C16 UNL     1      38.380  17.526 -11.701  1.00  0.00     0.118 C 
HETATM   30  C17 UNL     1      37.492  18.276 -12.515  1.00  0.00    -0.145 C 
HETATM   31  O1  UNL     1      39.673  17.415 -12.319  1.00  0.00    -0.368 OA
HETATM   32  C22 UNL     1      37.977  16.048 -11.489  1.00  0.00     0.071 C 
HETATM   33  C18 UNL     1      36.871  19.067 -13.511  1.00  0.00     0.083 C 
HETATM   34  C19 UNL     1      37.937  19.410 -14.597  1.00  0.00     0.013 C 
HETATM   35  C20 UNL     1      39.137  18.464 -14.513  1.00  0.00     0.027 C 
HETATM   36  C21 UNL     1      39.912  18.358 -13.298  1.00  0.00     0.170 C 
HETATM   37  C23 UNL     1      36.613  16.131 -10.843  1.00  0.00     0.131 C 
ENDBRANCH  25  26
ENDBRANCH  24  25
ENDBRANCH   6  24
TORSDOF 6
ENDMDL
MODEL 5
REMARK VINA RESULT: -9.117044194      1.312      1.719
REMARK  6 active torsions:
REMARK  status: ('A' for Active; 'I' for Inactive)
REMARK    1  A    between atoms: C2_2  and  N1_3 
REMARK    2  A    between atoms: N1_3  and  C3_5 
REMARK    3  A    between atoms: C7_12  and  N3_13 
REMARK    4  A    between atoms: N4_18  and  C12_19 
REMARK    5  A    between atoms: C12_19  and  C13_20 
REMARK    6  A    between atoms: C13_20  and  N5_21 
ROOT
HETATM    1  N3  UNL     1      32.137  12.794  -8.896  1.00  0.00    -0.376 N 
HETATM    2  C8  UNL     1      32.308  13.513  -7.630  1.00  0.00     0.130 C 
HETATM    3  C9  UNL     1      33.389  12.680  -6.962  1.00  0.00     0.040 C 
HETATM    4  C10 UNL     1      34.162  13.584  -6.056  1.00  0.00     0.038 C 
HETATM    5  C11 UNL     1      35.158  14.307  -6.961  1.00  0.00     0.274 C 
HETATM    6  N4  UNL     1      35.043  13.698  -8.248  1.00  0.00     0.099 N 
HETATM    7  C24 UNL     1      34.350  12.471  -8.119  1.00  0.00     0.246 C 
HETATM    8  C25 UNL     1      33.372  12.148  -9.234  1.00  0.00     0.159 C 
ENDROOT
BRANCH   1   9
HETATM    9  C7  UNL     1      30.906  12.814  -9.588  1.00  0.00     0.072 A 
HETATM   10  C6  UNL     1      29.737  12.529  -8.918  1.00  0.00     0.145 A 
HETATM   11  C5  UNL     1      28.517  12.545  -9.587  1.00  0.00     0.077 A 
HETATM   12  F1  UNL     1      29.814  12.241  -7.596  1.00  0.00    -0.204 F 
HETATM   13  C4  UNL     1      28.473  12.848 -10.938  1.00  0.00     0.072 A 
HETATM   14  N2  UNL     1      27.491  12.949 -11.851  1.00  0.00    -0.320 N 
HETATM   15  C27 UNL     1      29.631  13.140 -11.641  1.00  0.00     0.108 A 
HETATM   16  C3  UNL     1      28.017  13.285 -13.058  1.00  0.00     0.225 A 
ATOM     17  H2  UNL     1      26.499  12.795 -11.665  1.00  0.00     0.169 HD
HETATM   18  O2  UNL     1      29.299  13.386 -12.874  1.00  0.00    -0.277 OA
HETATM   19  C26 UNL     1      30.823  13.116 -10.951  1.00  0.00     0.072 A 
BRANCH  16  20
HETATM   20  N1  UNL     1      27.352  13.464 -14.155  1.00  0.00    -0.356 N 
ATOM     21  H1  UNL     1      26.383  13.773 -14.080  1.00  0.00     0.163 HD
BRANCH  20  22
HETATM   22  C2  UNL     1      27.888  13.259 -15.464  1.00  0.00     0.118 C 
HETATM   23  C1  UNL     1      28.312  11.814 -15.594  1.00  0.00     0.026 C 
ENDBRANCH  20  22
ENDBRANCH  16  20
ENDBRANCH   1   9
BRANCH   6  24
HETATM   24  C12 UNL     1      36.299  13.640  -8.919  1.00  0.00     0.317 C 
BRANCH  24  25
HETATM   25  C13 UNL     1      36.429  14.368 -10.202  1.00  0.00     0.093 C 
BRANCH  25  26
HETATM   26  N5  UNL     1      37.166  15.555 -10.283  1.00  0.00    -0.372 N 
HETATM   27  C14 UNL     1      38.065  15.772 -11.339  1.00  0.00     0.067 C 
HETATM   28  C15 UNL     1      37.719  16.730 -12.408  1.00  0.00     0.095 C 
HETATM   29  C16 UNL     1      36.819  17.875 -11.998  1.00  0.00     0.118 C 
HETATM   30  C17 UNL     1      37.382  18.981 -11.310  1.00  0.00    -0.145 C 
HETATM   31  O1  UNL     1      36.174  18.299 -13.211  1.00  0.00    -0.368 OA
HETATM   32  C22 UNL     1      35.681  17.149 -11.244  1.00  0.00     0.071 C 
HETATM   33  C18 UNL     1      37.847  20.248 -10.887  1.00  0.00     0.083 C 
HETATM   34  C19 UNL     1      37.478  21.295 -11.984  1.00  0.00     0.013 C 
HETATM   35  C20 UNL     1      36.384  20.763 -12.911  1.00  0.00     0.027 C 
HETATM   36  C21 UNL     1      36.578  19.541 -13.659  1.00  0.00     0.170 C 
HETATM   37  C23 UNL     1      36.329  16.695  -9.956  1.00  0.00     0.131 C 
ENDBRANCH  25  26
ENDBRANCH  24  25
ENDBRANCH   6  24
TORSDOF 6
ENDMDL
