MODEL 1
REMARK VINA RESULT: -10.147866240      0.000      0.000
REMARK  6 active torsions:
REMARK  status: ('A' for Active; 'I' for Inactive)
REMARK    1  A    between atoms: C2_2  and  N1_3 
REMARK    2  A    between atoms: N1_3  and  C3_4 
REMARK       I    between atoms: N1_3  and  C9_10 
REMARK    3  A    between atoms: C3_4  and  C4_5 
REMARK       I    between atoms: C9_10  and  N2_12 
REMARK    4  A    between atoms: C10_14  and  C11_15 
REMARK    5  A    between atoms: C11_15  and  C12_17 
REMARK       I    between atoms: C12_17  and  N3_19 
REMARK    6  A    between atoms: N3_19  and  C13_21 
ROOT
HETATM    1  C11 UNL     1     168.928  34.506 181.322  1.00  0.00     0.254 C 
HETATM    2  O2  UNL     1     168.331  35.548 180.970  1.00  0.00    -0.281 OA
ENDROOT
BRANCH   1   3
HETATM    3  C10 UNL     1     168.862  34.091 182.708  1.00  0.00     0.153 C 
HETATM    4  N2  UNL     1     167.861  33.386 183.097  1.00  0.00    -0.315 N 
HETATM    5  C9  UNL     1     167.764  32.964 184.440  1.00  0.00     0.322 C 
ATOM      6  H2  UNL     1     167.132  33.130 182.431  1.00  0.00     0.170 HD
HETATM    7  N1  UNL     1     166.997  31.827 184.764  1.00  0.00    -0.334 N 
HETATM    8  O1  UNL     1     168.386  33.637 185.322  1.00  0.00    -0.247 OA
BRANCH   7   9
HETATM    9  C2  UNL     1     166.993  31.434 186.178  1.00  0.00     0.123 C 
HETATM   10  C1  UNL     1     165.706  31.804 186.849  1.00  0.00     0.026 C 
ENDBRANCH   7   9
BRANCH   7  11
HETATM   11  C3  UNL     1     166.222  31.080 183.803  1.00  0.00     0.132 C 
BRANCH  11  12
HETATM   12  C4  UNL     1     166.670  29.669 183.758  1.00  0.00     0.004 C 
HETATM   13  C5  UNL     1     168.185  29.568 183.473  1.00  0.00     0.006 C 
HETATM   14  C6  UNL     1     168.319  28.051 183.364  1.00  0.00     0.000 C 
HETATM   15  C7  UNL     1     167.050  27.617 182.701  1.00  0.00     0.000 C 
HETATM   16  C8  UNL     1     166.162  28.856 182.598  1.00  0.00     0.006 C 
ENDBRANCH  11  12
ENDBRANCH   7  11
ENDBRANCH   1   3
BRANCH   1  17
HETATM   17  C12 UNL     1     169.671  33.738 180.335  1.00  0.00     0.293 C 
HETATM   18  O3  UNL     1     169.849  34.161 179.164  1.00  0.00    -0.264 OA
HETATM   19  N3  UNL     1     170.212  32.487 180.688  1.00  0.00    -0.349 N 
ATOM     20  H3  UNL     1     170.080  32.128 181.634  1.00  0.00     0.163 HD
BRANCH  19  21
HETATM   21  C13 UNL     1     170.948  31.712 179.730  1.00  0.00     0.093 C 
HETATM   22  C14 UNL     1     172.189  31.143 180.427  1.00  0.00     0.009 C 
HETATM   23  C15 UNL     1     171.807  30.149 181.496  1.00  0.00     0.011 C 
HETATM   24  C19 UNL     1     173.015  30.478 179.365  1.00  0.00     0.011 C 
HETATM   25  C16 UNL     1     171.009  29.025 180.878  1.00  0.00    -0.013 C 
HETATM   26  C17 UNL     1     171.887  28.365 179.844  1.00  0.00     0.009 C 
HETATM   27  C22 UNL     1     169.774  29.558 180.231  1.00  0.00     0.011 C 
HETATM   28  C18 UNL     1     172.221  29.342 178.756  1.00  0.00    -0.013 C 
HETATM   29  C20 UNL     1     170.965  29.871 178.124  1.00  0.00     0.011 C 
HETATM   30  C21 UNL     1     170.136  30.563 179.181  1.00  0.00     0.009 C 
ENDBRANCH  19  21
ENDBRANCH   1  17
TORSDOF 6
ENDMDL
MODEL 2
REMARK VINA RESULT: -9.884918194      1.960      6.424
REMARK  6 active torsions:
REMARK  status: ('A' for Active; 'I' for Inactive)
REMARK    1  A    between atoms: C2_2  and  N1_3 
REMARK    2  A    between atoms: N1_3  and  C3_4 
REMARK       I    between atoms: N1_3  and  C9_10 
REMARK    3  A    between atoms: C3_4  and  C4_5 
REMARK       I    between atoms: C9_10  and  N2_12 
REMARK    4  A    between atoms: C10_14  and  C11_15 
REMARK    5  A    between atoms: C11_15  and  C12_17 
REMARK       I    between atoms: C12_17  and  N3_19 
REMARK    6  A    between atoms: N3_19  and  C13_21 
ROOT
HETATM    1  C11 UNL     1     166.960  32.310 185.964  1.00  0.00     0.254 C 
HETATM    2  O2  UNL     1     167.259  32.916 187.018  1.00  0.00    -0.281 OA
ENDROOT
BRANCH   1   3
HETATM    3  C10 UNL     1     167.342  32.883 184.690  1.00  0.00     0.153 C 
HETATM    4  N2  UNL     1     168.554  32.744 184.287  1.00  0.00    -0.315 N 
HETATM    5  C9  UNL     1     168.961  33.289 183.050  1.00  0.00     0.322 C 
ATOM      6  H2  UNL     1     169.225  32.236 184.863  1.00  0.00     0.170 HD
HETATM    7  N1  UNL     1     170.074  32.745 182.376  1.00  0.00    -0.334 N 
HETATM    8  O1  UNL     1     168.295  34.266 182.582  1.00  0.00    -0.247 OA
BRANCH   7   9
HETATM    9  C2  UNL     1     170.394  33.344 181.076  1.00  0.00     0.123 C 
HETATM   10  C1  UNL     1     171.458  34.390 181.198  1.00  0.00     0.026 C 
ENDBRANCH   7   9
BRANCH   7  11
HETATM   11  C3  UNL     1     170.894  31.684 182.908  1.00  0.00     0.132 C 
BRANCH  11  12
HETATM   12  C4  UNL     1     170.719  30.444 182.115  1.00  0.00     0.004 C 
HETATM   13  C5  UNL     1     170.775  29.189 183.014  1.00  0.00     0.006 C 
HETATM   14  C6  UNL     1     170.696  28.108 181.940  1.00  0.00     0.000 C 
HETATM   15  C7  UNL     1     171.478  28.669 180.795  1.00  0.00     0.000 C 
HETATM   16  C8  UNL     1     171.842  30.104 181.173  1.00  0.00     0.006 C 
ENDBRANCH  11  12
ENDBRANCH   7  11
ENDBRANCH   1   3
BRANCH   1  17
HETATM   17  C12 UNL     1     166.239  31.049 186.043  1.00  0.00     0.293 C 
HETATM   18  O3  UNL     1     165.185  30.929 186.719  1.00  0.00    -0.264 OA
HETATM   19  N3  UNL     1     166.722  29.925 185.346  1.00  0.00    -0.349 N 
ATOM     20  H3  UNL     1     167.574  30.003 184.790  1.00  0.00     0.163 HD
BRANCH  19  21
HETATM   21  C13 UNL     1     166.027  28.671 185.410  1.00  0.00     0.093 C 
HETATM   22  C14 UNL     1     165.043  28.609 184.237  1.00  0.00     0.009 C 
HETATM   23  C15 UNL     1     165.770  28.565 182.915  1.00  0.00     0.011 C 
HETATM   24  C19 UNL     1     164.224  27.365 184.424  1.00  0.00     0.011 C 
HETATM   25  C16 UNL     1     166.682  27.360 182.881  1.00  0.00    -0.013 C 
HETATM   26  C17 UNL     1     165.815  26.135 183.038  1.00  0.00     0.009 C 
HETATM   27  C22 UNL     1     167.675  27.426 183.994  1.00  0.00     0.011 C 
HETATM   28  C18 UNL     1     165.135  26.157 184.375  1.00  0.00    -0.013 C 
HETATM   29  C20 UNL     1     166.151  26.231 185.478  1.00  0.00     0.011 C 
HETATM   30  C21 UNL     1     166.967  27.492 185.312  1.00  0.00     0.009 C 
ENDBRANCH  19  21
ENDBRANCH   1  17
TORSDOF 6
ENDMDL
MODEL 3
REMARK VINA RESULT: -9.679266403      2.402      6.768
REMARK  6 active torsions:
REMARK  status: ('A' for Active; 'I' for Inactive)
REMARK    1  A    between atoms: C2_2  and  N1_3 
REMARK    2  A    between atoms: N1_3  and  C3_4 
REMARK       I    between atoms: N1_3  and  C9_10 
REMARK    3  A    between atoms: C3_4  and  C4_5 
REMARK       I    between atoms: C9_10  and  N2_12 
REMARK    4  A    between atoms: C10_14  and  C11_15 
REMARK    5  A    between atoms: C11_15  and  C12_17 
REMARK       I    between atoms: C12_17  and  N3_19 
REMARK    6  A    between atoms: N3_19  and  C13_21 
ROOT
HETATM    1  C11 UNL     1     168.279  32.070 184.054  1.00  0.00     0.254 C 
HETATM    2  O2  UNL     1     168.207  33.176 184.636  1.00  0.00    -0.281 OA
ENDROOT
BRANCH   1   3
HETATM    3  C10 UNL     1     169.562  31.615 183.561  1.00  0.00     0.153 C 
HETATM    4  N2  UNL     1     169.612  31.020 182.423  1.00  0.00    -0.315 N 
HETATM    5  C9  UNL     1     170.846  30.563 181.911  1.00  0.00     0.322 C 
ATOM      6  H2  UNL     1     168.757  30.877 181.887  1.00  0.00     0.170 HD
HETATM    7  N1  UNL     1     171.005  30.382 180.522  1.00  0.00    -0.334 N 
HETATM    8  O1  UNL     1     171.785  30.331 182.738  1.00  0.00    -0.247 OA
BRANCH   7   9
HETATM    9  C2  UNL     1     172.335  29.952 180.077  1.00  0.00     0.123 C 
HETATM   10  C1  UNL     1     173.098  31.077 179.451  1.00  0.00     0.026 C 
ENDBRANCH   7   9
BRANCH   7  11
HETATM   11  C3  UNL     1     169.944  30.569 179.562  1.00  0.00     0.132 C 
BRANCH  11  12
HETATM   12  C4  UNL     1     169.724  29.327 178.784  1.00  0.00     0.004 C 
HETATM   13  C5  UNL     1     170.052  29.534 177.288  1.00  0.00     0.006 C 
HETATM   14  C6  UNL     1     169.622  28.173 176.747  1.00  0.00     0.000 C 
HETATM   15  C7  UNL     1     168.422  27.815 177.564  1.00  0.00     0.000 C 
HETATM   16  C8  UNL     1     168.292  28.884 178.647  1.00  0.00     0.006 C 
ENDBRANCH  11  12
ENDBRANCH   7  11
ENDBRANCH   1   3
BRANCH   1  17
HETATM   17  C12 UNL     1     167.075  31.270 183.887  1.00  0.00     0.293 C 
HETATM   18  O3  UNL     1     165.992  31.775 183.496  1.00  0.00    -0.264 OA
HETATM   19  N3  UNL     1     167.111  29.890 184.165  1.00  0.00    -0.349 N 
ATOM     20  H3  UNL     1     167.981  29.461 184.481  1.00  0.00     0.163 HD
BRANCH  19  21
HETATM   21  C13 UNL     1     165.936  29.082 184.009  1.00  0.00     0.093 C 
HETATM   22  C14 UNL     1     166.346  27.768 183.335  1.00  0.00     0.009 C 
HETATM   23  C15 UNL     1     167.243  26.950 184.231  1.00  0.00     0.011 C 
HETATM   24  C19 UNL     1     165.079  27.019 183.040  1.00  0.00     0.011 C 
HETATM   25  C16 UNL     1     166.527  26.656 185.529  1.00  0.00    -0.013 C 
HETATM   26  C17 UNL     1     165.282  25.876 185.189  1.00  0.00     0.009 C 
HETATM   27  C22 UNL     1     166.158  27.928 186.220  1.00  0.00     0.011 C 
HETATM   28  C18 UNL     1     164.369  26.711 184.341  1.00  0.00    -0.013 C 
HETATM   29  C20 UNL     1     164.016  27.987 185.051  1.00  0.00     0.011 C 
HETATM   30  C21 UNL     1     165.284  28.760 185.333  1.00  0.00     0.009 C 
ENDBRANCH  19  21
ENDBRANCH   1  17
TORSDOF 6
ENDMDL
MODEL 4
REMARK VINA RESULT: -9.676033493      1.558      2.280
REMARK  6 active torsions:
REMARK  status: ('A' for Active; 'I' for Inactive)
REMARK    1  A    between atoms: C2_2  and  N1_3 
REMARK    2  A    between atoms: N1_3  and  C3_4 
REMARK       I    between atoms: N1_3  and  C9_10 
REMARK    3  A    between atoms: C3_4  and  C4_5 
REMARK       I    between atoms: C9_10  and  N2_12 
REMARK    4  A    between atoms: C10_14  and  C11_15 
REMARK    5  A    between atoms: C11_15  and  C12_17 
REMARK       I    between atoms: C12_17  and  N3_19 
REMARK    6  A    between atoms: N3_19  and  C13_21 
ROOT
HETATM    1  C11 UNL     1     169.249  33.150 182.760  1.00  0.00     0.254 C 
HETATM    2  O2  UNL     1     168.923  34.144 182.073  1.00  0.00    -0.281 OA
ENDROOT
BRANCH   1   3
HETATM    3  C10 UNL     1     168.535  32.879 183.990  1.00  0.00     0.153 C 
HETATM    4  N2  UNL     1     167.442  32.204 183.936  1.00  0.00    -0.315 N 
HETATM    5  C9  UNL     1     166.719  31.921 185.115  1.00  0.00     0.322 C 
ATOM      6  H2  UNL     1     167.096  31.871 183.037  1.00  0.00     0.170 HD
HETATM    7  N1  UNL     1     165.850  30.812 185.155  1.00  0.00    -0.334 N 
HETATM    8  O1  UNL     1     166.886  32.690 186.115  1.00  0.00    -0.247 OA
BRANCH   7   9
HETATM    9  C2  UNL     1     165.177  30.567 186.436  1.00  0.00     0.123 C 
HETATM   10  C1  UNL     1     163.691  30.704 186.313  1.00  0.00     0.026 C 
ENDBRANCH   7   9
BRANCH   7  11
HETATM   11  C3  UNL     1     165.583  29.960 184.022  1.00  0.00     0.132 C 
BRANCH  11  12
HETATM   12  C4  UNL     1     166.022  28.572 184.300  1.00  0.00     0.004 C 
HETATM   13  C5  UNL     1     167.482  28.343 183.852  1.00  0.00     0.006 C 
HETATM   14  C6  UNL     1     167.601  26.849 184.140  1.00  0.00     0.000 C 
HETATM   15  C7  UNL     1     166.253  26.300 183.796  1.00  0.00     0.000 C 
HETATM   16  C8  UNL     1     165.358  27.498 183.482  1.00  0.00     0.006 C 
ENDBRANCH  11  12
ENDBRANCH   7  11
ENDBRANCH   1   3
BRANCH   1  17
HETATM   17  C12 UNL     1     170.335  32.293 182.310  1.00  0.00     0.293 C 
HETATM   18  O3  UNL     1     171.218  31.871 183.100  1.00  0.00    -0.264 OA
HETATM   19  N3  UNL     1     170.410  31.916 180.955  1.00  0.00    -0.349 N 
ATOM     20  H3  UNL     1     169.702  32.246 180.299  1.00  0.00     0.163 HD
BRANCH  19  21
HETATM   21  C13 UNL     1     171.472  31.072 180.489  1.00  0.00     0.093 C 
HETATM   22  C14 UNL     1     170.851  29.793 179.917  1.00  0.00     0.009 C 
HETATM   23  C15 UNL     1     170.038  30.086 178.680  1.00  0.00     0.011 C 
HETATM   24  C19 UNL     1     171.987  28.869 179.588  1.00  0.00     0.011 C 
HETATM   25  C16 UNL     1     170.921  30.735 177.638  1.00  0.00    -0.013 C 
HETATM   26  C17 UNL     1     172.026  29.760 177.315  1.00  0.00     0.009 C 
HETATM   27  C22 UNL     1     171.500  32.006 178.165  1.00  0.00     0.011 C 
HETATM   28  C18 UNL     1     172.863  29.512 178.534  1.00  0.00    -0.013 C 
HETATM   29  C20 UNL     1     173.431  30.803 179.052  1.00  0.00     0.011 C 
HETATM   30  C21 UNL     1     172.293  31.733 179.407  1.00  0.00     0.009 C 
ENDBRANCH  19  21
ENDBRANCH   1  17
TORSDOF 6
ENDMDL
MODEL 5
REMARK VINA RESULT: -9.601264776      2.404      6.890
REMARK  6 active torsions:
REMARK  status: ('A' for Active; 'I' for Inactive)
REMARK    1  A    between atoms: C2_2  and  N1_3 
REMARK    2  A    between atoms: N1_3  and  C3_4 
REMARK       I    between atoms: N1_3  and  C9_10 
REMARK    3  A    between atoms: C3_4  and  C4_5 
REMARK       I    between atoms: C9_10  and  N2_12 
REMARK    4  A    between atoms: C10_14  and  C11_15 
REMARK    5  A    between atoms: C11_15  and  C12_17 
REMARK       I    between atoms: C12_17  and  N3_19 
REMARK    6  A    between atoms: N3_19  and  C13_21 
ROOT
HETATM    1  C11 UNL     1     170.816  31.942 182.142  1.00  0.00     0.254 C 
HETATM    2  O2  UNL     1     170.382  33.089 182.389  1.00  0.00    -0.281 OA
ENDROOT
BRANCH   1   3
HETATM    3  C10 UNL     1     171.862  31.782 181.154  1.00  0.00     0.153 C 
HETATM    4  N2  UNL     1     171.577  31.220 180.034  1.00  0.00    -0.315 N 
HETATM    5  C9  UNL     1     172.571  31.048 179.047  1.00  0.00     0.322 C 
ATOM      6  H2  UNL     1     170.626  30.897 179.857  1.00  0.00     0.170 HD
HETATM    7  N1  UNL     1     172.201  30.916 177.693  1.00  0.00    -0.334 N 
HETATM    8  O1  UNL     1     173.786  31.022 179.425  1.00  0.00    -0.247 OA
BRANCH   7   9
HETATM    9  C2  UNL     1     173.304  30.790 176.734  1.00  0.00     0.123 C 
HETATM   10  C1  UNL     1     172.861  31.112 175.340  1.00  0.00     0.026 C 
ENDBRANCH   7   9
BRANCH   7  11
HETATM   11  C3  UNL     1     170.834  30.872 177.236  1.00  0.00     0.132 C 
BRANCH  11  12
HETATM   12  C4  UNL     1     170.161  29.645 177.726  1.00  0.00     0.004 C 
HETATM   13  C5  UNL     1     169.796  28.700 176.560  1.00  0.00     0.006 C 
HETATM   14  C6  UNL     1     169.034  27.628 177.336  1.00  0.00     0.000 C 
HETATM   15  C7  UNL     1     168.304  28.391 178.395  1.00  0.00     0.000 C 
HETATM   16  C8  UNL     1     168.786  29.838 178.306  1.00  0.00     0.006 C 
ENDBRANCH  11  12
ENDBRANCH   7  11
ENDBRANCH   1   3
BRANCH   1  17
HETATM   17  C12 UNL     1     170.262  30.798 182.850  1.00  0.00     0.293 C 
HETATM   18  O3  UNL     1     170.958  29.786 183.123  1.00  0.00    -0.264 OA
HETATM   19  N3  UNL     1     168.912  30.812 183.249  1.00  0.00    -0.349 N 
ATOM     20  H3  UNL     1     168.332  31.625 183.039  1.00  0.00     0.163 HD
BRANCH  19  21
HETATM   21  C13 UNL     1     168.344  29.695 183.948  1.00  0.00     0.093 C 
HETATM   22  C14 UNL     1     166.987  30.125 184.514  1.00  0.00     0.009 C 
HETATM   23  C15 UNL     1     166.000  30.412 183.409  1.00  0.00     0.011 C 
HETATM   24  C19 UNL     1     166.497  28.993 185.370  1.00  0.00     0.011 C 
HETATM   25  C16 UNL     1     165.829  29.179 182.552  1.00  0.00    -0.013 C 
HETATM   26  C17 UNL     1     165.305  28.081 183.444  1.00  0.00     0.009 C 
HETATM   27  C22 UNL     1     167.137  28.772 181.958  1.00  0.00     0.011 C 
HETATM   28  C18 UNL     1     166.311  27.762 184.509  1.00  0.00    -0.013 C 
HETATM   29  C20 UNL     1     167.619  27.362 183.891  1.00  0.00     0.011 C 
HETATM   30  C21 UNL     1     168.133  28.503 183.044  1.00  0.00     0.009 C 
ENDBRANCH  19  21
ENDBRANCH   1  17
TORSDOF 6
ENDMDL
