MODEL 1
REMARK VINA RESULT: -9.320779068      0.000      0.000
REMARK  6 active torsions:
REMARK  status: ('A' for Active; 'I' for Inactive)
REMARK    1  A    between atoms: N2_6  and  C5_7 
REMARK    2  A    between atoms: C9_11  and  C10_12 
REMARK    3  A    between atoms: C9_11  and  N4_18 
REMARK    4  A    between atoms: C10_12  and  C11_13 
REMARK    5  A    between atoms: C11_13  and  C12_14 
REMARK    6  A    between atoms: C12_14  and  C13_15 
ROOT
HETATM    1  C5  UNL     1     167.982  28.558 183.229  1.00  0.00     0.033 C 
HETATM    2  C6  UNL     1     167.097  28.616 181.986  1.00  0.00     0.039 C 
HETATM    3  C7  UNL     1     168.311  29.971 183.608  1.00  0.00     0.033 C 
HETATM    4  C8  UNL     1     169.233  30.582 182.598  1.00  0.00     0.044 C 
HETATM    5  C9  UNL     1     170.548  29.913 182.408  1.00  0.00     0.160 C 
HETATM    6  C19 UNL     1     170.514  28.653 183.271  1.00  0.00     0.044 C 
HETATM    7  C20 UNL     1     169.281  27.866 182.935  1.00  0.00     0.033 C 
ENDROOT
BRANCH   5   8
HETATM    8  C10 UNL     1     171.773  30.699 182.624  1.00  0.00     0.042 C 
BRANCH   8   9
HETATM    9  C11 UNL     1     171.821  32.151 182.621  1.00  0.00     0.011 C 
BRANCH   9  10
HETATM   10  C12 UNL     1     172.015  32.890 181.336  1.00  0.00     0.099 C 
BRANCH  10  11
HETATM   11  C13 UNL     1     170.914  33.925 181.165  1.00  0.00     0.231 C 
HETATM   12  N3  UNL     1     171.313  35.270 181.305  1.00  0.00    -0.062 NA
HETATM   13  O1  UNL     1     169.738  33.557 180.916  1.00  0.00    -0.277 OA
ENDBRANCH  10  11
ENDBRANCH   9  10
ENDBRANCH   8   9
ENDBRANCH   5   8
BRANCH   5  14
HETATM   14  N4  UNL     1     170.603  29.449 181.027  1.00  0.00     0.098 N 
HETATM   15  C14 UNL     1     171.896  29.332 180.458  1.00  0.00     0.273 C 
HETATM   16  C15 UNL     1     171.746  28.384 179.248  1.00  0.00     0.030 C 
HETATM   17  C16 UNL     1     171.005  29.184 178.199  1.00  0.00     0.003 C 
HETATM   18  C17 UNL     1     170.421  30.454 178.772  1.00  0.00     0.030 C 
HETATM   19  C18 UNL     1     169.779  30.242 180.135  1.00  0.00     0.273 C 
ENDBRANCH   5  14
BRANCH   1  20
HETATM   20  N2  UNL     1     167.256  27.853 184.245  1.00  0.00    -0.325 N 
HETATM   21  C4  UNL     1     167.717  26.563 184.715  1.00  0.00     0.130 C 
HETATM   22  C3  UNL     1     166.541  25.571 184.562  1.00  0.00     0.040 C 
HETATM   23  C2  UNL     1     165.462  25.983 185.539  1.00  0.00     0.128 C 
HETATM   24  N1  UNL     1     165.082  27.359 185.252  1.00  0.00    -0.338 N 
HETATM   25  C1  UNL     1     163.708  27.780 185.384  1.00  0.00     0.154 C 
HETATM   26  C21 UNL     1     166.047  28.309 184.843  1.00  0.00     0.320 C 
HETATM   27  O2  UNL     1     165.847  29.506 184.999  1.00  0.00    -0.247 OA
ENDBRANCH   1  20
TORSDOF 6
ENDMDL
MODEL 2
REMARK VINA RESULT: -8.741417848      2.375      6.871
REMARK  6 active torsions:
REMARK  status: ('A' for Active; 'I' for Inactive)
REMARK    1  A    between atoms: N2_6  and  C5_7 
REMARK    2  A    between atoms: C9_11  and  C10_12 
REMARK    3  A    between atoms: C9_11  and  N4_18 
REMARK    4  A    between atoms: C10_12  and  C11_13 
REMARK    5  A    between atoms: C11_13  and  C12_14 
REMARK    6  A    between atoms: C12_14  and  C13_15 
ROOT
HETATM    1  C5  UNL     1     168.831  28.666 182.569  1.00  0.00     0.033 C 
HETATM    2  C6  UNL     1     169.466  27.603 183.462  1.00  0.00     0.039 C 
HETATM    3  C7  UNL     1     168.722  29.922 183.381  1.00  0.00     0.033 C 
HETATM    4  C8  UNL     1     167.690  29.762 184.455  1.00  0.00     0.044 C 
HETATM    5  C9  UNL     1     166.303  29.467 184.006  1.00  0.00     0.160 C 
HETATM    6  C19 UNL     1     166.375  29.285 182.491  1.00  0.00     0.044 C 
HETATM    7  C20 UNL     1     167.438  28.275 182.171  1.00  0.00     0.033 C 
ENDROOT
BRANCH   5   8
HETATM    8  C10 UNL     1     165.226  30.386 184.403  1.00  0.00     0.042 C 
BRANCH   8   9
HETATM    9  C11 UNL     1     165.447  31.705 184.970  1.00  0.00     0.011 C 
BRANCH   9  10
HETATM   10  C12 UNL     1     165.128  31.965 186.408  1.00  0.00     0.099 C 
BRANCH  10  11
HETATM   11  C13 UNL     1     166.403  31.921 187.236  1.00  0.00     0.231 C 
HETATM   12  N3  UNL     1     167.218  33.069 187.164  1.00  0.00    -0.062 NA
HETATM   13  O1  UNL     1     166.672  30.904 187.923  1.00  0.00    -0.277 OA
ENDBRANCH  10  11
ENDBRANCH   9  10
ENDBRANCH   8   9
ENDBRANCH   5   8
BRANCH   5  14
HETATM   14  N4  UNL     1     165.942  28.161 184.547  1.00  0.00     0.098 N 
HETATM   15  C14 UNL     1     164.631  27.706 184.257  1.00  0.00     0.273 C 
HETATM   16  C15 UNL     1     164.654  26.176 184.469  1.00  0.00     0.030 C 
HETATM   17  C16 UNL     1     164.738  25.978 185.967  1.00  0.00     0.003 C 
HETATM   18  C17 UNL     1     165.070  27.266 186.684  1.00  0.00     0.030 C 
HETATM   19  C18 UNL     1     166.154  28.068 185.979  1.00  0.00     0.273 C 
ENDBRANCH   5  14
BRANCH   1  20
HETATM   20  N2  UNL     1     169.662  28.811 181.410  1.00  0.00    -0.325 N 
HETATM   21  C4  UNL     1     171.070  28.480 181.470  1.00  0.00     0.130 C 
HETATM   22  C3  UNL     1     171.856  29.719 180.981  1.00  0.00     0.040 C 
HETATM   23  C2  UNL     1     171.557  29.902 179.510  1.00  0.00     0.128 C 
HETATM   24  N1  UNL     1     170.117  30.044 179.346  1.00  0.00    -0.338 N 
HETATM   25  C1  UNL     1     169.580  30.943 178.354  1.00  0.00     0.154 C 
HETATM   26  C21 UNL     1     169.218  29.304 180.150  1.00  0.00     0.320 C 
HETATM   27  O2  UNL     1     168.074  29.091 179.770  1.00  0.00    -0.247 OA
ENDBRANCH   1  20
TORSDOF 6
ENDMDL
MODEL 3
REMARK VINA RESULT: -8.736019984      2.579      7.753
REMARK  6 active torsions:
REMARK  status: ('A' for Active; 'I' for Inactive)
REMARK    1  A    between atoms: N2_6  and  C5_7 
REMARK    2  A    between atoms: C9_11  and  C10_12 
REMARK    3  A    between atoms: C9_11  and  N4_18 
REMARK    4  A    between atoms: C10_12  and  C11_13 
REMARK    5  A    between atoms: C11_13  and  C12_14 
REMARK    6  A    between atoms: C12_14  and  C13_15 
ROOT
HETATM    1  C5  UNL     1     170.692  29.905 179.366  1.00  0.00     0.033 C 
HETATM    2  C6  UNL     1     169.796  31.034 178.865  1.00  0.00     0.039 C 
HETATM    3  C7  UNL     1     169.814  28.717 179.618  1.00  0.00     0.033 C 
HETATM    4  C8  UNL     1     168.930  28.961 180.803  1.00  0.00     0.044 C 
HETATM    5  C9  UNL     1     169.613  29.222 182.098  1.00  0.00     0.160 C 
HETATM    6  C19 UNL     1     171.107  29.284 181.788  1.00  0.00     0.044 C 
HETATM    7  C20 UNL     1     171.334  30.265 180.674  1.00  0.00     0.033 C 
ENDROOT
BRANCH   5   8
HETATM    8  C10 UNL     1     169.321  28.338 183.237  1.00  0.00     0.042 C 
BRANCH   8   9
HETATM    9  C11 UNL     1     168.322  27.282 183.214  1.00  0.00     0.011 C 
BRANCH   9  10
HETATM   10  C12 UNL     1     167.316  27.181 184.315  1.00  0.00     0.099 C 
BRANCH  10  11
HETATM   11  C13 UNL     1     166.372  26.019 184.046  1.00  0.00     0.231 C 
HETATM   12  N3  UNL     1     165.305  26.292 183.165  1.00  0.00    -0.062 NA
HETATM   13  O1  UNL     1     166.569  24.908 184.597  1.00  0.00    -0.277 OA
ENDBRANCH  10  11
ENDBRANCH   9  10
ENDBRANCH   8   9
ENDBRANCH   5   8
BRANCH   5  14
HETATM   14  N4  UNL     1     169.239  30.566 182.522  1.00  0.00     0.098 N 
HETATM   15  C14 UNL     1     170.201  31.271 183.289  1.00  0.00     0.273 C 
HETATM   16  C15 UNL     1     169.823  32.764 183.181  1.00  0.00     0.030 C 
HETATM   17  C16 UNL     1     168.571  32.924 184.014  1.00  0.00     0.003 C 
HETATM   18  C17 UNL     1     167.973  31.588 184.389  1.00  0.00     0.030 C 
HETATM   19  C18 UNL     1     167.974  30.599 183.233  1.00  0.00     0.273 C 
ENDBRANCH   5  14
BRANCH   1  20
HETATM   20  N2  UNL     1     171.692  29.669 178.366  1.00  0.00    -0.325 N 
HETATM   21  C4  UNL     1     173.033  29.279 178.746  1.00  0.00     0.130 C 
HETATM   22  C3  UNL     1     174.009  30.281 178.087  1.00  0.00     0.040 C 
HETATM   23  C2  UNL     1     173.946  30.068 176.591  1.00  0.00     0.128 C 
HETATM   24  N1  UNL     1     172.568  30.251 176.157  1.00  0.00    -0.338 N 
HETATM   25  C1  UNL     1     172.279  30.873 174.887  1.00  0.00     0.154 C 
HETATM   26  C21 UNL     1     171.489  29.822 176.964  1.00  0.00     0.320 C 
HETATM   27  O2  UNL     1     170.395  29.585 176.468  1.00  0.00    -0.247 OA
ENDBRANCH   1  20
TORSDOF 6
ENDMDL
MODEL 4
REMARK VINA RESULT: -8.720085290      2.664      6.949
REMARK  6 active torsions:
REMARK  status: ('A' for Active; 'I' for Inactive)
REMARK    1  A    between atoms: N2_6  and  C5_7 
REMARK    2  A    between atoms: C9_11  and  C10_12 
REMARK    3  A    between atoms: C9_11  and  N4_18 
REMARK    4  A    between atoms: C10_12  and  C11_13 
REMARK    5  A    between atoms: C11_13  and  C12_14 
REMARK    6  A    between atoms: C12_14  and  C13_15 
ROOT
HETATM    1  C5  UNL     1     171.707  29.461 179.340  1.00  0.00     0.033 C 
HETATM    2  C6  UNL     1     171.794  27.977 179.687  1.00  0.00     0.039 C 
HETATM    3  C7  UNL     1     172.500  30.207 180.370  1.00  0.00     0.033 C 
HETATM    4  C8  UNL     1     171.810  30.158 181.699  1.00  0.00     0.044 C 
HETATM    5  C9  UNL     1     170.444  30.744 181.760  1.00  0.00     0.160 C 
HETATM    6  C19 UNL     1     170.085  31.139 180.329  1.00  0.00     0.044 C 
HETATM    7  C20 UNL     1     170.292  29.954 179.430  1.00  0.00     0.033 C 
ENDROOT
BRANCH   5   8
HETATM    8  C10 UNL     1     170.190  31.833 182.715  1.00  0.00     0.042 C 
BRANCH   8   9
HETATM    9  C11 UNL     1     170.147  33.240 182.355  1.00  0.00     0.011 C 
BRANCH   9  10
HETATM   10  C12 UNL     1     168.866  34.003 182.472  1.00  0.00     0.099 C 
BRANCH  10  11
HETATM   11  C13 UNL     1     168.668  34.871 181.239  1.00  0.00     0.231 C 
HETATM   12  N3  UNL     1     168.303  36.210 181.488  1.00  0.00    -0.062 NA
HETATM   13  O1  UNL     1     168.829  34.382 180.093  1.00  0.00    -0.277 OA
ENDBRANCH  10  11
ENDBRANCH   9  10
ENDBRANCH   8   9
ENDBRANCH   5   8
BRANCH   5  14
HETATM   14  N4  UNL     1     169.527  29.668 182.119  1.00  0.00     0.098 N 
HETATM   15  C14 UNL     1     168.543  29.983 183.088  1.00  0.00     0.273 C 
HETATM   16  C15 UNL     1     167.432  28.922 182.929  1.00  0.00     0.030 C 
HETATM   17  C16 UNL     1     168.020  27.639 183.476  1.00  0.00     0.003 C 
HETATM   18  C17 UNL     1     169.512  27.752 183.687  1.00  0.00     0.030 C 
HETATM   19  C18 UNL     1     170.215  28.462 182.540  1.00  0.00     0.273 C 
ENDBRANCH   5  14
BRANCH   1  20
HETATM   20  N2  UNL     1     172.211  29.624 178.008  1.00  0.00    -0.325 N 
HETATM   21  C4  UNL     1     173.402  28.920 177.582  1.00  0.00     0.130 C 
HETATM   22  C3  UNL     1     174.390  29.975 177.035  1.00  0.00     0.040 C 
HETATM   23  C2  UNL     1     173.798  30.548 175.767  1.00  0.00     0.128 C 
HETATM   24  N1  UNL     1     172.490  31.107 176.082  1.00  0.00    -0.338 N 
HETATM   25  C1  UNL     1     172.035  32.312 175.431  1.00  0.00     0.154 C 
HETATM   26  C21 UNL     1     171.640  30.482 177.024  1.00  0.00     0.320 C 
HETATM   27  O2  UNL     1     170.432  30.674 176.996  1.00  0.00    -0.247 OA
ENDBRANCH   1  20
TORSDOF 6
ENDMDL
MODEL 5
REMARK VINA RESULT: -8.619008023      2.232      4.000
REMARK  6 active torsions:
REMARK  status: ('A' for Active; 'I' for Inactive)
REMARK    1  A    between atoms: N2_6  and  C5_7 
REMARK    2  A    between atoms: C9_11  and  C10_12 
REMARK    3  A    between atoms: C9_11  and  N4_18 
REMARK    4  A    between atoms: C10_12  and  C11_13 
REMARK    5  A    between atoms: C11_13  and  C12_14 
REMARK    6  A    between atoms: C12_14  and  C13_15 
ROOT
HETATM    1  C5  UNL     1     169.033  29.374 182.577  1.00  0.00     0.033 C 
HETATM    2  C6  UNL     1     168.882  30.397 183.699  1.00  0.00     0.039 C 
HETATM    3  C7  UNL     1     170.405  28.780 182.697  1.00  0.00     0.033 C 
HETATM    4  C8  UNL     1     171.447  29.794 182.336  1.00  0.00     0.044 C 
HETATM    5  C9  UNL     1     171.383  30.350 180.958  1.00  0.00     0.160 C 
HETATM    6  C19 UNL     1     170.120  29.771 180.322  1.00  0.00     0.044 C 
HETATM    7  C20 UNL     1     168.954  30.032 181.231  1.00  0.00     0.033 C 
ENDROOT
BRANCH   5   8
HETATM    8  C10 UNL     1     172.558  30.203 180.086  1.00  0.00     0.042 C 
BRANCH   8   9
HETATM    9  C11 UNL     1     172.603  29.344 178.915  1.00  0.00     0.011 C 
BRANCH   9  10
HETATM   10  C12 UNL     1     172.897  29.928 177.570  1.00  0.00     0.099 C 
BRANCH  10  11
HETATM   11  C13 UNL     1     171.742  29.648 176.622  1.00  0.00     0.231 C 
HETATM   12  N3  UNL     1     171.669  30.481 175.487  1.00  0.00    -0.062 NA
HETATM   13  O1  UNL     1     170.929  28.724 176.876  1.00  0.00    -0.277 OA
ENDBRANCH  10  11
ENDBRANCH   9  10
ENDBRANCH   8   9
ENDBRANCH   5   8
BRANCH   5  14
HETATM   14  N4  UNL     1     171.145  31.784 181.080  1.00  0.00     0.098 N 
HETATM   15  C14 UNL     1     171.404  32.561 179.923  1.00  0.00     0.273 C 
HETATM   16  C15 UNL     1     170.630  33.884 180.114  1.00  0.00     0.030 C 
HETATM   17  C16 UNL     1     171.385  34.641 181.185  1.00  0.00     0.003 C 
HETATM   18  C17 UNL     1     172.397  33.763 181.884  1.00  0.00     0.030 C 
HETATM   19  C18 UNL     1     171.854  32.377 182.198  1.00  0.00     0.273 C 
ENDBRANCH   5  14
BRANCH   1  20
HETATM   20  N2  UNL     1     167.983  28.409 182.726  1.00  0.00    -0.325 N 
HETATM   21  C4  UNL     1     166.842  28.422 181.835  1.00  0.00     0.130 C 
HETATM   22  C3  UNL     1     165.572  28.491 182.715  1.00  0.00     0.040 C 
HETATM   23  C2  UNL     1     165.465  27.186 183.472  1.00  0.00     0.128 C 
HETATM   24  N1  UNL     1     166.683  27.003 184.249  1.00  0.00    -0.338 N 
HETATM   25  C1  UNL     1     166.629  26.399 185.559  1.00  0.00     0.154 C 
HETATM   26  C21 UNL     1     167.938  27.409 183.739  1.00  0.00     0.320 C 
HETATM   27  O2  UNL     1     168.973  26.908 184.161  1.00  0.00    -0.247 OA
ENDBRANCH   1  20
TORSDOF 6
ENDMDL
