MODEL 1
REMARK VINA RESULT: -9.243180111      0.000      0.000
REMARK  7 active torsions:
REMARK  status: ('A' for Active; 'I' for Inactive)
REMARK    1  A    between atoms: C2_2  and  C3_3 
REMARK       I    between atoms: C3_3  and  N1_5 
REMARK    2  A    between atoms: C6_8  and  C7_9 
REMARK       I    between atoms: C7_9  and  N2_11 
REMARK    3  A    between atoms: N2_11  and  C8_13 
REMARK    4  A    between atoms: C13_18  and  N3_19 
REMARK    5  A    between atoms: N3_19  and  C14_20 
REMARK    6  A    between atoms: N3_19  and  C16_22 
REMARK    7  A    between atoms: C16_22  and  C19_25 
ROOT
HETATM    1  C8  UNL     1     170.994  30.252 180.471  1.00  0.00     0.130 C 
HETATM    2  C9  UNL     1     170.654  29.623 179.073  1.00  0.00     0.031 C 
HETATM    3  C10 UNL     1     171.993  29.311 178.435  1.00  0.00     0.003 C 
HETATM    4  C11 UNL     1     173.113  30.143 179.018  1.00  0.00     0.006 C 
HETATM    5  C12 UNL     1     172.578  31.577 179.164  1.00  0.00     0.054 C 
HETATM    6  C13 UNL     1     171.413  31.633 180.148  1.00  0.00     0.008 C 
ENDROOT
BRANCH   1   7
HETATM    7  N2  UNL     1     169.760  30.099 181.195  1.00  0.00    -0.351 N 
HETATM    8  C7  UNL     1     169.571  29.043 182.143  1.00  0.00     0.222 C 
HETATM    9  O2  UNL     1     170.547  28.246 182.307  1.00  0.00    -0.273 OA
ATOM     10  H2  UNL     1     169.001  30.759 181.028  1.00  0.00     0.163 HD
BRANCH   8  11
HETATM   11  C6  UNL     1     168.352  28.829 182.919  1.00  0.00     0.081 C 
HETATM   12  C5  UNL     1     168.443  27.458 183.584  1.00  0.00     0.034 C 
HETATM   13  C4  UNL     1     167.302  27.218 184.528  1.00  0.00     0.126 C 
HETATM   14  N1  UNL     1     166.232  28.204 184.359  1.00  0.00    -0.352 N 
HETATM   15  C3  UNL     1     165.543  28.625 185.521  1.00  0.00     0.219 C 
HETATM   16  C22 UNL     1     165.907  28.705 183.049  1.00  0.00     0.126 C 
HETATM   17  O1  UNL     1     165.883  28.132 186.646  1.00  0.00    -0.273 OA
HETATM   18  C21 UNL     1     167.074  28.869 182.126  1.00  0.00     0.034 C 
BRANCH  15  19
HETATM   19  C2  UNL     1     164.434  29.620 185.475  1.00  0.00     0.098 C 
HETATM   20  C1  UNL     1     165.018  31.007 185.718  1.00  0.00     0.014 C 
ENDBRANCH  15  19
ENDBRANCH   8  11
ENDBRANCH   1   7
BRANCH   6  21
HETATM   21  N3  UNL     1     171.391  32.661 181.066  1.00  0.00    -0.377 N 
BRANCH  21  22
HETATM   22  C14 UNL     1     171.902  32.281 182.345  1.00  0.00     0.119 C 
HETATM   23  C15 UNL     1     173.362  32.605 182.568  1.00  0.00     0.026 C 
ENDBRANCH  21  22
BRANCH  21  24
HETATM   24  C16 UNL     1     170.559  33.780 181.057  1.00  0.00     0.024 C 
HETATM   25  C17 UNL     1     171.225  35.139 181.176  1.00  0.00     0.038 C 
HETATM   26  C18 UNL     1     169.832  33.828 179.721  1.00  0.00     0.038 C 
BRANCH  24  27
HETATM   27  C19 UNL     1     169.468  33.747 182.106  1.00  0.00     0.026 C 
HETATM   28  C20 UNL     1     168.406  34.798 181.950  1.00  0.00     0.007 C 
ENDBRANCH  24  27
ENDBRANCH  21  24
ENDBRANCH   6  21
TORSDOF 7
ENDMDL
MODEL 2
REMARK VINA RESULT: -9.165092357      2.071      3.894
REMARK  7 active torsions:
REMARK  status: ('A' for Active; 'I' for Inactive)
REMARK    1  A    between atoms: C2_2  and  C3_3 
REMARK       I    between atoms: C3_3  and  N1_5 
REMARK    2  A    between atoms: C6_8  and  C7_9 
REMARK       I    between atoms: C7_9  and  N2_11 
REMARK    3  A    between atoms: N2_11  and  C8_13 
REMARK    4  A    between atoms: C13_18  and  N3_19 
REMARK    5  A    between atoms: N3_19  and  C14_20 
REMARK    6  A    between atoms: N3_19  and  C16_22 
REMARK    7  A    between atoms: C16_22  and  C19_25 
ROOT
HETATM    1  C8  UNL     1     170.708  31.092 181.629  1.00  0.00     0.130 C 
HETATM    2  C9  UNL     1     171.823  30.844 182.706  1.00  0.00     0.031 C 
HETATM    3  C10 UNL     1     172.668  32.102 182.711  1.00  0.00     0.003 C 
HETATM    4  C11 UNL     1     172.548  32.876 181.418  1.00  0.00     0.006 C 
HETATM    5  C12 UNL     1     172.594  31.849 180.274  1.00  0.00     0.054 C 
HETATM    6  C13 UNL     1     171.407  30.895 180.342  1.00  0.00     0.008 C 
ENDROOT
BRANCH   1   7
HETATM    7  N2  UNL     1     169.706  30.121 181.982  1.00  0.00    -0.351 N 
HETATM    8  C7  UNL     1     168.808  30.331 183.077  1.00  0.00     0.222 C 
HETATM    9  O2  UNL     1     168.946  31.416 183.725  1.00  0.00    -0.273 OA
ATOM     10  H2  UNL     1     169.634  29.262 181.438  1.00  0.00     0.163 HD
BRANCH   8  11
HETATM   11  C6  UNL     1     167.764  29.397 183.490  1.00  0.00     0.081 C 
HETATM   12  C5  UNL     1     167.536  28.402 182.354  1.00  0.00     0.034 C 
HETATM   13  C4  UNL     1     166.589  27.309 182.751  1.00  0.00     0.126 C 
HETATM   14  N1  UNL     1     165.884  27.618 183.998  1.00  0.00    -0.352 N 
HETATM   15  C3  UNL     1     165.612  26.542 184.876  1.00  0.00     0.219 C 
HETATM   16  C22 UNL     1     165.487  28.970 184.290  1.00  0.00     0.126 C 
HETATM   17  O1  UNL     1     165.989  25.371 184.545  1.00  0.00    -0.273 OA
HETATM   18  C21 UNL     1     166.438  30.025 183.820  1.00  0.00     0.034 C 
BRANCH  15  19
HETATM   19  C2  UNL     1     164.898  26.732 186.172  1.00  0.00     0.098 C 
HETATM   20  C1  UNL     1     163.416  26.450 185.953  1.00  0.00     0.014 C 
ENDBRANCH  15  19
ENDBRANCH   8  11
ENDBRANCH   1   7
BRANCH   6  21
HETATM   21  N3  UNL     1     170.749  30.595 179.167  1.00  0.00    -0.377 N 
BRANCH  21  22
HETATM   22  C14 UNL     1     169.817  31.602 178.774  1.00  0.00     0.119 C 
HETATM   23  C15 UNL     1     170.403  32.728 177.953  1.00  0.00     0.026 C 
ENDBRANCH  21  22
BRANCH  21  24
HETATM   24  C16 UNL     1     170.538  29.329 178.620  1.00  0.00     0.024 C 
HETATM   25  C17 UNL     1     170.891  29.139 177.156  1.00  0.00     0.038 C 
HETATM   26  C18 UNL     1     171.422  28.333 179.357  1.00  0.00     0.038 C 
BRANCH  24  27
HETATM   27  C19 UNL     1     169.125  28.812 178.788  1.00  0.00     0.026 C 
HETATM   28  C20 UNL     1     168.594  28.026 177.624  1.00  0.00     0.007 C 
ENDBRANCH  24  27
ENDBRANCH  21  24
ENDBRANCH   6  21
TORSDOF 7
ENDMDL
MODEL 3
REMARK VINA RESULT: -9.158398038      0.351      1.006
REMARK  7 active torsions:
REMARK  status: ('A' for Active; 'I' for Inactive)
REMARK    1  A    between atoms: C2_2  and  C3_3 
REMARK       I    between atoms: C3_3  and  N1_5 
REMARK    2  A    between atoms: C6_8  and  C7_9 
REMARK       I    between atoms: C7_9  and  N2_11 
REMARK    3  A    between atoms: N2_11  and  C8_13 
REMARK    4  A    between atoms: C13_18  and  N3_19 
REMARK    5  A    between atoms: N3_19  and  C14_20 
REMARK    6  A    between atoms: N3_19  and  C16_22 
REMARK    7  A    between atoms: C16_22  and  C19_25 
ROOT
HETATM    1  C8  UNL     1     170.928  30.188 180.535  1.00  0.00     0.130 C 
HETATM    2  C9  UNL     1     170.571  29.606 179.121  1.00  0.00     0.031 C 
HETATM    3  C10 UNL     1     171.902  29.287 178.469  1.00  0.00     0.003 C 
HETATM    4  C11 UNL     1     173.039  30.079 179.071  1.00  0.00     0.006 C 
HETATM    5  C12 UNL     1     172.533  31.518 179.261  1.00  0.00     0.054 C 
HETATM    6  C13 UNL     1     171.373  31.568 180.250  1.00  0.00     0.008 C 
ENDROOT
BRANCH   1   7
HETATM    7  N2  UNL     1     169.694  30.038 181.259  1.00  0.00    -0.351 N 
HETATM    8  C7  UNL     1     169.495  28.973 182.196  1.00  0.00     0.222 C 
HETATM    9  O2  UNL     1     170.464  28.166 182.350  1.00  0.00    -0.273 OA
ATOM     10  H2  UNL     1     168.941  30.707 181.100  1.00  0.00     0.163 HD
BRANCH   8  11
HETATM   11  C6  UNL     1     168.276  28.762 182.971  1.00  0.00     0.081 C 
HETATM   12  C5  UNL     1     168.362  27.388 183.632  1.00  0.00     0.034 C 
HETATM   13  C4  UNL     1     167.220  27.150 184.575  1.00  0.00     0.126 C 
HETATM   14  N1  UNL     1     166.153  28.142 184.409  1.00  0.00    -0.352 N 
HETATM   15  C3  UNL     1     165.466  28.561 185.573  1.00  0.00     0.219 C 
HETATM   16  C22 UNL     1     165.831  28.647 183.100  1.00  0.00     0.126 C 
HETATM   17  O1  UNL     1     165.804  28.063 186.696  1.00  0.00    -0.273 OA
HETATM   18  C21 UNL     1     166.999  28.809 182.178  1.00  0.00     0.034 C 
BRANCH  15  19
HETATM   19  C2  UNL     1     164.361  29.561 185.529  1.00  0.00     0.098 C 
HETATM   20  C1  UNL     1     164.956  30.949 185.743  1.00  0.00     0.014 C 
ENDBRANCH  15  19
ENDBRANCH   8  11
ENDBRANCH   1   7
BRANCH   6  21
HETATM   21  N3  UNL     1     171.374  32.570 181.198  1.00  0.00    -0.377 N 
BRANCH  21  22
HETATM   22  C14 UNL     1     171.962  32.169 182.436  1.00  0.00     0.119 C 
HETATM   23  C15 UNL     1     173.418  32.543 182.600  1.00  0.00     0.026 C 
ENDBRANCH  21  22
BRANCH  21  24
HETATM   24  C16 UNL     1     170.515  33.666 181.265  1.00  0.00     0.024 C 
HETATM   25  C17 UNL     1     169.505  33.687 182.398  1.00  0.00     0.038 C 
HETATM   26  C18 UNL     1     171.350  34.920 181.477  1.00  0.00     0.038 C 
BRANCH  24  27
HETATM   27  C19 UNL     1     169.732  33.916 179.993  1.00  0.00     0.026 C 
HETATM   28  C20 UNL     1     169.951  35.264 179.367  1.00  0.00     0.007 C 
ENDBRANCH  24  27
ENDBRANCH  21  24
ENDBRANCH   6  21
TORSDOF 7
ENDMDL
MODEL 4
REMARK VINA RESULT: -9.027392997      0.928      1.324
REMARK  7 active torsions:
REMARK  status: ('A' for Active; 'I' for Inactive)
REMARK    1  A    between atoms: C2_2  and  C3_3 
REMARK       I    between atoms: C3_3  and  N1_5 
REMARK    2  A    between atoms: C6_8  and  C7_9 
REMARK       I    between atoms: C7_9  and  N2_11 
REMARK    3  A    between atoms: N2_11  and  C8_13 
REMARK    4  A    between atoms: C13_18  and  N3_19 
REMARK    5  A    between atoms: N3_19  and  C14_20 
REMARK    6  A    between atoms: N3_19  and  C16_22 
REMARK    7  A    between atoms: C16_22  and  C19_25 
ROOT
HETATM    1  C8  UNL     1     170.978  30.301 180.539  1.00  0.00     0.130 C 
HETATM    2  C9  UNL     1     170.619  29.635 179.162  1.00  0.00     0.031 C 
HETATM    3  C10 UNL     1     171.949  29.283 178.525  1.00  0.00     0.003 C 
HETATM    4  C11 UNL     1     173.085  30.115 179.076  1.00  0.00     0.006 C 
HETATM    5  C12 UNL     1     172.572  31.561 179.182  1.00  0.00     0.054 C 
HETATM    6  C13 UNL     1     171.416  31.664 180.171  1.00  0.00     0.008 C 
ENDROOT
BRANCH   1   7
HETATM    7  N2  UNL     1     169.746  30.189 181.274  1.00  0.00    -0.351 N 
HETATM    8  C7  UNL     1     169.643  29.376 182.448  1.00  0.00     0.222 C 
HETATM    9  O2  UNL     1     170.693  28.754 182.802  1.00  0.00    -0.273 OA
ATOM     10  H2  UNL     1     168.926  30.702 180.951  1.00  0.00     0.163 HD
BRANCH   8  11
HETATM   11  C6  UNL     1     168.431  29.219 183.249  1.00  0.00     0.081 C 
HETATM   12  C5  UNL     1     167.314  28.727 182.334  1.00  0.00     0.034 C 
HETATM   13  C4  UNL     1     166.071  28.388 183.103  1.00  0.00     0.126 C 
HETATM   14  N1  UNL     1     166.121  28.891 184.478  1.00  0.00    -0.352 N 
HETATM   15  C3  UNL     1     165.527  28.093 185.486  1.00  0.00     0.219 C 
HETATM   16  C22 UNL     1     166.749  30.153 184.766  1.00  0.00     0.126 C 
HETATM   17  O1  UNL     1     164.984  26.990 185.152  1.00  0.00    -0.273 OA
HETATM   18  C21 UNL     1     167.949  30.470 183.930  1.00  0.00     0.034 C 
BRANCH  15  19
HETATM   19  C2  UNL     1     165.513  28.501 186.920  1.00  0.00     0.098 C 
HETATM   20  C1  UNL     1     164.419  27.717 187.635  1.00  0.00     0.014 C 
ENDBRANCH  15  19
ENDBRANCH   8  11
ENDBRANCH   1   7
BRANCH   6  21
HETATM   21  N3  UNL     1     171.415  32.720 181.058  1.00  0.00    -0.377 N 
BRANCH  21  22
HETATM   22  C14 UNL     1     171.937  32.374 182.342  1.00  0.00     0.119 C 
HETATM   23  C15 UNL     1     173.400  32.699 182.543  1.00  0.00     0.026 C 
ENDBRANCH  21  22
BRANCH  21  24
HETATM   24  C16 UNL     1     170.595  33.847 181.024  1.00  0.00     0.024 C 
HETATM   25  C17 UNL     1     171.275  35.201 181.129  1.00  0.00     0.038 C 
HETATM   26  C18 UNL     1     169.882  33.884 179.680  1.00  0.00     0.038 C 
BRANCH  24  27
HETATM   27  C19 UNL     1     169.494  33.842 182.063  1.00  0.00     0.026 C 
HETATM   28  C20 UNL     1     168.428  34.881 181.863  1.00  0.00     0.007 C 
ENDBRANCH  24  27
ENDBRANCH  21  24
ENDBRANCH   6  21
TORSDOF 7
ENDMDL
MODEL 5
REMARK VINA RESULT: -8.855624908      1.497      2.547
REMARK  7 active torsions:
REMARK  status: ('A' for Active; 'I' for Inactive)
REMARK    1  A    between atoms: C2_2  and  C3_3 
REMARK       I    between atoms: C3_3  and  N1_5 
REMARK    2  A    between atoms: C6_8  and  C7_9 
REMARK       I    between atoms: C7_9  and  N2_11 
REMARK    3  A    between atoms: N2_11  and  C8_13 
REMARK    4  A    between atoms: C13_18  and  N3_19 
REMARK    5  A    between atoms: N3_19  and  C14_20 
REMARK    6  A    between atoms: N3_19  and  C16_22 
REMARK    7  A    between atoms: C16_22  and  C19_25 
ROOT
HETATM    1  C8  UNL     1     170.393  30.484 179.525  1.00  0.00     0.130 C 
HETATM    2  C9  UNL     1     169.702  30.115 178.164  1.00  0.00     0.031 C 
HETATM    3  C10 UNL     1     170.828  30.020 177.153  1.00  0.00     0.003 C 
HETATM    4  C11 UNL     1     172.051  30.795 177.585  1.00  0.00     0.006 C 
HETATM    5  C12 UNL     1     171.557  32.136 178.152  1.00  0.00     0.054 C 
HETATM    6  C13 UNL     1     170.694  31.925 179.392  1.00  0.00     0.008 C 
ENDROOT
BRANCH   1   7
HETATM    7  N2  UNL     1     169.398  30.114 180.496  1.00  0.00    -0.351 N 
HETATM    8  C7  UNL     1     169.592  29.013 181.390  1.00  0.00     0.222 C 
HETATM    9  O2  UNL     1     170.686  28.377 181.278  1.00  0.00    -0.273 OA
ATOM     10  H2  UNL     1     168.531  30.649 180.547  1.00  0.00     0.163 HD
BRANCH   8  11
HETATM   11  C6  UNL     1     168.632  28.583 182.404  1.00  0.00     0.081 C 
HETATM   12  C5  UNL     1     168.239  29.800 183.237  1.00  0.00     0.034 C 
HETATM   13  C4  UNL     1     167.137  29.482 184.203  1.00  0.00     0.126 C 
HETATM   14  N1  UNL     1     166.917  28.039 184.333  1.00  0.00    -0.352 N 
HETATM   15  C3  UNL     1     165.585  27.596 184.512  1.00  0.00     0.219 C 
HETATM   16  C22 UNL     1     168.030  27.129 184.283  1.00  0.00     0.126 C 
HETATM   17  O1  UNL     1     164.652  28.463 184.552  1.00  0.00    -0.273 OA
HETATM   18  C21 UNL     1     169.130  27.523 183.347  1.00  0.00     0.034 C 
BRANCH  15  19
HETATM   19  C2  UNL     1     165.237  26.154 184.659  1.00  0.00     0.098 C 
HETATM   20  C1  UNL     1     163.722  26.009 184.565  1.00  0.00     0.014 C 
ENDBRANCH  15  19
ENDBRANCH   8  11
ENDBRANCH   1   7
BRANCH   6  21
HETATM   21  N3  UNL     1     170.904  32.753 180.475  1.00  0.00    -0.377 N 
BRANCH  21  22
HETATM   22  C14 UNL     1     170.570  34.117 180.210  1.00  0.00     0.119 C 
HETATM   23  C15 UNL     1     169.091  34.427 180.233  1.00  0.00     0.026 C 
ENDBRANCH  21  22
BRANCH  21  24
HETATM   24  C16 UNL     1     171.779  32.541 181.540  1.00  0.00     0.024 C 
HETATM   25  C17 UNL     1     173.001  31.682 181.272  1.00  0.00     0.038 C 
HETATM   26  C18 UNL     1     172.347  33.886 181.971  1.00  0.00     0.038 C 
BRANCH  24  27
HETATM   27  C19 UNL     1     171.119  31.969 182.776  1.00  0.00     0.026 C 
HETATM   28  C20 UNL     1     169.858  32.666 183.203  1.00  0.00     0.007 C 
ENDBRANCH  24  27
ENDBRANCH  21  24
ENDBRANCH   6  21
TORSDOF 7
ENDMDL
