MODEL 1
REMARK VINA RESULT: -8.658568046      0.000      0.000
REMARK  8 active torsions:
REMARK  status: ('A' for Active; 'I' for Inactive)
REMARK    1  A    between atoms: C2_2  and  C3_3 
REMARK    2  A    between atoms: C3_3  and  N1_4 
REMARK    3  A    between atoms: C5_6  and  C6_7 
REMARK       I    between atoms: C6_7  and  N2_9 
REMARK    4  A    between atoms: N2_9  and  C7_11 
REMARK    5  A    between atoms: C7_11  and  C8_12 
REMARK    6  A    between atoms: C7_11  and  C11_15 
REMARK    7  A    between atoms: N3_18  and  C14_19 
REMARK    8  A    between atoms: C14_19  and  C16_21 
ROOT
HETATM    1  N1  UNL     1     170.561  34.511 180.993  1.00  0.00    -0.218 NA
HETATM    2  C4  UNL     1     169.954  33.863 179.818  1.00  0.00     0.136 C 
HETATM    3  C5  UNL     1     170.560  32.460 179.960  1.00  0.00     0.179 C 
HETATM    4  N3  UNL     1     169.961  31.910 181.154  1.00  0.00    -0.200 NA
HETATM    5  S1  UNL     1     169.985  33.340 182.206  1.00  0.00     0.174 S 
HETATM    6  O2  UNL     1     168.498  33.719 182.393  1.00  0.00    -0.224 OA
ENDROOT
BRANCH   3   7
HETATM    7  C6  UNL     1     170.309  31.649 178.757  1.00  0.00     0.238 C 
HETATM    8  O1  UNL     1     169.134  31.508 178.371  1.00  0.00    -0.272 OA
HETATM    9  N2  UNL     1     171.332  31.023 178.019  1.00  0.00    -0.354 N 
ATOM     10  H2  UNL     1     172.290  31.146 178.346  1.00  0.00     0.162 HD
BRANCH   9  11
HETATM   11  C7  UNL     1     171.132  30.225 176.844  1.00  0.00     0.091 C 
BRANCH  11  12
HETATM   12  C8  UNL     1     170.817  28.800 177.103  1.00  0.00     0.001 C 
HETATM   13  C9  UNL     1     171.199  28.468 178.538  1.00  0.00     0.011 C 
HETATM   14  C10 UNL     1     169.393  28.401 176.921  1.00  0.00     0.011 C 
ENDBRANCH  11  12
BRANCH  11  15
HETATM   15  C11 UNL     1     172.280  30.438 175.898  1.00  0.00     0.001 C 
HETATM   16  C12 UNL     1     172.192  31.873 175.360  1.00  0.00     0.011 C 
HETATM   17  C13 UNL     1     173.629  30.293 176.524  1.00  0.00     0.011 C 
ENDBRANCH  11  15
ENDBRANCH   9  11
ENDBRANCH   3   7
BRANCH   4  18
HETATM   18  C14 UNL     1     170.739  30.851 181.724  1.00  0.00     0.077 C 
HETATM   19  C15 UNL     1     171.780  31.343 182.698  1.00  0.00     0.028 C 
BRANCH  18  20
HETATM   20  C16 UNL     1     169.904  29.745 182.270  1.00  0.00    -0.035 C 
HETATM   21  C17 UNL     1     170.879  28.679 182.797  1.00  0.00     0.016 C 
HETATM   22  C18 UNL     1     169.013  30.143 183.428  1.00  0.00     0.016 C 
HETATM   23  C19 UNL     1     169.062  29.105 181.214  1.00  0.00     0.016 C 
ENDBRANCH  18  20
ENDBRANCH   4  18
BRANCH   1  24
HETATM   24  C3  UNL     1     169.950  35.794 181.254  1.00  0.00     0.106 C 
BRANCH  24  25
HETATM   25  C2  UNL     1     168.884  36.010 180.202  1.00  0.00     0.011 C 
HETATM   26  C1  UNL     1     169.113  37.317 179.478  1.00  0.00     0.006 C 
ENDBRANCH  24  25
ENDBRANCH   1  24
TORSDOF 8
ENDMDL
MODEL 2
REMARK VINA RESULT: -8.568983651      2.892      6.847
REMARK  8 active torsions:
REMARK  status: ('A' for Active; 'I' for Inactive)
REMARK    1  A    between atoms: C2_2  and  C3_3 
REMARK    2  A    between atoms: C3_3  and  N1_4 
REMARK    3  A    between atoms: C5_6  and  C6_7 
REMARK       I    between atoms: C6_7  and  N2_9 
REMARK    4  A    between atoms: N2_9  and  C7_11 
REMARK    5  A    between atoms: C7_11  and  C8_12 
REMARK    6  A    between atoms: C7_11  and  C11_15 
REMARK    7  A    between atoms: N3_18  and  C14_19 
REMARK    8  A    between atoms: C14_19  and  C16_21 
ROOT
HETATM    1  N1  UNL     1     169.503  28.946 178.964  1.00  0.00    -0.218 NA
HETATM    2  C4  UNL     1     168.640  29.023 180.155  1.00  0.00     0.136 C 
HETATM    3  C5  UNL     1     169.696  29.372 181.213  1.00  0.00     0.179 C 
HETATM    4  N3  UNL     1     170.140  30.704 180.875  1.00  0.00    -0.200 NA
HETATM    5  S1  UNL     1     170.210  30.575 179.106  1.00  0.00     0.174 S 
HETATM    6  O2  UNL     1     169.083  31.501 178.595  1.00  0.00    -0.224 OA
ENDROOT
BRANCH   3   7
HETATM    7  C6  UNL     1     169.140  29.272 182.571  1.00  0.00     0.238 C 
HETATM    8  O1  UNL     1     169.723  28.549 183.400  1.00  0.00    -0.272 OA
HETATM    9  N2  UNL     1     167.978  29.952 182.983  1.00  0.00    -0.354 N 
ATOM     10  H2  UNL     1     167.509  30.541 182.295  1.00  0.00     0.162 HD
BRANCH   9  11
HETATM   11  C7  UNL     1     167.402  29.883 184.295  1.00  0.00     0.091 C 
BRANCH  11  12
HETATM   12  C8  UNL     1     166.223  28.992 184.412  1.00  0.00     0.001 C 
HETATM   13  C9  UNL     1     165.761  28.605 183.015  1.00  0.00     0.011 C 
HETATM   14  C10 UNL     1     166.431  27.729 185.175  1.00  0.00     0.011 C 
ENDBRANCH  11  12
BRANCH  11  15
HETATM   15  C11 UNL     1     167.173  31.275 184.811  1.00  0.00     0.001 C 
HETATM   16  C12 UNL     1     166.219  31.990 183.844  1.00  0.00     0.011 C 
HETATM   17  C13 UNL     1     166.542  31.335 186.164  1.00  0.00     0.011 C 
ENDBRANCH  11  15
ENDBRANCH   9  11
ENDBRANCH   3   7
BRANCH   4  18
HETATM   18  C14 UNL     1     171.433  31.007 181.409  1.00  0.00     0.077 C 
HETATM   19  C15 UNL     1     172.552  30.742 180.433  1.00  0.00     0.028 C 
BRANCH  18  20
HETATM   20  C16 UNL     1     171.505  32.360 182.028  1.00  0.00    -0.035 C 
HETATM   21  C17 UNL     1     172.906  32.485 182.650  1.00  0.00     0.016 C 
HETATM   22  C18 UNL     1     171.351  33.507 181.050  1.00  0.00     0.016 C 
HETATM   23  C19 UNL     1     170.506  32.529 183.126  1.00  0.00     0.016 C 
ENDBRANCH  18  20
ENDBRANCH   4  18
BRANCH   1  24
HETATM   24  C3  UNL     1     168.716  28.880 177.753  1.00  0.00     0.106 C 
BRANCH  24  25
HETATM   25  C2  UNL     1     169.212  27.692 176.957  1.00  0.00     0.011 C 
HETATM   26  C1  UNL     1     168.118  26.659 176.812  1.00  0.00     0.006 C 
ENDBRANCH  24  25
ENDBRANCH   1  24
TORSDOF 8
ENDMDL
MODEL 3
REMARK VINA RESULT: -8.481546037      2.804      6.599
REMARK  8 active torsions:
REMARK  status: ('A' for Active; 'I' for Inactive)
REMARK    1  A    between atoms: C2_2  and  C3_3 
REMARK    2  A    between atoms: C3_3  and  N1_4 
REMARK    3  A    between atoms: C5_6  and  C6_7 
REMARK       I    between atoms: C6_7  and  N2_9 
REMARK    4  A    between atoms: N2_9  and  C7_11 
REMARK    5  A    between atoms: C7_11  and  C8_12 
REMARK    6  A    between atoms: C7_11  and  C11_15 
REMARK    7  A    between atoms: N3_18  and  C14_19 
REMARK    8  A    between atoms: C14_19  and  C16_21 
ROOT
HETATM    1  N1  UNL     1     170.209  28.845 178.540  1.00  0.00    -0.218 NA
HETATM    2  C4  UNL     1     169.353  28.634 179.719  1.00  0.00     0.136 C 
HETATM    3  C5  UNL     1     170.335  29.048 180.824  1.00  0.00     0.179 C 
HETATM    4  N3  UNL     1     170.531  30.468 180.640  1.00  0.00    -0.200 NA
HETATM    5  S1  UNL     1     170.613  30.548 178.869  1.00  0.00     0.174 S 
HETATM    6  O2  UNL     1     169.335  31.308 178.447  1.00  0.00    -0.224 OA
ENDROOT
BRANCH   3   7
HETATM    7  C6  UNL     1     169.814  28.701 182.155  1.00  0.00     0.238 C 
HETATM    8  O1  UNL     1     170.626  28.463 183.068  1.00  0.00    -0.272 OA
HETATM    9  N2  UNL     1     168.439  28.622 182.451  1.00  0.00    -0.354 N 
ATOM     10  H2  UNL     1     167.784  28.818 181.694  1.00  0.00     0.162 HD
BRANCH   9  11
HETATM   11  C7  UNL     1     167.888  28.287 183.732  1.00  0.00     0.091 C 
BRANCH  11  12
HETATM   12  C8  UNL     1     167.481  26.870 183.886  1.00  0.00     0.001 C 
HETATM   13  C9  UNL     1     167.001  26.651 185.313  1.00  0.00     0.011 C 
HETATM   14  C10 UNL     1     166.399  26.397 182.978  1.00  0.00     0.011 C 
ENDBRANCH  11  12
BRANCH  11  15
HETATM   15  C11 UNL     1     166.812  29.276 184.084  1.00  0.00     0.001 C 
HETATM   16  C12 UNL     1     167.492  30.575 184.539  1.00  0.00     0.011 C 
HETATM   17  C13 UNL     1     165.910  29.635 182.948  1.00  0.00     0.011 C 
ENDBRANCH  11  15
ENDBRANCH   9  11
ENDBRANCH   3   7
BRANCH   4  18
HETATM   18  C14 UNL     1     171.752  30.936 181.224  1.00  0.00     0.077 C 
HETATM   19  C15 UNL     1     172.897  30.975 180.243  1.00  0.00     0.028 C 
BRANCH  18  20
HETATM   20  C16 UNL     1     171.585  32.209 181.978  1.00  0.00    -0.035 C 
HETATM   21  C17 UNL     1     172.931  32.491 182.668  1.00  0.00     0.016 C 
HETATM   22  C18 UNL     1     171.268  33.414 181.117  1.00  0.00     0.016 C 
HETATM   23  C19 UNL     1     170.545  32.096 183.046  1.00  0.00     0.016 C 
ENDBRANCH  18  20
ENDBRANCH   4  18
BRANCH   1  24
HETATM   24  C3  UNL     1     169.440  28.773 177.318  1.00  0.00     0.106 C 
BRANCH  24  25
HETATM   25  C2  UNL     1     168.234  27.901 177.594  1.00  0.00     0.011 C 
HETATM   26  C1  UNL     1     168.270  26.661 176.730  1.00  0.00     0.006 C 
ENDBRANCH  24  25
ENDBRANCH   1  24
TORSDOF 8
ENDMDL
MODEL 4
REMARK VINA RESULT: -8.222276455      2.120      6.121
REMARK  8 active torsions:
REMARK  status: ('A' for Active; 'I' for Inactive)
REMARK    1  A    between atoms: C2_2  and  C3_3 
REMARK    2  A    between atoms: C3_3  and  N1_4 
REMARK    3  A    between atoms: C5_6  and  C6_7 
REMARK       I    between atoms: C6_7  and  N2_9 
REMARK    4  A    between atoms: N2_9  and  C7_11 
REMARK    5  A    between atoms: C7_11  and  C8_12 
REMARK    6  A    between atoms: C7_11  and  C11_15 
REMARK    7  A    between atoms: N3_18  and  C14_19 
REMARK    8  A    between atoms: C14_19  and  C16_21 
ROOT
HETATM    1  N1  UNL     1     171.924  30.504 178.048  1.00  0.00    -0.218 NA
HETATM    2  C4  UNL     1     170.596  29.966 178.385  1.00  0.00     0.136 C 
HETATM    3  C5  UNL     1     170.491  30.441 179.841  1.00  0.00     0.179 C 
HETATM    4  N3  UNL     1     170.403  31.881 179.762  1.00  0.00    -0.200 NA
HETATM    5  S1  UNL     1     171.586  32.199 178.477  1.00  0.00     0.174 S 
HETATM    6  O2  UNL     1     170.748  32.711 177.284  1.00  0.00    -0.224 OA
ENDROOT
BRANCH   3   7
HETATM    7  C6  UNL     1     169.339  29.825 180.518  1.00  0.00     0.238 C 
HETATM    8  O1  UNL     1     168.447  29.309 179.821  1.00  0.00    -0.272 OA
HETATM    9  N2  UNL     1     169.193  29.789 181.919  1.00  0.00    -0.354 N 
ATOM     10  H2  UNL     1     169.932  30.215 182.479  1.00  0.00     0.162 HD
BRANCH   9  11
HETATM   11  C7  UNL     1     168.089  29.200 182.619  1.00  0.00     0.091 C 
BRANCH  11  12
HETATM   12  C8  UNL     1     167.589  29.987 183.771  1.00  0.00     0.001 C 
HETATM   13  C9  UNL     1     168.484  31.204 183.957  1.00  0.00     0.011 C 
HETATM   14  C10 UNL     1     166.188  30.482 183.667  1.00  0.00     0.011 C 
ENDBRANCH  11  12
BRANCH  11  15
HETATM   15  C11 UNL     1     168.414  27.770 182.947  1.00  0.00     0.001 C 
HETATM   16  C12 UNL     1     169.896  27.697 183.337  1.00  0.00     0.011 C 
HETATM   17  C13 UNL     1     167.637  27.209 184.093  1.00  0.00     0.011 C 
ENDBRANCH  11  15
ENDBRANCH   9  11
ENDBRANCH   3   7
BRANCH   4  18
HETATM   18  C14 UNL     1     170.793  32.526 180.979  1.00  0.00     0.077 C 
HETATM   19  C15 UNL     1     172.286  32.518 181.197  1.00  0.00     0.028 C 
BRANCH  18  20
HETATM   20  C16 UNL     1     170.185  33.875 181.144  1.00  0.00    -0.035 C 
HETATM   21  C17 UNL     1     171.348  34.859 181.353  1.00  0.00     0.016 C 
HETATM   22  C18 UNL     1     169.402  34.363 179.943  1.00  0.00     0.016 C 
HETATM   23  C19 UNL     1     169.306  33.950 182.351  1.00  0.00     0.016 C 
ENDBRANCH  18  20
ENDBRANCH   4  18
BRANCH   1  24
HETATM   24  C3  UNL     1     172.176  30.421 176.627  1.00  0.00     0.106 C 
BRANCH  24  25
HETATM   25  C2  UNL     1     173.673  30.293 176.440  1.00  0.00     0.011 C 
HETATM   26  C1  UNL     1     174.303  29.650 177.655  1.00  0.00     0.006 C 
ENDBRANCH  24  25
ENDBRANCH   1  24
TORSDOF 8
ENDMDL
MODEL 5
REMARK VINA RESULT: -8.115469051      2.229      6.046
REMARK  8 active torsions:
REMARK  status: ('A' for Active; 'I' for Inactive)
REMARK    1  A    between atoms: C2_2  and  C3_3 
REMARK    2  A    between atoms: C3_3  and  N1_4 
REMARK    3  A    between atoms: C5_6  and  C6_7 
REMARK       I    between atoms: C6_7  and  N2_9 
REMARK    4  A    between atoms: N2_9  and  C7_11 
REMARK    5  A    between atoms: C7_11  and  C8_12 
REMARK    6  A    between atoms: C7_11  and  C11_15 
REMARK    7  A    between atoms: N3_18  and  C14_19 
REMARK    8  A    between atoms: C14_19  and  C16_21 
ROOT
HETATM    1  N1  UNL     1     171.697  30.285 177.623  1.00  0.00    -0.218 NA
HETATM    2  C4  UNL     1     170.344  29.908 178.062  1.00  0.00     0.136 C 
HETATM    3  C5  UNL     1     170.493  30.135 179.573  1.00  0.00     0.179 C 
HETATM    4  N3  UNL     1     170.649  31.564 179.724  1.00  0.00    -0.200 NA
HETATM    5  S1  UNL     1     171.712  31.913 178.346  1.00  0.00     0.174 S 
HETATM    6  O2  UNL     1     170.844  32.745 177.376  1.00  0.00    -0.224 OA
ENDROOT
BRANCH   3   7
HETATM    7  C6  UNL     1     169.339  29.596 180.308  1.00  0.00     0.238 C 
HETATM    8  O1  UNL     1     168.364  29.176 179.657  1.00  0.00    -0.272 OA
HETATM    9  N2  UNL     1     169.278  29.530 181.713  1.00  0.00    -0.354 N 
ATOM     10  H2  UNL     1     170.083  29.878 182.235  1.00  0.00     0.162 HD
BRANCH   9  11
HETATM   11  C7  UNL     1     168.174  29.014 182.469  1.00  0.00     0.091 C 
BRANCH  11  12
HETATM   12  C8  UNL     1     167.206  30.034 182.937  1.00  0.00     0.001 C 
HETATM   13  C9  UNL     1     165.803  29.450 182.855  1.00  0.00     0.011 C 
HETATM   14  C10 UNL     1     167.398  30.528 184.329  1.00  0.00     0.011 C 
ENDBRANCH  11  12
BRANCH  11  15
HETATM   15  C11 UNL     1     168.693  28.115 183.556  1.00  0.00     0.001 C 
HETATM   16  C12 UNL     1     167.805  26.865 183.604  1.00  0.00     0.011 C 
HETATM   17  C13 UNL     1     170.095  27.643 183.347  1.00  0.00     0.011 C 
ENDBRANCH  11  15
ENDBRANCH   9  11
ENDBRANCH   3   7
BRANCH   4  18
HETATM   18  C14 UNL     1     171.286  31.922 180.956  1.00  0.00     0.077 C 
HETATM   19  C15 UNL     1     172.791  31.870 180.878  1.00  0.00     0.028 C 
BRANCH  18  20
HETATM   20  C16 UNL     1     170.773  33.198 181.526  1.00  0.00    -0.035 C 
HETATM   21  C17 UNL     1     172.005  34.044 181.890  1.00  0.00     0.016 C 
HETATM   22  C18 UNL     1     169.936  34.023 180.569  1.00  0.00     0.016 C 
HETATM   23  C19 UNL     1     169.990  32.978 182.780  1.00  0.00     0.016 C 
ENDBRANCH  18  20
ENDBRANCH   4  18
BRANCH   1  24
HETATM   24  C3  UNL     1     171.763  30.410 176.185  1.00  0.00     0.106 C 
BRANCH  24  25
HETATM   25  C2  UNL     1     173.222  30.562 175.811  1.00  0.00     0.011 C 
HETATM   26  C1  UNL     1     174.072  29.591 176.598  1.00  0.00     0.006 C 
ENDBRANCH  24  25
ENDBRANCH   1  24
TORSDOF 8
ENDMDL
