MODEL 1
REMARK VINA RESULT: -9.249352275      0.000      0.000
REMARK  8 active torsions:
REMARK  status: ('A' for Active; 'I' for Inactive)
REMARK       I    between atoms: C2_2  and  N1_4 
REMARK    1  A    between atoms: N1_4  and  C3_6 
REMARK    2  A    between atoms: C3_6  and  C4_7 
REMARK    3  A    between atoms: C4_7  and  C5_8 
REMARK    4  A    between atoms: C5_8  and  C6_9 
REMARK    5  A    between atoms: C6_9  and  C7_10 
REMARK    6  A    between atoms: C7_10  and  O3_12 
REMARK    7  A    between atoms: O3_12  and  C8_13 
REMARK    8  A    between atoms: N2_19  and  C15_21 
ROOT
HETATM    1  C6  UNL     1     170.809  31.551 179.391  1.00  0.00     0.218 C 
HETATM    2  C12 UNL     1     169.509  31.409 178.672  1.00  0.00     0.078 C 
HETATM    3  C13 UNL     1     169.968  29.948 178.578  1.00  0.00     0.242 C 
HETATM    4  N2  UNL     1     170.827  30.194 179.758  1.00  0.00    -0.043 N 
HETATM    5  C14 UNL     1     172.114  29.574 179.496  1.00  0.00     0.275 C 
ENDROOT
BRANCH   1   6
HETATM    6  C5  UNL     1     171.883  31.816 178.299  1.00  0.00     0.052 C 
BRANCH   6   7
HETATM    7  C4  UNL     1     171.351  32.575 177.135  1.00  0.00     0.023 C 
BRANCH   7   8
HETATM    8  C3  UNL     1     171.847  31.904 175.835  1.00  0.00     0.122 C 
BRANCH   8   9
HETATM    9  N1  UNL     1     173.081  31.221 176.052  1.00  0.00    -0.361 N 
HETATM   10  C2  UNL     1     173.153  29.810 176.042  1.00  0.00     0.213 C 
HETATM   11  C1  UNL     1     174.420  29.067 176.264  1.00  0.00     0.117 C 
HETATM   12  O1  UNL     1     172.115  29.135 175.839  1.00  0.00    -0.274 OA
ATOM     13  H1  UNL     1     173.928  31.763 176.218  1.00  0.00     0.162 HD
ENDBRANCH   8   9
ENDBRANCH   7   8
ENDBRANCH   6   7
ENDBRANCH   1   6
BRANCH   1  14
HETATM   14  C7  UNL     1     170.982  32.637 180.334  1.00  0.00     0.296 C 
HETATM   15  O2  UNL     1     172.087  32.883 180.844  1.00  0.00    -0.262 OA
BRANCH  14  16
HETATM   16  O3  UNL     1     169.926  33.449 180.714  1.00  0.00    -0.309 OA
BRANCH  16  17
HETATM   17  C8  UNL     1     169.885  34.832 180.506  1.00  0.00     0.060 C 
HETATM   18  C9  UNL     1     169.966  35.231 179.058  1.00  0.00     0.045 C 
HETATM   19  C10 UNL     1     168.567  35.351 181.047  1.00  0.00     0.045 C 
HETATM   20  C11 UNL     1     171.012  35.524 181.248  1.00  0.00     0.045 C 
ENDBRANCH  16  17
ENDBRANCH  14  16
ENDBRANCH   1  14
BRANCH   4  21
HETATM   21  C15 UNL     1     170.227  29.612 180.882  1.00  0.00     0.135 C 
HETATM   22  C16 UNL     1     171.056  28.351 181.214  1.00  0.00     0.044 C 
HETATM   23  C17 UNL     1     170.832  28.196 182.723  1.00  0.00    -0.011 C 
HETATM   24  C18 UNL     1     169.363  27.840 182.866  1.00  0.00     0.009 C 
HETATM   25  C22 UNL     1     171.039  29.582 183.200  1.00  0.00     0.012 C 
HETATM   26  C19 UNL     1     168.482  28.868 182.239  1.00  0.00    -0.011 C 
HETATM   27  C20 UNL     1     168.819  30.277 182.740  1.00  0.00     0.012 C 
HETATM   28  C23 UNL     1     168.835  29.082 180.768  1.00  0.00     0.044 C 
HETATM   29  C21 UNL     1     170.249  30.370 182.172  1.00  0.00     0.023 C 
ENDBRANCH   4  21
TORSDOF 8
ENDMDL
MODEL 2
REMARK VINA RESULT: -8.976420045      2.481      6.125
REMARK  8 active torsions:
REMARK  status: ('A' for Active; 'I' for Inactive)
REMARK       I    between atoms: C2_2  and  N1_4 
REMARK    1  A    between atoms: N1_4  and  C3_6 
REMARK    2  A    between atoms: C3_6  and  C4_7 
REMARK    3  A    between atoms: C4_7  and  C5_8 
REMARK    4  A    between atoms: C5_8  and  C6_9 
REMARK    5  A    between atoms: C6_9  and  C7_10 
REMARK    6  A    between atoms: C7_10  and  O3_12 
REMARK    7  A    between atoms: O3_12  and  C8_13 
REMARK    8  A    between atoms: N2_19  and  C15_21 
ROOT
HETATM    1  C6  UNL     1     170.714  29.931 180.065  1.00  0.00     0.218 C 
HETATM    2  C12 UNL     1     171.670  29.199 180.947  1.00  0.00     0.078 C 
HETATM    3  C13 UNL     1     171.533  28.136 179.850  1.00  0.00     0.242 C 
HETATM    4  N2  UNL     1     171.121  29.215 178.925  1.00  0.00    -0.043 N 
HETATM    5  C14 UNL     1     169.991  28.722 178.157  1.00  0.00     0.275 C 
ENDROOT
BRANCH   1   6
HETATM    6  C5  UNL     1     169.292  29.475 180.494  1.00  0.00     0.052 C 
BRANCH   6   7
HETATM    7  C4  UNL     1     169.196  29.160 181.944  1.00  0.00     0.023 C 
BRANCH   7   8
HETATM    8  C3  UNL     1     167.817  28.524 182.226  1.00  0.00     0.122 C 
BRANCH   8   9
HETATM    9  N1  UNL     1     167.788  27.921 183.519  1.00  0.00    -0.361 N 
HETATM   10  C2  UNL     1     166.889  26.876 183.825  1.00  0.00     0.213 C 
HETATM   11  C1  UNL     1     166.833  26.225 185.159  1.00  0.00     0.117 C 
HETATM   12  O1  UNL     1     166.094  26.462 182.945  1.00  0.00    -0.274 OA
ATOM     13  H1  UNL     1     168.431  28.253 184.238  1.00  0.00     0.162 HD
ENDBRANCH   8   9
ENDBRANCH   7   8
ENDBRANCH   6   7
ENDBRANCH   1   6
BRANCH   1  14
HETATM   14  C7  UNL     1     170.661  31.377 180.123  1.00  0.00     0.296 C 
HETATM   15  O2  UNL     1     169.663  32.005 179.732  1.00  0.00    -0.262 OA
BRANCH  14  16
HETATM   16  O3  UNL     1     171.717  32.127 180.615  1.00  0.00    -0.309 OA
BRANCH  16  17
HETATM   17  C8  UNL     1     171.693  32.812 181.835  1.00  0.00     0.060 C 
HETATM   18  C9  UNL     1     170.635  32.321 182.786  1.00  0.00     0.045 C 
HETATM   19  C10 UNL     1     173.036  32.618 182.510  1.00  0.00     0.045 C 
HETATM   20  C11 UNL     1     171.476  34.297 181.617  1.00  0.00     0.045 C 
ENDBRANCH  16  17
ENDBRANCH  14  16
ENDBRANCH   1  14
BRANCH   4  21
HETATM   21  C15 UNL     1     172.193  29.514 178.074  1.00  0.00     0.135 C 
HETATM   22  C16 UNL     1     171.644  29.413 176.632  1.00  0.00     0.044 C 
HETATM   23  C17 UNL     1     172.559  30.376 175.864  1.00  0.00    -0.011 C 
HETATM   24  C18 UNL     1     173.927  29.720 175.890  1.00  0.00     0.009 C 
HETATM   25  C22 UNL     1     172.573  31.554 176.760  1.00  0.00     0.012 C 
HETATM   26  C19 UNL     1     174.387  29.454 177.284  1.00  0.00    -0.011 C 
HETATM   27  C20 UNL     1     174.297  30.713 178.154  1.00  0.00     0.012 C 
HETATM   28  C23 UNL     1     173.375  28.602 178.051  1.00  0.00     0.044 C 
HETATM   29  C21 UNL     1     172.767  30.895 178.113  1.00  0.00     0.023 C 
ENDBRANCH   4  21
TORSDOF 8
ENDMDL
MODEL 3
REMARK VINA RESULT: -8.949257843      3.369      6.784
REMARK  8 active torsions:
REMARK  status: ('A' for Active; 'I' for Inactive)
REMARK       I    between atoms: C2_2  and  N1_4 
REMARK    1  A    between atoms: N1_4  and  C3_6 
REMARK    2  A    between atoms: C3_6  and  C4_7 
REMARK    3  A    between atoms: C4_7  and  C5_8 
REMARK    4  A    between atoms: C5_8  and  C6_9 
REMARK    5  A    between atoms: C6_9  and  C7_10 
REMARK    6  A    between atoms: C7_10  and  O3_12 
REMARK    7  A    between atoms: O3_12  and  C8_13 
REMARK    8  A    between atoms: N2_19  and  C15_21 
ROOT
HETATM    1  C6  UNL     1     169.466  29.340 182.459  1.00  0.00     0.218 C 
HETATM    2  C12 UNL     1     170.560  28.514 183.051  1.00  0.00     0.078 C 
HETATM    3  C13 UNL     1     170.652  27.993 181.611  1.00  0.00     0.242 C 
HETATM    4  N2  UNL     1     170.014  29.253 181.167  1.00  0.00    -0.043 N 
HETATM    5  C14 UNL     1     169.015  28.907 180.172  1.00  0.00     0.275 C 
ENDROOT
BRANCH   1   6
HETATM    6  C5  UNL     1     168.177  28.477 182.544  1.00  0.00     0.052 C 
BRANCH   6   7
HETATM    7  C4  UNL     1     168.114  27.647 183.777  1.00  0.00     0.023 C 
BRANCH   7   8
HETATM    8  C3  UNL     1     166.919  26.674 183.662  1.00  0.00     0.122 C 
BRANCH   8   9
HETATM    9  N1  UNL     1     165.818  27.124 184.449  1.00  0.00    -0.361 N 
HETATM   10  C2  UNL     1     164.496  26.709 184.173  1.00  0.00     0.213 C 
HETATM   11  C1  UNL     1     163.327  27.157 184.971  1.00  0.00     0.117 C 
HETATM   12  O1  UNL     1     164.277  25.926 183.216  1.00  0.00    -0.274 OA
ATOM     13  H1  UNL     1     165.988  27.760 185.227  1.00  0.00     0.162 HD
ENDBRANCH   8   9
ENDBRANCH   7   8
ENDBRANCH   6   7
ENDBRANCH   1   6
BRANCH   1  14
HETATM   14  C7  UNL     1     169.103  30.591 183.091  1.00  0.00     0.296 C 
HETATM   15  O2  UNL     1     169.961  31.339 183.590  1.00  0.00    -0.262 OA
BRANCH  14  16
HETATM   16  O3  UNL     1     167.786  31.013 183.172  1.00  0.00    -0.309 OA
BRANCH  16  17
HETATM   17  C8  UNL     1     167.227  31.630 184.297  1.00  0.00     0.060 C 
HETATM   18  C9  UNL     1     168.016  32.809 184.798  1.00  0.00     0.045 C 
HETATM   19  C10 UNL     1     165.847  32.134 183.921  1.00  0.00     0.045 C 
HETATM   20  C11 UNL     1     167.081  30.642 185.438  1.00  0.00     0.045 C 
ENDBRANCH  16  17
ENDBRANCH  14  16
ENDBRANCH   1  14
BRANCH   4  21
HETATM   21  C15 UNL     1     170.994  30.081 180.605  1.00  0.00     0.135 C 
HETATM   22  C16 UNL     1     171.550  29.325 179.377  1.00  0.00     0.044 C 
HETATM   23  C17 UNL     1     172.025  30.468 178.472  1.00  0.00    -0.011 C 
HETATM   24  C18 UNL     1     173.198  31.088 179.209  1.00  0.00     0.009 C 
HETATM   25  C22 UNL     1     170.874  31.396 178.535  1.00  0.00     0.012 C 
HETATM   26  C19 UNL     1     172.816  31.538 180.579  1.00  0.00    -0.011 C 
HETATM   27  C20 UNL     1     171.573  32.434 180.549  1.00  0.00     0.012 C 
HETATM   28  C23 UNL     1     172.223  30.391 181.396  1.00  0.00     0.044 C 
HETATM   29  C21 UNL     1     170.568  31.391 180.020  1.00  0.00     0.023 C 
ENDBRANCH   4  21
TORSDOF 8
ENDMDL
MODEL 4
REMARK VINA RESULT: -8.864562330      2.126      5.944
REMARK  8 active torsions:
REMARK  status: ('A' for Active; 'I' for Inactive)
REMARK       I    between atoms: C2_2  and  N1_4 
REMARK    1  A    between atoms: N1_4  and  C3_6 
REMARK    2  A    between atoms: C3_6  and  C4_7 
REMARK    3  A    between atoms: C4_7  and  C5_8 
REMARK    4  A    between atoms: C5_8  and  C6_9 
REMARK    5  A    between atoms: C6_9  and  C7_10 
REMARK    6  A    between atoms: C7_10  and  O3_12 
REMARK    7  A    between atoms: O3_12  and  C8_13 
REMARK    8  A    between atoms: N2_19  and  C15_21 
ROOT
HETATM    1  C6  UNL     1     170.599  29.649 180.203  1.00  0.00     0.218 C 
HETATM    2  C12 UNL     1     171.558  28.509 180.113  1.00  0.00     0.078 C 
HETATM    3  C13 UNL     1     170.773  28.233 178.823  1.00  0.00     0.242 C 
HETATM    4  N2  UNL     1     170.386  29.662 178.813  1.00  0.00    -0.043 N 
HETATM    5  C14 UNL     1     168.974  29.726 178.478  1.00  0.00     0.275 C 
ENDROOT
BRANCH   1   6
HETATM    6  C5  UNL     1     169.337  29.099 180.925  1.00  0.00     0.052 C 
BRANCH   6   7
HETATM    7  C4  UNL     1     169.645  28.485 182.244  1.00  0.00     0.023 C 
BRANCH   7   8
HETATM    8  C3  UNL     1     168.718  29.107 183.312  1.00  0.00     0.122 C 
BRANCH   8   9
HETATM    9  N1  UNL     1     167.602  28.258 183.575  1.00  0.00    -0.361 N 
HETATM   10  C2  UNL     1     166.301  28.596 183.140  1.00  0.00     0.213 C 
HETATM   11  C1  UNL     1     165.117  27.736 183.395  1.00  0.00     0.117 C 
HETATM   12  O1  UNL     1     166.114  29.665 182.509  1.00  0.00    -0.274 OA
ATOM     13  H1  UNL     1     167.746  27.389 184.087  1.00  0.00     0.162 HD
ENDBRANCH   8   9
ENDBRANCH   7   8
ENDBRANCH   6   7
ENDBRANCH   1   6
BRANCH   1  14
HETATM   14  C7  UNL     1     170.966  30.824 180.966  1.00  0.00     0.296 C 
HETATM   15  O2  UNL     1     171.944  30.820 181.733  1.00  0.00    -0.262 OA
BRANCH  14  16
HETATM   16  O3  UNL     1     170.247  32.005 180.880  1.00  0.00    -0.309 OA
BRANCH  16  17
HETATM   17  C8  UNL     1     170.380  33.072 181.775  1.00  0.00     0.060 C 
HETATM   18  C9  UNL     1     171.775  33.630 181.852  1.00  0.00     0.045 C 
HETATM   19  C10 UNL     1     169.467  34.191 181.314  1.00  0.00     0.045 C 
HETATM   20  C11 UNL     1     169.962  32.659 183.174  1.00  0.00     0.045 C 
ENDBRANCH  16  17
ENDBRANCH  14  16
ENDBRANCH   1  14
BRANCH   4  21
HETATM   21  C15 UNL     1     171.147  30.329 177.845  1.00  0.00     0.135 C 
HETATM   22  C16 UNL     1     170.355  31.603 177.472  1.00  0.00     0.044 C 
HETATM   23  C17 UNL     1     171.464  32.561 177.020  1.00  0.00    -0.011 C 
HETATM   24  C18 UNL     1     172.005  31.955 175.738  1.00  0.00     0.009 C 
HETATM   25  C22 UNL     1     172.466  32.385 178.095  1.00  0.00     0.012 C 
HETATM   26  C19 UNL     1     172.479  30.556 175.944  1.00  0.00    -0.011 C 
HETATM   27  C20 UNL     1     173.456  30.462 177.122  1.00  0.00     0.012 C 
HETATM   28  C23 UNL     1     171.374  29.673 176.523  1.00  0.00     0.044 C 
HETATM   29  C21 UNL     1     172.482  30.875 178.243  1.00  0.00     0.023 C 
ENDBRANCH   4  21
TORSDOF 8
ENDMDL
MODEL 5
REMARK VINA RESULT: -8.785706132      1.996      5.733
REMARK  8 active torsions:
REMARK  status: ('A' for Active; 'I' for Inactive)
REMARK       I    between atoms: C2_2  and  N1_4 
REMARK    1  A    between atoms: N1_4  and  C3_6 
REMARK    2  A    between atoms: C3_6  and  C4_7 
REMARK    3  A    between atoms: C4_7  and  C5_8 
REMARK    4  A    between atoms: C5_8  and  C6_9 
REMARK    5  A    between atoms: C6_9  and  C7_10 
REMARK    6  A    between atoms: C7_10  and  O3_12 
REMARK    7  A    between atoms: O3_12  and  C8_13 
REMARK    8  A    between atoms: N2_19  and  C15_21 
ROOT
HETATM    1  C6  UNL     1     170.836  31.382 180.533  1.00  0.00     0.218 C 
HETATM    2  C12 UNL     1     172.142  31.524 181.242  1.00  0.00     0.078 C 
HETATM    3  C13 UNL     1     172.168  30.002 181.045  1.00  0.00     0.242 C 
HETATM    4  N2  UNL     1     171.232  30.183 179.914  1.00  0.00    -0.043 N 
HETATM    5  C14 UNL     1     170.215  29.151 180.022  1.00  0.00     0.275 C 
ENDROOT
BRANCH   1   6
HETATM    6  C5  UNL     1     169.776  31.084 181.629  1.00  0.00     0.052 C 
BRANCH   6   7
HETATM    7  C4  UNL     1     170.092  31.729 182.932  1.00  0.00     0.023 C 
BRANCH   7   8
HETATM    8  C3  UNL     1     168.810  31.764 183.794  1.00  0.00     0.122 C 
BRANCH   8   9
HETATM    9  N1  UNL     1     168.107  30.526 183.711  1.00  0.00    -0.361 N 
HETATM   10  C2  UNL     1     166.698  30.483 183.620  1.00  0.00     0.213 C 
HETATM   11  C1  UNL     1     165.933  29.213 183.532  1.00  0.00     0.117 C 
HETATM   12  O1  UNL     1     166.043  31.554 183.611  1.00  0.00    -0.274 OA
ATOM     13  H1  UNL     1     168.632  29.652 183.719  1.00  0.00     0.162 HD
ENDBRANCH   8   9
ENDBRANCH   7   8
ENDBRANCH   6   7
ENDBRANCH   1   6
BRANCH   1  14
HETATM   14  C7  UNL     1     170.297  32.514 179.810  1.00  0.00     0.296 C 
HETATM   15  O2  UNL     1     169.270  32.412 179.117  1.00  0.00    -0.262 OA
BRANCH  14  16
HETATM   16  O3  UNL     1     170.898  33.762 179.853  1.00  0.00    -0.309 OA
BRANCH  16  17
HETATM   17  C8  UNL     1     170.344  34.878 180.489  1.00  0.00     0.060 C 
HETATM   18  C9  UNL     1     169.142  34.561 181.336  1.00  0.00     0.045 C 
HETATM   19  C10 UNL     1     171.399  35.472 181.402  1.00  0.00     0.045 C 
HETATM   20  C11 UNL     1     169.939  35.932 179.477  1.00  0.00     0.045 C 
ENDBRANCH  16  17
ENDBRANCH  14  16
ENDBRANCH   1  14
BRANCH   4  21
HETATM   21  C15 UNL     1     171.942  30.042 178.714  1.00  0.00     0.135 C 
HETATM   22  C16 UNL     1     170.884  29.957 177.591  1.00  0.00     0.044 C 
HETATM   23  C17 UNL     1     171.647  30.502 176.377  1.00  0.00    -0.011 C 
HETATM   24  C18 UNL     1     172.717  29.464 176.090  1.00  0.00     0.009 C 
HETATM   25  C22 UNL     1     172.288  31.709 176.944  1.00  0.00     0.012 C 
HETATM   26  C19 UNL     1     173.588  29.225 177.278  1.00  0.00    -0.011 C 
HETATM   27  C20 UNL     1     174.146  30.538 177.838  1.00  0.00     0.012 C 
HETATM   28  C23 UNL     1     172.764  28.815 178.498  1.00  0.00     0.044 C 
HETATM   29  C21 UNL     1     172.809  31.176 178.265  1.00  0.00     0.023 C 
ENDBRANCH   4  21
TORSDOF 8
ENDMDL
