MODEL 1
REMARK VINA RESULT: -9.662301031      0.000      0.000
REMARK  5 active torsions:
REMARK  status: ('A' for Active; 'I' for Inactive)
REMARK    1  A    between atoms: C2_2  and  C3_3 
REMARK    2  A    between atoms: C3_3  and  C4_4 
REMARK    3  A    between atoms: C4_4  and  C5_5 
REMARK       I    between atoms: C5_5  and  N1_7 
REMARK    4  A    between atoms: C9_11  and  C10_12 
REMARK       I    between atoms: C10_12  and  N2_14 
REMARK    5  A    between atoms: N2_14  and  C11_16 
ROOT
HETATM    1  C10 UNL     1     113.394 125.206 182.731  1.00  0.00     0.241 C 
HETATM    2  O2  UNL     1     114.303 124.371 182.891  1.00  0.00    -0.271 OA
HETATM    3  N2  UNL     1     113.420 126.045 181.605  1.00  0.00    -0.354 N 
ATOM      4  H2  UNL     1     112.664 126.721 181.497  1.00  0.00     0.162 HD
ENDROOT
BRANCH   1   5
HETATM    5  C9  UNL     1     112.310 125.304 183.716  1.00  0.00     0.179 C 
HETATM    6  N1  UNL     1     111.271 126.259 183.296  1.00  0.00    -0.339 N 
HETATM    7  C5  UNL     1     111.255 127.660 183.507  1.00  0.00     0.220 C 
HETATM    8  C6  UNL     1     110.235 125.516 182.612  1.00  0.00     0.127 C 
HETATM    9  O1  UNL     1     110.272 128.311 183.069  1.00  0.00    -0.273 OA
HETATM   10  C7  UNL     1     110.563 124.066 182.757  1.00  0.00     0.022 C 
HETATM   11  C8  UNL     1     111.543 124.014 183.880  1.00  0.00     0.037 C 
BRANCH   7  12
HETATM   12  C4  UNL     1     112.349 128.362 184.219  1.00  0.00     0.103 C 
BRANCH  12  13
HETATM   13  C3  UNL     1     112.899 129.551 183.516  1.00  0.00     0.009 C 
BRANCH  13  14
HETATM   14  C2  UNL     1     114.201 129.325 182.802  1.00  0.00    -0.004 C 
HETATM   15  C1  UNL     1     114.261 130.365 181.674  1.00  0.00     0.005 C 
ENDBRANCH  13  14
ENDBRANCH  12  13
ENDBRANCH   7  12
ENDBRANCH   1   5
BRANCH   3  16
HETATM   16  C11 UNL     1     114.451 126.013 180.588  1.00  0.00     0.089 C 
HETATM   17  C12 UNL     1     115.675 126.743 181.097  1.00  0.00     0.030 C 
HETATM   18  C13 UNL     1     116.797 126.719 180.126  1.00  0.00    -0.012 C 
HETATM   19  C14 UNL     1     116.797 125.583 179.156  1.00  0.00     0.009 C 
HETATM   20  C18 UNL     1     116.902 128.052 179.419  1.00  0.00     0.009 C 
HETATM   21  C15 UNL     1     115.943 125.756 177.949  1.00  0.00    -0.013 C 
HETATM   22  C16 UNL     1     116.145 127.131 177.309  1.00  0.00     0.009 C 
HETATM   23  C21 UNL     1     114.484 125.577 178.158  1.00  0.00     0.011 C 
HETATM   24  C17 UNL     1     115.804 128.129 178.407  1.00  0.00    -0.013 C 
HETATM   25  C19 UNL     1     114.434 127.941 178.953  1.00  0.00     0.011 C 
HETATM   26  C20 UNL     1     114.036 126.527 179.256  1.00  0.00     0.009 C 
ENDBRANCH   3  16
TORSDOF 5
ENDMDL
MODEL 2
REMARK VINA RESULT: -9.435355814      2.194      7.070
REMARK  5 active torsions:
REMARK  status: ('A' for Active; 'I' for Inactive)
REMARK    1  A    between atoms: C2_2  and  C3_3 
REMARK    2  A    between atoms: C3_3  and  C4_4 
REMARK    3  A    between atoms: C4_4  and  C5_5 
REMARK       I    between atoms: C5_5  and  N1_7 
REMARK    4  A    between atoms: C9_11  and  C10_12 
REMARK       I    between atoms: C10_12  and  N2_14 
REMARK    5  A    between atoms: N2_14  and  C11_16 
ROOT
HETATM    1  C10 UNL     1     113.461 125.768 181.798  1.00  0.00     0.241 C 
HETATM    2  O2  UNL     1     112.628 125.788 180.874  1.00  0.00    -0.271 OA
HETATM    3  N2  UNL     1     113.046 125.412 183.093  1.00  0.00    -0.354 N 
ATOM      4  H2  UNL     1     113.748 125.403 183.832  1.00  0.00     0.162 HD
ENDROOT
BRANCH   1   5
HETATM    5  C9  UNL     1     114.862 126.113 181.528  1.00  0.00     0.179 C 
HETATM    6  N1  UNL     1     114.985 127.096 180.438  1.00  0.00    -0.339 N 
HETATM    7  C5  UNL     1     115.041 126.834 179.047  1.00  0.00     0.220 C 
HETATM    8  C6  UNL     1     115.043 128.414 181.031  1.00  0.00     0.127 C 
HETATM    9  O1  UNL     1     115.147 127.813 178.265  1.00  0.00    -0.273 OA
HETATM   10  C7  UNL     1     115.122 128.228 182.512  1.00  0.00     0.022 C 
HETATM   11  C8  UNL     1     115.535 126.806 182.689  1.00  0.00     0.037 C 
BRANCH   7  12
HETATM   12  C4  UNL     1     114.977 125.456 178.502  1.00  0.00     0.103 C 
BRANCH  12  13
HETATM   13  C3  UNL     1     114.159 125.302 177.270  1.00  0.00     0.009 C 
BRANCH  13  14
HETATM   14  C2  UNL     1     112.769 124.780 177.490  1.00  0.00    -0.004 C 
HETATM   15  C1  UNL     1     112.618 123.554 176.577  1.00  0.00     0.005 C 
ENDBRANCH  13  14
ENDBRANCH  12  13
ENDBRANCH   7  12
ENDBRANCH   1   5
BRANCH   3  16
HETATM   16  C11 UNL     1     111.687 125.059 183.444  1.00  0.00     0.089 C 
HETATM   17  C12 UNL     1     111.299 125.779 184.717  1.00  0.00     0.030 C 
HETATM   18  C13 UNL     1     109.898 125.502 185.123  1.00  0.00    -0.012 C 
HETATM   19  C14 UNL     1     108.967 125.102 184.027  1.00  0.00     0.009 C 
HETATM   20  C18 UNL     1     109.875 124.507 186.263  1.00  0.00     0.009 C 
HETATM   21  C15 UNL     1     108.990 123.664 183.644  1.00  0.00    -0.013 C 
HETATM   22  C16 UNL     1     108.945 122.753 184.873  1.00  0.00     0.009 C 
HETATM   23  C21 UNL     1     110.147 123.233 182.818  1.00  0.00     0.011 C 
HETATM   24  C17 UNL     1     110.159 123.151 185.701  1.00  0.00    -0.013 C 
HETATM   25  C19 UNL     1     111.434 123.041 184.946  1.00  0.00     0.011 C 
HETATM   26  C20 UNL     1     111.425 123.600 183.554  1.00  0.00     0.009 C 
ENDBRANCH   3  16
TORSDOF 5
ENDMDL
MODEL 3
REMARK VINA RESULT: -9.391695419      1.073      1.578
REMARK  5 active torsions:
REMARK  status: ('A' for Active; 'I' for Inactive)
REMARK    1  A    between atoms: C2_2  and  C3_3 
REMARK    2  A    between atoms: C3_3  and  C4_4 
REMARK    3  A    between atoms: C4_4  and  C5_5 
REMARK       I    between atoms: C5_5  and  N1_7 
REMARK    4  A    between atoms: C9_11  and  C10_12 
REMARK       I    between atoms: C10_12  and  N2_14 
REMARK    5  A    between atoms: N2_14  and  C11_16 
ROOT
HETATM    1  C10 UNL     1     112.949 125.931 181.828  1.00  0.00     0.241 C 
HETATM    2  O2  UNL     1     112.222 125.502 180.914  1.00  0.00    -0.271 OA
HETATM    3  N2  UNL     1     114.200 126.485 181.510  1.00  0.00    -0.354 N 
ATOM      4  H2  UNL     1     114.778 126.830 182.277  1.00  0.00     0.162 HD
ENDROOT
BRANCH   1   5
HETATM    5  C9  UNL     1     112.496 125.853 183.222  1.00  0.00     0.179 C 
HETATM    6  N1  UNL     1     111.330 126.718 183.470  1.00  0.00    -0.339 N 
HETATM    7  C5  UNL     1     111.339 128.094 183.810  1.00  0.00     0.220 C 
HETATM    8  C6  UNL     1     110.137 125.916 183.307  1.00  0.00     0.127 C 
HETATM    9  O1  UNL     1     110.232 128.665 183.984  1.00  0.00    -0.273 OA
HETATM   10  C7  UNL     1     110.580 124.502 183.117  1.00  0.00     0.022 C 
HETATM   11  C8  UNL     1     111.989 124.482 183.602  1.00  0.00     0.037 C 
BRANCH   7  12
HETATM   12  C4  UNL     1     112.599 128.859 183.965  1.00  0.00     0.103 C 
BRANCH  12  13
HETATM   13  C3  UNL     1     112.730 130.044 183.076  1.00  0.00     0.009 C 
BRANCH  13  14
HETATM   14  C2  UNL     1     113.970 130.072 182.230  1.00  0.00    -0.004 C 
HETATM   15  C1  UNL     1     113.708 131.094 181.113  1.00  0.00     0.005 C 
ENDBRANCH  13  14
ENDBRANCH  12  13
ENDBRANCH   7  12
ENDBRANCH   1   5
BRANCH   3  16
HETATM   16  C11 UNL     1     114.722 126.600 180.164  1.00  0.00     0.089 C 
HETATM   17  C12 UNL     1     115.767 125.527 179.943  1.00  0.00     0.030 C 
HETATM   18  C13 UNL     1     116.323 125.550 178.567  1.00  0.00    -0.012 C 
HETATM   19  C14 UNL     1     115.443 126.143 177.516  1.00  0.00     0.009 C 
HETATM   20  C18 UNL     1     117.693 126.192 178.570  1.00  0.00     0.009 C 
HETATM   21  C15 UNL     1     115.474 127.626 177.400  1.00  0.00    -0.013 C 
HETATM   22  C16 UNL     1     116.908 128.161 177.397  1.00  0.00     0.009 C 
HETATM   23  C21 UNL     1     114.728 128.373 178.446  1.00  0.00     0.011 C 
HETATM   24  C17 UNL     1     117.514 127.670 178.704  1.00  0.00    -0.013 C 
HETATM   25  C19 UNL     1     116.739 128.101 179.897  1.00  0.00     0.011 C 
HETATM   26  C20 UNL     1     115.250 127.943 179.807  1.00  0.00     0.009 C 
ENDBRANCH   3  16
TORSDOF 5
ENDMDL
MODEL 4
REMARK VINA RESULT: -9.190696472      1.255      2.138
REMARK  5 active torsions:
REMARK  status: ('A' for Active; 'I' for Inactive)
REMARK    1  A    between atoms: C2_2  and  C3_3 
REMARK    2  A    between atoms: C3_3  and  C4_4 
REMARK    3  A    between atoms: C4_4  and  C5_5 
REMARK       I    between atoms: C5_5  and  N1_7 
REMARK    4  A    between atoms: C9_11  and  C10_12 
REMARK       I    between atoms: C10_12  and  N2_14 
REMARK    5  A    between atoms: N2_14  and  C11_16 
ROOT
HETATM    1  C10 UNL     1     113.546 125.668 182.912  1.00  0.00     0.241 C 
HETATM    2  O2  UNL     1     114.428 124.797 183.023  1.00  0.00    -0.271 OA
HETATM    3  N2  UNL     1     113.693 126.680 181.949  1.00  0.00    -0.354 N 
ATOM      4  H2  UNL     1     112.956 127.381 181.877  1.00  0.00     0.162 HD
ENDROOT
BRANCH   1   5
HETATM    5  C9  UNL     1     112.365 125.628 183.783  1.00  0.00     0.179 C 
HETATM    6  N1  UNL     1     111.310 126.546 183.322  1.00  0.00    -0.339 N 
HETATM    7  C5  UNL     1     111.178 127.924 183.624  1.00  0.00     0.220 C 
HETATM    8  C6  UNL     1     110.400 125.793 182.486  1.00  0.00     0.127 C 
HETATM    9  O1  UNL     1     110.201 128.544 183.131  1.00  0.00    -0.273 OA
HETATM   10  C7  UNL     1     110.809 124.359 182.568  1.00  0.00     0.022 C 
HETATM   11  C8  UNL     1     111.674 124.285 183.780  1.00  0.00     0.037 C 
BRANCH   7  12
HETATM   12  C4  UNL     1     112.147 128.637 184.491  1.00  0.00     0.103 C 
BRANCH  12  13
HETATM   13  C3  UNL     1     111.571 129.225 185.728  1.00  0.00     0.009 C 
BRANCH  13  14
HETATM   14  C2  UNL     1     110.915 128.243 186.656  1.00  0.00    -0.004 C 
HETATM   15  C1  UNL     1     111.291 128.677 188.080  1.00  0.00     0.005 C 
ENDBRANCH  13  14
ENDBRANCH  12  13
ENDBRANCH   7  12
ENDBRANCH   1   5
BRANCH   3  16
HETATM   16  C11 UNL     1     114.824 126.792 181.051  1.00  0.00     0.089 C 
HETATM   17  C12 UNL     1     115.043 128.249 180.706  1.00  0.00     0.030 C 
HETATM   18  C13 UNL     1     116.216 128.454 179.820  1.00  0.00    -0.012 C 
HETATM   19  C14 UNL     1     117.275 127.403 179.883  1.00  0.00     0.009 C 
HETATM   20  C18 UNL     1     115.758 128.695 178.398  1.00  0.00     0.009 C 
HETATM   21  C15 UNL     1     117.040 126.190 179.054  1.00  0.00    -0.013 C 
HETATM   22  C16 UNL     1     116.598 126.554 177.635  1.00  0.00     0.009 C 
HETATM   23  C21 UNL     1     116.048 125.222 179.590  1.00  0.00     0.011 C 
HETATM   24  C17 UNL     1     115.335 127.384 177.818  1.00  0.00    -0.013 C 
HETATM   25  C19 UNL     1     114.281 126.669 178.585  1.00  0.00     0.011 C 
HETATM   26  C20 UNL     1     114.738 125.958 179.824  1.00  0.00     0.009 C 
ENDBRANCH   3  16
TORSDOF 5
ENDMDL
MODEL 5
REMARK VINA RESULT: -9.170231811      1.783      6.275
REMARK  5 active torsions:
REMARK  status: ('A' for Active; 'I' for Inactive)
REMARK    1  A    between atoms: C2_2  and  C3_3 
REMARK    2  A    between atoms: C3_3  and  C4_4 
REMARK    3  A    between atoms: C4_4  and  C5_5 
REMARK       I    between atoms: C5_5  and  N1_7 
REMARK    4  A    between atoms: C9_11  and  C10_12 
REMARK       I    between atoms: C10_12  and  N2_14 
REMARK    5  A    between atoms: N2_14  and  C11_16 
ROOT
HETATM    1  C10 UNL     1     113.540 125.775 180.529  1.00  0.00     0.241 C 
HETATM    2  O2  UNL     1     114.360 125.042 181.111  1.00  0.00    -0.271 OA
HETATM    3  N2  UNL     1     112.198 125.774 180.945  1.00  0.00    -0.354 N 
ATOM      4  H2  UNL     1     111.545 126.384 180.453  1.00  0.00     0.162 HD
ENDROOT
BRANCH   1   5
HETATM    5  C9  UNL     1     113.981 126.630 179.420  1.00  0.00     0.179 C 
HETATM    6  N1  UNL     1     115.437 126.557 179.215  1.00  0.00    -0.339 N 
HETATM    7  C5  UNL     1     116.436 127.318 179.871  1.00  0.00     0.220 C 
HETATM    8  C6  UNL     1     115.695 125.554 178.205  1.00  0.00     0.127 C 
HETATM    9  O1  UNL     1     117.636 127.110 179.558  1.00  0.00    -0.273 OA
HETATM   10  C7  UNL     1     114.371 125.122 177.665  1.00  0.00     0.022 C 
HETATM   11  C8  UNL     1     113.426 126.197 178.084  1.00  0.00     0.037 C 
BRANCH   7  12
HETATM   12  C4  UNL     1     116.105 128.334 180.899  1.00  0.00     0.103 C 
BRANCH  12  13
HETATM   13  C3  UNL     1     116.078 127.832 182.298  1.00  0.00     0.009 C 
BRANCH  13  14
HETATM   14  C2  UNL     1     114.751 127.947 182.991  1.00  0.00    -0.004 C 
HETATM   15  C1  UNL     1     114.173 129.313 182.594  1.00  0.00     0.005 C 
ENDBRANCH  13  14
ENDBRANCH  12  13
ENDBRANCH   7  12
ENDBRANCH   1   5
BRANCH   3  16
HETATM   16  C11 UNL     1     111.681 124.962 182.028  1.00  0.00     0.089 C 
HETATM   17  C12 UNL     1     110.175 125.100 182.077  1.00  0.00     0.030 C 
HETATM   18  C13 UNL     1     109.562 124.261 183.138  1.00  0.00    -0.012 C 
HETATM   19  C14 UNL     1     110.344 123.059 183.555  1.00  0.00     0.009 C 
HETATM   20  C18 UNL     1     109.187 125.119 184.326  1.00  0.00     0.009 C 
HETATM   21  C15 UNL     1     111.416 123.296 184.560  1.00  0.00    -0.013 C 
HETATM   22  C16 UNL     1     110.919 124.158 185.721  1.00  0.00     0.009 C 
HETATM   23  C21 UNL     1     112.659 123.925 184.044  1.00  0.00     0.011 C 
HETATM   24  C17 UNL     1     110.438 125.449 185.075  1.00  0.00    -0.013 C 
HETATM   25  C19 UNL     1     111.492 126.118 184.268  1.00  0.00     0.011 C 
HETATM   26  C20 UNL     1     112.287 125.230 183.358  1.00  0.00     0.009 C 
ENDBRANCH   3  16
TORSDOF 5
ENDMDL
