MODEL 1
REMARK VINA RESULT: -10.207207935      0.000      0.000
REMARK  5 active torsions:
REMARK  status: ('A' for Active; 'I' for Inactive)
REMARK    1  A    between atoms: N1_2  and  C2_3 
REMARK       I    between atoms: N1_2  and  C10_14 
REMARK    2  A    between atoms: C2_3  and  C3_4 
REMARK       I    between atoms: C3_4  and  N2_6 
REMARK    3  A    between atoms: N2_6  and  C4_8 
REMARK    4  A    between atoms: C10_14  and  C11_16 
REMARK    5  A    between atoms: C11_16  and  C12_17 
ROOT
HETATM    1  C1  UNL     1     112.707 128.384 183.417  1.00  0.00     0.153 C 
HETATM    2  N1  UNL     1     113.967 127.784 182.981  1.00  0.00    -0.348 N 
HETATM    3  C10 UNL     1     114.984 128.540 182.363  1.00  0.00     0.220 C 
HETATM    4  O2  UNL     1     114.754 129.761 182.200  1.00  0.00    -0.273 OA
ENDROOT
BRANCH   2   5
HETATM    5  C2  UNL     1     114.131 126.380 183.207  1.00  0.00     0.227 C 
BRANCH   5   6
HETATM    6  C3  UNL     1     112.967 125.675 182.593  1.00  0.00     0.235 C 
HETATM    7  O1  UNL     1     112.774 125.765 181.360  1.00  0.00    -0.272 OA
HETATM    8  N2  UNL     1     112.122 124.928 183.430  1.00  0.00    -0.355 N 
ATOM      9  H2  UNL     1     112.314 124.880 184.431  1.00  0.00     0.162 HD
BRANCH   8  10
HETATM   10  C4  UNL     1     110.984 124.227 182.882  1.00  0.00     0.085 C 
HETATM   11  C5  UNL     1     109.743 125.068 182.880  1.00  0.00     0.030 C 
HETATM   12  C6  UNL     1     108.609 124.167 183.267  1.00  0.00    -0.008 A 
HETATM   13  C7  UNL     1     108.439 123.867 184.708  1.00  0.00     0.010 A 
HETATM   14  C8  UNL     1     109.183 122.913 183.814  1.00  0.00    -0.008 A 
HETATM   15  C9  UNL     1     110.694 123.043 183.788  1.00  0.00     0.030 C 
ENDBRANCH   8  10
ENDBRANCH   5   6
ENDBRANCH   2   5
BRANCH   3  16
HETATM   16  C11 UNL     1     116.243 127.945 181.928  1.00  0.00     0.112 C 
BRANCH  16  17
HETATM   17  C12 UNL     1     116.232 127.470 180.516  1.00  0.00    -0.031 C 
HETATM   18  C13 UNL     1     116.127 125.989 180.420  1.00  0.00     0.014 C 
HETATM   19  C14 UNL     1     116.246 125.579 178.961  1.00  0.00    -0.013 C 
HETATM   20  C15 UNL     1     117.529 126.066 178.340  1.00  0.00     0.009 C 
HETATM   21  C19 UNL     1     115.103 126.202 178.161  1.00  0.00     0.009 C 
HETATM   22  C16 UNL     1     117.611 127.571 178.462  1.00  0.00    -0.013 C 
HETATM   23  C17 UNL     1     116.497 128.221 177.701  1.00  0.00     0.009 C 
HETATM   24  C21 UNL     1     117.567 127.902 179.914  1.00  0.00     0.014 C 
HETATM   25  C18 UNL     1     115.198 127.693 178.268  1.00  0.00    -0.013 C 
HETATM   26  C20 UNL     1     115.113 128.102 179.716  1.00  0.00     0.014 C 
ENDBRANCH  16  17
ENDBRANCH   3  16
TORSDOF 5
ENDMDL
MODEL 2
REMARK VINA RESULT: -10.189953618      0.134      1.457
REMARK  5 active torsions:
REMARK  status: ('A' for Active; 'I' for Inactive)
REMARK    1  A    between atoms: N1_2  and  C2_3 
REMARK       I    between atoms: N1_2  and  C10_14 
REMARK    2  A    between atoms: C2_3  and  C3_4 
REMARK       I    between atoms: C3_4  and  N2_6 
REMARK    3  A    between atoms: N2_6  and  C4_8 
REMARK    4  A    between atoms: C10_14  and  C11_16 
REMARK    5  A    between atoms: C11_16  and  C12_17 
ROOT
HETATM    1  C1  UNL     1     112.707 128.234 183.495  1.00  0.00     0.153 C 
HETATM    2  N1  UNL     1     113.950 127.628 183.020  1.00  0.00    -0.348 N 
HETATM    3  C10 UNL     1     114.982 128.390 182.435  1.00  0.00     0.220 C 
HETATM    4  O2  UNL     1     114.781 129.623 182.339  1.00  0.00    -0.273 OA
ENDROOT
BRANCH   2   5
HETATM    5  C2  UNL     1     114.081 126.211 183.171  1.00  0.00     0.227 C 
BRANCH   5   6
HETATM    6  C3  UNL     1     112.873 125.569 182.571  1.00  0.00     0.235 C 
HETATM    7  O1  UNL     1     112.631 125.731 181.354  1.00  0.00    -0.272 OA
HETATM    8  N2  UNL     1     112.044 124.798 183.402  1.00  0.00    -0.355 N 
ATOM      9  H2  UNL     1     112.276 124.690 184.390  1.00  0.00     0.162 HD
BRANCH   8  10
HETATM   10  C4  UNL     1     110.866 124.157 182.867  1.00  0.00     0.085 C 
HETATM   11  C5  UNL     1     109.654 125.037 182.941  1.00  0.00     0.030 C 
HETATM   12  C6  UNL     1     108.504 124.159 183.332  1.00  0.00    -0.008 A 
HETATM   13  C7  UNL     1     108.372 123.806 184.765  1.00  0.00     0.010 A 
HETATM   14  C8  UNL     1     109.054 122.866 183.810  1.00  0.00    -0.008 A 
HETATM   15  C9  UNL     1     110.566 122.947 183.736  1.00  0.00     0.030 C 
ENDBRANCH   8  10
ENDBRANCH   5   6
ENDBRANCH   2   5
BRANCH   3  16
HETATM   16  C11 UNL     1     116.224 127.789 181.962  1.00  0.00     0.112 C 
BRANCH  16  17
HETATM   17  C12 UNL     1     116.237 127.497 180.502  1.00  0.00    -0.031 C 
HETATM   18  C13 UNL     1     115.062 128.082 179.799  1.00  0.00     0.014 C 
HETATM   19  C14 UNL     1     115.085 127.638 178.345  1.00  0.00    -0.013 C 
HETATM   20  C15 UNL     1     115.095 126.137 178.213  1.00  0.00     0.009 C 
HETATM   21  C19 UNL     1     116.358 128.150 177.675  1.00  0.00     0.009 C 
HETATM   22  C16 UNL     1     116.292 125.573 178.944  1.00  0.00    -0.013 C 
HETATM   23  C17 UNL     1     117.565 126.064 178.324  1.00  0.00     0.009 C 
HETATM   24  C21 UNL     1     116.171 125.977 180.373  1.00  0.00     0.014 C 
HETATM   25  C18 UNL     1     117.542 127.575 178.389  1.00  0.00    -0.013 C 
HETATM   26  C20 UNL     1     117.507 127.985 179.839  1.00  0.00     0.014 C 
ENDBRANCH  16  17
ENDBRANCH   3  16
TORSDOF 5
ENDMDL
MODEL 3
REMARK VINA RESULT: -10.058042156      2.956      6.595
REMARK  5 active torsions:
REMARK  status: ('A' for Active; 'I' for Inactive)
REMARK    1  A    between atoms: N1_2  and  C2_3 
REMARK       I    between atoms: N1_2  and  C10_14 
REMARK    2  A    between atoms: C2_3  and  C3_4 
REMARK       I    between atoms: C3_4  and  N2_6 
REMARK    3  A    between atoms: N2_6  and  C4_8 
REMARK    4  A    between atoms: C10_14  and  C11_16 
REMARK    5  A    between atoms: C11_16  and  C12_17 
ROOT
HETATM    1  C1  UNL     1     113.063 131.749 180.956  1.00  0.00     0.153 C 
HETATM    2  N1  UNL     1     114.047 130.713 181.262  1.00  0.00    -0.348 N 
HETATM    3  C10 UNL     1     113.885 129.819 182.341  1.00  0.00     0.220 C 
HETATM    4  O2  UNL     1     112.850 129.958 183.033  1.00  0.00    -0.273 OA
ENDROOT
BRANCH   2   5
HETATM    5  C2  UNL     1     115.198 130.639 180.415  1.00  0.00     0.227 C 
BRANCH   5   6
HETATM    6  C3  UNL     1     114.810 129.908 179.172  1.00  0.00     0.235 C 
HETATM    7  O1  UNL     1     113.630 129.974 178.763  1.00  0.00    -0.272 OA
HETATM    8  N2  UNL     1     115.794 129.166 178.499  1.00  0.00    -0.355 N 
ATOM      9  H2  UNL     1     116.746 129.137 178.865  1.00  0.00     0.162 HD
BRANCH   8  10
HETATM   10  C4  UNL     1     115.468 128.444 177.292  1.00  0.00     0.085 C 
HETATM   11  C5  UNL     1     115.867 127.001 177.364  1.00  0.00     0.030 C 
HETATM   12  C6  UNL     1     116.416 126.635 176.018  1.00  0.00    -0.008 A 
HETATM   13  C7  UNL     1     117.811 127.037 175.719  1.00  0.00     0.010 A 
HETATM   14  C8  UNL     1     116.659 127.890 175.264  1.00  0.00    -0.008 A 
HETATM   15  C9  UNL     1     116.276 129.053 176.159  1.00  0.00     0.030 C 
ENDBRANCH   8  10
ENDBRANCH   5   6
ENDBRANCH   2   5
BRANCH   3  16
HETATM   16  C11 UNL     1     114.864 128.783 182.649  1.00  0.00     0.112 C 
BRANCH  16  17
HETATM   17  C12 UNL     1     114.392 127.399 182.363  1.00  0.00    -0.031 C 
HETATM   18  C13 UNL     1     113.175 127.047 183.145  1.00  0.00     0.014 C 
HETATM   19  C14 UNL     1     112.831 125.588 182.892  1.00  0.00    -0.013 C 
HETATM   20  C15 UNL     1     113.975 124.669 183.236  1.00  0.00     0.009 C 
HETATM   21  C19 UNL     1     112.532 125.385 181.408  1.00  0.00     0.009 C 
HETATM   22  C16 UNL     1     115.195 125.058 182.434  1.00  0.00    -0.013 C 
HETATM   23  C17 UNL     1     114.938 124.886 180.968  1.00  0.00     0.009 C 
HETATM   24  C21 UNL     1     115.526 126.469 182.784  1.00  0.00     0.014 C 
HETATM   25  C18 UNL     1     113.749 125.753 180.617  1.00  0.00    -0.013 C 
HETATM   26  C20 UNL     1     114.114 127.189 180.890  1.00  0.00     0.014 C 
ENDBRANCH  16  17
ENDBRANCH   3  16
TORSDOF 5
ENDMDL
MODEL 4
REMARK VINA RESULT: -9.953616368      0.168      1.487
REMARK  5 active torsions:
REMARK  status: ('A' for Active; 'I' for Inactive)
REMARK    1  A    between atoms: N1_2  and  C2_3 
REMARK       I    between atoms: N1_2  and  C10_14 
REMARK    2  A    between atoms: C2_3  and  C3_4 
REMARK       I    between atoms: C3_4  and  N2_6 
REMARK    3  A    between atoms: N2_6  and  C4_8 
REMARK    4  A    between atoms: C10_14  and  C11_16 
REMARK    5  A    between atoms: C11_16  and  C12_17 
ROOT
HETATM    1  C1  UNL     1     112.659 128.270 183.437  1.00  0.00     0.153 C 
HETATM    2  N1  UNL     1     113.927 127.674 183.021  1.00  0.00    -0.348 N 
HETATM    3  C10 UNL     1     114.968 128.439 182.458  1.00  0.00     0.220 C 
HETATM    4  O2  UNL     1     114.752 129.667 182.327  1.00  0.00    -0.273 OA
ENDROOT
BRANCH   2   5
HETATM    5  C2  UNL     1     114.073 126.262 183.208  1.00  0.00     0.227 C 
BRANCH   5   6
HETATM    6  C3  UNL     1     112.893 125.589 182.588  1.00  0.00     0.235 C 
HETATM    7  O1  UNL     1     112.690 125.711 181.359  1.00  0.00    -0.272 OA
HETATM    8  N2  UNL     1     112.044 124.837 183.415  1.00  0.00    -0.355 N 
ATOM      9  H2  UNL     1     112.243 124.762 184.413  1.00  0.00     0.162 HD
BRANCH   8  10
HETATM   10  C4  UNL     1     110.890 124.167 182.862  1.00  0.00     0.085 C 
HETATM   11  C5  UNL     1     109.660 125.024 182.898  1.00  0.00     0.030 C 
HETATM   12  C6  UNL     1     108.519 124.128 183.273  1.00  0.00    -0.008 A 
HETATM   13  C7  UNL     1     108.361 123.790 184.707  1.00  0.00     0.010 A 
HETATM   14  C8  UNL     1     109.082 122.852 183.778  1.00  0.00    -0.008 A 
HETATM   15  C9  UNL     1     110.594 122.962 183.738  1.00  0.00     0.030 C 
ENDBRANCH   8  10
ENDBRANCH   5   6
ENDBRANCH   2   5
BRANCH   3  16
HETATM   16  C11 UNL     1     116.235 127.848 182.042  1.00  0.00     0.112 C 
BRANCH  16  17
HETATM   17  C12 UNL     1     116.287 127.477 180.601  1.00  0.00    -0.031 C 
HETATM   18  C13 UNL     1     117.537 127.945 179.942  1.00  0.00     0.014 C 
HETATM   19  C14 UNL     1     117.457 127.638 178.456  1.00  0.00    -0.013 C 
HETATM   20  C15 UNL     1     116.247 128.264 177.814  1.00  0.00     0.009 C 
HETATM   21  C19 UNL     1     117.335 126.128 178.253  1.00  0.00     0.009 C 
HETATM   22  C16 UNL     1     114.996 127.777 178.509  1.00  0.00    -0.013 C 
HETATM   23  C17 UNL     1     114.846 126.296 178.345  1.00  0.00     0.009 C 
HETATM   24  C21 UNL     1     115.100 128.176 179.941  1.00  0.00     0.014 C 
HETATM   25  C18 UNL     1     116.085 125.653 178.927  1.00  0.00    -0.013 C 
HETATM   26  C20 UNL     1     116.144 125.984 180.395  1.00  0.00     0.014 C 
ENDBRANCH  16  17
ENDBRANCH   3  16
TORSDOF 5
ENDMDL
MODEL 5
REMARK VINA RESULT: -9.922782694      2.965      4.316
REMARK  5 active torsions:
REMARK  status: ('A' for Active; 'I' for Inactive)
REMARK    1  A    between atoms: N1_2  and  C2_3 
REMARK       I    between atoms: N1_2  and  C10_14 
REMARK    2  A    between atoms: C2_3  and  C3_4 
REMARK       I    between atoms: C3_4  and  N2_6 
REMARK    3  A    between atoms: N2_6  and  C4_8 
REMARK    4  A    between atoms: C10_14  and  C11_16 
REMARK    5  A    between atoms: C11_16  and  C12_17 
ROOT
HETATM    1  C1  UNL     1     113.203 131.461 180.168  1.00  0.00     0.153 C 
HETATM    2  N1  UNL     1     114.549 130.954 179.911  1.00  0.00    -0.348 N 
HETATM    3  C10 UNL     1     114.858 130.187 178.769  1.00  0.00     0.220 C 
HETATM    4  O2  UNL     1     113.914 129.956 177.978  1.00  0.00    -0.273 OA
ENDROOT
BRANCH   2   5
HETATM    5  C2  UNL     1     115.557 131.268 180.878  1.00  0.00     0.227 C 
BRANCH   5   6
HETATM    6  C3  UNL     1     115.809 130.044 181.696  1.00  0.00     0.235 C 
HETATM    7  O1  UNL     1     116.982 129.753 182.022  1.00  0.00    -0.272 OA
HETATM    8  N2  UNL     1     114.711 129.256 182.074  1.00  0.00    -0.355 N 
ATOM      9  H2  UNL     1     113.770 129.527 181.788  1.00  0.00     0.162 HD
BRANCH   8  10
HETATM   10  C4  UNL     1     114.905 128.064 182.867  1.00  0.00     0.085 C 
HETATM   11  C5  UNL     1     115.663 127.003 182.127  1.00  0.00     0.030 C 
HETATM   12  C6  UNL     1     115.021 125.693 182.469  1.00  0.00    -0.008 A 
HETATM   13  C7  UNL     1     113.772 125.339 181.756  1.00  0.00     0.010 A 
HETATM   14  C8  UNL     1     113.717 125.975 183.118  1.00  0.00    -0.008 A 
HETATM   15  C9  UNL     1     113.533 127.479 183.160  1.00  0.00     0.030 C 
ENDBRANCH   8  10
ENDBRANCH   5   6
ENDBRANCH   2   5
BRANCH   3  16
HETATM   16  C11 UNL     1     116.201 129.681 178.509  1.00  0.00     0.112 C 
BRANCH  16  17
HETATM   17  C12 UNL     1     116.246 128.233 178.163  1.00  0.00    -0.031 C 
HETATM   18  C13 UNL     1     115.080 127.486 178.711  1.00  0.00     0.014 C 
HETATM   19  C14 UNL     1     115.263 126.005 178.421  1.00  0.00    -0.013 C 
HETATM   20  C15 UNL     1     116.554 125.473 178.986  1.00  0.00     0.009 C 
HETATM   21  C19 UNL     1     115.317 125.783 176.910  1.00  0.00     0.009 C 
HETATM   22  C16 UNL     1     117.716 126.257 178.418  1.00  0.00    -0.013 C 
HETATM   23  C17 UNL     1     117.795 126.077 176.934  1.00  0.00     0.009 C 
HETATM   24  C21 UNL     1     117.518 127.683 178.802  1.00  0.00     0.014 C 
HETATM   25  C18 UNL     1     116.479 126.546 176.354  1.00  0.00    -0.013 C 
HETATM   26  C20 UNL     1     116.320 128.011 176.667  1.00  0.00     0.014 C 
ENDBRANCH  16  17
ENDBRANCH   3  16
TORSDOF 5
ENDMDL
