MODEL 1
REMARK VINA RESULT: -9.930859603      0.000      0.000
REMARK  5 active torsions:
REMARK  status: ('A' for Active; 'I' for Inactive)
REMARK    1  A    between atoms: C2_2  and  C4_4 
REMARK    2  A    between atoms: C4_4  and  C5_5 
REMARK    3  A    between atoms: C4_4  and  C19_24 
REMARK       I    between atoms: C5_5  and  N1_7 
REMARK    4  A    between atoms: C10_12  and  C11_13 
REMARK       I    between atoms: C11_13  and  N2_15 
REMARK    5  A    between atoms: N2_15  and  C12_17 
ROOT
HETATM    1  C5  UNL     1     115.739 126.692 179.276  1.00  0.00     0.225 C 
HETATM    2  O1  UNL     1     116.350 125.604 179.552  1.00  0.00    -0.273 OA
HETATM    3  N1  UNL     1     115.502 127.651 180.267  1.00  0.00    -0.338 N 
HETATM    4  C6  UNL     1     114.814 128.904 180.158  1.00  0.00     0.127 C 
HETATM    5  C7  UNL     1     115.479 129.821 181.171  1.00  0.00     0.027 C 
HETATM    6  C8  UNL     1     116.171 128.938 182.150  1.00  0.00     0.015 C 
HETATM    7  C9  UNL     1     117.650 129.244 182.261  1.00  0.00     0.012 C 
HETATM    8  C10 UNL     1     115.939 127.538 181.638  1.00  0.00     0.183 C 
ENDROOT
BRANCH   8   9
HETATM    9  C11 UNL     1     114.958 126.842 182.512  1.00  0.00     0.241 C 
HETATM   10  O2  UNL     1     115.407 125.778 183.058  1.00  0.00    -0.271 OA
HETATM   11  N2  UNL     1     113.631 127.290 182.742  1.00  0.00    -0.354 N 
ATOM     12  H2  UNL     1     113.285 128.142 182.300  1.00  0.00     0.162 HD
BRANCH  11  13
HETATM   13  C12 UNL     1     112.793 126.525 183.606  1.00  0.00     0.089 C 
HETATM   14  C13 UNL     1     111.401 127.151 183.786  1.00  0.00     0.030 C 
HETATM   15  C14 UNL     1     110.409 126.038 183.646  1.00  0.00    -0.012 C 
HETATM   16  C15 UNL     1     110.243 125.762 182.170  1.00  0.00     0.005 C 
HETATM   17  C18 UNL     1     111.271 124.828 184.045  1.00  0.00     0.011 C 
HETATM   18  C16 UNL     1     111.670 125.325 181.798  1.00  0.00     0.007 C 
HETATM   19  C17 UNL     1     112.422 125.161 183.075  1.00  0.00     0.009 C 
ENDBRANCH  11  13
ENDBRANCH   8   9
BRANCH   1  20
HETATM   20  C4  UNL     1     115.316 126.849 177.836  1.00  0.00     0.085 C 
BRANCH  20  21
HETATM   21  C2  UNL     1     114.606 125.591 177.449  1.00  0.00    -0.009 C 
HETATM   22  C1  UNL     1     114.382 125.370 175.997  1.00  0.00     0.010 C 
HETATM   23  C3  UNL     1     113.222 125.676 178.103  1.00  0.00     0.010 C 
ENDBRANCH  20  21
BRANCH  20  24
HETATM   24  C19 UNL     1     116.584 127.113 177.083  1.00  0.00    -0.009 C 
HETATM   25  C20 UNL     1     117.804 127.368 177.920  1.00  0.00     0.010 C 
HETATM   26  C21 UNL     1     116.450 128.250 176.095  1.00  0.00     0.010 C 
ENDBRANCH  20  24
ENDBRANCH   1  20
TORSDOF 5
ENDMDL
MODEL 2
REMARK VINA RESULT: -9.612713443      1.356      1.784
REMARK  5 active torsions:
REMARK  status: ('A' for Active; 'I' for Inactive)
REMARK    1  A    between atoms: C2_2  and  C4_4 
REMARK    2  A    between atoms: C4_4  and  C5_5 
REMARK    3  A    between atoms: C4_4  and  C19_24 
REMARK       I    between atoms: C5_5  and  N1_7 
REMARK    4  A    between atoms: C10_12  and  C11_13 
REMARK       I    between atoms: C11_13  and  N2_15 
REMARK    5  A    between atoms: N2_15  and  C12_17 
ROOT
HETATM    1  C5  UNL     1     116.086 128.070 178.566  1.00  0.00     0.225 C 
HETATM    2  O1  UNL     1     117.190 127.587 178.990  1.00  0.00    -0.273 OA
HETATM    3  N1  UNL     1     115.301 128.889 179.387  1.00  0.00    -0.338 N 
HETATM    4  C6  UNL     1     114.032 129.492 179.103  1.00  0.00     0.127 C 
HETATM    5  C7  UNL     1     114.014 130.788 179.895  1.00  0.00     0.027 C 
HETATM    6  C8  UNL     1     115.036 130.643 180.968  1.00  0.00     0.015 C 
HETATM    7  C9  UNL     1     116.076 131.744 180.929  1.00  0.00     0.012 C 
HETATM    8  C10 UNL     1     115.660 129.292 180.726  1.00  0.00     0.183 C 
ENDROOT
BRANCH   8   9
HETATM    9  C11 UNL     1     115.203 128.335 181.769  1.00  0.00     0.241 C 
HETATM   10  O2  UNL     1     115.882 128.376 182.850  1.00  0.00    -0.271 OA
HETATM   11  N2  UNL     1     114.112 127.440 181.612  1.00  0.00    -0.354 N 
ATOM     12  H2  UNL     1     113.577 127.418 180.744  1.00  0.00     0.162 HD
BRANCH  11  13
HETATM   13  C12 UNL     1     113.779 126.575 182.696  1.00  0.00     0.089 C 
HETATM   14  C13 UNL     1     112.562 127.068 183.494  1.00  0.00     0.030 C 
HETATM   15  C14 UNL     1     111.682 125.876 183.714  1.00  0.00    -0.012 C 
HETATM   16  C15 UNL     1     110.916 125.636 182.434  1.00  0.00     0.005 C 
HETATM   17  C18 UNL     1     112.710 124.735 183.624  1.00  0.00     0.011 C 
HETATM   18  C16 UNL     1     112.070 125.340 181.461  1.00  0.00     0.007 C 
HETATM   19  C17 UNL     1     113.307 125.201 182.282  1.00  0.00     0.009 C 
ENDBRANCH  11  13
ENDBRANCH   8   9
BRANCH   1  20
HETATM   20  C4  UNL     1     115.717 127.698 177.152  1.00  0.00     0.085 C 
BRANCH  20  21
HETATM   21  C2  UNL     1     115.488 126.221 177.133  1.00  0.00    -0.009 C 
HETATM   22  C1  UNL     1     114.805 125.666 175.935  1.00  0.00     0.010 C 
HETATM   23  C3  UNL     1     114.584 125.925 178.335  1.00  0.00     0.010 C 
ENDBRANCH  20  21
BRANCH  20  24
HETATM   24  C19 UNL     1     116.867 128.167 176.312  1.00  0.00    -0.009 C 
HETATM   25  C20 UNL     1     116.506 128.963 175.092  1.00  0.00     0.010 C 
HETATM   26  C21 UNL     1     117.775 127.038 175.882  1.00  0.00     0.010 C 
ENDBRANCH  20  24
ENDBRANCH   1  20
TORSDOF 5
ENDMDL
MODEL 3
REMARK VINA RESULT: -9.581278950      1.241      2.334
REMARK  5 active torsions:
REMARK  status: ('A' for Active; 'I' for Inactive)
REMARK    1  A    between atoms: C2_2  and  C4_4 
REMARK    2  A    between atoms: C4_4  and  C5_5 
REMARK    3  A    between atoms: C4_4  and  C19_24 
REMARK       I    between atoms: C5_5  and  N1_7 
REMARK    4  A    between atoms: C10_12  and  C11_13 
REMARK       I    between atoms: C11_13  and  N2_15 
REMARK    5  A    between atoms: N2_15  and  C12_17 
ROOT
HETATM    1  C5  UNL     1     115.322 125.864 179.905  1.00  0.00     0.225 C 
HETATM    2  O1  UNL     1     115.478 124.882 180.708  1.00  0.00    -0.273 OA
HETATM    3  N1  UNL     1     115.163 127.167 180.391  1.00  0.00    -0.338 N 
HETATM    4  C6  UNL     1     114.947 128.378 179.656  1.00  0.00     0.127 C 
HETATM    5  C7  UNL     1     115.599 129.474 180.482  1.00  0.00     0.027 C 
HETATM    6  C8  UNL     1     115.725 128.943 181.867  1.00  0.00     0.015 C 
HETATM    7  C9  UNL     1     117.153 128.970 182.370  1.00  0.00     0.012 C 
HETATM    8  C10 UNL     1     115.199 127.531 181.787  1.00  0.00     0.183 C 
ENDROOT
BRANCH   8   9
HETATM    9  C11 UNL     1     113.869 127.454 182.449  1.00  0.00     0.241 C 
HETATM   10  O2  UNL     1     113.509 128.535 183.026  1.00  0.00    -0.271 OA
HETATM   11  N2  UNL     1     113.046 126.297 182.458  1.00  0.00    -0.354 N 
ATOM     12  H2  UNL     1     113.346 125.440 181.993  1.00  0.00     0.162 HD
BRANCH  11  13
HETATM   13  C12 UNL     1     111.791 126.361 183.132  1.00  0.00     0.089 C 
HETATM   14  C13 UNL     1     110.625 125.879 182.254  1.00  0.00     0.030 C 
HETATM   15  C14 UNL     1     109.792 124.972 183.106  1.00  0.00    -0.012 C 
HETATM   16  C15 UNL     1     110.487 123.632 183.154  1.00  0.00     0.005 C 
HETATM   17  C18 UNL     1     110.135 125.497 184.511  1.00  0.00     0.011 C 
HETATM   18  C16 UNL     1     111.811 124.020 183.833  1.00  0.00     0.007 C 
HETATM   19  C17 UNL     1     111.661 125.425 184.310  1.00  0.00     0.009 C 
ENDBRANCH  11  13
ENDBRANCH   8   9
BRANCH   1  20
HETATM   20  C4  UNL     1     115.328 125.508 178.439  1.00  0.00     0.085 C 
BRANCH  20  21
HETATM   21  C2  UNL     1     116.266 126.455 177.763  1.00  0.00    -0.009 C 
HETATM   22  C1  UNL     1     116.341 126.375 176.281  1.00  0.00     0.010 C 
HETATM   23  C3  UNL     1     117.661 126.113 178.297  1.00  0.00     0.010 C 
ENDBRANCH  20  21
BRANCH  20  24
HETATM   24  C19 UNL     1     113.897 125.620 178.005  1.00  0.00    -0.009 C 
HETATM   25  C20 UNL     1     112.869 125.477 179.089  1.00  0.00     0.010 C 
HETATM   26  C21 UNL     1     113.546 124.652 176.897  1.00  0.00     0.010 C 
ENDBRANCH  20  24
ENDBRANCH   1  20
TORSDOF 5
ENDMDL
MODEL 4
REMARK VINA RESULT: -9.012143784      1.357      2.589
REMARK  5 active torsions:
REMARK  status: ('A' for Active; 'I' for Inactive)
REMARK    1  A    between atoms: C2_2  and  C4_4 
REMARK    2  A    between atoms: C4_4  and  C5_5 
REMARK    3  A    between atoms: C4_4  and  C19_24 
REMARK       I    between atoms: C5_5  and  N1_7 
REMARK    4  A    between atoms: C10_12  and  C11_13 
REMARK       I    between atoms: C11_13  and  N2_15 
REMARK    5  A    between atoms: N2_15  and  C12_17 
ROOT
HETATM    1  C5  UNL     1     116.050 125.718 179.031  1.00  0.00     0.225 C 
HETATM    2  O1  UNL     1     116.348 124.605 179.584  1.00  0.00    -0.273 OA
HETATM    3  N1  UNL     1     115.353 126.704 179.739  1.00  0.00    -0.338 N 
HETATM    4  C6  UNL     1     114.906 127.988 179.284  1.00  0.00     0.127 C 
HETATM    5  C7  UNL     1     114.945 128.887 180.508  1.00  0.00     0.027 C 
HETATM    6  C8  UNL     1     114.931 127.987 181.695  1.00  0.00     0.015 C 
HETATM    7  C9  UNL     1     116.115 128.220 182.611  1.00  0.00     0.012 C 
HETATM    8  C10 UNL     1     114.950 126.592 181.120  1.00  0.00     0.183 C 
ENDROOT
BRANCH   8   9
HETATM    9  C11 UNL     1     113.615 125.961 181.293  1.00  0.00     0.241 C 
HETATM   10  O2  UNL     1     112.965 125.805 180.205  1.00  0.00    -0.271 OA
HETATM   11  N2  UNL     1     113.078 125.554 182.543  1.00  0.00    -0.354 N 
ATOM     12  H2  UNL     1     113.607 125.684 183.405  1.00  0.00     0.162 HD
BRANCH  11  13
HETATM   13  C12 UNL     1     111.782 124.959 182.565  1.00  0.00     0.089 C 
HETATM   14  C13 UNL     1     111.568 124.055 183.790  1.00  0.00     0.030 C 
HETATM   15  C14 UNL     1     110.218 124.392 184.342  1.00  0.00    -0.012 C 
HETATM   16  C15 UNL     1     110.361 125.667 185.140  1.00  0.00     0.005 C 
HETATM   17  C18 UNL     1     109.519 124.944 183.087  1.00  0.00     0.011 C 
HETATM   18  C16 UNL     1     110.804 126.645 184.040  1.00  0.00     0.007 C 
HETATM   19  C17 UNL     1     110.644 125.938 182.737  1.00  0.00     0.009 C 
ENDBRANCH  11  13
ENDBRANCH   8   9
BRANCH   1  20
HETATM   20  C4  UNL     1     116.504 125.871 177.601  1.00  0.00     0.085 C 
BRANCH  20  21
HETATM   21  C2  UNL     1     117.427 127.046 177.558  1.00  0.00    -0.009 C 
HETATM   22  C1  UNL     1     117.073 128.139 176.615  1.00  0.00     0.010 C 
HETATM   23  C3  UNL     1     118.783 126.493 177.106  1.00  0.00     0.010 C 
ENDBRANCH  20  21
BRANCH  20  24
HETATM   24  C19 UNL     1     115.242 126.032 176.807  1.00  0.00    -0.009 C 
HETATM   25  C20 UNL     1     114.127 125.087 177.148  1.00  0.00     0.010 C 
HETATM   26  C21 UNL     1     115.478 125.958 175.315  1.00  0.00     0.010 C 
ENDBRANCH  20  24
ENDBRANCH   1  20
TORSDOF 5
ENDMDL
MODEL 5
REMARK VINA RESULT: -8.975121727      2.117      3.642
REMARK  5 active torsions:
REMARK  status: ('A' for Active; 'I' for Inactive)
REMARK    1  A    between atoms: C2_2  and  C4_4 
REMARK    2  A    between atoms: C4_4  and  C5_5 
REMARK    3  A    between atoms: C4_4  and  C19_24 
REMARK       I    between atoms: C5_5  and  N1_7 
REMARK    4  A    between atoms: C10_12  and  C11_13 
REMARK       I    between atoms: C11_13  and  N2_15 
REMARK    5  A    between atoms: N2_15  and  C12_17 
ROOT
HETATM    1  C5  UNL     1     114.627 129.087 178.870  1.00  0.00     0.225 C 
HETATM    2  O1  UNL     1     113.501 128.602 178.510  1.00  0.00    -0.273 OA
HETATM    3  N1  UNL     1     115.664 128.249 179.297  1.00  0.00    -0.338 N 
HETATM    4  C6  UNL     1     116.971 128.606 179.763  1.00  0.00     0.127 C 
HETATM    5  C7  UNL     1     117.876 127.456 179.353  1.00  0.00     0.027 C 
HETATM    6  C8  UNL     1     116.988 126.284 179.116  1.00  0.00     0.015 C 
HETATM    7  C9  UNL     1     117.149 125.710 177.723  1.00  0.00     0.012 C 
HETATM    8  C10 UNL     1     115.591 126.808 179.334  1.00  0.00     0.183 C 
ENDROOT
BRANCH   8   9
HETATM    9  C11 UNL     1     115.053 126.281 180.616  1.00  0.00     0.241 C 
HETATM   10  O2  UNL     1     115.665 125.249 181.055  1.00  0.00    -0.271 OA
HETATM   11  N2  UNL     1     113.958 126.849 181.319  1.00  0.00    -0.354 N 
ATOM     12  H2  UNL     1     113.478 127.673 180.958  1.00  0.00     0.162 HD
BRANCH  11  13
HETATM   13  C12 UNL     1     113.545 126.241 182.541  1.00  0.00     0.089 C 
HETATM   14  C13 UNL     1     112.646 127.160 183.383  1.00  0.00     0.030 C 
HETATM   15  C14 UNL     1     111.499 126.322 183.856  1.00  0.00    -0.012 C 
HETATM   16  C15 UNL     1     110.525 126.197 182.708  1.00  0.00     0.005 C 
HETATM   17  C18 UNL     1     112.129 124.919 183.821  1.00  0.00     0.011 C 
HETATM   18  C16 UNL     1     111.396 125.466 181.673  1.00  0.00     0.007 C 
HETATM   19  C17 UNL     1     112.642 125.042 182.373  1.00  0.00     0.009 C 
ENDBRANCH  11  13
ENDBRANCH   8   9
BRANCH   1  20
HETATM   20  C4  UNL     1     114.738 130.590 178.793  1.00  0.00     0.085 C 
BRANCH  20  21
HETATM   21  C2  UNL     1     113.690 131.153 179.699  1.00  0.00    -0.009 C 
HETATM   22  C1  UNL     1     113.563 132.633 179.733  1.00  0.00     0.010 C 
HETATM   23  C3  UNL     1     114.081 130.709 181.113  1.00  0.00     0.010 C 
ENDBRANCH  20  21
BRANCH  20  24
HETATM   24  C19 UNL     1     114.559 130.920 177.341  1.00  0.00    -0.009 C 
HETATM   25  C20 UNL     1     115.614 130.393 176.414  1.00  0.00     0.010 C 
HETATM   26  C21 UNL     1     114.419 132.405 177.094  1.00  0.00     0.010 C 
ENDBRANCH  20  24
ENDBRANCH   1  20
TORSDOF 5
ENDMDL
