MODEL 1
REMARK VINA RESULT: -10.326598718      0.000      0.000
REMARK  5 active torsions:
REMARK  status: ('A' for Active; 'I' for Inactive)
REMARK    1  A    between atoms: C9_9  and  C10_10 
REMARK       I    between atoms: C10_10  and  N1_12 
REMARK    2  A    between atoms: N1_12  and  C11_14 
REMARK    3  A    between atoms: C11_14  and  C12_15 
REMARK    4  A    between atoms: C11_14  and  C20_25 
REMARK       I    between atoms: C12_15  and  N2_17 
REMARK    5  A    between atoms: C15_20  and  C16_21 
ROOT
HETATM    1  C1  UNL     1     117.694 127.213 178.644  1.00  0.00     0.012 C 
HETATM    2  C2  UNL     1     116.799 126.419 178.548  1.00  0.00    -0.111 C 
HETATM    3  C3  UNL     1     115.740 125.457 178.399  1.00  0.00     0.081 C 
HETATM    4  C4  UNL     1     114.983 125.724 177.071  1.00  0.00     0.002 C 
HETATM    5  C5  UNL     1     113.876 124.751 176.921  1.00  0.00     0.006 C 
HETATM    6  C6  UNL     1     112.726 125.241 177.818  1.00  0.00     0.006 C 
HETATM    7  C7  UNL     1     113.473 126.253 178.667  1.00  0.00     0.000 C 
HETATM    8  C8  UNL     1     114.225 126.973 177.566  1.00  0.00     0.011 C 
HETATM    9  C9  UNL     1     114.640 125.539 179.373  1.00  0.00     0.098 C 
ENDROOT
BRANCH   9  10
HETATM   10  C10 UNL     1     114.817 126.137 180.665  1.00  0.00     0.224 C 
HETATM   11  O1  UNL     1     115.380 125.404 181.577  1.00  0.00    -0.273 OA
HETATM   12  N1  UNL     1     114.478 127.416 181.143  1.00  0.00    -0.347 N 
ATOM     13  H1  UNL     1     114.039 128.064 180.488  1.00  0.00     0.163 HD
BRANCH  12  14
HETATM   14  C11 UNL     1     114.707 127.884 182.506  1.00  0.00     0.180 C 
BRANCH  14  15
HETATM   15  C12 UNL     1     113.421 128.170 183.186  1.00  0.00     0.243 C 
HETATM   16  O2  UNL     1     113.233 129.347 183.589  1.00  0.00    -0.271 OA
HETATM   17  N2  UNL     1     112.404 127.209 183.406  1.00  0.00    -0.350 N 
HETATM   18  C13 UNL     1     112.310 125.811 183.042  1.00  0.00     0.126 C 
HETATM   19  C19 UNL     1     111.150 127.472 184.114  1.00  0.00     0.130 C 
HETATM   20  C14 UNL     1     110.849 125.718 182.579  1.00  0.00     0.026 C 
HETATM   21  C15 UNL     1     110.140 126.494 183.628  1.00  0.00     0.008 C 
BRANCH  21  22
HETATM   22  C16 UNL     1     109.478 125.677 184.690  1.00  0.00    -0.017 C 
HETATM   23  C17 UNL     1     108.768 124.463 184.203  1.00  0.00     0.010 C 
HETATM   24  C18 UNL     1     108.509 126.556 185.436  1.00  0.00     0.010 C 
ENDBRANCH  21  22
ENDBRANCH  14  15
BRANCH  14  25
HETATM   25  C20 UNL     1     115.581 129.109 182.433  1.00  0.00     0.009 C 
HETATM   26  C21 UNL     1     115.279 130.020 181.303  1.00  0.00     0.012 C 
HETATM   27  C22 UNL     1     117.028 128.718 182.436  1.00  0.00     0.012 C 
ENDBRANCH  14  25
ENDBRANCH  12  14
ENDBRANCH   9  10
TORSDOF 5
ENDMDL
MODEL 2
REMARK VINA RESULT: -9.933318054      1.864      3.389
REMARK  5 active torsions:
REMARK  status: ('A' for Active; 'I' for Inactive)
REMARK    1  A    between atoms: C9_9  and  C10_10 
REMARK       I    between atoms: C10_10  and  N1_12 
REMARK    2  A    between atoms: N1_12  and  C11_14 
REMARK    3  A    between atoms: C11_14  and  C12_15 
REMARK    4  A    between atoms: C11_14  and  C20_25 
REMARK       I    between atoms: C12_15  and  N2_17 
REMARK    5  A    between atoms: C15_20  and  C16_21 
ROOT
HETATM    1  C1  UNL     1     116.226 128.690 182.492  1.00  0.00     0.012 C 
HETATM    2  C2  UNL     1     116.186 127.690 181.829  1.00  0.00    -0.111 C 
HETATM    3  C3  UNL     1     116.172 126.502 181.018  1.00  0.00     0.081 C 
HETATM    4  C4  UNL     1     116.292 126.897 179.522  1.00  0.00     0.002 C 
HETATM    5  C5  UNL     1     116.255 125.679 178.679  1.00  0.00     0.006 C 
HETATM    6  C6  UNL     1     114.781 125.252 178.575  1.00  0.00     0.006 C 
HETATM    7  C7  UNL     1     114.190 126.084 179.698  1.00  0.00     0.000 C 
HETATM    8  C8  UNL     1     114.846 127.413 179.375  1.00  0.00     0.011 C 
HETATM    9  C9  UNL     1     114.919 125.732 181.008  1.00  0.00     0.098 C 
ENDROOT
BRANCH   9  10
HETATM   10  C10 UNL     1     113.972 125.814 182.084  1.00  0.00     0.224 C 
HETATM   11  O1  UNL     1     114.016 124.869 182.974  1.00  0.00    -0.273 OA
HETATM   12  N1  UNL     1     112.969 126.761 182.359  1.00  0.00    -0.347 N 
ATOM     13  H1  UNL     1     112.870 127.546 181.715  1.00  0.00     0.163 HD
BRANCH  12  14
HETATM   14  C11 UNL     1     112.058 126.703 183.498  1.00  0.00     0.180 C 
BRANCH  14  15
HETATM   15  C12 UNL     1     110.848 125.914 183.163  1.00  0.00     0.243 C 
HETATM   16  O2  UNL     1     110.321 126.120 182.039  1.00  0.00    -0.271 OA
HETATM   17  N2  UNL     1     110.258 124.954 184.021  1.00  0.00    -0.350 N 
HETATM   18  C13 UNL     1     110.638 124.480 185.335  1.00  0.00     0.126 C 
HETATM   19  C19 UNL     1     109.040 124.202 183.715  1.00  0.00     0.130 C 
HETATM   20  C14 UNL     1     110.390 122.971 185.194  1.00  0.00     0.026 C 
HETATM   21  C15 UNL     1     109.081 122.936 184.494  1.00  0.00     0.008 C 
BRANCH  21  22
HETATM   22  C16 UNL     1     107.895 122.683 185.369  1.00  0.00    -0.017 C 
HETATM   23  C17 UNL     1     106.833 123.723 185.308  1.00  0.00     0.010 C 
HETATM   24  C18 UNL     1     108.371 122.539 186.790  1.00  0.00     0.010 C 
ENDBRANCH  21  22
ENDBRANCH  14  15
BRANCH  14  25
HETATM   25  C20 UNL     1     111.710 128.117 183.884  1.00  0.00     0.009 C 
HETATM   26  C21 UNL     1     112.812 129.094 183.716  1.00  0.00     0.012 C 
HETATM   27  C22 UNL     1     111.166 128.156 185.280  1.00  0.00     0.012 C 
ENDBRANCH  14  25
ENDBRANCH  12  14
ENDBRANCH   9  10
TORSDOF 5
ENDMDL
MODEL 3
REMARK VINA RESULT: -9.856646103      1.904      3.058
REMARK  5 active torsions:
REMARK  status: ('A' for Active; 'I' for Inactive)
REMARK    1  A    between atoms: C9_9  and  C10_10 
REMARK       I    between atoms: C10_10  and  N1_12 
REMARK    2  A    between atoms: N1_12  and  C11_14 
REMARK    3  A    between atoms: C11_14  and  C12_15 
REMARK    4  A    between atoms: C11_14  and  C20_25 
REMARK       I    between atoms: C12_15  and  N2_17 
REMARK    5  A    between atoms: C15_20  and  C16_21 
ROOT
HETATM    1  C1  UNL     1     117.147 129.079 181.874  1.00  0.00     0.012 C 
HETATM    2  C2  UNL     1     117.081 128.325 180.943  1.00  0.00    -0.111 C 
HETATM    3  C3  UNL     1     117.032 127.440 179.809  1.00  0.00     0.081 C 
HETATM    4  C4  UNL     1     116.871 128.273 178.510  1.00  0.00     0.002 C 
HETATM    5  C5  UNL     1     116.797 127.367 177.340  1.00  0.00     0.006 C 
HETATM    6  C6  UNL     1     115.367 126.803 177.302  1.00  0.00     0.006 C 
HETATM    7  C7  UNL     1     114.902 127.180 178.697  1.00  0.00     0.000 C 
HETATM    8  C8  UNL     1     115.383 128.618 178.723  1.00  0.00     0.011 C 
HETATM    9  C9  UNL     1     115.863 126.553 179.723  1.00  0.00     0.098 C 
ENDROOT
BRANCH   9  10
HETATM   10  C10 UNL     1     115.103 126.187 180.885  1.00  0.00     0.224 C 
HETATM   11  O1  UNL     1     115.436 125.081 181.478  1.00  0.00    -0.273 OA
HETATM   12  N1  UNL     1     114.023 126.829 181.518  1.00  0.00    -0.347 N 
ATOM     13  H1  UNL     1     113.701 127.713 181.124  1.00  0.00     0.163 HD
BRANCH  12  14
HETATM   14  C11 UNL     1     113.330 126.323 182.699  1.00  0.00     0.180 C 
BRANCH  14  15
HETATM   15  C12 UNL     1     112.137 125.533 182.308  1.00  0.00     0.243 C 
HETATM   16  O2  UNL     1     111.762 125.614 181.110  1.00  0.00    -0.271 OA
HETATM   17  N2  UNL     1     111.404 124.705 183.193  1.00  0.00    -0.350 N 
HETATM   18  C13 UNL     1     111.598 124.387 184.592  1.00  0.00     0.126 C 
HETATM   19  C19 UNL     1     110.201 123.956 182.826  1.00  0.00     0.130 C 
HETATM   20  C14 UNL     1     111.303 122.879 184.601  1.00  0.00     0.026 C 
HETATM   21  C15 UNL     1     110.090 122.795 183.749  1.00  0.00     0.008 C 
BRANCH  21  22
HETATM   22  C16 UNL     1     108.796 122.687 184.489  1.00  0.00    -0.017 C 
HETATM   23  C17 UNL     1     107.860 123.827 184.294  1.00  0.00     0.010 C 
HETATM   24  C18 UNL     1     109.095 122.532 185.957  1.00  0.00     0.010 C 
ENDBRANCH  21  22
ENDBRANCH  14  15
BRANCH  14  25
HETATM   25  C20 UNL     1     112.959 127.503 183.559  1.00  0.00     0.009 C 
HETATM   26  C21 UNL     1     111.513 127.831 183.569  1.00  0.00     0.012 C 
HETATM   27  C22 UNL     1     113.779 128.699 183.184  1.00  0.00     0.012 C 
ENDBRANCH  14  25
ENDBRANCH  12  14
ENDBRANCH   9  10
TORSDOF 5
ENDMDL
MODEL 4
REMARK VINA RESULT: -9.798044609      1.745      7.214
REMARK  5 active torsions:
REMARK  status: ('A' for Active; 'I' for Inactive)
REMARK    1  A    between atoms: C9_9  and  C10_10 
REMARK       I    between atoms: C10_10  and  N1_12 
REMARK    2  A    between atoms: N1_12  and  C11_14 
REMARK    3  A    between atoms: C11_14  and  C12_15 
REMARK    4  A    between atoms: C11_14  and  C20_25 
REMARK       I    between atoms: C12_15  and  N2_17 
REMARK    5  A    between atoms: C15_20  and  C16_21 
ROOT
HETATM    1  C1  UNL     1     109.704 127.426 184.631  1.00  0.00     0.012 C 
HETATM    2  C2  UNL     1     109.695 126.282 184.266  1.00  0.00    -0.111 C 
HETATM    3  C3  UNL     1     109.652 124.906 183.848  1.00  0.00     0.081 C 
HETATM    4  C4  UNL     1     109.614 123.988 185.098  1.00  0.00     0.002 C 
HETATM    5  C5  UNL     1     109.592 122.568 184.676  1.00  0.00     0.006 C 
HETATM    6  C6  UNL     1     111.034 122.194 184.294  1.00  0.00     0.006 C 
HETATM    7  C7  UNL     1     111.643 123.580 184.192  1.00  0.00     0.000 C 
HETATM    8  C8  UNL     1     111.098 124.170 185.477  1.00  0.00     0.011 C 
HETATM    9  C9  UNL     1     110.845 124.395 183.158  1.00  0.00     0.098 C 
ENDROOT
BRANCH   9  10
HETATM   10  C10 UNL     1     111.757 125.269 182.475  1.00  0.00     0.224 C 
HETATM   11  O1  UNL     1     111.412 125.659 181.285  1.00  0.00    -0.273 OA
HETATM   12  N1  UNL     1     113.001 125.794 182.870  1.00  0.00    -0.347 N 
ATOM     13  H1  UNL     1     113.345 125.546 183.798  1.00  0.00     0.163 HD
BRANCH  12  14
HETATM   14  C11 UNL     1     113.834 126.668 182.051  1.00  0.00     0.180 C 
BRANCH  14  15
HETATM   15  C12 UNL     1     114.795 125.875 181.247  1.00  0.00     0.243 C 
HETATM   16  O2  UNL     1     115.176 124.776 181.728  1.00  0.00    -0.271 OA
HETATM   17  N2  UNL     1     115.302 126.274 179.987  1.00  0.00    -0.350 N 
HETATM   18  C13 UNL     1     115.037 127.442 179.172  1.00  0.00     0.126 C 
HETATM   19  C19 UNL     1     116.283 125.518 179.207  1.00  0.00     0.130 C 
HETATM   20  C14 UNL     1     114.952 126.819 177.771  1.00  0.00     0.026 C 
HETATM   21  C15 UNL     1     116.105 125.884 177.776  1.00  0.00     0.008 C 
BRANCH  21  22
HETATM   22  C16 UNL     1     117.334 126.382 177.086  1.00  0.00    -0.017 C 
HETATM   23  C17 UNL     1     118.435 126.815 177.989  1.00  0.00     0.010 C 
HETATM   24  C18 UNL     1     116.948 127.527 176.187  1.00  0.00     0.010 C 
ENDBRANCH  21  22
ENDBRANCH  14  15
BRANCH  14  25
HETATM   25  C20 UNL     1     114.540 127.630 182.970  1.00  0.00     0.009 C 
HETATM   26  C21 UNL     1     113.817 128.902 183.210  1.00  0.00     0.012 C 
HETATM   27  C22 UNL     1     115.934 127.887 182.485  1.00  0.00     0.012 C 
ENDBRANCH  14  25
ENDBRANCH  12  14
ENDBRANCH   9  10
TORSDOF 5
ENDMDL
MODEL 5
REMARK VINA RESULT: -9.756138929      1.770      6.312
REMARK  5 active torsions:
REMARK  status: ('A' for Active; 'I' for Inactive)
REMARK    1  A    between atoms: C9_9  and  C10_10 
REMARK       I    between atoms: C10_10  and  N1_12 
REMARK    2  A    between atoms: N1_12  and  C11_14 
REMARK    3  A    between atoms: C11_14  and  C12_15 
REMARK    4  A    between atoms: C11_14  and  C20_25 
REMARK       I    between atoms: C12_15  and  N2_17 
REMARK    5  A    between atoms: C15_20  and  C16_21 
ROOT
HETATM    1  C1  UNL     1     111.395 128.187 184.081  1.00  0.00     0.012 C 
HETATM    2  C2  UNL     1     110.952 127.237 183.496  1.00  0.00    -0.111 C 
HETATM    3  C3  UNL     1     110.384 126.111 182.803  1.00  0.00     0.081 C 
HETATM    4  C4  UNL     1     109.480 125.309 183.776  1.00  0.00     0.002 C 
HETATM    5  C5  UNL     1     108.910 124.134 183.077  1.00  0.00     0.006 C 
HETATM    6  C6  UNL     1     110.014 123.064 183.027  1.00  0.00     0.006 C 
HETATM    7  C7  UNL     1     111.217 123.917 183.385  1.00  0.00     0.000 C 
HETATM    8  C8  UNL     1     110.632 124.661 184.570  1.00  0.00     0.011 C 
HETATM    9  C9  UNL     1     111.326 125.069 182.369  1.00  0.00     0.098 C 
ENDROOT
BRANCH   9  10
HETATM   10  C10 UNL     1     112.718 125.348 182.155  1.00  0.00     0.224 C 
HETATM   11  O1  UNL     1     113.541 124.960 183.081  1.00  0.00    -0.273 OA
HETATM   12  N1  UNL     1     113.375 125.991 181.090  1.00  0.00    -0.347 N 
ATOM     13  H1  UNL     1     112.805 126.320 180.311  1.00  0.00     0.163 HD
BRANCH  12  14
HETATM   14  C11 UNL     1     114.815 126.221 181.018  1.00  0.00     0.180 C 
BRANCH  14  15
HETATM   15  C12 UNL     1     115.158 127.565 181.541  1.00  0.00     0.243 C 
HETATM   16  O2  UNL     1     115.797 127.614 182.624  1.00  0.00    -0.271 OA
HETATM   17  N2  UNL     1     114.814 128.782 180.903  1.00  0.00    -0.350 N 
HETATM   18  C13 UNL     1     114.124 129.050 179.659  1.00  0.00     0.126 C 
HETATM   19  C19 UNL     1     115.112 130.113 181.434  1.00  0.00     0.130 C 
HETATM   20  C14 UNL     1     114.967 130.201 179.090  1.00  0.00     0.026 C 
HETATM   21  C15 UNL     1     115.174 131.056 180.285  1.00  0.00     0.008 C 
BRANCH  21  22
HETATM   22  C16 UNL     1     114.273 132.245 180.385  1.00  0.00    -0.017 C 
HETATM   23  C17 UNL     1     112.989 132.007 181.098  1.00  0.00     0.010 C 
HETATM   24  C18 UNL     1     113.985 132.745 178.993  1.00  0.00     0.010 C 
ENDBRANCH  21  22
ENDBRANCH  14  15
BRANCH  14  25
HETATM   25  C20 UNL     1     115.238 126.059 179.581  1.00  0.00     0.009 C 
HETATM   26  C21 UNL     1     114.171 125.578 178.672  1.00  0.00     0.012 C 
HETATM   27  C22 UNL     1     116.454 125.189 179.491  1.00  0.00     0.012 C 
ENDBRANCH  14  25
ENDBRANCH  12  14
ENDBRANCH   9  10
TORSDOF 5
ENDMDL
