MODEL 1
REMARK VINA RESULT: -7.093582946      0.000      0.000
REMARK  2 active torsions:
REMARK  status: ('A' for Active; 'I' for Inactive)
REMARK    1  A    between atoms: C2_2  and  O1_4 
REMARK    2  A    between atoms: C2_2  and  C4_6 
ROOT
HETATM    1  C4  UNL     1      11.491 -33.774   7.804  1.00  0.00     0.028 C 
HETATM    2  C5  UNL     1      10.797 -33.713   9.165  1.00  0.00     0.009 C 
HETATM    3  C6  UNL     1      10.567 -32.213   9.406  1.00  0.00     0.007 C 
HETATM    4  C7  UNL     1      11.696 -31.671   8.547  1.00  0.00     0.003 C 
HETATM    5  C8  UNL     1      11.880 -30.233   8.583  1.00  0.00    -0.036 C 
HETATM    6  C9  UNL     1      10.713 -29.356   8.419  1.00  0.00     0.010 C 
HETATM    7  C10 UNL     1      10.195 -28.943   9.786  1.00  0.00     0.001 C 
HETATM    8  C11 UNL     1      11.269 -29.284  10.748  1.00  0.00     0.001 C 
HETATM    9  C12 UNL     1      12.387 -29.892   9.998  1.00  0.00     0.010 C 
HETATM   10  C13 UNL     1      13.062 -29.875   7.692  1.00  0.00     0.010 C 
HETATM   11  C14 UNL     1      12.743 -29.727   6.258  1.00  0.00     0.001 C 
HETATM   12  C15 UNL     1      12.728 -31.005   5.513  1.00  0.00     0.001 C 
HETATM   13  C16 UNL     1      12.696 -32.249   6.341  1.00  0.00     0.010 C 
HETATM   14  C17 UNL     1      11.501 -32.393   7.249  1.00  0.00    -0.033 C 
HETATM   15  C18 UNL     1      10.281 -32.023   6.488  1.00  0.00     0.016 C 
ENDROOT
BRANCH   1  16
HETATM   16  C2  UNL     1      10.973 -34.914   7.080  1.00  0.00     0.055 C 
HETATM   17  C1  UNL     1       9.588 -34.435   6.563  1.00  0.00     0.045 C 
HETATM   18  C3  UNL     1      11.694 -35.368   5.855  1.00  0.00     0.045 C 
BRANCH  16  19
HETATM   19  O1  UNL     1      10.639 -36.040   7.822  1.00  0.00    -0.390 OA
ATOM     20  H1  UNL     1      10.738 -35.732   8.714  1.00  0.00     0.210 HD
ENDBRANCH  16  19
ENDBRANCH   1  16
TORSDOF 2
ENDMDL
MODEL 2
REMARK VINA RESULT: -7.080922791      4.916      9.055
REMARK  2 active torsions:
REMARK  status: ('A' for Active; 'I' for Inactive)
REMARK    1  A    between atoms: C2_2  and  O1_4 
REMARK    2  A    between atoms: C2_2  and  C4_6 
ROOT
HETATM    1  C4  UNL     1      13.601 -35.460   3.853  1.00  0.00     0.028 C 
HETATM    2  C5  UNL     1      14.761 -34.928   3.010  1.00  0.00     0.009 C 
HETATM    3  C6  UNL     1      15.132 -36.104   2.093  1.00  0.00     0.007 C 
HETATM    4  C7  UNL     1      14.633 -37.239   2.968  1.00  0.00     0.003 C 
HETATM    5  C8  UNL     1      14.894 -38.577   2.473  1.00  0.00    -0.036 C 
HETATM    6  C9  UNL     1      14.579 -38.900   1.075  1.00  0.00     0.010 C 
HETATM    7  C10 UNL     1      15.830 -38.751   0.228  1.00  0.00     0.001 C 
HETATM    8  C11 UNL     1      16.962 -38.690   1.181  1.00  0.00     0.001 C 
HETATM    9  C12 UNL     1      16.419 -38.784   2.551  1.00  0.00     0.010 C 
HETATM   10  C13 UNL     1      14.353 -39.581   3.483  1.00  0.00     0.010 C 
HETATM   11  C14 UNL     1      12.915 -39.889   3.352  1.00  0.00     0.001 C 
HETATM   12  C15 UNL     1      12.030 -38.917   4.029  1.00  0.00     0.001 C 
HETATM   13  C16 UNL     1      12.663 -37.625   4.440  1.00  0.00     0.010 C 
HETATM   14  C17 UNL     1      13.245 -36.803   3.319  1.00  0.00    -0.033 C 
HETATM   15  C18 UNL     1      12.275 -36.785   2.194  1.00  0.00     0.016 C 
ENDROOT
BRANCH   1  16
HETATM   16  C2  UNL     1      12.638 -34.394   4.023  1.00  0.00     0.055 C 
HETATM   17  C1  UNL     1      12.167 -34.543   5.497  1.00  0.00     0.045 C 
HETATM   18  C3  UNL     1      13.111 -32.983   3.921  1.00  0.00     0.045 C 
BRANCH  16  19
HETATM   19  O1  UNL     1      11.445 -34.496   3.319  1.00  0.00    -0.390 OA
ATOM     20  H1  UNL     1      10.995 -33.697   3.566  1.00  0.00     0.210 HD
ENDBRANCH  16  19
ENDBRANCH   1  16
TORSDOF 2
ENDMDL
MODEL 3
REMARK VINA RESULT: -7.037616991      5.529      9.682
REMARK  2 active torsions:
REMARK  status: ('A' for Active; 'I' for Inactive)
REMARK    1  A    between atoms: C2_2  and  O1_4 
REMARK    2  A    between atoms: C2_2  and  C4_6 
ROOT
HETATM    1  C4  UNL     1      12.285 -36.749   3.109  1.00  0.00     0.028 C 
HETATM    2  C5  UNL     1      12.316 -37.594   4.382  1.00  0.00     0.009 C 
HETATM    3  C6  UNL     1      13.204 -38.794   4.018  1.00  0.00     0.007 C 
HETATM    4  C7  UNL     1      12.981 -38.793   2.517  1.00  0.00     0.003 C 
HETATM    5  C8  UNL     1      13.604 -39.880   1.786  1.00  0.00    -0.036 C 
HETATM    6  C9  UNL     1      15.015 -40.200   2.042  1.00  0.00     0.010 C 
HETATM    7  C10 UNL     1      15.101 -41.332   3.051  1.00  0.00     0.001 C 
HETATM    8  C11 UNL     1      13.743 -41.920   3.119  1.00  0.00     0.001 C 
HETATM    9  C12 UNL     1      12.866 -41.168   2.201  1.00  0.00     0.010 C 
HETATM   10  C13 UNL     1      13.253 -39.735   0.311  1.00  0.00     0.010 C 
HETATM   11  C14 UNL     1      14.122 -38.818  -0.452  1.00  0.00     0.001 C 
HETATM   12  C15 UNL     1      13.730 -37.395  -0.347  1.00  0.00     0.001 C 
HETATM   13  C16 UNL     1      12.765 -37.057   0.745  1.00  0.00     0.010 C 
HETATM   14  C17 UNL     1      13.235 -37.365   2.144  1.00  0.00    -0.033 C 
HETATM   15  C18 UNL     1      14.641 -36.909   2.281  1.00  0.00     0.016 C 
ENDROOT
BRANCH   1  16
HETATM   16  C2  UNL     1      12.336 -35.354   3.489  1.00  0.00     0.055 C 
HETATM   17  C1  UNL     1      12.017 -35.366   5.010  1.00  0.00     0.045 C 
HETATM   18  C3  UNL     1      13.639 -34.635   3.385  1.00  0.00     0.045 C 
BRANCH  16  19
HETATM   19  O1  UNL     1      11.346 -34.520   2.985  1.00  0.00    -0.390 OA
ATOM     20  H1  UNL     1      11.662 -34.340   2.107  1.00  0.00     0.210 HD
ENDBRANCH  16  19
ENDBRANCH   1  16
TORSDOF 2
ENDMDL
MODEL 4
REMARK VINA RESULT: -6.889920325      6.324      9.388
REMARK  2 active torsions:
REMARK  status: ('A' for Active; 'I' for Inactive)
REMARK    1  A    between atoms: C2_2  and  O1_4 
REMARK    2  A    between atoms: C2_2  and  C4_6 
ROOT
HETATM    1  C4  UNL     1      12.900 -38.815   0.110  1.00  0.00     0.028 C 
HETATM    2  C5  UNL     1      12.525 -37.418  -0.385  1.00  0.00     0.009 C 
HETATM    3  C6  UNL     1      12.987 -36.481   0.742  1.00  0.00     0.007 C 
HETATM    4  C7  UNL     1      12.919 -37.465   1.896  1.00  0.00     0.003 C 
HETATM    5  C8  UNL     1      13.206 -36.918   3.208  1.00  0.00    -0.036 C 
HETATM    6  C9  UNL     1      14.396 -36.075   3.390  1.00  0.00     0.010 C 
HETATM    7  C10 UNL     1      14.001 -34.613   3.283  1.00  0.00     0.001 C 
HETATM    8  C11 UNL     1      12.524 -34.582   3.397  1.00  0.00     0.001 C 
HETATM    9  C12 UNL     1      12.042 -35.969   3.551  1.00  0.00     0.010 C 
HETATM   10  C13 UNL     1      13.065 -38.031   4.238  1.00  0.00     0.010 C 
HETATM   11  C14 UNL     1      14.260 -38.881   4.408  1.00  0.00     0.001 C 
HETATM   12  C15 UNL     1      14.362 -39.977   3.420  1.00  0.00     0.001 C 
HETATM   13  C16 UNL     1      13.469 -39.871   2.225  1.00  0.00     0.010 C 
HETATM   14  C17 UNL     1      13.674 -38.646   1.369  1.00  0.00    -0.033 C 
HETATM   15  C18 UNL     1      15.132 -38.442   1.178  1.00  0.00     0.016 C 
ENDROOT
BRANCH   1  16
HETATM   16  C2  UNL     1      13.381 -39.581  -1.019  1.00  0.00     0.055 C 
HETATM   17  C1  UNL     1      12.086 -40.028  -1.752  1.00  0.00     0.045 C 
HETATM   18  C3  UNL     1      14.182 -38.881  -2.066  1.00  0.00     0.045 C 
BRANCH  16  19
HETATM   19  O1  UNL     1      14.002 -40.793  -0.747  1.00  0.00    -0.390 OA
ATOM     20  H1  UNL     1      13.314 -41.279  -0.307  1.00  0.00     0.210 HD
ENDBRANCH  16  19
ENDBRANCH   1  16
TORSDOF 2
ENDMDL
MODEL 5
REMARK VINA RESULT: -6.650543775      7.740      9.552
REMARK  2 active torsions:
REMARK  status: ('A' for Active; 'I' for Inactive)
REMARK    1  A    between atoms: C2_2  and  O1_4 
REMARK    2  A    between atoms: C2_2  and  C4_6 
ROOT
HETATM    1  C4  UNL     1      17.057 -38.092   4.775  1.00  0.00     0.028 C 
HETATM    2  C5  UNL     1      16.650 -39.509   5.178  1.00  0.00     0.009 C 
HETATM    3  C6  UNL     1      15.443 -39.825   4.281  1.00  0.00     0.007 C 
HETATM    4  C7  UNL     1      14.968 -38.405   4.033  1.00  0.00     0.003 C 
HETATM    5  C8  UNL     1      13.741 -38.276   3.270  1.00  0.00    -0.036 C 
HETATM    6  C9  UNL     1      13.587 -39.038   2.024  1.00  0.00     0.010 C 
HETATM    7  C10 UNL     1      12.829 -40.322   2.307  1.00  0.00     0.001 C 
HETATM    8  C11 UNL     1      12.223 -40.150   3.648  1.00  0.00     0.001 C 
HETATM    9  C12 UNL     1      12.610 -38.821   4.163  1.00  0.00     0.010 C 
HETATM   10  C13 UNL     1      13.404 -36.795   3.144  1.00  0.00     0.010 C 
HETATM   11  C14 UNL     1      14.083 -36.091   2.038  1.00  0.00     0.001 C 
HETATM   12  C15 UNL     1      15.447 -35.625   2.373  1.00  0.00     0.001 C 
HETATM   13  C16 UNL     1      16.057 -36.207   3.608  1.00  0.00     0.010 C 
HETATM   14  C17 UNL     1      16.221 -37.706   3.606  1.00  0.00    -0.033 C 
HETATM   15  C18 UNL     1      16.768 -38.119   2.289  1.00  0.00     0.016 C 
ENDROOT
BRANCH   1  16
HETATM   16  C2  UNL     1      18.502 -38.018   4.774  1.00  0.00     0.055 C 
HETATM   17  C1  UNL     1      18.877 -37.946   6.281  1.00  0.00     0.045 C 
HETATM   18  C3  UNL     1      19.274 -39.182   4.250  1.00  0.00     0.045 C 
BRANCH  16  19
HETATM   19  O1  UNL     1      19.079 -36.860   4.269  1.00  0.00    -0.390 OA
ATOM     20  H1  UNL     1      18.340 -36.265   4.231  1.00  0.00     0.210 HD
ENDBRANCH  16  19
ENDBRANCH   1  16
TORSDOF 2
ENDMDL
