MODEL 1
REMARK VINA RESULT: -6.696373051      0.000      0.000
REMARK  0 active torsions:
REMARK  status: ('A' for Active; 'I' for Inactive)
ROOT
HETATM    1  C1  UNL     1      12.657 -41.357   2.614  1.00  0.00     0.014 C 
HETATM    2  C2  UNL     1      13.109 -40.057   3.341  1.00  0.00     0.009 C 
HETATM    3  C3  UNL     1      12.126 -39.568   4.225  1.00  0.00    -0.026 C 
HETATM    4  C4  UNL     1      11.544 -38.233   4.431  1.00  0.00    -0.029 C 
HETATM    5  C5  UNL     1      12.333 -37.024   4.729  1.00  0.00     0.036 C 
HETATM    6  C6  UNL     1      12.899 -36.226   3.554  1.00  0.00    -0.036 C 
HETATM    7  C7  UNL     1      11.854 -35.225   3.024  1.00  0.00     0.016 C 
HETATM    8  C8  UNL     1      14.197 -35.569   3.752  1.00  0.00     0.010 C 
HETATM    9  C9  UNL     1      15.367 -35.920   2.921  1.00  0.00     0.002 C 
HETATM   10  C10 UNL     1      15.373 -37.238   2.141  1.00  0.00     0.010 C 
HETATM   11  C11 UNL     1      14.271 -38.032   2.789  1.00  0.00    -0.035 C 
HETATM   12  C12 UNL     1      14.906 -38.344   4.034  1.00  0.00     0.016 C 
HETATM   13  C13 UNL     1      13.807 -39.329   2.214  1.00  0.00     0.006 C 
HETATM   14  C14 UNL     1      12.941 -39.229   0.989  1.00  0.00     0.052 C 
HETATM   15  C15 UNL     1      13.055 -37.967   0.225  1.00  0.00    -0.012 C 
HETATM   16  S1  UNL     1      13.115 -37.927  -1.192  1.00  0.00    -0.090 SA
HETATM   17  C16 UNL     1      13.107 -36.700   1.056  1.00  0.00     0.052 C 
HETATM   18  C17 UNL     1      13.090 -37.218   2.489  1.00  0.00     0.007 C 
ENDROOT
TORSDOF 0
ENDMDL
MODEL 2
REMARK VINA RESULT: -6.438691236      1.800      4.144
REMARK  0 active torsions:
REMARK  status: ('A' for Active; 'I' for Inactive)
ROOT
HETATM    1  C1  UNL     1      12.988 -33.554   3.755  1.00  0.00     0.014 C 
HETATM    2  C2  UNL     1      12.590 -34.981   3.274  1.00  0.00     0.009 C 
HETATM    3  C3  UNL     1      12.021 -35.754   4.307  1.00  0.00    -0.026 C 
HETATM    4  C4  UNL     1      12.273 -37.123   4.784  1.00  0.00    -0.029 C 
HETATM    5  C5  UNL     1      12.211 -38.321   3.928  1.00  0.00     0.036 C 
HETATM    6  C6  UNL     1      13.469 -38.720   3.156  1.00  0.00    -0.036 C 
HETATM    7  C7  UNL     1      14.394 -39.585   4.034  1.00  0.00     0.016 C 
HETATM    8  C8  UNL     1      13.279 -39.334   1.836  1.00  0.00     0.010 C 
HETATM    9  C9  UNL     1      13.809 -38.698   0.613  1.00  0.00     0.002 C 
HETATM   10  C10 UNL     1      14.189 -37.214   0.635  1.00  0.00     0.010 C 
HETATM   11  C11 UNL     1      13.508 -36.698   1.874  1.00  0.00    -0.035 C 
HETATM   12  C12 UNL     1      12.149 -36.720   1.423  1.00  0.00     0.016 C 
HETATM   13  C13 UNL     1      13.764 -35.319   2.384  1.00  0.00     0.006 C 
HETATM   14  C14 UNL     1      15.078 -35.114   3.085  1.00  0.00     0.052 C 
HETATM   15  C15 UNL     1      16.136 -36.099   2.765  1.00  0.00    -0.012 C 
HETATM   16  S1  UNL     1      17.486 -35.731   2.534  1.00  0.00    -0.090 SA
HETATM   17  C16 UNL     1      15.686 -37.545   2.696  1.00  0.00     0.052 C 
HETATM   18  C17 UNL     1      14.183 -37.457   2.931  1.00  0.00     0.007 C 
ENDROOT
TORSDOF 0
ENDMDL
MODEL 3
REMARK VINA RESULT: -6.228269031      2.081      3.540
REMARK  0 active torsions:
REMARK  status: ('A' for Active; 'I' for Inactive)
ROOT
HETATM    1  C1  UNL     1      11.401 -39.915   4.544  1.00  0.00     0.014 C 
HETATM    2  C2  UNL     1      12.525 -39.504   3.547  1.00  0.00     0.009 C 
HETATM    3  C3  UNL     1      13.753 -40.135   3.835  1.00  0.00    -0.026 C 
HETATM    4  C4  UNL     1      15.128 -39.630   3.966  1.00  0.00    -0.029 C 
HETATM    5  C5  UNL     1      15.830 -38.863   2.921  1.00  0.00     0.036 C 
HETATM    6  C6  UNL     1      15.636 -37.346   2.889  1.00  0.00    -0.036 C 
HETATM    7  C7  UNL     1      16.624 -36.652   3.845  1.00  0.00     0.016 C 
HETATM    8  C8  UNL     1      15.642 -36.698   1.571  1.00  0.00     0.010 C 
HETATM    9  C9  UNL     1      14.461 -35.964   1.075  1.00  0.00     0.002 C 
HETATM   10  C10 UNL     1      13.091 -36.213   1.715  1.00  0.00     0.010 C 
HETATM   11  C11 UNL     1      13.286 -37.503   2.465  1.00  0.00    -0.035 C 
HETATM   12  C12 UNL     1      13.340 -38.412   1.359  1.00  0.00     0.016 C 
HETATM   13  C13 UNL     1      12.240 -38.027   3.393  1.00  0.00     0.006 C 
HETATM   14  C14 UNL     1      12.139 -37.332   4.722  1.00  0.00     0.052 C 
HETATM   15  C15 UNL     1      12.692 -35.960   4.773  1.00  0.00    -0.012 C 
HETATM   16  S1  UNL     1      12.037 -34.889   5.432  1.00  0.00    -0.090 SA
HETATM   17  C16 UNL     1      14.020 -35.763   4.068  1.00  0.00     0.052 C 
HETATM   18  C17 UNL     1      14.299 -37.131   3.456  1.00  0.00     0.007 C 
ENDROOT
TORSDOF 0
ENDMDL
MODEL 4
REMARK VINA RESULT: -6.227617496      1.978      3.603
REMARK  0 active torsions:
REMARK  status: ('A' for Active; 'I' for Inactive)
ROOT
HETATM    1  C1  UNL     1      11.391 -38.370   4.750  1.00  0.00     0.014 C 
HETATM    2  C2  UNL     1      12.562 -38.542   3.737  1.00  0.00     0.009 C 
HETATM    3  C3  UNL     1      13.659 -39.226   4.299  1.00  0.00    -0.026 C 
HETATM    4  C4  UNL     1      15.103 -38.950   4.319  1.00  0.00    -0.029 C 
HETATM    5  C5  UNL     1      15.923 -38.743   3.112  1.00  0.00     0.036 C 
HETATM    6  C6  UNL     1      16.003 -37.330   2.531  1.00  0.00    -0.036 C 
HETATM    7  C7  UNL     1      17.108 -36.516   3.232  1.00  0.00     0.016 C 
HETATM    8  C8  UNL     1      16.114 -37.211   1.072  1.00  0.00     0.010 C 
HETATM    9  C9  UNL     1      15.078 -36.516   0.280  1.00  0.00     0.002 C 
HETATM   10  C10 UNL     1      13.692 -36.280   0.888  1.00  0.00     0.010 C 
HETATM   11  C11 UNL     1      13.659 -37.227   2.058  1.00  0.00    -0.035 C 
HETATM   12  C12 UNL     1      13.540 -38.468   1.354  1.00  0.00     0.016 C 
HETATM   13  C13 UNL     1      12.545 -37.195   3.051  1.00  0.00     0.006 C 
HETATM   14  C14 UNL     1      12.581 -36.061   4.038  1.00  0.00     0.052 C 
HETATM   15  C15 UNL     1      13.371 -34.879   3.629  1.00  0.00    -0.012 C 
HETATM   16  S1  UNL     1      12.925 -33.547   3.825  1.00  0.00    -0.090 SA
HETATM   17  C16 UNL     1      14.707 -35.178   2.976  1.00  0.00     0.052 C 
HETATM   18  C17 UNL     1      14.731 -36.701   2.908  1.00  0.00     0.007 C 
ENDROOT
TORSDOF 0
ENDMDL
MODEL 5
REMARK VINA RESULT: -6.025091717      1.764      3.504
REMARK  0 active torsions:
REMARK  status: ('A' for Active; 'I' for Inactive)
ROOT
HETATM    1  C1  UNL     1      11.159 -37.462   5.185  1.00  0.00     0.014 C 
HETATM    2  C2  UNL     1      12.435 -37.165   4.344  1.00  0.00     0.009 C 
HETATM    3  C3  UNL     1      12.182 -36.266   3.288  1.00  0.00    -0.026 C 
HETATM    4  C4  UNL     1      12.515 -36.289   1.855  1.00  0.00    -0.029 C 
HETATM    5  C5  UNL     1      13.883 -36.439   1.326  1.00  0.00     0.036 C 
HETATM    6  C6  UNL     1      14.428 -37.855   1.131  1.00  0.00    -0.036 C 
HETATM    7  C7  UNL     1      14.002 -38.417  -0.239  1.00  0.00     0.016 C 
HETATM    8  C8  UNL     1      15.865 -38.056   1.354  1.00  0.00     0.010 C 
HETATM    9  C9  UNL     1      16.354 -38.972   2.405  1.00  0.00     0.002 C 
HETATM   10  C10 UNL     1      15.414 -39.397   3.537  1.00  0.00     0.010 C 
HETATM   11  C11 UNL     1      14.298 -38.390   3.461  1.00  0.00    -0.035 C 
HETATM   12  C12 UNL     1      14.984 -37.240   3.970  1.00  0.00     0.016 C 
HETATM   13  C13 UNL     1      13.059 -38.541   4.278  1.00  0.00     0.006 C 
HETATM   14  C14 UNL     1      12.082 -39.578   3.800  1.00  0.00     0.052 C 
HETATM   15  C15 UNL     1      12.644 -40.635   2.928  1.00  0.00    -0.012 C 
HETATM   16  S1  UNL     1      12.307 -42.006   3.064  1.00  0.00    -0.090 SA
HETATM   17  C16 UNL     1      13.617 -40.159   1.867  1.00  0.00     0.052 C 
HETATM   18  C17 UNL     1      13.729 -38.664   2.138  1.00  0.00     0.007 C 
ENDROOT
TORSDOF 0
ENDMDL
