MODEL 1
REMARK VINA RESULT: -6.729475445      0.000      0.000
REMARK  0 active torsions:
REMARK  status: ('A' for Active; 'I' for Inactive)
ROOT
HETATM    1  C1  UNL     1      13.021 -33.357   3.728  1.00  0.00     0.015 C 
HETATM    2  C2  UNL     1      13.547 -34.519   3.442  1.00  0.00    -0.081 C 
HETATM    3  C3  UNL     1      14.920 -34.781   2.977  1.00  0.00     0.034 C 
HETATM    4  C4  UNL     1      15.221 -36.206   3.433  1.00  0.00     0.010 C 
HETATM    5  C5  UNL     1      13.979 -36.710   4.038  1.00  0.00     0.002 C 
HETATM    6  C6  UNL     1      13.663 -38.159   3.897  1.00  0.00    -0.004 C 
HETATM    7  C7  UNL     1      14.780 -39.042   4.357  1.00  0.00     0.005 C 
HETATM    8  C8  UNL     1      15.626 -39.676   3.344  1.00  0.00     0.002 C 
HETATM    9  C9  UNL     1      15.100 -39.752   1.957  1.00  0.00     0.021 C 
HETATM   10  C10 UNL     1      13.602 -39.793   1.994  1.00  0.00     0.013 C 
HETATM   11  C11 UNL     1      13.023 -40.157   0.672  1.00  0.00     0.031 C 
HETATM   12  C12 UNL     1      13.061 -41.659   0.964  1.00  0.00     0.076 C 
HETATM   13  S1  UNL     1      13.036 -41.332   2.768  1.00  0.00    -0.159 SA
HETATM   14  C13 UNL     1      13.002 -38.558   2.627  1.00  0.00     0.009 C 
HETATM   15  C14 UNL     1      12.956 -37.438   1.593  1.00  0.00     0.007 C 
HETATM   16  C15 UNL     1      12.378 -36.186   2.162  1.00  0.00     0.014 C 
HETATM   17  C16 UNL     1      12.871 -35.829   3.527  1.00  0.00    -0.017 C 
HETATM   18  C17 UNL     1      11.733 -35.804   4.545  1.00  0.00     0.020 C 
ENDROOT
TORSDOF 0
ENDMDL
MODEL 2
REMARK VINA RESULT: -6.280468904      2.697      4.500
REMARK  0 active torsions:
REMARK  status: ('A' for Active; 'I' for Inactive)
ROOT
HETATM    1  C1  UNL     1      11.023 -37.281   5.152  1.00  0.00     0.015 C 
HETATM    2  C2  UNL     1      11.965 -37.413   4.256  1.00  0.00    -0.081 C 
HETATM    3  C3  UNL     1      12.576 -38.669   3.791  1.00  0.00     0.034 C 
HETATM    4  C4  UNL     1      13.060 -38.366   2.375  1.00  0.00     0.010 C 
HETATM    5  C5  UNL     1      12.792 -36.938   2.151  1.00  0.00     0.002 C 
HETATM    6  C6  UNL     1      13.736 -36.170   1.291  1.00  0.00    -0.004 C 
HETATM    7  C7  UNL     1      13.947 -36.804  -0.047  1.00  0.00     0.005 C 
HETATM    8  C8  UNL     1      15.187 -37.549  -0.274  1.00  0.00     0.002 C 
HETATM    9  C9  UNL     1      16.322 -37.294   0.650  1.00  0.00     0.021 C 
HETATM   10  C10 UNL     1      16.228 -35.897   1.182  1.00  0.00     0.013 C 
HETATM   11  C11 UNL     1      17.475 -35.482   1.880  1.00  0.00     0.031 C 
HETATM   12  C12 UNL     1      18.121 -34.941   0.602  1.00  0.00     0.076 C 
HETATM   13  S1  UNL     1      16.469 -34.698  -0.157  1.00  0.00    -0.159 SA
HETATM   14  C13 UNL     1      14.957 -35.658   1.966  1.00  0.00     0.009 C 
HETATM   15  C14 UNL     1      15.134 -36.195   3.383  1.00  0.00     0.007 C 
HETATM   16  C15 UNL     1      13.907 -35.995   4.206  1.00  0.00     0.014 C 
HETATM   17  C16 UNL     1      12.623 -36.320   3.512  1.00  0.00    -0.017 C 
HETATM   18  C17 UNL     1      11.718 -35.095   3.404  1.00  0.00     0.020 C 
ENDROOT
TORSDOF 0
ENDMDL
MODEL 3
REMARK VINA RESULT: -6.237887989      1.344      2.855
REMARK  0 active torsions:
REMARK  status: ('A' for Active; 'I' for Inactive)
ROOT
HETATM    1  C1  UNL     1      13.167 -33.289   3.853  1.00  0.00     0.015 C 
HETATM    2  C2  UNL     1      13.072 -34.507   3.387  1.00  0.00    -0.081 C 
HETATM    3  C3  UNL     1      11.835 -35.269   3.146  1.00  0.00     0.034 C 
HETATM    4  C4  UNL     1      12.196 -36.258   2.041  1.00  0.00     0.010 C 
HETATM    5  C5  UNL     1      13.633 -36.075   1.785  1.00  0.00     0.002 C 
HETATM    6  C6  UNL     1      14.435 -37.266   1.387  1.00  0.00    -0.004 C 
HETATM    7  C7  UNL     1      13.856 -37.988   0.213  1.00  0.00     0.005 C 
HETATM    8  C8  UNL     1      13.121 -39.231   0.455  1.00  0.00     0.002 C 
HETATM    9  C9  UNL     1      13.337 -39.916   1.755  1.00  0.00     0.021 C 
HETATM   10  C10 UNL     1      14.711 -39.602   2.262  1.00  0.00     0.013 C 
HETATM   11  C11 UNL     1      15.097 -40.475   3.403  1.00  0.00     0.031 C 
HETATM   12  C12 UNL     1      15.690 -41.557   2.496  1.00  0.00     0.076 C 
HETATM   13  S1  UNL     1      15.964 -40.323   1.167  1.00  0.00    -0.159 SA
HETATM   14  C13 UNL     1      14.919 -38.123   2.502  1.00  0.00     0.009 C 
HETATM   15  C14 UNL     1      14.323 -37.747   3.854  1.00  0.00     0.007 C 
HETATM   16  C15 UNL     1      14.490 -36.294   4.146  1.00  0.00     0.014 C 
HETATM   17  C16 UNL     1      14.194 -35.384   2.998  1.00  0.00    -0.017 C 
HETATM   18  C17 UNL     1      15.423 -34.572   2.594  1.00  0.00     0.020 C 
ENDROOT
TORSDOF 0
ENDMDL
MODEL 4
REMARK VINA RESULT: -6.096839554      2.695      4.766
REMARK  0 active torsions:
REMARK  status: ('A' for Active; 'I' for Inactive)
ROOT
HETATM    1  C1  UNL     1      11.289 -39.117   4.729  1.00  0.00     0.015 C 
HETATM    2  C2  UNL     1      12.226 -38.811   3.870  1.00  0.00    -0.081 C 
HETATM    3  C3  UNL     1      12.888 -39.721   2.919  1.00  0.00     0.034 C 
HETATM    4  C4  UNL     1      13.341 -38.821   1.771  1.00  0.00     0.010 C 
HETATM    5  C5  UNL     1      13.005 -37.448   2.175  1.00  0.00     0.002 C 
HETATM    6  C6  UNL     1      13.903 -36.344   1.733  1.00  0.00    -0.004 C 
HETATM    7  C7  UNL     1      14.127 -36.337   0.254  1.00  0.00     0.005 C 
HETATM    8  C8  UNL     1      15.397 -36.856  -0.258  1.00  0.00     0.002 C 
HETATM    9  C9  UNL     1      16.530 -36.967   0.696  1.00  0.00     0.021 C 
HETATM   10  C10 UNL     1      16.378 -35.935   1.772  1.00  0.00     0.013 C 
HETATM   11  C11 UNL     1      17.613 -35.800   2.591  1.00  0.00     0.031 C 
HETATM   12  C12 UNL     1      18.219 -34.737   1.671  1.00  0.00     0.076 C 
HETATM   13  S1  UNL     1      16.549 -34.271   1.073  1.00  0.00    -0.159 SA
HETATM   14  C13 UNL     1      15.108 -36.112   2.572  1.00  0.00     0.009 C 
HETATM   15  C14 UNL     1      15.325 -37.193   3.626  1.00  0.00     0.007 C 
HETATM   16  C15 UNL     1      14.100 -37.419   4.446  1.00  0.00     0.014 C 
HETATM   17  C16 UNL     1      12.825 -37.477   3.668  1.00  0.00    -0.017 C 
HETATM   18  C17 UNL     1      11.863 -36.366   4.085  1.00  0.00     0.020 C 
ENDROOT
TORSDOF 0
ENDMDL
MODEL 5
REMARK VINA RESULT: -5.916892101      2.584      3.710
REMARK  0 active torsions:
REMARK  status: ('A' for Active; 'I' for Inactive)
ROOT
HETATM    1  C1  UNL     1      11.339 -35.878   5.061  1.00  0.00     0.015 C 
HETATM    2  C2  UNL     1      12.265 -35.587   4.186  1.00  0.00    -0.081 C 
HETATM    3  C3  UNL     1      12.610 -34.250   3.673  1.00  0.00     0.034 C 
HETATM    4  C4  UNL     1      14.077 -34.357   3.264  1.00  0.00     0.010 C 
HETATM    5  C5  UNL     1      14.455 -35.763   3.470  1.00  0.00     0.002 C 
HETATM    6  C6  UNL     1      15.452 -36.368   2.543  1.00  0.00    -0.004 C 
HETATM    7  C7  UNL     1      16.714 -35.571   2.450  1.00  0.00     0.005 C 
HETATM    8  C8  UNL     1      16.920 -34.732   1.268  1.00  0.00     0.002 C 
HETATM    9  C9  UNL     1      16.099 -35.024   0.065  1.00  0.00     0.021 C 
HETATM   10  C10 UNL     1      15.734 -36.477   0.052  1.00  0.00     0.013 C 
HETATM   11  C11 UNL     1      15.162 -36.895  -1.257  1.00  0.00     0.031 C 
HETATM   12  C12 UNL     1      16.530 -37.244  -1.848  1.00  0.00     0.076 C 
HETATM   13  S1  UNL     1      17.219 -37.495  -0.167  1.00  0.00    -0.159 SA
HETATM   14  C13 UNL     1      14.913 -36.881   1.256  1.00  0.00     0.009 C 
HETATM   15  C14 UNL     1      13.455 -36.503   1.019  1.00  0.00     0.007 C 
HETATM   16  C15 UNL     1      12.594 -36.871   2.179  1.00  0.00     0.014 C 
HETATM   17  C16 UNL     1      13.170 -36.544   3.519  1.00  0.00    -0.017 C 
HETATM   18  C17 UNL     1      13.372 -37.800   4.363  1.00  0.00     0.020 C 
ENDROOT
TORSDOF 0
ENDMDL
