MODEL 1
REMARK VINA RESULT: -6.604874074      0.000      0.000
REMARK  2 active torsions:
REMARK  status: ('A' for Active; 'I' for Inactive)
REMARK    1  A    between atoms: N4_10  and  C5_11 
REMARK    2  A    between atoms: C9_15  and  O1_16 
ROOT
HETATM    1  N1  UNL     1      14.168 -35.598 -43.779  1.00  0.00    -0.063 NA
HETATM    2  C1  UNL     1      14.085 -36.889 -43.187  1.00  0.00     0.192 C 
HETATM    3  N2  UNL     1      14.713 -37.837 -43.831  1.00  0.00    -0.315 N 
ATOM      4  H2  UNL     1      15.206 -37.594 -44.690  1.00  0.00     0.170 HD
HETATM    5  C2  UNL     1      14.743 -39.212 -43.387  1.00  0.00     0.134 A 
HETATM    6  C3  UNL     1      14.450 -39.758 -42.169  1.00  0.00     0.057 A 
HETATM    7  N3  UNL     1      14.627 -41.068 -42.251  1.00  0.00    -0.352 N 
ATOM      8  H3  UNL     1      14.482 -41.733 -41.491  1.00  0.00     0.166 HD
HETATM    9  C4  UNL     1      15.031 -41.381 -43.504  1.00  0.00     0.185 A 
HETATM   10  N4  UNL     1      15.098 -40.229 -44.192  1.00  0.00    -0.323 N 
HETATM   11  C11 UNL     1      14.002 -39.003 -40.944  1.00  0.00     0.086 C 
HETATM   12  C12 UNL     1      12.816 -38.169 -41.379  1.00  0.00     0.092 C 
HETATM   13  C13 UNL     1      12.029 -37.741 -40.185  1.00  0.00     0.027 C 
HETATM   14  C14 UNL     1      11.690 -36.294 -40.501  1.00  0.00     0.022 C 
HETATM   15  C15 UNL     1      12.953 -35.815 -41.157  1.00  0.00     0.126 C 
HETATM   16  N5  UNL     1      13.332 -36.958 -41.982  1.00  0.00    -0.350 N 
ENDROOT
BRANCH  10  17
HETATM   17  C5  UNL     1      15.502 -40.154 -45.598  1.00  0.00     0.094 C 
HETATM   18  C6  UNL     1      14.272 -39.996 -46.462  1.00  0.00     0.026 C 
HETATM   19  C7  UNL     1      13.898 -41.385 -46.954  1.00  0.00     0.004 C 
HETATM   20  C8  UNL     1      14.935 -41.707 -48.039  1.00  0.00     0.032 C 
HETATM   21  C9  UNL     1      16.312 -41.640 -47.453  1.00  0.00     0.120 C 
HETATM   22  C10 UNL     1      16.338 -41.349 -45.987  1.00  0.00     0.057 C 
BRANCH  21  23
HETATM   23  O1  UNL     1      16.907 -42.891 -47.641  1.00  0.00    -0.396 OA
ATOM     24  H1  UNL     1      17.816 -42.740 -47.869  1.00  0.00     0.210 HD
ENDBRANCH  21  23
ENDBRANCH  10  17
TORSDOF 2
ENDMDL
MODEL 2
REMARK VINA RESULT: -6.479076159      3.158      6.608
REMARK  2 active torsions:
REMARK  status: ('A' for Active; 'I' for Inactive)
REMARK    1  A    between atoms: N4_10  and  C5_11 
REMARK    2  A    between atoms: C9_15  and  O1_16 
ROOT
HETATM    1  N1  UNL     1      12.113 -42.613 -44.924  1.00  0.00    -0.063 NA
HETATM    2  C1  UNL     1      13.326 -41.870 -44.909  1.00  0.00     0.192 C 
HETATM    3  N2  UNL     1      13.793 -41.594 -43.720  1.00  0.00    -0.315 N 
ATOM      4  H2  UNL     1      13.271 -41.920 -42.906  1.00  0.00     0.170 HD
HETATM    5  C2  UNL     1      15.011 -40.850 -43.500  1.00  0.00     0.134 A 
HETATM    6  C3  UNL     1      16.043 -40.563 -44.350  1.00  0.00     0.057 A 
HETATM    7  N3  UNL     1      16.939 -39.850 -43.686  1.00  0.00    -0.352 N 
ATOM      8  H3  UNL     1      17.815 -39.495 -44.069  1.00  0.00     0.166 HD
HETATM    9  C4  UNL     1      16.507 -39.670 -42.416  1.00  0.00     0.185 A 
HETATM   10  N4  UNL     1      15.319 -40.291 -42.316  1.00  0.00    -0.323 N 
HETATM   11  C11 UNL     1      16.143 -40.983 -45.794  1.00  0.00     0.086 C 
HETATM   12  C12 UNL     1      14.857 -40.530 -46.450  1.00  0.00     0.092 C 
HETATM   13  C13 UNL     1      15.030 -40.484 -47.932  1.00  0.00     0.027 C 
HETATM   14  C14 UNL     1      13.726 -41.074 -48.445  1.00  0.00     0.022 C 
HETATM   15  C15 UNL     1      13.465 -42.165 -47.449  1.00  0.00     0.126 C 
HETATM   16  N5  UNL     1      13.853 -41.540 -46.188  1.00  0.00    -0.350 N 
ENDROOT
BRANCH  10  17
HETATM   17  C5  UNL     1      14.528 -40.320 -41.083  1.00  0.00     0.094 C 
HETATM   18  C6  UNL     1      13.478 -39.236 -41.140  1.00  0.00     0.026 C 
HETATM   19  C7  UNL     1      14.041 -38.037 -40.395  1.00  0.00     0.004 C 
HETATM   20  C8  UNL     1      13.940 -38.416 -38.911  1.00  0.00     0.032 C 
HETATM   21  C9  UNL     1      14.707 -39.680 -38.662  1.00  0.00     0.120 C 
HETATM   22  C10 UNL     1      15.415 -40.210 -39.867  1.00  0.00     0.057 C 
BRANCH  21  23
HETATM   23  O1  UNL     1      15.679 -39.394 -37.699  1.00  0.00    -0.396 OA
ATOM     24  H1  UNL     1      15.926 -40.217 -37.294  1.00  0.00     0.210 HD
ENDBRANCH  21  23
ENDBRANCH  10  17
TORSDOF 2
ENDMDL
MODEL 3
REMARK VINA RESULT: -6.470625001      1.517      1.582
REMARK  2 active torsions:
REMARK  status: ('A' for Active; 'I' for Inactive)
REMARK    1  A    between atoms: N4_10  and  C5_11 
REMARK    2  A    between atoms: C9_15  and  O1_16 
ROOT
HETATM    1  N1  UNL     1      16.763 -36.022 -42.805  1.00  0.00    -0.063 NA
HETATM    2  C1  UNL     1      16.110 -37.214 -42.382  1.00  0.00     0.192 C 
HETATM    3  N2  UNL     1      16.150 -38.202 -43.236  1.00  0.00    -0.315 N 
ATOM      4  H2  UNL     1      16.634 -38.056 -44.123  1.00  0.00     0.170 HD
HETATM    5  C2  UNL     1      15.545 -39.490 -42.988  1.00  0.00     0.134 A 
HETATM    6  C3  UNL     1      15.117 -40.060 -41.821  1.00  0.00     0.057 A 
HETATM    7  N3  UNL     1      14.633 -41.259 -42.101  1.00  0.00    -0.352 N 
ATOM      8  H3  UNL     1      14.242 -41.914 -41.423  1.00  0.00     0.166 HD
HETATM    9  C4  UNL     1      14.739 -41.479 -43.433  1.00  0.00     0.185 A 
HETATM   10  N4  UNL     1      15.303 -40.381 -43.965  1.00  0.00    -0.323 N 
HETATM   11  C11 UNL     1      15.185 -39.433 -40.452  1.00  0.00     0.086 C 
HETATM   12  C12 UNL     1      14.522 -38.079 -40.581  1.00  0.00     0.092 C 
HETATM   13  C13 UNL     1      14.132 -37.572 -39.232  1.00  0.00     0.027 C 
HETATM   14  C14 UNL     1      14.513 -36.102 -39.297  1.00  0.00     0.022 C 
HETATM   15  C15 UNL     1      15.796 -36.148 -40.075  1.00  0.00     0.126 C 
HETATM   16  N5  UNL     1      15.511 -37.155 -41.093  1.00  0.00    -0.350 N 
ENDROOT
BRANCH  10  17
HETATM   17  C5  UNL     1      15.584 -40.234 -45.395  1.00  0.00     0.094 C 
HETATM   18  C6  UNL     1      14.284 -40.064 -46.144  1.00  0.00     0.026 C 
HETATM   19  C7  UNL     1      13.894 -41.438 -46.668  1.00  0.00     0.004 C 
HETATM   20  C8  UNL     1      14.841 -41.688 -47.850  1.00  0.00     0.032 C 
HETATM   21  C9  UNL     1      16.262 -41.617 -47.379  1.00  0.00     0.120 C 
HETATM   22  C10 UNL     1      16.406 -41.392 -45.907  1.00  0.00     0.057 C 
BRANCH  21  23
HETATM   23  O1  UNL     1      16.861 -42.845 -47.673  1.00  0.00    -0.396 OA
ATOM     24  H1  UNL     1      17.067 -43.265 -46.846  1.00  0.00     0.210 HD
ENDBRANCH  21  23
ENDBRANCH  10  17
TORSDOF 2
ENDMDL
MODEL 4
REMARK VINA RESULT: -6.301677839      3.383      6.079
REMARK  2 active torsions:
REMARK  status: ('A' for Active; 'I' for Inactive)
REMARK    1  A    between atoms: N4_10  and  C5_11 
REMARK    2  A    between atoms: C9_15  and  O1_16 
ROOT
HETATM    1  N1  UNL     1      13.619 -42.963 -45.547  1.00  0.00    -0.063 NA
HETATM    2  C1  UNL     1      13.546 -42.577 -44.179  1.00  0.00     0.192 C 
HETATM    3  N2  UNL     1      13.506 -41.288 -43.967  1.00  0.00    -0.315 N 
ATOM      4  H2  UNL     1      13.530 -40.664 -44.774  1.00  0.00     0.170 HD
HETATM    5  C2  UNL     1      13.431 -40.703 -42.649  1.00  0.00     0.134 A 
HETATM    6  C3  UNL     1      13.088 -41.259 -41.448  1.00  0.00     0.057 A 
HETATM    7  N3  UNL     1      13.167 -40.319 -40.520  1.00  0.00    -0.352 N 
ATOM      8  H3  UNL     1      12.967 -40.448 -39.528  1.00  0.00     0.166 HD
HETATM    9  C4  UNL     1      13.556 -39.159 -41.098  1.00  0.00     0.185 A 
HETATM   10  N4  UNL     1      13.715 -39.410 -42.409  1.00  0.00    -0.323 N 
HETATM   11  C11 UNL     1      12.689 -42.695 -41.220  1.00  0.00     0.086 C 
HETATM   12  C12 UNL     1      13.792 -43.536 -41.826  1.00  0.00     0.092 C 
HETATM   13  C13 UNL     1      13.737 -44.922 -41.276  1.00  0.00     0.027 C 
HETATM   14  C14 UNL     1      13.988 -45.785 -42.502  1.00  0.00     0.022 C 
HETATM   15  C15 UNL     1      13.232 -45.043 -43.565  1.00  0.00     0.126 C 
HETATM   16  N5  UNL     1      13.525 -43.649 -43.244  1.00  0.00    -0.350 N 
ENDROOT
BRANCH  10  17
HETATM   17  C5  UNL     1      14.134 -38.394 -43.377  1.00  0.00     0.094 C 
HETATM   18  C6  UNL     1      15.630 -38.474 -43.567  1.00  0.00     0.026 C 
HETATM   19  C7  UNL     1      16.247 -37.426 -42.654  1.00  0.00     0.004 C 
HETATM   20  C8  UNL     1      15.969 -36.087 -43.352  1.00  0.00     0.032 C 
HETATM   21  C9  UNL     1      14.492 -35.914 -43.537  1.00  0.00     0.120 C 
HETATM   22  C10 UNL     1      13.671 -37.021 -42.957  1.00  0.00     0.057 C 
BRANCH  21  23
HETATM   23  O1  UNL     1      14.126 -34.735 -42.883  1.00  0.00    -0.396 OA
ATOM     24  H1  UNL     1      14.187 -34.029 -43.516  1.00  0.00     0.210 HD
ENDBRANCH  21  23
ENDBRANCH  10  17
TORSDOF 2
ENDMDL
MODEL 5
REMARK VINA RESULT: -6.284726373      3.022      6.543
REMARK  2 active torsions:
REMARK  status: ('A' for Active; 'I' for Inactive)
REMARK    1  A    between atoms: N4_10  and  C5_11 
REMARK    2  A    between atoms: C9_15  and  O1_16 
ROOT
HETATM    1  N1  UNL     1      11.899 -41.884 -45.102  1.00  0.00    -0.063 NA
HETATM    2  C1  UNL     1      13.183 -41.289 -44.953  1.00  0.00     0.192 C 
HETATM    3  N2  UNL     1      13.514 -40.981 -43.728  1.00  0.00    -0.315 N 
ATOM      4  H2  UNL     1      12.848 -41.182 -42.981  1.00  0.00     0.170 HD
HETATM    5  C2  UNL     1      14.774 -40.369 -43.376  1.00  0.00     0.134 A 
HETATM    6  C3  UNL     1      15.940 -40.269 -44.083  1.00  0.00     0.057 A 
HETATM    7  N3  UNL     1      16.820 -39.618 -43.338  1.00  0.00    -0.352 N 
ATOM      8  H3  UNL     1      17.778 -39.396 -43.610  1.00  0.00     0.166 HD
HETATM    9  C4  UNL     1      16.244 -39.294 -42.156  1.00  0.00     0.185 A 
HETATM   10  N4  UNL     1      14.985 -39.763 -42.194  1.00  0.00    -0.323 N 
HETATM   11  C11 UNL     1      16.184 -40.805 -45.470  1.00  0.00     0.086 C 
HETATM   12  C12 UNL     1      15.066 -40.255 -46.331  1.00  0.00     0.092 C 
HETATM   13  C13 UNL     1      15.445 -40.341 -47.773  1.00  0.00     0.027 C 
HETATM   14  C14 UNL     1      14.160 -40.811 -48.435  1.00  0.00     0.022 C 
HETATM   15  C15 UNL     1      13.630 -41.787 -47.425  1.00  0.00     0.126 C 
HETATM   16  N5  UNL     1      13.917 -41.118 -46.160  1.00  0.00    -0.350 N 
ENDROOT
BRANCH  10  17
HETATM   17  C5  UNL     1      14.036 -39.608 -41.090  1.00  0.00     0.094 C 
HETATM   18  C6  UNL     1      12.782 -38.937 -41.601  1.00  0.00     0.026 C 
HETATM   19  C7  UNL     1      12.920 -37.454 -41.295  1.00  0.00     0.004 C 
HETATM   20  C8  UNL     1      12.673 -37.343 -39.784  1.00  0.00     0.032 C 
HETATM   21  C9  UNL     1      13.666 -38.192 -39.050  1.00  0.00     0.120 C 
HETATM   22  C10 UNL     1      14.664 -38.867 -39.935  1.00  0.00     0.057 C 
BRANCH  21  23
HETATM   23  O1  UNL     1      14.375 -37.351 -38.187  1.00  0.00    -0.396 OA
ATOM     24  H1  UNL     1      14.495 -37.821 -37.369  1.00  0.00     0.210 HD
ENDBRANCH  21  23
ENDBRANCH  10  17
TORSDOF 2
ENDMDL
