MODEL 1
REMARK VINA RESULT: -7.233713585      0.000      0.000
REMARK  1 active torsions:
REMARK  status: ('A' for Active; 'I' for Inactive)
REMARK    1  A    between atoms: C8_20  and  C9_21 
ROOT
HETATM    1  C1  UNL     1      13.968 -43.956 -42.433  1.00  0.00     0.069 C 
HETATM    2  C2  UNL     1      13.624 -42.804 -43.379  1.00  0.00     0.017 C 
HETATM    3  N1  UNL     1      12.685 -42.942 -44.240  1.00  0.00    -0.388 N 
ATOM      4  H1  UNL     1      12.213 -43.846 -44.247  1.00  0.00     0.159 HD
HETATM    5  C3  UNL     1      12.219 -41.979 -45.193  1.00  0.00     0.164 C 
HETATM    6  C4  UNL     1      12.483 -42.551 -46.543  1.00  0.00     0.083 C 
HETATM    7  N2  UNL     1      13.658 -42.033 -47.030  1.00  0.00    -0.343 N 
ATOM      8  H2  UNL     1      13.587 -42.013 -48.048  1.00  0.00     0.167 HD
HETATM    9  C5  UNL     1      14.765 -41.583 -46.726  1.00  0.00     0.193 C 
HETATM   10  N3  UNL     1      15.474 -41.223 -48.015  1.00  0.00    -0.063 NA
HETATM   11  N4  UNL     1      15.453 -41.369 -45.527  1.00  0.00    -0.316 N 
ATOM     12  H4  UNL     1      16.447 -41.534 -45.688  1.00  0.00     0.170 HD
HETATM   13  C6  UNL     1      15.271 -41.011 -44.194  1.00  0.00     0.124 A 
HETATM   14  N5  UNL     1      16.050 -39.975 -43.681  1.00  0.00    -0.318 N 
ATOM     15  H5  UNL     1      16.669 -39.495 -44.335  1.00  0.00     0.170 HD
HETATM   16  C7  UNL     1      16.062 -39.564 -42.445  1.00  0.00     0.177 A 
HETATM   17  S1  UNL     1      17.004 -38.340 -41.910  1.00  0.00    -0.040 SA
HETATM   18  N6  UNL     1      15.270 -40.159 -41.556  1.00  0.00    -0.335 N 
ATOM     19  H6  UNL     1      15.283 -39.834 -40.589  1.00  0.00     0.168 HD
HETATM   20  C8  UNL     1      14.432 -41.200 -41.897  1.00  0.00     0.035 A 
HETATM   21  C13 UNL     1      14.455 -41.604 -43.215  1.00  0.00     0.053 A 
ENDROOT
BRANCH  20  22
HETATM   22  C9  UNL     1      13.484 -41.656 -40.842  1.00  0.00    -0.000 A 
HETATM   23  C10 UNL     1      14.252 -41.744 -39.423  1.00  0.00     0.022 C 
HETATM   24  C11 UNL     1      12.686 -40.277 -40.579  1.00  0.00     0.016 A 
HETATM   25  C12 UNL     1      12.027 -41.523 -40.700  1.00  0.00     0.016 A 
ENDBRANCH  20  22
TORSDOF 1
ENDMDL
MODEL 2
REMARK VINA RESULT: -6.873233348      2.482      3.599
REMARK  1 active torsions:
REMARK  status: ('A' for Active; 'I' for Inactive)
REMARK    1  A    between atoms: C8_20  and  C9_21 
ROOT
HETATM    1  C1  UNL     1      11.691 -39.756 -43.197  1.00  0.00     0.069 C 
HETATM    2  C2  UNL     1      12.988 -40.296 -43.803  1.00  0.00     0.017 C 
HETATM    3  N1  UNL     1      13.806 -39.497 -44.379  1.00  0.00    -0.388 N 
ATOM      4  H1  UNL     1      13.530 -38.515 -44.406  1.00  0.00     0.159 HD
HETATM    5  C3  UNL     1      15.062 -39.815 -44.990  1.00  0.00     0.164 C 
HETATM    6  C4  UNL     1      14.933 -39.481 -46.436  1.00  0.00     0.083 C 
HETATM    7  N2  UNL     1      14.632 -40.622 -47.137  1.00  0.00    -0.343 N 
ATOM      8  H2  UNL     1      15.016 -40.517 -48.076  1.00  0.00     0.167 HD
HETATM    9  C5  UNL     1      14.082 -41.725 -47.083  1.00  0.00     0.193 C 
HETATM   10  N3  UNL     1      14.248 -42.378 -48.439  1.00  0.00    -0.063 NA
HETATM   11  N4  UNL     1      13.377 -42.434 -46.105  1.00  0.00    -0.316 N 
ATOM     12  H4  UNL     1      12.644 -42.977 -46.561  1.00  0.00     0.170 HD
HETATM   13  C6  UNL     1      13.316 -42.667 -44.734  1.00  0.00     0.124 A 
HETATM   14  N5  UNL     1      13.311 -43.989 -44.293  1.00  0.00    -0.318 N 
ATOM     15  H5  UNL     1      13.416 -44.714 -45.003  1.00  0.00     0.170 HD
HETATM   16  C7  UNL     1      13.184 -44.385 -43.057  1.00  0.00     0.177 A 
HETATM   17  S1  UNL     1      13.185 -45.957 -42.610  1.00  0.00    -0.040 SA
HETATM   18  N6  UNL     1      13.045 -43.476 -42.095  1.00  0.00    -0.335 N 
ATOM     19  H6  UNL     1      12.945 -43.791 -41.131  1.00  0.00     0.168 HD
HETATM   20  C8  UNL     1      13.032 -42.122 -42.358  1.00  0.00     0.035 A 
HETATM   21  C13 UNL     1      13.166 -41.749 -43.679  1.00  0.00     0.053 A 
ENDROOT
BRANCH  20  22
HETATM   22  C9  UNL     1      13.039 -41.220 -41.173  1.00  0.00    -0.000 A 
HETATM   23  C10 UNL     1      11.739 -41.512 -40.260  1.00  0.00     0.022 C 
HETATM   24  C11 UNL     1      14.131 -41.982 -40.259  1.00  0.00     0.016 A 
HETATM   25  C12 UNL     1      14.131 -40.578 -40.429  1.00  0.00     0.016 A 
ENDBRANCH  20  22
TORSDOF 1
ENDMDL
MODEL 3
REMARK VINA RESULT: -6.398680862      1.608      1.928
REMARK  1 active torsions:
REMARK  status: ('A' for Active; 'I' for Inactive)
REMARK    1  A    between atoms: C8_20  and  C9_21 
ROOT
HETATM    1  C1  UNL     1      14.037 -41.770 -41.276  1.00  0.00     0.069 C 
HETATM    2  C2  UNL     1      13.686 -41.234 -42.665  1.00  0.00     0.017 C 
HETATM    3  N1  UNL     1      12.865 -41.877 -43.409  1.00  0.00    -0.388 N 
ATOM      4  H1  UNL     1      12.488 -42.741 -43.019  1.00  0.00     0.159 HD
HETATM    5  C3  UNL     1      12.413 -41.528 -44.724  1.00  0.00     0.164 C 
HETATM    6  C4  UNL     1      12.877 -42.609 -45.637  1.00  0.00     0.083 C 
HETATM    7  N2  UNL     1      14.041 -42.214 -46.248  1.00  0.00    -0.343 N 
ATOM      8  H2  UNL     1      14.079 -42.669 -47.161  1.00  0.00     0.167 HD
HETATM    9  C5  UNL     1      15.059 -41.527 -46.133  1.00  0.00     0.193 C 
HETATM   10  N3  UNL     1      15.865 -41.699 -47.403  1.00  0.00    -0.063 NA
HETATM   11  N4  UNL     1      15.588 -40.698 -45.138  1.00  0.00    -0.316 N 
ATOM     12  H4  UNL     1      16.605 -40.780 -45.152  1.00  0.00     0.170 HD
HETATM   13  C6  UNL     1      15.228 -39.802 -44.136  1.00  0.00     0.124 A 
HETATM   14  N5  UNL     1      15.840 -38.550 -44.125  1.00  0.00    -0.318 N 
ATOM     15  H5  UNL     1      16.476 -38.339 -44.895  1.00  0.00     0.170 HD
HETATM   16  C7  UNL     1      15.677 -37.623 -43.223  1.00  0.00     0.177 A 
HETATM   17  S1  UNL     1      16.430 -36.174 -43.272  1.00  0.00    -0.040 SA
HETATM   18  N6  UNL     1      14.855 -37.851 -42.201  1.00  0.00    -0.335 N 
ATOM     19  H6  UNL     1      14.731 -37.123 -41.497  1.00  0.00     0.168 HD
HETATM   20  C8  UNL     1      14.166 -39.037 -42.061  1.00  0.00     0.035 A 
HETATM   21  C13 UNL     1      14.373 -39.990 -43.036  1.00  0.00     0.053 A 
ENDROOT
BRANCH  20  22
HETATM   22  C9  UNL     1      13.159 -39.088 -40.964  1.00  0.00    -0.000 A 
HETATM   23  C10 UNL     1      13.766 -38.400 -39.635  1.00  0.00     0.022 C 
HETATM   24  C11 UNL     1      12.196 -37.877 -41.423  1.00  0.00     0.016 A 
HETATM   25  C12 UNL     1      11.690 -39.119 -40.975  1.00  0.00     0.016 A 
ENDBRANCH  20  22
TORSDOF 1
ENDMDL
MODEL 4
REMARK VINA RESULT: -6.330170019      2.086      2.427
REMARK  1 active torsions:
REMARK  status: ('A' for Active; 'I' for Inactive)
REMARK    1  A    between atoms: C8_20  and  C9_21 
ROOT
HETATM    1  C1  UNL     1      14.202 -41.416 -41.569  1.00  0.00     0.069 C 
HETATM    2  C2  UNL     1      13.420 -41.157 -42.858  1.00  0.00     0.017 C 
HETATM    3  N1  UNL     1      12.522 -41.987 -43.239  1.00  0.00    -0.388 N 
ATOM      4  H1  UNL     1      12.383 -42.803 -42.642  1.00  0.00     0.159 HD
HETATM    5  C3  UNL     1      11.690 -41.908 -44.402  1.00  0.00     0.164 C 
HETATM    6  C4  UNL     1      12.029 -43.082 -45.253  1.00  0.00     0.083 C 
HETATM    7  N2  UNL     1      12.922 -42.694 -46.222  1.00  0.00    -0.343 N 
ATOM      8  H2  UNL     1      12.772 -43.292 -47.035  1.00  0.00     0.167 HD
HETATM    9  C5  UNL     1      13.832 -41.909 -46.499  1.00  0.00     0.193 C 
HETATM   10  N3  UNL     1      14.280 -42.221 -47.912  1.00  0.00    -0.063 NA
HETATM   11  N4  UNL     1      14.494 -40.879 -45.823  1.00  0.00    -0.316 N 
ATOM     12  H4  UNL     1      15.471 -40.871 -46.118  1.00  0.00     0.170 HD
HETATM   13  C6  UNL     1      14.301 -39.862 -44.893  1.00  0.00     0.124 A 
HETATM   14  N5  UNL     1      14.721 -38.577 -45.231  1.00  0.00    -0.318 N 
ATOM     15  H5  UNL     1      15.092 -38.444 -46.172  1.00  0.00     0.170 HD
HETATM   16  C7  UNL     1      14.686 -37.529 -44.456  1.00  0.00     0.177 A 
HETATM   17  S1  UNL     1      15.197 -36.048 -44.919  1.00  0.00    -0.040 SA
HETATM   18  N6  UNL     1      14.209 -37.653 -43.220  1.00  0.00    -0.335 N 
ATOM     19  H6  UNL     1      14.184 -36.831 -42.617  1.00  0.00     0.168 HD
HETATM   20  C8  UNL     1      13.748 -38.855 -42.725  1.00  0.00     0.035 A 
HETATM   21  C13 UNL     1      13.809 -39.937 -43.578  1.00  0.00     0.053 A 
ENDROOT
BRANCH  20  22
HETATM   22  C9  UNL     1      13.090 -38.810 -41.389  1.00  0.00    -0.000 A 
HETATM   23  C10 UNL     1      13.944 -37.865 -40.395  1.00  0.00     0.022 C 
HETATM   24  C11 UNL     1      11.894 -37.775 -41.710  1.00  0.00     0.016 A 
HETATM   25  C12 UNL     1      11.690 -38.965 -40.974  1.00  0.00     0.016 A 
ENDBRANCH  20  22
TORSDOF 1
ENDMDL
MODEL 5
REMARK VINA RESULT: -6.216206546      3.075      4.765
REMARK  1 active torsions:
REMARK  status: ('A' for Active; 'I' for Inactive)
REMARK    1  A    between atoms: C8_20  and  C9_21 
ROOT
HETATM    1  C1  UNL     1      12.463 -37.294 -41.798  1.00  0.00     0.069 C 
HETATM    2  C2  UNL     1      13.837 -37.622 -42.383  1.00  0.00     0.017 C 
HETATM    3  N1  UNL     1      14.834 -36.854 -42.145  1.00  0.00    -0.388 N 
ATOM      4  H1  UNL     1      14.642 -36.037 -41.565  1.00  0.00     0.159 HD
HETATM    5  C3  UNL     1      16.186 -37.003 -42.595  1.00  0.00     0.164 C 
HETATM    6  C4  UNL     1      16.482 -35.827 -43.460  1.00  0.00     0.083 C 
HETATM    7  N2  UNL     1      16.312 -36.180 -44.776  1.00  0.00    -0.343 N 
ATOM      8  H2  UNL     1      16.946 -35.607 -45.332  1.00  0.00     0.167 HD
HETATM    9  C5  UNL     1      15.697 -36.915 -45.551  1.00  0.00     0.193 C 
HETATM   10  N3  UNL     1      16.186 -36.604 -46.950  1.00  0.00    -0.063 NA
HETATM   11  N4  UNL     1      14.704 -37.891 -45.416  1.00  0.00    -0.316 N 
ATOM     12  H4  UNL     1      14.091 -37.848 -46.230  1.00  0.00     0.170 HD
HETATM   13  C6  UNL     1      14.251 -38.901 -44.571  1.00  0.00     0.124 A 
HETATM   14  N5  UNL     1      14.037 -40.165 -45.117  1.00  0.00    -0.318 N 
ATOM     15  H5  UNL     1      14.286 -40.294 -46.098  1.00  0.00     0.170 HD
HETATM   16  C7  UNL     1      13.548 -41.199 -44.491  1.00  0.00     0.177 A 
HETATM   17  S1  UNL     1      13.322 -42.656 -45.195  1.00  0.00    -0.040 SA
HETATM   18  N6  UNL     1      13.211 -41.080 -43.209  1.00  0.00    -0.335 N 
ATOM     19  H6  UNL     1      12.828 -41.891 -42.724  1.00  0.00     0.168 HD
HETATM   20  C8  UNL     1      13.361 -39.898 -42.514  1.00  0.00     0.035 A 
HETATM   21  C13 UNL     1      13.878 -38.831 -43.218  1.00  0.00     0.053 A 
ENDROOT
BRANCH  20  22
HETATM   22  C9  UNL     1      13.100 -39.957 -41.049  1.00  0.00    -0.000 A 
HETATM   23  C10 UNL     1      11.743 -40.788 -40.771  1.00  0.00     0.022 C 
HETATM   24  C11 UNL     1      14.155 -41.105 -40.631  1.00  0.00     0.016 A 
HETATM   25  C12 UNL     1      13.996 -39.914 -39.885  1.00  0.00     0.016 A 
ENDBRANCH  20  22
TORSDOF 1
ENDMDL
