MODEL 1
REMARK VINA RESULT: -6.200442807      0.000      0.000
REMARK  5 active torsions:
REMARK  status: ('A' for Active; 'I' for Inactive)
REMARK    1  A    between atoms: C4_4  and  C5_5 
REMARK    2  A    between atoms: C7_7  and  O1_9 
REMARK    3  A    between atoms: C10_12  and  O2_13 
REMARK    4  A    between atoms: C15_20  and  O4_21 
REMARK    5  A    between atoms: O4_21  and  O5_22 
ROOT
HETATM    1  C5  UNL     1      13.606 -39.613 -43.831  1.00  0.00     0.009 C 
HETATM    2  C6  UNL     1      14.380 -40.451 -44.497  1.00  0.00    -0.006 C 
HETATM    3  C7  UNL     1      15.766 -39.997 -44.785  1.00  0.00     0.083 C 
HETATM    4  C8  UNL     1      16.523 -39.929 -43.484  1.00  0.00     0.051 C 
HETATM    5  C9  UNL     1      16.430 -41.082 -45.603  1.00  0.00     0.076 C 
HETATM    6  C10 UNL     1      15.518 -41.415 -46.746  1.00  0.00     0.153 C 
HETATM    7  C11 UNL     1      14.330 -42.252 -46.248  1.00  0.00     0.192 C 
HETATM    8  O3  UNL     1      13.464 -42.279 -47.287  1.00  0.00    -0.380 OA
HETATM    9  C12 UNL     1      12.229 -42.798 -47.118  1.00  0.00     0.168 C 
HETATM   10  C13 UNL     1      11.690 -42.767 -45.724  1.00  0.00     0.030 C 
HETATM   11  C14 UNL     1      12.355 -41.691 -44.874  1.00  0.00     0.051 C 
HETATM   12  C15 UNL     1      13.839 -41.779 -44.919  1.00  0.00     0.151 C 
ENDROOT
BRANCH   1  13
HETATM   13  C4  UNL     1      13.993 -38.297 -43.364  1.00  0.00     0.002 C 
HETATM   14  C2  UNL     1      13.193 -37.691 -42.473  1.00  0.00    -0.088 C 
HETATM   15  C1  UNL     1      13.526 -36.344 -41.952  1.00  0.00     0.043 C 
HETATM   16  C3  UNL     1      11.973 -38.384 -42.017  1.00  0.00     0.043 C 
ENDBRANCH   1  13
BRANCH   3  17
HETATM   17  O1  UNL     1      15.768 -38.803 -45.502  1.00  0.00    -0.385 OA
ATOM     18  H1  UNL     1      16.646 -38.445 -45.572  1.00  0.00     0.211 HD
ENDBRANCH   3  17
BRANCH  12  19
HETATM   19  O4  UNL     1      14.342 -42.640 -43.906  1.00  0.00    -0.224 OA
BRANCH  19  20
HETATM   20  O5  UNL     1      13.537 -42.823 -42.925  1.00  0.00    -0.249 OA
ATOM     21  H5  UNL     1      13.727 -43.595 -42.405  1.00  0.00     0.253 HD
ENDBRANCH  19  20
ENDBRANCH  12  19
BRANCH   6  22
HETATM   22  O2  UNL     1      16.209 -42.232 -47.637  1.00  0.00    -0.393 OA
ATOM     23  H2  UNL     1      16.845 -42.741 -47.148  1.00  0.00     0.210 HD
ENDBRANCH   6  22
TORSDOF 5
ENDMDL
MODEL 2
REMARK VINA RESULT: -6.084871053      2.648      3.868
REMARK  5 active torsions:
REMARK  status: ('A' for Active; 'I' for Inactive)
REMARK    1  A    between atoms: C4_4  and  C5_5 
REMARK    2  A    between atoms: C7_7  and  O1_9 
REMARK    3  A    between atoms: C10_12  and  O2_13 
REMARK    4  A    between atoms: C15_20  and  O4_21 
REMARK    5  A    between atoms: O4_21  and  O5_22 
ROOT
HETATM    1  C5  UNL     1      14.360 -40.508 -42.007  1.00  0.00     0.009 C 
HETATM    2  C6  UNL     1      13.540 -41.335 -42.629  1.00  0.00    -0.006 C 
HETATM    3  C7  UNL     1      12.980 -42.453 -41.825  1.00  0.00     0.083 C 
HETATM    4  C8  UNL     1      12.035 -41.876 -40.803  1.00  0.00     0.051 C 
HETATM    5  C9  UNL     1      12.132 -43.291 -42.756  1.00  0.00     0.076 C 
HETATM    6  C10 UNL     1      12.959 -43.606 -43.967  1.00  0.00     0.153 C 
HETATM    7  C11 UNL     1      13.065 -42.366 -44.871  1.00  0.00     0.192 C 
HETATM    8  O3  UNL     1      14.015 -42.680 -45.780  1.00  0.00    -0.380 OA
HETATM    9  C12 UNL     1      14.474 -41.732 -46.626  1.00  0.00     0.168 C 
HETATM   10  C13 UNL     1      14.361 -40.319 -46.151  1.00  0.00     0.030 C 
HETATM   11  C14 UNL     1      14.280 -40.229 -44.632  1.00  0.00     0.051 C 
HETATM   12  C15 UNL     1      13.222 -41.113 -44.072  1.00  0.00     0.151 C 
ENDROOT
BRANCH   1  13
HETATM   13  C4  UNL     1      14.759 -40.602 -40.618  1.00  0.00     0.002 C 
HETATM   14  C2  UNL     1      14.579 -39.521 -39.842  1.00  0.00    -0.088 C 
HETATM   15  C1  UNL     1      14.964 -39.545 -38.411  1.00  0.00     0.043 C 
HETATM   16  C3  UNL     1      13.992 -38.303 -40.434  1.00  0.00     0.043 C 
ENDBRANCH   1  13
BRANCH   3  17
HETATM   17  O1  UNL     1      13.992 -43.238 -41.278  1.00  0.00    -0.385 OA
ATOM     18  H1  UNL     1      14.072 -44.066 -41.738  1.00  0.00     0.211 HD
ENDBRANCH   3  17
BRANCH  12  19
HETATM   19  O4  UNL     1      11.968 -40.448 -44.003  1.00  0.00    -0.224 OA
BRANCH  19  20
HETATM   20  O5  UNL     1      11.976 -39.386 -43.285  1.00  0.00    -0.249 OA
ATOM     21  H5  UNL     1      11.599 -38.625 -43.712  1.00  0.00     0.253 HD
ENDBRANCH  19  20
ENDBRANCH  12  19
BRANCH   6  22
HETATM   22  O2  UNL     1      12.289 -44.566 -44.721  1.00  0.00    -0.393 OA
ATOM     23  H2  UNL     1      12.911 -45.239 -44.972  1.00  0.00     0.210 HD
ENDBRANCH   6  22
TORSDOF 5
ENDMDL
MODEL 3
REMARK VINA RESULT: -6.048857974      2.067      3.892
REMARK  5 active torsions:
REMARK  status: ('A' for Active; 'I' for Inactive)
REMARK    1  A    between atoms: C4_4  and  C5_5 
REMARK    2  A    between atoms: C7_7  and  O1_9 
REMARK    3  A    between atoms: C10_12  and  O2_13 
REMARK    4  A    between atoms: C15_20  and  O4_21 
REMARK    5  A    between atoms: O4_21  and  O5_22 
ROOT
HETATM    1  C5  UNL     1      14.798 -40.548 -42.547  1.00  0.00     0.009 C 
HETATM    2  C6  UNL     1      13.998 -40.901 -43.536  1.00  0.00    -0.006 C 
HETATM    3  C7  UNL     1      12.746 -41.612 -43.164  1.00  0.00     0.083 C 
HETATM    4  C8  UNL     1      11.847 -40.643 -42.441  1.00  0.00     0.051 C 
HETATM    5  C9  UNL     1      12.035 -41.967 -44.451  1.00  0.00     0.076 C 
HETATM    6  C10 UNL     1      13.025 -42.651 -45.346  1.00  0.00     0.153 C 
HETATM    7  C11 UNL     1      13.997 -41.621 -45.943  1.00  0.00     0.192 C 
HETATM    8  O3  UNL     1      14.975 -42.359 -46.517  1.00  0.00    -0.380 OA
HETATM    9  C12 UNL     1      16.084 -41.752 -46.990  1.00  0.00     0.168 C 
HETATM   10  C13 UNL     1      16.437 -40.444 -46.356  1.00  0.00     0.030 C 
HETATM   11  C14 UNL     1      15.840 -40.304 -44.961  1.00  0.00     0.051 C 
HETATM   12  C15 UNL     1      14.378 -40.578 -44.945  1.00  0.00     0.151 C 
ENDROOT
BRANCH   1  13
HETATM   13  C4  UNL     1      14.560 -40.798 -41.140  1.00  0.00     0.002 C 
HETATM   14  C2  UNL     1      15.325 -40.143 -40.252  1.00  0.00    -0.088 C 
HETATM   15  C1  UNL     1      15.137 -40.349 -38.796  1.00  0.00     0.043 C 
HETATM   16  C3  UNL     1      16.358 -39.212 -40.744  1.00  0.00     0.043 C 
ENDBRANCH   1  13
BRANCH   3  17
HETATM   17  O1  UNL     1      13.019 -42.772 -42.444  1.00  0.00    -0.385 OA
ATOM     18  H1  UNL     1      13.501 -43.399 -42.971  1.00  0.00     0.211 HD
ENDBRANCH   3  17
BRANCH  12  19
HETATM   19  O4  UNL     1      13.623 -39.400 -45.194  1.00  0.00    -0.224 OA
BRANCH  19  20
HETATM   20  O5  UNL     1      14.281 -38.311 -45.037  1.00  0.00    -0.249 OA
ATOM     21  H5  UNL     1      14.744 -38.020 -45.814  1.00  0.00     0.253 HD
ENDBRANCH  19  20
ENDBRANCH  12  19
BRANCH   6  22
HETATM   22  O2  UNL     1      12.338 -43.195 -46.429  1.00  0.00    -0.393 OA
ATOM     23  H2  UNL     1      12.826 -43.944 -46.749  1.00  0.00     0.210 HD
ENDBRANCH   6  22
TORSDOF 5
ENDMDL
MODEL 4
REMARK VINA RESULT: -6.032852742      2.263      2.958
REMARK  5 active torsions:
REMARK  status: ('A' for Active; 'I' for Inactive)
REMARK    1  A    between atoms: C4_4  and  C5_5 
REMARK    2  A    between atoms: C7_7  and  O1_9 
REMARK    3  A    between atoms: C10_12  and  O2_13 
REMARK    4  A    between atoms: C15_20  and  O4_21 
REMARK    5  A    between atoms: O4_21  and  O5_22 
ROOT
HETATM    1  C5  UNL     1      13.972 -41.643 -43.803  1.00  0.00     0.009 C 
HETATM    2  C6  UNL     1      14.692 -41.131 -44.784  1.00  0.00    -0.006 C 
HETATM    3  C7  UNL     1      15.548 -39.963 -44.447  1.00  0.00     0.083 C 
HETATM    4  C8  UNL     1      16.653 -40.431 -43.536  1.00  0.00     0.051 C 
HETATM    5  C9  UNL     1      16.219 -39.517 -45.727  1.00  0.00     0.076 C 
HETATM    6  C10 UNL     1      15.153 -39.364 -46.771  1.00  0.00     0.153 C 
HETATM    7  C11 UNL     1      14.697 -40.746 -47.267  1.00  0.00     0.192 C 
HETATM    8  O3  UNL     1      13.587 -40.502 -48.001  1.00  0.00    -0.380 OA
HETATM    9  C12 UNL     1      12.836 -41.533 -48.445  1.00  0.00     0.168 C 
HETATM   10  C13 UNL     1      12.917 -42.795 -47.646  1.00  0.00     0.030 C 
HETATM   11  C14 UNL     1      13.365 -42.539 -46.212  1.00  0.00     0.051 C 
HETATM   12  C15 UNL     1      14.615 -41.734 -46.149  1.00  0.00     0.151 C 
ENDROOT
BRANCH   1  13
HETATM   13  C4  UNL     1      13.945 -41.162 -42.437  1.00  0.00     0.002 C 
HETATM   14  C2  UNL     1      13.797 -42.069 -41.458  1.00  0.00    -0.088 C 
HETATM   15  C1  UNL     1      13.760 -41.649 -40.037  1.00  0.00     0.043 C 
HETATM   16  C3  UNL     1      13.670 -43.495 -41.816  1.00  0.00     0.043 C 
ENDBRANCH   1  13
BRANCH   3  17
HETATM   17  O1  UNL     1      14.792 -38.917 -43.925  1.00  0.00    -0.385 OA
ATOM     18  H1  UNL     1      14.161 -38.598 -44.559  1.00  0.00     0.211 HD
ENDBRANCH   3  17
BRANCH  12  19
HETATM   19  O4  UNL     1      15.770 -42.560 -46.176  1.00  0.00    -0.224 OA
BRANCH  19  20
HETATM   20  O5  UNL     1      16.386 -42.566 -47.301  1.00  0.00    -0.249 OA
ATOM     21  H5  UNL     1      17.148 -41.999 -47.331  1.00  0.00     0.253 HD
ENDBRANCH  19  20
ENDBRANCH  12  19
BRANCH   6  22
HETATM   22  O2  UNL     1      15.710 -38.730 -47.880  1.00  0.00    -0.393 OA
ATOM     23  H2  UNL     1      15.091 -38.084 -48.199  1.00  0.00     0.210 HD
ENDBRANCH   6  22
TORSDOF 5
ENDMDL
MODEL 5
REMARK VINA RESULT: -5.994945263      3.378      5.917
REMARK  5 active torsions:
REMARK  status: ('A' for Active; 'I' for Inactive)
REMARK    1  A    between atoms: C4_4  and  C5_5 
REMARK    2  A    between atoms: C7_7  and  O1_9 
REMARK    3  A    between atoms: C10_12  and  O2_13 
REMARK    4  A    between atoms: C15_20  and  O4_21 
REMARK    5  A    between atoms: O4_21  and  O5_22 
ROOT
HETATM    1  C5  UNL     1      13.149 -42.982 -41.881  1.00  0.00     0.009 C 
HETATM    2  C6  UNL     1      13.282 -41.700 -42.170  1.00  0.00    -0.006 C 
HETATM    3  C7  UNL     1      13.129 -41.317 -43.599  1.00  0.00     0.083 C 
HETATM    4  C8  UNL     1      11.690 -41.521 -43.994  1.00  0.00     0.051 C 
HETATM    5  C9  UNL     1      13.385 -39.829 -43.692  1.00  0.00     0.076 C 
HETATM    6  C10 UNL     1      14.682 -39.544 -42.994  1.00  0.00     0.153 C 
HETATM    7  C11 UNL     1      14.487 -39.609 -41.471  1.00  0.00     0.192 C 
HETATM    8  O3  UNL     1      15.739 -39.587 -40.960  1.00  0.00    -0.380 OA
HETATM    9  C12 UNL     1      15.929 -39.803 -39.640  1.00  0.00     0.168 C 
HETATM   10  C13 UNL     1      14.875 -40.609 -38.949  1.00  0.00     0.030 C 
HETATM   11  C14 UNL     1      14.098 -41.491 -39.919  1.00  0.00     0.051 C 
HETATM   12  C15 UNL     1      13.571 -40.722 -41.078  1.00  0.00     0.151 C 
ENDROOT
BRANCH   1  13
HETATM   13  C4  UNL     1      12.873 -44.037 -42.834  1.00  0.00     0.002 C 
HETATM   14  C2  UNL     1      13.469 -45.224 -42.640  1.00  0.00    -0.088 C 
HETATM   15  C1  UNL     1      13.233 -46.350 -43.575  1.00  0.00     0.043 C 
HETATM   16  C3  UNL     1      14.364 -45.397 -41.480  1.00  0.00     0.043 C 
ENDBRANCH   1  13
BRANCH   3  17
HETATM   17  O1  UNL     1      14.038 -41.999 -44.405  1.00  0.00    -0.385 OA
ATOM     18  H1  UNL     1      14.510 -41.402 -44.973  1.00  0.00     0.211 HD
ENDBRANCH   3  17
BRANCH  12  19
HETATM   19  O4  UNL     1      12.282 -40.188 -40.808  1.00  0.00    -0.224 OA
BRANCH  19  20
HETATM   20  O5  UNL     1      12.281 -38.938 -40.521  1.00  0.00    -0.249 OA
ATOM     21  H5  UNL     1      13.137 -38.588 -40.302  1.00  0.00     0.253 HD
ENDBRANCH  19  20
ENDBRANCH  12  19
BRANCH   6  22
HETATM   22  O2  UNL     1      15.052 -38.230 -43.272  1.00  0.00    -0.393 OA
ATOM     23  H2  UNL     1      15.979 -38.134 -43.089  1.00  0.00     0.210 HD
ENDBRANCH   6  22
TORSDOF 5
ENDMDL
