MODEL 1
REMARK VINA RESULT: -6.920737272      0.000      0.000
REMARK  3 active torsions:
REMARK  status: ('A' for Active; 'I' for Inactive)
REMARK    1  A    between atoms: C2_2  and  C4_4 
REMARK    2  A    between atoms: C14_15  and  N1_16 
REMARK    3  A    between atoms: C15_20  and  O2_21 
ROOT
HETATM    1  C4  UNL     1      14.049 -43.178 -42.298  1.00  0.00     0.164 C 
HETATM    2  C5  UNL     1      13.667 -42.332 -41.115  1.00  0.00     0.043 C 
HETATM    3  C6  UNL     1      14.510 -41.072 -41.133  1.00  0.00     0.085 C 
HETATM    4  C7  UNL     1      13.742 -39.833 -41.285  1.00  0.00     0.149 C 
HETATM    5  O1  UNL     1      12.911 -39.585 -40.334  1.00  0.00    -0.293 OA
HETATM    6  C8  UNL     1      13.801 -38.863 -42.358  1.00  0.00     0.046 C 
HETATM    7  C9  UNL     1      13.473 -39.043 -43.618  1.00  0.00    -0.020 C 
HETATM    8  C10 UNL     1      12.960 -40.275 -44.247  1.00  0.00     0.071 C 
HETATM    9  C11 UNL     1      14.078 -40.979 -44.942  1.00  0.00     0.127 C 
HETATM   10  C12 UNL     1      13.595 -41.829 -46.093  1.00  0.00     0.046 C 
HETATM   11  C13 UNL     1      14.346 -41.385 -47.304  1.00  0.00     0.038 C 
HETATM   12  C14 UNL     1      15.583 -40.683 -46.763  1.00  0.00     0.215 C 
HETATM   13  C15 UNL     1      15.108 -40.015 -45.480  1.00  0.00     0.186 C 
HETATM   14  O3  UNL     1      14.656 -41.873 -44.022  1.00  0.00    -0.226 OA
HETATM   15  O4  UNL     1      13.649 -42.493 -43.448  1.00  0.00    -0.234 OA
ENDROOT
BRANCH  13  16
HETATM   16  O2  UNL     1      16.117 -39.714 -44.604  1.00  0.00    -0.390 OA
ATOM     17  H2  UNL     1      16.917 -39.408 -45.015  1.00  0.00     0.210 HD
ENDBRANCH  13  16
BRANCH  12  18
HETATM   18  N1  UNL     1      16.623 -41.602 -46.422  1.00  0.00    -0.072 N 
ATOM     19  H13 UNL     1      16.238 -42.489 -46.096  1.00  0.00     0.274 HD
ATOM     20  H12 UNL     1      17.110 -41.932 -47.255  1.00  0.00     0.274 HD
ATOM     21  H11 UNL     1      17.277 -41.213 -45.743  1.00  0.00     0.274 HD
ENDBRANCH  12  18
BRANCH   1  22
HETATM   22  C2  UNL     1      13.353 -44.514 -42.318  1.00  0.00     0.009 C 
HETATM   23  C1  UNL     1      12.759 -44.694 -43.697  1.00  0.00     0.012 C 
HETATM   24  C3  UNL     1      14.270 -45.657 -41.978  1.00  0.00     0.012 C 
ENDBRANCH   1  22
TORSDOF 3
ENDMDL
MODEL 2
REMARK VINA RESULT: -6.366283654      2.344      4.331
REMARK  3 active torsions:
REMARK  status: ('A' for Active; 'I' for Inactive)
REMARK    1  A    between atoms: C2_2  and  C4_4 
REMARK    2  A    between atoms: C14_15  and  N1_16 
REMARK    3  A    between atoms: C15_20  and  O2_21 
ROOT
HETATM    1  C4  UNL     1      12.794 -43.421 -43.182  1.00  0.00     0.164 C 
HETATM    2  C5  UNL     1      13.123 -43.502 -44.647  1.00  0.00     0.043 C 
HETATM    3  C6  UNL     1      12.818 -42.160 -45.284  1.00  0.00     0.085 C 
HETATM    4  C7  UNL     1      13.986 -41.481 -45.852  1.00  0.00     0.149 C 
HETATM    5  O1  UNL     1      14.567 -42.108 -46.815  1.00  0.00    -0.293 OA
HETATM    6  C8  UNL     1      14.561 -40.208 -45.473  1.00  0.00     0.046 C 
HETATM    7  C9  UNL     1      15.125 -39.895 -44.327  1.00  0.00    -0.020 C 
HETATM    8  C10 UNL     1      15.316 -40.765 -43.151  1.00  0.00     0.071 C 
HETATM    9  C11 UNL     1      14.248 -40.481 -42.146  1.00  0.00     0.127 C 
HETATM   10  C12 UNL     1      14.686 -40.799 -40.737  1.00  0.00     0.046 C 
HETATM   11  C13 UNL     1      14.491 -39.557 -39.932  1.00  0.00     0.038 C 
HETATM   12  C14 UNL     1      13.487 -38.732 -40.723  1.00  0.00     0.215 C 
HETATM   13  C15 UNL     1      13.809 -39.038 -42.179  1.00  0.00     0.186 C 
HETATM   14  O3  UNL     1      13.170 -41.343 -42.417  1.00  0.00    -0.226 OA
HETATM   15  O4  UNL     1      13.700 -42.531 -42.599  1.00  0.00    -0.234 OA
ENDROOT
BRANCH  13  16
HETATM   16  O2  UNL     1      12.779 -38.776 -43.043  1.00  0.00    -0.390 OA
ATOM     17  H2  UNL     1      12.126 -39.464 -43.099  1.00  0.00     0.210 HD
ENDBRANCH  13  16
BRANCH  12  18
HETATM   18  N1  UNL     1      12.138 -39.136 -40.476  1.00  0.00    -0.072 N 
ATOM     19  H13 UNL     1      11.813 -39.791 -41.188  1.00  0.00     0.274 HD
ATOM     20  H12 UNL     1      12.078 -39.741 -39.658  1.00  0.00     0.274 HD
ATOM     21  H11 UNL     1      11.505 -38.340 -40.393  1.00  0.00     0.274 HD
ENDBRANCH  12  18
BRANCH   1  22
HETATM   22  C2  UNL     1      12.951 -44.738 -42.469  1.00  0.00     0.009 C 
HETATM   23  C1  UNL     1      13.181 -45.798 -43.523  1.00  0.00     0.012 C 
HETATM   24  C3  UNL     1      14.072 -44.731 -41.466  1.00  0.00     0.012 C 
ENDBRANCH   1  22
TORSDOF 3
ENDMDL
MODEL 3
REMARK VINA RESULT: -6.293606998      2.239      5.352
REMARK  3 active torsions:
REMARK  status: ('A' for Active; 'I' for Inactive)
REMARK    1  A    between atoms: C2_2  and  C4_4 
REMARK    2  A    between atoms: C14_15  and  N1_16 
REMARK    3  A    between atoms: C15_20  and  O2_21 
ROOT
HETATM    1  C4  UNL     1      15.550 -40.394 -44.761  1.00  0.00     0.164 C 
HETATM    2  C5  UNL     1      15.334 -40.191 -46.236  1.00  0.00     0.043 C 
HETATM    3  C6  UNL     1      15.008 -41.533 -46.863  1.00  0.00     0.085 C 
HETATM    4  C7  UNL     1      13.674 -41.610 -47.466  1.00  0.00     0.149 C 
HETATM    5  O1  UNL     1      13.470 -40.801 -48.445  1.00  0.00    -0.293 OA
HETATM    6  C8  UNL     1      12.572 -42.475 -47.103  1.00  0.00     0.046 C 
HETATM    7  C9  UNL     1      11.896 -42.480 -45.975  1.00  0.00    -0.020 C 
HETATM    8  C10 UNL     1      12.094 -41.603 -44.805  1.00  0.00     0.071 C 
HETATM    9  C11 UNL     1      12.887 -42.330 -43.769  1.00  0.00     0.127 C 
HETATM   10  C12 UNL     1      12.606 -41.827 -42.373  1.00  0.00     0.046 C 
HETATM   11  C13 UNL     1      12.191 -43.010 -41.563  1.00  0.00     0.038 C 
HETATM   12  C14 UNL     1      12.727 -44.214 -42.324  1.00  0.00     0.215 C 
HETATM   13  C15 UNL     1      12.618 -43.815 -43.789  1.00  0.00     0.186 C 
HETATM   14  O3  UNL     1      14.247 -42.059 -44.008  1.00  0.00    -0.226 OA
HETATM   15  O4  UNL     1      14.323 -40.763 -44.206  1.00  0.00    -0.234 OA
ENDROOT
BRANCH  13  16
HETATM   16  O2  UNL     1      13.437 -44.530 -44.621  1.00  0.00    -0.390 OA
ATOM     17  H2  UNL     1      13.401 -45.471 -44.497  1.00  0.00     0.210 HD
ENDBRANCH  13  16
BRANCH  12  18
HETATM   18  N1  UNL     1      14.104 -44.467 -42.037  1.00  0.00    -0.072 N 
ATOM     19  H13 UNL     1      14.649 -43.605 -42.052  1.00  0.00     0.274 HD
ATOM     20  H12 UNL     1      14.235 -44.726 -41.059  1.00  0.00     0.274 HD
ATOM     21  H11 UNL     1      14.507 -45.168 -42.660  1.00  0.00     0.274 HD
ENDBRANCH  12  18
BRANCH   1  22
HETATM   22  C2  UNL     1      15.994 -39.141 -44.054  1.00  0.00     0.009 C 
HETATM   23  C1  UNL     1      14.770 -38.276 -43.854  1.00  0.00     0.012 C 
HETATM   24  C3  UNL     1      16.671 -39.419 -42.739  1.00  0.00     0.012 C 
ENDBRANCH   1  22
TORSDOF 3
ENDMDL
MODEL 4
REMARK VINA RESULT: -6.287002561      2.477      5.703
REMARK  3 active torsions:
REMARK  status: ('A' for Active; 'I' for Inactive)
REMARK    1  A    between atoms: C2_2  and  C4_4 
REMARK    2  A    between atoms: C14_15  and  N1_16 
REMARK    3  A    between atoms: C15_20  and  O2_21 
ROOT
HETATM    1  C4  UNL     1      14.719 -38.264 -43.778  1.00  0.00     0.164 C 
HETATM    2  C5  UNL     1      14.835 -38.517 -45.256  1.00  0.00     0.043 C 
HETATM    3  C6  UNL     1      15.137 -39.988 -45.470  1.00  0.00     0.085 C 
HETATM    4  C7  UNL     1      14.104 -40.715 -46.212  1.00  0.00     0.149 C 
HETATM    5  O1  UNL     1      13.907 -40.305 -47.417  1.00  0.00    -0.293 OA
HETATM    6  C8  UNL     1      13.289 -41.825 -45.768  1.00  0.00     0.046 C 
HETATM    7  C9  UNL     1      12.386 -41.823 -44.813  1.00  0.00    -0.020 C 
HETATM    8  C10 UNL     1      11.979 -40.686 -43.963  1.00  0.00     0.071 C 
HETATM    9  C11 UNL     1      12.670 -40.783 -42.643  1.00  0.00     0.127 C 
HETATM   10  C12 UNL     1      11.891 -40.112 -41.537  1.00  0.00     0.046 C 
HETATM   11  C13 UNL     1      11.690 -41.134 -40.468  1.00  0.00     0.038 C 
HETATM   12  C14 UNL     1      12.765 -42.180 -40.720  1.00  0.00     0.215 C 
HETATM   13  C15 UNL     1      12.914 -42.215 -42.234  1.00  0.00     0.186 C 
HETATM   14  O3  UNL     1      13.881 -40.073 -42.745  1.00  0.00    -0.226 OA
HETATM   15  O4  UNL     1      13.579 -38.935 -43.328  1.00  0.00    -0.234 OA
ENDROOT
BRANCH  13  16
HETATM   16  O2  UNL     1      14.106 -42.734 -42.663  1.00  0.00    -0.390 OA
ATOM     17  H2  UNL     1      14.466 -43.411 -42.103  1.00  0.00     0.210 HD
ENDBRANCH  13  16
BRANCH  12  18
HETATM   18  N1  UNL     1      14.027 -41.807 -40.161  1.00  0.00    -0.072 N 
ATOM     19  H13 UNL     1      14.746 -42.497 -40.381  1.00  0.00     0.274 HD
ATOM     20  H12 UNL     1      14.420 -41.001 -40.646  1.00  0.00     0.274 HD
ATOM     21  H11 UNL     1      13.972 -41.641 -39.156  1.00  0.00     0.274 HD
ENDBRANCH  12  18
BRANCH   1  22
HETATM   22  C2  UNL     1      14.532 -36.808 -43.442  1.00  0.00     0.009 C 
HETATM   23  C1  UNL     1      14.509 -36.043 -44.747  1.00  0.00     0.012 C 
HETATM   24  C3  UNL     1      13.282 -36.545 -42.647  1.00  0.00     0.012 C 
ENDBRANCH   1  22
TORSDOF 3
ENDMDL
MODEL 5
REMARK VINA RESULT: -6.267567903      1.900      4.279
REMARK  3 active torsions:
REMARK  status: ('A' for Active; 'I' for Inactive)
REMARK    1  A    between atoms: C2_2  and  C4_4 
REMARK    2  A    between atoms: C14_15  and  N1_16 
REMARK    3  A    between atoms: C15_20  and  O2_21 
ROOT
HETATM    1  C4  UNL     1      13.546 -38.272 -42.764  1.00  0.00     0.164 C 
HETATM    2  C5  UNL     1      12.679 -38.840 -41.674  1.00  0.00     0.043 C 
HETATM    3  C6  UNL     1      11.746 -39.866 -42.288  1.00  0.00     0.085 C 
HETATM    4  C7  UNL     1      11.934 -41.230 -41.785  1.00  0.00     0.149 C 
HETATM    5  O1  UNL     1      11.709 -41.384 -40.527  1.00  0.00    -0.293 OA
HETATM    6  C8  UNL     1      12.332 -42.413 -42.517  1.00  0.00     0.046 C 
HETATM    7  C9  UNL     1      13.484 -42.637 -43.110  1.00  0.00    -0.020 C 
HETATM    8  C10 UNL     1      14.653 -41.738 -43.171  1.00  0.00     0.071 C 
HETATM    9  C11 UNL     1      14.666 -41.030 -44.486  1.00  0.00     0.127 C 
HETATM   10  C12 UNL     1      16.058 -40.623 -44.905  1.00  0.00     0.046 C 
HETATM   11  C13 UNL     1      16.290 -41.207 -46.260  1.00  0.00     0.038 C 
HETATM   12  C14 UNL     1      14.898 -41.481 -46.811  1.00  0.00     0.215 C 
HETATM   13  C15 UNL     1      14.078 -41.874 -45.590  1.00  0.00     0.186 C 
HETATM   14  O3  UNL     1      13.947 -39.831 -44.329  1.00  0.00    -0.226 OA
HETATM   15  O4  UNL     1      14.383 -39.298 -43.210  1.00  0.00    -0.234 OA
ENDROOT
BRANCH  13  16
HETATM   16  O2  UNL     1      12.727 -41.729 -45.759  1.00  0.00    -0.390 OA
ATOM     17  H2  UNL     1      12.476 -41.260 -46.546  1.00  0.00     0.210 HD
ENDBRANCH  13  16
BRANCH  12  18
HETATM   18  N1  UNL     1      14.302 -40.316 -47.386  1.00  0.00    -0.072 N 
ATOM     19  H13 UNL     1      13.306 -40.457 -47.556  1.00  0.00     0.274 HD
ATOM     20  H12 UNL     1      14.245 -39.558 -46.706  1.00  0.00     0.274 HD
ATOM     21  H11 UNL     1      14.782 -40.014 -48.234  1.00  0.00     0.274 HD
ENDBRANCH  12  18
BRANCH   1  22
HETATM   22  C2  UNL     1      14.437 -37.155 -42.286  1.00  0.00     0.009 C 
HETATM   23  C1  UNL     1      15.864 -37.649 -42.366  1.00  0.00     0.012 C 
HETATM   24  C3  UNL     1      14.266 -35.889 -43.081  1.00  0.00     0.012 C 
ENDBRANCH   1  22
TORSDOF 3
ENDMDL
