MODEL 1
REMARK VINA RESULT: -6.302159050      0.000      0.000
REMARK  4 active torsions:
REMARK  status: ('A' for Active; 'I' for Inactive)
REMARK    1  A    between atoms: C2_2  and  S1_4 
REMARK    2  A    between atoms: S1_4  and  C3_5 
REMARK    3  A    between atoms: C6_10  and  N2_11 
REMARK    4  A    between atoms: N4_19  and  O2_20 
ROOT
HETATM    1  C3  UNL     1      13.461 -43.153 -43.275  1.00  0.00     0.153 A 
HETATM    2  N1  UNL     1      13.935 -42.438 -44.326  1.00  0.00    -0.337 N 
ATOM      3  H1  UNL     1      13.870 -42.800 -45.278  1.00  0.00     0.168 HD
HETATM    4  C4  UNL     1      14.495 -41.240 -44.078  1.00  0.00     0.048 A 
HETATM    5  C5  UNL     1      14.604 -40.716 -42.811  1.00  0.00     0.035 A 
HETATM    6  C6  UNL     1      14.115 -41.460 -41.757  1.00  0.00     0.111 A 
HETATM    7  N3  UNL     1      13.564 -42.650 -42.045  1.00  0.00    -0.322 N 
ATOM      8  H3  UNL     1      13.199 -43.206 -41.270  1.00  0.00     0.169 HD
HETATM    9  C7  UNL     1      15.270 -39.403 -42.956  1.00  0.00     0.065 C 
HETATM   10  C8  UNL     1      14.653 -38.351 -42.059  1.00  0.00     0.040 C 
HETATM   11  C9  UNL     1      16.736 -39.606 -42.647  1.00  0.00     0.040 C 
HETATM   12  N4  UNL     1      15.012 -39.050 -44.311  1.00  0.00    -0.171 NA
HETATM   13  C10 UNL     1      15.077 -40.282 -45.074  1.00  0.00     0.075 C 
HETATM   14  C11 UNL     1      14.170 -40.127 -46.276  1.00  0.00     0.041 C 
HETATM   15  C12 UNL     1      16.465 -40.657 -45.492  1.00  0.00     0.041 C 
ENDROOT
BRANCH   1  16
HETATM   16  S1  UNL     1      12.719 -44.742 -43.614  1.00  0.00    -0.017 SA
BRANCH  16  17
HETATM   17  C2  UNL     1      13.153 -45.925 -42.339  1.00  0.00     0.189 C 
HETATM   18  C1  UNL     1      14.555 -45.970 -41.861  1.00  0.00     0.105 C 
HETATM   19  O1  UNL     1      12.288 -46.662 -41.898  1.00  0.00    -0.285 OA
ENDBRANCH  16  17
ENDBRANCH   1  16
BRANCH   6  20
HETATM   20  N2  UNL     1      14.198 -41.000 -40.550  1.00  0.00    -0.385 N 
ATOM     21  H22 UNL     1      14.713 -40.151 -40.317  1.00  0.00     0.157 HD
ATOM     22  H21 UNL     1      13.739 -41.494 -39.786  1.00  0.00     0.157 HD
ENDBRANCH   6  20
BRANCH  12  23
HETATM   23  O2  UNL     1      15.778 -38.081 -44.806  1.00  0.00    -0.311 OA
ATOM     24  H2  UNL     1      16.288 -38.314 -45.573  1.00  0.00     0.237 HD
ENDBRANCH  12  23
TORSDOF 4
ENDMDL
MODEL 2
REMARK VINA RESULT: -6.218155666      1.697      3.415
REMARK  4 active torsions:
REMARK  status: ('A' for Active; 'I' for Inactive)
REMARK    1  A    between atoms: C2_2  and  S1_4 
REMARK    2  A    between atoms: S1_4  and  C3_5 
REMARK    3  A    between atoms: C6_10  and  N2_11 
REMARK    4  A    between atoms: N4_19  and  O2_20 
ROOT
HETATM    1  C3  UNL     1      12.876 -43.203 -43.814  1.00  0.00     0.153 A 
HETATM    2  N1  UNL     1      13.822 -42.270 -43.537  1.00  0.00    -0.337 N 
ATOM      3  H1  UNL     1      14.096 -42.071 -42.575  1.00  0.00     0.168 HD
HETATM    4  C4  UNL     1      14.387 -41.615 -44.568  1.00  0.00     0.048 A 
HETATM    5  C5  UNL     1      14.047 -41.853 -45.879  1.00  0.00     0.035 A 
HETATM    6  C6  UNL     1      13.083 -42.805 -46.137  1.00  0.00     0.111 A 
HETATM    7  N3  UNL     1      12.542 -43.438 -45.083  1.00  0.00    -0.322 N 
ATOM      8  H3  UNL     1      11.828 -44.144 -45.266  1.00  0.00     0.169 HD
HETATM    9  C7  UNL     1      14.876 -40.943 -46.699  1.00  0.00     0.065 C 
HETATM   10  C8  UNL     1      15.399 -41.621 -47.948  1.00  0.00     0.040 C 
HETATM   11  C9  UNL     1      14.026 -39.739 -47.036  1.00  0.00     0.040 C 
HETATM   12  N4  UNL     1      15.981 -40.647 -45.850  1.00  0.00    -0.171 NA
HETATM   13  C10 UNL     1      15.448 -40.556 -44.504  1.00  0.00     0.075 C 
HETATM   14  C11 UNL     1      16.552 -40.948 -43.545  1.00  0.00     0.041 C 
HETATM   15  C12 UNL     1      14.895 -39.207 -44.166  1.00  0.00     0.041 C 
ENDROOT
BRANCH   1  16
HETATM   16  S1  UNL     1      12.131 -44.068 -42.439  1.00  0.00    -0.017 SA
BRANCH  16  17
HETATM   17  C2  UNL     1      12.993 -45.607 -42.123  1.00  0.00     0.189 C 
HETATM   18  C1  UNL     1      14.462 -45.573 -41.938  1.00  0.00     0.105 C 
HETATM   19  O1  UNL     1      12.351 -46.643 -42.067  1.00  0.00    -0.285 OA
ENDBRANCH  16  17
ENDBRANCH   1  16
BRANCH   6  20
HETATM   20  N2  UNL     1      12.736 -43.057 -47.358  1.00  0.00    -0.385 N 
ATOM     21  H22 UNL     1      12.049 -43.772 -47.601  1.00  0.00     0.157 HD
ATOM     22  H21 UNL     1      13.155 -42.531 -48.124  1.00  0.00     0.157 HD
ENDBRANCH   6  20
BRANCH  12  23
HETATM   23  O2  UNL     1      16.708 -39.590 -46.202  1.00  0.00    -0.311 OA
ATOM     24  H2  UNL     1      17.185 -39.168 -45.498  1.00  0.00     0.237 HD
ENDBRANCH  12  23
TORSDOF 4
ENDMDL
MODEL 3
REMARK VINA RESULT: -6.184360512      2.622      4.833
REMARK  4 active torsions:
REMARK  status: ('A' for Active; 'I' for Inactive)
REMARK    1  A    between atoms: C2_2  and  S1_4 
REMARK    2  A    between atoms: S1_4  and  C3_5 
REMARK    3  A    between atoms: C6_10  and  N2_11 
REMARK    4  A    between atoms: N4_19  and  O2_20 
ROOT
HETATM    1  C3  UNL     1      15.863 -41.030 -44.799  1.00  0.00     0.153 A 
HETATM    2  N1  UNL     1      14.759 -41.742 -44.461  1.00  0.00    -0.337 N 
ATOM      3  H1  UNL     1      14.376 -42.447 -45.092  1.00  0.00     0.168 HD
HETATM    4  C4  UNL     1      14.182 -41.493 -43.270  1.00  0.00     0.048 A 
HETATM    5  C5  UNL     1      14.665 -40.553 -42.391  1.00  0.00     0.035 A 
HETATM    6  C6  UNL     1      15.789 -39.840 -42.755  1.00  0.00     0.111 A 
HETATM    7  N3  UNL     1      16.335 -40.117 -43.950  1.00  0.00    -0.322 N 
ATOM      8  H3  UNL     1      17.167 -39.594 -44.227  1.00  0.00     0.169 HD
HETATM    9  C7  UNL     1      13.766 -40.577 -41.216  1.00  0.00     0.065 C 
HETATM   10  C8  UNL     1      14.530 -40.464 -39.914  1.00  0.00     0.040 C 
HETATM   11  C9  UNL     1      12.780 -39.443 -41.381  1.00  0.00     0.040 C 
HETATM   12  N4  UNL     1      13.172 -41.869 -41.282  1.00  0.00    -0.171 NA
HETATM   13  C10 UNL     1      12.968 -42.155 -42.689  1.00  0.00     0.075 C 
HETATM   14  C11 UNL     1      13.029 -43.657 -42.867  1.00  0.00     0.041 C 
HETATM   15  C12 UNL     1      11.691 -41.599 -43.236  1.00  0.00     0.041 C 
ENDROOT
BRANCH   1  16
HETATM   16  S1  UNL     1      16.621 -41.368 -46.381  1.00  0.00    -0.017 SA
BRANCH  16  17
HETATM   17  C2  UNL     1      15.381 -41.426 -47.673  1.00  0.00     0.189 C 
HETATM   18  C1  UNL     1      14.400 -40.320 -47.766  1.00  0.00     0.105 C 
HETATM   19  O1  UNL     1      15.373 -42.372 -48.442  1.00  0.00    -0.285 OA
ENDBRANCH  16  17
ENDBRANCH   1  16
BRANCH   6  20
HETATM   20  N2  UNL     1      16.273 -38.947 -41.954  1.00  0.00    -0.385 N 
ATOM     21  H22 UNL     1      17.258 -38.920 -41.687  1.00  0.00     0.157 HD
ATOM     22  H21 UNL     1      15.662 -38.231 -41.561  1.00  0.00     0.157 HD
ENDBRANCH   6  20
BRANCH  12  23
HETATM   23  O2  UNL     1      12.076 -42.034 -40.545  1.00  0.00    -0.311 OA
ATOM     24  H2  UNL     1      11.310 -41.557 -40.840  1.00  0.00     0.237 HD
ENDBRANCH  12  23
TORSDOF 4
ENDMDL
MODEL 4
REMARK VINA RESULT: -6.155762638      3.119      4.637
REMARK  4 active torsions:
REMARK  status: ('A' for Active; 'I' for Inactive)
REMARK    1  A    between atoms: C2_2  and  S1_4 
REMARK    2  A    between atoms: S1_4  and  C3_5 
REMARK    3  A    between atoms: C6_10  and  N2_11 
REMARK    4  A    between atoms: N4_19  and  O2_20 
ROOT
HETATM    1  C3  UNL     1      15.016 -40.414 -41.682  1.00  0.00     0.153 A 
HETATM    2  N1  UNL     1      15.272 -40.405 -43.015  1.00  0.00    -0.337 N 
ATOM      3  H1  UNL     1      16.008 -39.815 -43.403  1.00  0.00     0.168 HD
HETATM    4  C4  UNL     1      14.527 -41.195 -43.810  1.00  0.00     0.048 A 
HETATM    5  C5  UNL     1      13.526 -42.005 -43.327  1.00  0.00     0.035 A 
HETATM    6  C6  UNL     1      13.283 -41.998 -41.969  1.00  0.00     0.111 A 
HETATM    7  N3  UNL     1      14.047 -41.197 -41.210  1.00  0.00    -0.322 N 
ATOM      8  H3  UNL     1      13.873 -41.186 -40.204  1.00  0.00     0.169 HD
HETATM    9  C7  UNL     1      12.950 -42.702 -44.498  1.00  0.00     0.065 C 
HETATM   10  C8  UNL     1      12.651 -44.156 -44.202  1.00  0.00     0.040 C 
HETATM   11  C9  UNL     1      11.703 -41.949 -44.902  1.00  0.00     0.040 C 
HETATM   12  N4  UNL     1      13.995 -42.643 -45.464  1.00  0.00    -0.171 NA
HETATM   13  C10 UNL     1      14.633 -41.351 -45.297  1.00  0.00     0.075 C 
HETATM   14  C11 UNL     1      16.077 -41.493 -45.729  1.00  0.00     0.041 C 
HETATM   15  C12 UNL     1      13.954 -40.245 -46.043  1.00  0.00     0.041 C 
ENDROOT
BRANCH   1  16
HETATM   16  S1  UNL     1      16.010 -39.361 -40.636  1.00  0.00    -0.017 SA
BRANCH  16  17
HETATM   17  C2  UNL     1      16.167 -40.070 -38.997  1.00  0.00     0.189 C 
HETATM   18  C1  UNL     1      17.525 -40.267 -38.436  1.00  0.00     0.105 C 
HETATM   19  O1  UNL     1      15.158 -40.372 -38.385  1.00  0.00    -0.285 OA
ENDBRANCH  16  17
ENDBRANCH   1  16
BRANCH   6  20
HETATM   20  N2  UNL     1      12.349 -42.747 -41.478  1.00  0.00    -0.385 N 
ATOM     21  H22 UNL     1      11.857 -43.450 -42.030  1.00  0.00     0.157 HD
ATOM     22  H21 UNL     1      12.077 -42.645 -40.500  1.00  0.00     0.157 HD
ENDBRANCH   6  20
BRANCH  12  23
HETATM   23  O2  UNL     1      13.630 -42.894 -46.719  1.00  0.00    -0.311 OA
ATOM     24  H2  UNL     1      14.035 -43.655 -47.118  1.00  0.00     0.237 HD
ENDBRANCH  12  23
TORSDOF 4
ENDMDL
MODEL 5
REMARK VINA RESULT: -6.154565542      1.568      3.276
REMARK  4 active torsions:
REMARK  status: ('A' for Active; 'I' for Inactive)
REMARK    1  A    between atoms: C2_2  and  S1_4 
REMARK    2  A    between atoms: S1_4  and  C3_5 
REMARK    3  A    between atoms: C6_10  and  N2_11 
REMARK    4  A    between atoms: N4_19  and  O2_20 
ROOT
HETATM    1  C3  UNL     1      13.514 -43.038 -43.269  1.00  0.00     0.153 A 
HETATM    2  N1  UNL     1      13.443 -42.469 -42.039  1.00  0.00    -0.337 N 
ATOM      3  H1  UNL     1      12.890 -42.895 -41.295  1.00  0.00     0.168 HD
HETATM    4  C4  UNL     1      14.122 -41.326 -41.828  1.00  0.00     0.048 A 
HETATM    5  C5  UNL     1      14.879 -40.718 -42.802  1.00  0.00     0.035 A 
HETATM    6  C6  UNL     1      14.937 -41.314 -44.045  1.00  0.00     0.111 A 
HETATM    7  N3  UNL     1      14.246 -42.453 -44.217  1.00  0.00    -0.322 N 
ATOM      8  H3  UNL     1      14.283 -42.900 -45.134  1.00  0.00     0.169 HD
HETATM    9  C7  UNL     1      15.455 -39.502 -42.188  1.00  0.00     0.065 C 
HETATM   10  C8  UNL     1      16.897 -39.288 -42.598  1.00  0.00     0.040 C 
HETATM   11  C9  UNL     1      14.583 -38.336 -42.594  1.00  0.00     0.040 C 
HETATM   12  N4  UNL     1      15.419 -39.788 -40.793  1.00  0.00    -0.171 NA
HETATM   13  C10 UNL     1      14.194 -40.529 -40.560  1.00  0.00     0.075 C 
HETATM   14  C11 UNL     1      14.422 -41.428 -39.364  1.00  0.00     0.041 C 
HETATM   15  C12 UNL     1      12.994 -39.657 -40.357  1.00  0.00     0.041 C 
ENDROOT
BRANCH   1  16
HETATM   16  S1  UNL     1      12.609 -44.554 -43.539  1.00  0.00    -0.017 SA
BRANCH  16  17
HETATM   17  C2  UNL     1      13.101 -45.801 -42.349  1.00  0.00     0.189 C 
HETATM   18  C1  UNL     1      14.505 -45.816 -41.877  1.00  0.00     0.105 C 
HETATM   19  O1  UNL     1      12.272 -46.605 -41.959  1.00  0.00    -0.285 OA
ENDBRANCH  16  17
ENDBRANCH   1  16
BRANCH   6  20
HETATM   20  N2  UNL     1      15.638 -40.772 -44.988  1.00  0.00    -0.385 N 
ATOM     21  H22 UNL     1      15.515 -41.007 -45.973  1.00  0.00     0.157 HD
ATOM     22  H21 UNL     1      16.350 -40.079 -44.757  1.00  0.00     0.157 HD
ENDBRANCH   6  20
BRANCH  12  23
HETATM   23  O2  UNL     1      15.563 -38.738 -39.989  1.00  0.00    -0.311 OA
ATOM     24  H2  UNL     1      14.991 -38.722 -39.231  1.00  0.00     0.237 HD
ENDBRANCH  12  23
TORSDOF 4
ENDMDL
