MODEL 1
REMARK VINA RESULT: -6.981571096      0.000      0.000
REMARK  5 active torsions:
REMARK  status: ('A' for Active; 'I' for Inactive)
REMARK    1  A    between atoms: N2_6  and  O1_7 
REMARK    2  A    between atoms: C5_9  and  N3_10 
REMARK    3  A    between atoms: N3_10  and  N4_12 
REMARK       I    between atoms: C6_14  and  N6_16 
REMARK    4  A    between atoms: N6_16  and  N7_18 
REMARK    5  A    between atoms: N9_23  and  N10_24 
ROOT
HETATM    1  C1  UNL     1      25.310  16.801  47.447  1.00  0.00     0.075 C 
HETATM    2  C2  UNL     1      25.818  17.339  46.149  1.00  0.00     0.089 A 
HETATM    3  C3  UNL     1      25.009  18.095  45.328  1.00  0.00     0.186 A 
HETATM    4  C4  UNL     1      23.644  18.384  45.708  1.00  0.00     0.123 C 
HETATM    5  N1  UNL     1      22.544  18.603  46.022  1.00  0.00    -0.190 NA
HETATM    6  N2  UNL     1      25.498  18.571  44.152  1.00  0.00    -0.037 N 
HETATM    7  C5  UNL     1      26.763  18.289  43.826  1.00  0.00     0.740 A 
HETATM    8  N8  UNL     1      27.528  17.555  44.638  1.00  0.00    -0.107 N 
ATOM      9  H8  UNL     1      28.489  17.359  44.358  1.00  0.00     0.208 HD
HETATM   10  N9  UNL     1      27.089  17.067  45.799  1.00  0.00    -0.191 N 
ENDROOT
BRANCH   6  11
HETATM   11  O1  UNL     1      24.655  19.324  43.360  1.00  0.00    -0.268 OA
ATOM     12  H1  UNL     1      24.132  19.997  43.780  1.00  0.00     0.246 HD
ENDBRANCH   6  11
BRANCH  10  13
HETATM   13  N10 UNL     1      27.948  16.298  46.613  1.00  0.00    -0.323 N 
ATOM     14 2H10 UNL     1      27.585  15.490  47.119  1.00  0.00     0.178 HD
ATOM     15 1H10 UNL     1      28.938  16.517  46.721  1.00  0.00     0.178 HD
ENDBRANCH  10  13
BRANCH   7  16
HETATM   16  N3  UNL     1      27.237  18.733  42.721  1.00  0.00    -0.126 N 
ATOM     17  H3  UNL     1      27.643  19.669  42.716  1.00  0.00     0.206 HD
BRANCH  16  18
HETATM   18  N4  UNL     1      27.232  18.017  41.527  1.00  0.00    -0.258 N 
HETATM   19  C6  UNL     1      26.597  18.508  40.533  1.00  0.00     0.222 C 
HETATM   20  N5  UNL     1      25.915  19.738  40.627  1.00  0.00    -0.061 NA
HETATM   21  N6  UNL     1      26.563  17.817  39.299  1.00  0.00    -0.279 N 
ATOM     22  H6  UNL     1      25.655  17.558  38.913  1.00  0.00     0.189 HD
ATOM     23  H4  UNL     1      27.721  17.126  41.448  1.00  0.00     0.190 HD
BRANCH  21  24
HETATM   24  N7  UNL     1      27.709  17.471  38.583  1.00  0.00    -0.343 N 
ATOM     25  H72 UNL     1      28.257  18.232  38.182  1.00  0.00     0.176 HD
ATOM     26  H71 UNL     1      28.016  16.507  38.447  1.00  0.00     0.176 HD
ENDBRANCH  21  24
ENDBRANCH  16  18
ENDBRANCH   7  16
TORSDOF 5
ENDMDL
MODEL 2
REMARK VINA RESULT: -6.582644833      2.448      5.751
REMARK  5 active torsions:
REMARK  status: ('A' for Active; 'I' for Inactive)
REMARK    1  A    between atoms: N2_6  and  O1_7 
REMARK    2  A    between atoms: C5_9  and  N3_10 
REMARK    3  A    between atoms: N3_10  and  N4_12 
REMARK       I    between atoms: C6_14  and  N6_16 
REMARK    4  A    between atoms: N6_16  and  N7_18 
REMARK    5  A    between atoms: N9_23  and  N10_24 
ROOT
HETATM    1  C1  UNL     1      27.100  21.148  40.795  1.00  0.00     0.075 C 
HETATM    2  C2  UNL     1      27.175  20.473  42.127  1.00  0.00     0.089 A 
HETATM    3  C3  UNL     1      26.494  20.974  43.216  1.00  0.00     0.186 A 
HETATM    4  C4  UNL     1      25.690  22.170  43.092  1.00  0.00     0.123 C 
HETATM    5  N1  UNL     1      25.053  23.138  42.980  1.00  0.00    -0.190 NA
HETATM    6  N2  UNL     1      26.580  20.340  44.415  1.00  0.00    -0.037 N 
HETATM    7  C5  UNL     1      27.330  19.236  44.501  1.00  0.00     0.740 A 
HETATM    8  N8  UNL     1      27.980  18.770  43.432  1.00  0.00    -0.107 N 
ATOM      9  H8  UNL     1      28.543  17.926  43.533  1.00  0.00     0.208 HD
HETATM   10  N9  UNL     1      27.924  19.361  42.237  1.00  0.00    -0.191 N 
ENDROOT
BRANCH   6  11
HETATM   11  O1  UNL     1      25.883  20.874  45.480  1.00  0.00    -0.268 OA
ATOM     12  H1  UNL     1      25.080  20.442  45.747  1.00  0.00     0.246 HD
ENDBRANCH   6  11
BRANCH  10  13
HETATM   13  N10 UNL     1      28.635  18.817  41.146  1.00  0.00    -0.323 N 
ATOM     14 2H10 UNL     1      28.179  18.713  40.239  1.00  0.00     0.178 HD
ATOM     15 1H10 UNL     1      29.606  18.517  41.223  1.00  0.00     0.178 HD
ENDBRANCH  10  13
BRANCH   7  16
HETATM   16  N3  UNL     1      27.419  18.628  45.626  1.00  0.00    -0.126 N 
ATOM     17  H3  UNL     1      28.342  18.546  46.053  1.00  0.00     0.206 HD
BRANCH  16  18
HETATM   18  N4  UNL     1      26.336  18.074  46.300  1.00  0.00    -0.258 N 
HETATM   19  C6  UNL     1      26.544  17.050  47.036  1.00  0.00     0.222 C 
HETATM   20  N5  UNL     1      27.828  16.485  47.169  1.00  0.00    -0.061 NA
HETATM   21  N6  UNL     1      25.473  16.452  47.742  1.00  0.00    -0.279 N 
ATOM     22  H6  UNL     1      25.265  15.469  47.565  1.00  0.00     0.189 HD
ATOM     23  H4  UNL     1      25.401  18.474  46.211  1.00  0.00     0.190 HD
BRANCH  21  24
HETATM   24  N7  UNL     1      24.687  17.138  48.667  1.00  0.00    -0.343 N 
ATOM     25  H72 UNL     1      24.988  18.077  48.931  1.00  0.00     0.176 HD
ATOM     26  H71 UNL     1      23.841  16.748  49.083  1.00  0.00     0.176 HD
ENDBRANCH  21  24
ENDBRANCH  16  18
ENDBRANCH   7  16
TORSDOF 5
ENDMDL
MODEL 3
REMARK VINA RESULT: -6.575689877      0.907      1.190
REMARK  5 active torsions:
REMARK  status: ('A' for Active; 'I' for Inactive)
REMARK    1  A    between atoms: N2_6  and  O1_7 
REMARK    2  A    between atoms: C5_9  and  N3_10 
REMARK    3  A    between atoms: N3_10  and  N4_12 
REMARK       I    between atoms: C6_14  and  N6_16 
REMARK    4  A    between atoms: N6_16  and  N7_18 
REMARK    5  A    between atoms: N9_23  and  N10_24 
ROOT
HETATM    1  C1  UNL     1      25.289  16.533  46.977  1.00  0.00     0.075 C 
HETATM    2  C2  UNL     1      25.881  17.254  45.810  1.00  0.00     0.089 A 
HETATM    3  C3  UNL     1      25.141  18.164  45.087  1.00  0.00     0.186 A 
HETATM    4  C4  UNL     1      23.767  18.441  45.444  1.00  0.00     0.123 C 
HETATM    5  N1  UNL     1      22.660  18.649  45.738  1.00  0.00    -0.190 NA
HETATM    6  N2  UNL     1      25.705  18.805  44.029  1.00  0.00    -0.037 N 
HETATM    7  C5  UNL     1      26.977  18.530  43.722  1.00  0.00     0.740 A 
HETATM    8  N8  UNL     1      27.674  17.644  44.437  1.00  0.00    -0.107 N 
ATOM      9  H8  UNL     1      28.642  17.458  44.174  1.00  0.00     0.208 HD
HETATM   10  N9  UNL     1      27.160  16.992  45.481  1.00  0.00    -0.191 N 
ENDROOT
BRANCH   6  11
HETATM   11  O1  UNL     1      24.929  19.709  43.332  1.00  0.00    -0.268 OA
ATOM     12  H1  UNL     1      25.351  20.492  42.998  1.00  0.00     0.246 HD
ENDBRANCH   6  11
BRANCH  10  13
HETATM   13  N10 UNL     1      27.950  16.068  46.197  1.00  0.00    -0.323 N 
ATOM     14 2H10 UNL     1      27.542  15.531  46.962  1.00  0.00     0.178 HD
ATOM     15 1H10 UNL     1      28.933  15.908  45.980  1.00  0.00     0.178 HD
ENDBRANCH  10  13
BRANCH   7  16
HETATM   16  N3  UNL     1      27.522  19.127  42.727  1.00  0.00    -0.126 N 
ATOM     17  H3  UNL     1      28.126  19.926  42.922  1.00  0.00     0.206 HD
BRANCH  16  18
HETATM   18  N4  UNL     1      27.341  18.755  41.399  1.00  0.00    -0.258 N 
HETATM   19  C6  UNL     1      28.377  18.619  40.664  1.00  0.00     0.222 C 
HETATM   20  N5  UNL     1      29.675  18.838  41.170  1.00  0.00    -0.061 NA
HETATM   21  N6  UNL     1      28.243  18.241  39.307  1.00  0.00    -0.279 N 
ATOM     22  H6  UNL     1      28.621  18.862  38.592  1.00  0.00     0.189 HD
ATOM     23  H4  UNL     1      26.407  18.594  41.022  1.00  0.00     0.190 HD
BRANCH  21  24
HETATM   24  N7  UNL     1      27.620  17.062  38.899  1.00  0.00    -0.343 N 
ATOM     25  H72 UNL     1      28.128  16.468  38.243  1.00  0.00     0.176 HD
ATOM     26  H71 UNL     1      26.696  16.775  39.222  1.00  0.00     0.176 HD
ENDBRANCH  21  24
ENDBRANCH  16  18
ENDBRANCH   7  16
TORSDOF 5
ENDMDL
MODEL 4
REMARK VINA RESULT: -6.488327447      2.723      6.015
REMARK  5 active torsions:
REMARK  status: ('A' for Active; 'I' for Inactive)
REMARK    1  A    between atoms: N2_6  and  O1_7 
REMARK    2  A    between atoms: C5_9  and  N3_10 
REMARK    3  A    between atoms: N3_10  and  N4_12 
REMARK       I    between atoms: C6_14  and  N6_16 
REMARK    4  A    between atoms: N6_16  and  N7_18 
REMARK    5  A    between atoms: N9_23  and  N10_24 
ROOT
HETATM    1  C1  UNL     1      27.827  20.594  41.403  1.00  0.00     0.075 C 
HETATM    2  C2  UNL     1      27.367  19.976  42.684  1.00  0.00     0.089 A 
HETATM    3  C3  UNL     1      26.581  20.681  43.571  1.00  0.00     0.186 A 
HETATM    4  C4  UNL     1      26.185  22.041  43.279  1.00  0.00     0.123 C 
HETATM    5  N1  UNL     1      25.881  23.138  43.036  1.00  0.00    -0.190 NA
HETATM    6  N2  UNL     1      26.178  20.093  44.728  1.00  0.00    -0.037 N 
HETATM    7  C5  UNL     1      26.558  18.835  44.971  1.00  0.00     0.740 A 
HETATM    8  N8  UNL     1      27.318  18.173  44.097  1.00  0.00    -0.107 N 
ATOM      9  H8  UNL     1      27.591  17.214  44.315  1.00  0.00     0.208 HD
HETATM   10  N9  UNL     1      27.738  18.710  42.951  1.00  0.00    -0.191 N 
ENDROOT
BRANCH   6  11
HETATM   11  O1  UNL     1      25.392  20.834  45.589  1.00  0.00    -0.268 OA
ATOM     12  H1  UNL     1      25.826  21.449  46.168  1.00  0.00     0.246 HD
ENDBRANCH   6  11
BRANCH  10  13
HETATM   13  N10 UNL     1      28.540  17.957  42.068  1.00  0.00    -0.323 N 
ATOM     14 2H10 UNL     1      28.120  17.229  41.489  1.00  0.00     0.178 HD
ATOM     15 1H10 UNL     1      29.544  18.109  41.978  1.00  0.00     0.178 HD
ENDBRANCH  10  13
BRANCH   7  16
HETATM   16  N3  UNL     1      26.183  18.269  46.059  1.00  0.00    -0.126 N 
ATOM     17  H3  UNL     1      25.630  17.415  45.987  1.00  0.00     0.206 HD
BRANCH  16  18
HETATM   18  N4  UNL     1      26.485  18.747  47.330  1.00  0.00    -0.258 N 
HETATM   19  C6  UNL     1      25.520  18.949  48.143  1.00  0.00     0.222 C 
HETATM   20  N5  UNL     1      24.182  18.701  47.776  1.00  0.00    -0.061 NA
HETATM   21  N6  UNL     1      25.778  19.434  49.447  1.00  0.00    -0.279 N 
ATOM     22  H6  UNL     1      25.339  20.309  49.734  1.00  0.00     0.189 HD
ATOM     23  H4  UNL     1      27.450  18.930  47.607  1.00  0.00     0.190 HD
BRANCH  21  24
HETATM   24  N7  UNL     1      26.601  18.776  50.360  1.00  0.00    -0.343 N 
ATOM     25  H72 UNL     1      26.217  18.590  51.287  1.00  0.00     0.176 HD
ATOM     26  H71 UNL     1      27.553  18.478  50.144  1.00  0.00     0.176 HD
ENDBRANCH  21  24
ENDBRANCH  16  18
ENDBRANCH   7  16
TORSDOF 5
ENDMDL
MODEL 5
REMARK VINA RESULT: -6.451094360      2.405      6.253
REMARK  5 active torsions:
REMARK  status: ('A' for Active; 'I' for Inactive)
REMARK    1  A    between atoms: N2_6  and  O1_7 
REMARK    2  A    between atoms: C5_9  and  N3_10 
REMARK    3  A    between atoms: N3_10  and  N4_12 
REMARK       I    between atoms: C6_14  and  N6_16 
REMARK    4  A    between atoms: N6_16  and  N7_18 
REMARK    5  A    between atoms: N9_23  and  N10_24 
ROOT
HETATM    1  C1  UNL     1      26.147  20.763  41.264  1.00  0.00     0.075 C 
HETATM    2  C2  UNL     1      25.861  19.880  42.436  1.00  0.00     0.089 A 
HETATM    3  C3  UNL     1      26.850  19.098  42.994  1.00  0.00     0.186 A 
HETATM    4  C4  UNL     1      28.191  19.114  42.452  1.00  0.00     0.123 C 
HETATM    5  N1  UNL     1      29.264  19.130  42.002  1.00  0.00    -0.190 NA
HETATM    6  N2  UNL     1      26.561  18.304  44.059  1.00  0.00    -0.037 N 
HETATM    7  C5  UNL     1      25.313  18.309  44.539  1.00  0.00     0.740 A 
HETATM    8  N8  UNL     1      24.373  19.076  43.982  1.00  0.00    -0.107 N 
ATOM      9  H8  UNL     1      23.431  19.055  44.373  1.00  0.00     0.208 HD
HETATM   10  N9  UNL     1      24.611  19.869  42.936  1.00  0.00    -0.191 N 
ENDROOT
BRANCH   6  11
HETATM   11  O1  UNL     1      27.579  17.536  44.587  1.00  0.00    -0.268 OA
ATOM     12  H1  UNL     1      28.214  17.165  43.985  1.00  0.00     0.246 HD
ENDBRANCH   6  11
BRANCH  10  13
HETATM   13  N10 UNL     1      23.574  20.656  42.394  1.00  0.00    -0.323 N 
ATOM     14 2H10 UNL     1      23.705  21.131  41.500  1.00  0.00     0.178 HD
ATOM     15 1H10 UNL     1      22.677  20.775  42.864  1.00  0.00     0.178 HD
ENDBRANCH  10  13
BRANCH   7  16
HETATM   16  N3  UNL     1      25.028  17.566  45.543  1.00  0.00    -0.126 N 
ATOM     17  H3  UNL     1      24.860  16.574  45.372  1.00  0.00     0.206 HD
BRANCH  16  18
HETATM   18  N4  UNL     1      24.933  18.027  46.853  1.00  0.00    -0.258 N 
HETATM   19  C6  UNL     1      25.730  17.537  47.723  1.00  0.00     0.222 C 
HETATM   20  N5  UNL     1      26.683  16.556  47.382  1.00  0.00    -0.061 NA
HETATM   21  N6  UNL     1      25.671  17.976  49.067  1.00  0.00    -0.279 N 
ATOM     22  H6  UNL     1      25.496  17.283  49.795  1.00  0.00     0.189 HD
ATOM     23  H4  UNL     1      24.247  18.736  47.111  1.00  0.00     0.190 HD
BRANCH  21  24
HETATM   24  N7  UNL     1      25.842  19.307  49.447  1.00  0.00    -0.343 N 
ATOM     25  H72 UNL     1      25.004  19.886  49.510  1.00  0.00     0.176 HD
ATOM     26  H71 UNL     1      26.751  19.717  49.660  1.00  0.00     0.176 HD
ENDBRANCH  21  24
ENDBRANCH  16  18
ENDBRANCH   7  16
TORSDOF 5
ENDMDL
