MODEL 1
REMARK VINA RESULT: -6.605338442      0.000      0.000
REMARK  2 active torsions:
REMARK  status: ('A' for Active; 'I' for Inactive)
REMARK    1  A    between atoms: C1_1  and  C12_14 
REMARK    2  A    between atoms: N1_2  and  C2_4 
ROOT
HETATM    1  C2  UNL     1      -4.225   1.290  12.948  1.00  0.00     0.030 C 
HETATM    2  C3  UNL     1      -5.259   1.841  11.961  1.00  0.00     0.035 C 
HETATM    3  C4  UNL     1      -4.647   1.838  10.594  1.00  0.00    -0.012 C 
HETATM    4  C5  UNL     1      -3.400   2.690  10.549  1.00  0.00     0.009 C 
HETATM    5  C6  UNL     1      -2.390   2.162  11.526  1.00  0.00    -0.012 C 
HETATM    6  C7  UNL     1      -1.993   0.735  11.261  1.00  0.00     0.009 C 
HETATM    7  C8  UNL     1      -3.238  -0.102  11.162  1.00  0.00    -0.012 C 
HETATM    8  C9  UNL     1      -4.229   0.430  10.174  1.00  0.00     0.009 C 
HETATM    9  C10 UNL     1      -3.914  -0.111  12.528  1.00  0.00     0.035 C 
HETATM   10  C11 UNL     1      -3.027   2.204  12.910  1.00  0.00     0.035 C 
ENDROOT
BRANCH   1  11
HETATM   11  N1  UNL     1      -4.788   1.327  14.251  1.00  0.00    -0.389 N 
HETATM   12  C1  UNL     1      -4.556   0.468  15.169  1.00  0.00     0.117 C 
ATOM     13  H1  UNL     1      -5.423   2.094  14.469  1.00  0.00     0.159 HD
BRANCH  12  14
HETATM   14  C12 UNL     1      -5.237   0.671  16.472  1.00  0.00     0.360 C 
HETATM   15  N2  UNL     1      -5.334   2.077  16.819  1.00  0.00    -0.042 N 
HETATM   16  C13 UNL     1      -6.230   1.991  17.984  1.00  0.00     0.262 C 
ATOM     17  H22 UNL     1      -4.449   2.560  16.973  1.00  0.00     0.280 HD
ATOM     18  H21 UNL     1      -5.637   2.700  16.070  1.00  0.00     0.280 HD
HETATM   19  C14 UNL     1      -7.211   0.941  17.470  1.00  0.00     0.198 C 
HETATM   20  O1  UNL     1      -6.570   0.291  16.434  1.00  0.00    -0.354 OA
ENDBRANCH  12  14
ENDBRANCH   1  11
TORSDOF 2
ENDMDL
MODEL 2
REMARK VINA RESULT: -6.569285495      0.078      1.798
REMARK  2 active torsions:
REMARK  status: ('A' for Active; 'I' for Inactive)
REMARK    1  A    between atoms: C1_1  and  C12_14 
REMARK    2  A    between atoms: N1_2  and  C2_4 
ROOT
HETATM    1  C2  UNL     1      -4.214   1.378  12.968  1.00  0.00     0.030 C 
HETATM    2  C3  UNL     1      -3.855  -0.069  12.613  1.00  0.00     0.035 C 
HETATM    3  C4  UNL     1      -3.283  -0.082  11.229  1.00  0.00    -0.012 C 
HETATM    4  C5  UNL     1      -4.272   0.456  10.221  1.00  0.00     0.009 C 
HETATM    5  C6  UNL     1      -4.637   1.870  10.575  1.00  0.00    -0.012 C 
HETATM    6  C7  UNL     1      -3.455   2.799  10.615  1.00  0.00     0.009 C 
HETATM    7  C8  UNL     1      -2.402   2.203  11.506  1.00  0.00    -0.012 C 
HETATM    8  C9  UNL     1      -2.039   0.800  11.132  1.00  0.00     0.009 C 
HETATM    9  C10 UNL     1      -2.947   2.171  12.929  1.00  0.00     0.035 C 
HETATM   10  C11 UNL     1      -5.244   1.849  11.973  1.00  0.00     0.035 C 
ENDROOT
BRANCH   1  11
HETATM   11  N1  UNL     1      -4.792   1.389  14.264  1.00  0.00    -0.389 N 
HETATM   12  C1  UNL     1      -4.562   0.519  15.172  1.00  0.00     0.117 C 
ATOM     13  H1  UNL     1      -5.438   2.147  14.488  1.00  0.00     0.159 HD
BRANCH  12  14
HETATM   14  C12 UNL     1      -5.259   0.694  16.470  1.00  0.00     0.360 C 
HETATM   15  N2  UNL     1      -5.344   2.091  16.855  1.00  0.00    -0.042 N 
HETATM   16  C13 UNL     1      -6.258   1.984  18.003  1.00  0.00     0.262 C 
ATOM     17  H22 UNL     1      -4.455   2.558  17.035  1.00  0.00     0.280 HD
ATOM     18  H21 UNL     1      -5.627   2.739  16.120  1.00  0.00     0.280 HD
HETATM   19  C14 UNL     1      -7.245   0.963  17.446  1.00  0.00     0.198 C 
HETATM   20  O1  UNL     1      -6.597   0.333  16.402  1.00  0.00    -0.354 OA
ENDBRANCH  12  14
ENDBRANCH   1  11
TORSDOF 2
ENDMDL
MODEL 3
REMARK VINA RESULT: -6.542064443      0.115      1.792
REMARK  2 active torsions:
REMARK  status: ('A' for Active; 'I' for Inactive)
REMARK    1  A    between atoms: C1_1  and  C12_14 
REMARK    2  A    between atoms: N1_2  and  C2_4 
ROOT
HETATM    1  C2  UNL     1      -4.292   1.410  12.969  1.00  0.00     0.030 C 
HETATM    2  C3  UNL     1      -3.049   2.307  12.977  1.00  0.00     0.035 C 
HETATM    3  C4  UNL     1      -2.444   2.277  11.606  1.00  0.00    -0.012 C 
HETATM    4  C5  UNL     1      -2.052   0.872  11.211  1.00  0.00     0.009 C 
HETATM    5  C6  UNL     1      -3.265  -0.014  11.218  1.00  0.00    -0.012 C 
HETATM    6  C7  UNL     1      -4.349   0.452  10.284  1.00  0.00     0.009 C 
HETATM    7  C8  UNL     1      -4.649   1.896  10.574  1.00  0.00    -0.012 C 
HETATM    8  C9  UNL     1      -3.432   2.768  10.550  1.00  0.00     0.009 C 
HETATM    9  C10 UNL     1      -5.247   1.984  11.973  1.00  0.00     0.035 C 
HETATM   10  C11 UNL     1      -3.842   0.013  12.629  1.00  0.00     0.035 C 
ENDROOT
BRANCH   1  11
HETATM   11  N1  UNL     1      -4.846   1.407  14.276  1.00  0.00    -0.389 N 
HETATM   12  C1  UNL     1      -4.599   0.527  15.170  1.00  0.00     0.117 C 
ATOM     13  H1  UNL     1      -5.489   2.161  14.519  1.00  0.00     0.159 HD
BRANCH  12  14
HETATM   14  C12 UNL     1      -5.273   0.687  16.482  1.00  0.00     0.360 C 
HETATM   15  N2  UNL     1      -5.323   2.077  16.899  1.00  0.00    -0.042 N 
HETATM   16  C13 UNL     1      -6.221   1.963  18.059  1.00  0.00     0.262 C 
ATOM     17  H22 UNL     1      -4.421   2.521  17.076  1.00  0.00     0.280 HD
ATOM     18  H21 UNL     1      -5.603   2.747  16.183  1.00  0.00     0.280 HD
HETATM   19  C14 UNL     1      -7.237   0.975  17.495  1.00  0.00     0.198 C 
HETATM   20  O1  UNL     1      -6.619   0.356  16.427  1.00  0.00    -0.354 OA
ENDBRANCH  12  14
ENDBRANCH   1  11
TORSDOF 2
ENDMDL
MODEL 4
REMARK VINA RESULT: -6.071747275      2.745      3.593
REMARK  2 active torsions:
REMARK  status: ('A' for Active; 'I' for Inactive)
REMARK    1  A    between atoms: C1_1  and  C12_14 
REMARK    2  A    between atoms: N1_2  and  C2_4 
ROOT
HETATM    1  C2  UNL     1      -3.681   4.401  14.118  1.00  0.00     0.030 C 
HETATM    2  C3  UNL     1      -4.092   5.877  14.129  1.00  0.00     0.035 C 
HETATM    3  C4  UNL     1      -3.254   6.601  13.120  1.00  0.00    -0.012 C 
HETATM    4  C5  UNL     1      -1.782   6.482  13.443  1.00  0.00     0.009 C 
HETATM    5  C6  UNL     1      -1.380   5.035  13.449  1.00  0.00    -0.012 C 
HETATM    6  C7  UNL     1      -1.631   4.342  12.137  1.00  0.00     0.009 C 
HETATM    7  C8  UNL     1      -3.060   4.573  11.734  1.00  0.00    -0.012 C 
HETATM    8  C9  UNL     1      -3.442   6.021  11.720  1.00  0.00     0.009 C 
HETATM    9  C10 UNL     1      -3.959   3.874  12.748  1.00  0.00     0.035 C 
HETATM   10  C11 UNL     1      -2.226   4.330  14.502  1.00  0.00     0.035 C 
ENDROOT
BRANCH   1  11
HETATM   11  N1  UNL     1      -4.447   3.718  15.100  1.00  0.00    -0.389 N 
HETATM   12  C1  UNL     1      -4.142   2.582  15.602  1.00  0.00     0.117 C 
ATOM     13  H1  UNL     1      -5.302   4.167  15.428  1.00  0.00     0.159 HD
BRANCH  12  14
HETATM   14  C12 UNL     1      -5.066   2.022  16.619  1.00  0.00     0.360 C 
HETATM   15  N2  UNL     1      -6.441   2.008  16.152  1.00  0.00    -0.042 N 
HETATM   16  C13 UNL     1      -7.064   1.211  17.221  1.00  0.00     0.262 C 
ATOM     17  H22 UNL     1      -6.860   2.921  15.976  1.00  0.00     0.280 HD
ATOM     18  H21 UNL     1      -6.585   1.668  15.202  1.00  0.00     0.280 HD
HETATM   19  C14 UNL     1      -5.984   0.151  17.408  1.00  0.00     0.198 C 
HETATM   20  O1  UNL     1      -4.830   0.676  16.860  1.00  0.00    -0.354 OA
ENDBRANCH  12  14
ENDBRANCH   1  11
TORSDOF 2
ENDMDL
MODEL 5
REMARK VINA RESULT: -6.069128564      2.692      3.958
REMARK  2 active torsions:
REMARK  status: ('A' for Active; 'I' for Inactive)
REMARK    1  A    between atoms: C1_1  and  C12_14 
REMARK    2  A    between atoms: N1_2  and  C2_4 
ROOT
HETATM    1  C2  UNL     1      -3.680   4.388  14.124  1.00  0.00     0.030 C 
HETATM    2  C3  UNL     1      -2.207   4.334  14.542  1.00  0.00     0.035 C 
HETATM    3  C4  UNL     1      -1.397   5.023  13.487  1.00  0.00    -0.012 C 
HETATM    4  C5  UNL     1      -1.566   4.355  12.142  1.00  0.00     0.009 C 
HETATM    5  C6  UNL     1      -3.012   4.392  11.737  1.00  0.00    -0.012 C 
HETATM    6  C7  UNL     1      -3.569   5.786  11.642  1.00  0.00     0.009 C 
HETATM    7  C8  UNL     1      -3.280   6.510  12.927  1.00  0.00    -0.012 C 
HETATM    8  C9  UNL     1      -1.834   6.476  13.310  1.00  0.00     0.009 C 
HETATM    9  C10 UNL     1      -4.065   5.829  14.042  1.00  0.00     0.035 C 
HETATM   10  C11 UNL     1      -3.807   3.659  12.811  1.00  0.00     0.035 C 
ENDROOT
BRANCH   1  11
HETATM   11  N1  UNL     1      -4.446   3.702  15.103  1.00  0.00    -0.389 N 
HETATM   12  C1  UNL     1      -4.126   2.579  15.625  1.00  0.00     0.117 C 
ATOM     13  H1  UNL     1      -5.315   4.137  15.413  1.00  0.00     0.159 HD
BRANCH  12  14
HETATM   14  C12 UNL     1      -5.053   2.013  16.636  1.00  0.00     0.360 C 
HETATM   15  N2  UNL     1      -6.428   2.012  16.168  1.00  0.00    -0.042 N 
HETATM   16  C13 UNL     1      -7.056   1.207  17.228  1.00  0.00     0.262 C 
ATOM     17  H22 UNL     1      -6.842   2.929  16.001  1.00  0.00     0.280 HD
ATOM     18  H21 UNL     1      -6.573   1.682  15.214  1.00  0.00     0.280 HD
HETATM   19  C14 UNL     1      -5.981   0.139  17.405  1.00  0.00     0.198 C 
HETATM   20  O1  UNL     1      -4.825   0.664  16.862  1.00  0.00    -0.354 OA
ENDBRANCH  12  14
ENDBRANCH   1  11
TORSDOF 2
ENDMDL
