MODEL 1
REMARK VINA RESULT: -7.112516240      0.000      0.000
REMARK  4 active torsions:
REMARK  status: ('A' for Active; 'I' for Inactive)
REMARK    1  A    between atoms: C4_5  and  C5_6 
REMARK    2  A    between atoms: C5_6  and  O2_8 
REMARK    3  A    between atoms: O2_8  and  C6_9 
REMARK    4  A    between atoms: C13_16  and  O3_17 
ROOT
HETATM    1  C1  UNL     1      -1.692   1.501  10.732  1.00  0.00     0.311 C 
HETATM    2  N1  UNL     1      -2.554   1.199  11.832  1.00  0.00     0.097 N 
HETATM    3  C2  UNL     1      -3.491   0.106  11.515  1.00  0.00     0.252 C 
HETATM    4  C3  UNL     1      -4.335   0.126  12.776  1.00  0.00     0.055 C 
HETATM    5  C4  UNL     1      -4.405   1.601  13.117  1.00  0.00     0.121 C 
HETATM    6  C11 UNL     1      -3.574   2.243  12.032  1.00  0.00     0.239 C 
HETATM    7  C12 UNL     1      -4.379   2.189  10.761  1.00  0.00     0.070 C 
HETATM    8  C13 UNL     1      -4.252   0.710  10.382  1.00  0.00     0.153 C 
ENDROOT
BRANCH   5   9
HETATM    9  C5  UNL     1      -3.876   1.877  14.470  1.00  0.00     0.265 C 
HETATM   10  O1  UNL     1      -3.097   2.830  14.652  1.00  0.00    -0.265 OA
BRANCH   9  11
HETATM   11  O2  UNL     1      -4.228   1.096  15.551  1.00  0.00    -0.316 OA
BRANCH  11  12
HETATM   12  C6  UNL     1      -4.994   1.686  16.584  1.00  0.00     0.132 C 
HETATM   13  C7  UNL     1      -5.847   0.571  17.178  1.00  0.00     0.032 C 
HETATM   14  C8  UNL     1      -7.280   1.041  17.075  1.00  0.00     0.002 C 
HETATM   15  C9  UNL     1      -7.169   2.532  16.883  1.00  0.00     0.002 C 
HETATM   16  C10 UNL     1      -5.963   2.655  15.984  1.00  0.00     0.032 C 
ENDBRANCH  11  12
ENDBRANCH   9  11
ENDBRANCH   5   9
BRANCH   8  17
HETATM   17  O3  UNL     1      -5.518   0.154  10.215  1.00  0.00    -0.393 OA
ATOM     18  H3  UNL     1      -5.802   0.137   9.310  1.00  0.00     0.210 HD
ENDBRANCH   8  17
TORSDOF 4
ENDMDL
MODEL 2
REMARK VINA RESULT: -7.057070600      0.919      1.029
REMARK  4 active torsions:
REMARK  status: ('A' for Active; 'I' for Inactive)
REMARK    1  A    between atoms: C4_5  and  C5_6 
REMARK    2  A    between atoms: C5_6  and  O2_8 
REMARK    3  A    between atoms: O2_8  and  C6_9 
REMARK    4  A    between atoms: C13_16  and  O3_17 
ROOT
HETATM    1  C1  UNL     1      -1.849   2.471  11.225  1.00  0.00     0.311 C 
HETATM    2  N1  UNL     1      -2.660   2.059  12.327  1.00  0.00     0.097 N 
HETATM    3  C2  UNL     1      -3.771   1.189  11.901  1.00  0.00     0.252 C 
HETATM    4  C3  UNL     1      -4.504   1.052  13.222  1.00  0.00     0.055 C 
HETATM    5  C4  UNL     1      -4.327   2.418  13.855  1.00  0.00     0.121 C 
HETATM    6  C11 UNL     1      -3.494   3.161  12.837  1.00  0.00     0.239 C 
HETATM    7  C12 UNL     1      -4.392   3.482  11.672  1.00  0.00     0.070 C 
HETATM    8  C13 UNL     1      -4.518   2.113  10.996  1.00  0.00     0.153 C 
ENDROOT
BRANCH   5   9
HETATM    9  C5  UNL     1      -3.661   2.331  15.171  1.00  0.00     0.265 C 
HETATM   10  O1  UNL     1      -2.708   3.084  15.439  1.00  0.00    -0.265 OA
BRANCH   9  11
HETATM   11  O2  UNL     1      -4.073   1.424  16.125  1.00  0.00    -0.316 OA
BRANCH  11  12
HETATM   12  C6  UNL     1      -5.100   1.810  17.019  1.00  0.00     0.132 C 
HETATM   13  C7  UNL     1      -5.896   0.549  17.331  1.00  0.00     0.032 C 
HETATM   14  C8  UNL     1      -7.331   0.860  16.969  1.00  0.00     0.002 C 
HETATM   15  C9  UNL     1      -7.384   2.365  16.925  1.00  0.00     0.002 C 
HETATM   16  C10 UNL     1      -6.052   2.720  16.310  1.00  0.00     0.032 C 
ENDBRANCH  11  12
ENDBRANCH   9  11
ENDBRANCH   5   9
BRANCH   8  17
HETATM   17  O3  UNL     1      -5.861   1.775  10.857  1.00  0.00    -0.393 OA
ATOM     18  H3  UNL     1      -6.085   1.488   9.980  1.00  0.00     0.210 HD
ENDBRANCH   8  17
TORSDOF 4
ENDMDL
MODEL 3
REMARK VINA RESULT: -7.010483378      1.314      1.665
REMARK  4 active torsions:
REMARK  status: ('A' for Active; 'I' for Inactive)
REMARK    1  A    between atoms: C4_5  and  C5_6 
REMARK    2  A    between atoms: C5_6  and  O2_8 
REMARK    3  A    between atoms: O2_8  and  C6_9 
REMARK    4  A    between atoms: C13_16  and  O3_17 
ROOT
HETATM    1  C1  UNL     1      -1.680   1.510  11.038  1.00  0.00     0.311 C 
HETATM    2  N1  UNL     1      -2.884   1.301  11.780  1.00  0.00     0.097 N 
HETATM    3  C2  UNL     1      -4.082   1.670  11.003  1.00  0.00     0.252 C 
HETATM    4  C3  UNL     1      -5.141   1.486  12.073  1.00  0.00     0.055 C 
HETATM    5  C4  UNL     1      -4.436   1.944  13.334  1.00  0.00     0.121 C 
HETATM    6  C11 UNL     1      -3.056   2.308  12.842  1.00  0.00     0.239 C 
HETATM    7  C12 UNL     1      -3.179   3.599  12.078  1.00  0.00     0.070 C 
HETATM    8  C13 UNL     1      -3.832   3.123  10.776  1.00  0.00     0.153 C 
ENDROOT
BRANCH   5   9
HETATM    9  C5  UNL     1      -4.406   0.883  14.363  1.00  0.00     0.265 C 
HETATM   10  O1  UNL     1      -4.792  -0.267  14.084  1.00  0.00    -0.265 OA
BRANCH   9  11
HETATM   11  O2  UNL     1      -3.954   1.135  15.641  1.00  0.00    -0.316 OA
BRANCH  11  12
HETATM   12  C6  UNL     1      -4.830   1.774  16.549  1.00  0.00     0.132 C 
HETATM   13  C7  UNL     1      -5.653   0.671  17.203  1.00  0.00     0.032 C 
HETATM   14  C8  UNL     1      -7.101   1.025  16.954  1.00  0.00     0.002 C 
HETATM   15  C9  UNL     1      -7.069   2.492  16.609  1.00  0.00     0.002 C 
HETATM   16  C10 UNL     1      -5.810   2.605  15.784  1.00  0.00     0.032 C 
ENDBRANCH  11  12
ENDBRANCH   9  11
ENDBRANCH   5   9
BRANCH   8  17
HETATM   17  O3  UNL     1      -4.997   3.848  10.539  1.00  0.00    -0.393 OA
ATOM     18  H3  UNL     1      -5.421   3.616   9.722  1.00  0.00     0.210 HD
ENDBRANCH   8  17
TORSDOF 4
ENDMDL
MODEL 4
REMARK VINA RESULT: -6.947873067      0.879      1.263
REMARK  4 active torsions:
REMARK  status: ('A' for Active; 'I' for Inactive)
REMARK    1  A    between atoms: C4_5  and  C5_6 
REMARK    2  A    between atoms: C5_6  and  O2_8 
REMARK    3  A    between atoms: O2_8  and  C6_9 
REMARK    4  A    between atoms: C13_16  and  O3_17 
ROOT
HETATM    1  C1  UNL     1      -1.561   1.396  11.065  1.00  0.00     0.311 C 
HETATM    2  N1  UNL     1      -2.551   0.760  11.876  1.00  0.00     0.097 N 
HETATM    3  C2  UNL     1      -3.365  -0.197  11.105  1.00  0.00     0.252 C 
HETATM    4  C3  UNL     1      -4.380  -0.577  12.168  1.00  0.00     0.055 C 
HETATM    5  C4  UNL     1      -4.588   0.722  12.921  1.00  0.00     0.121 C 
HETATM    6  C11 UNL     1      -3.651   1.677  12.221  1.00  0.00     0.239 C 
HETATM    7  C12 UNL     1      -4.261   2.003  10.883  1.00  0.00     0.070 C 
HETATM    8  C13 UNL     1      -3.992   0.713  10.102  1.00  0.00     0.153 C 
ENDROOT
BRANCH   5   9
HETATM    9  C5  UNL     1      -4.274   0.578  14.359  1.00  0.00     0.265 C 
HETATM   10  O1  UNL     1      -4.619  -0.447  14.972  1.00  0.00    -0.265 OA
BRANCH   9  11
HETATM   11  O2  UNL     1      -3.599   1.564  15.048  1.00  0.00    -0.316 OA
BRANCH  11  12
HETATM   12  C6  UNL     1      -4.348   2.453  15.854  1.00  0.00     0.132 C 
HETATM   13  C7  UNL     1      -5.092   1.592  16.868  1.00  0.00     0.032 C 
HETATM   14  C8  UNL     1      -6.557   1.930  16.708  1.00  0.00     0.002 C 
HETATM   15  C9  UNL     1      -6.555   3.254  15.989  1.00  0.00     0.002 C 
HETATM   16  C10 UNL     1      -5.409   3.097  15.020  1.00  0.00     0.032 C 
ENDBRANCH  11  12
ENDBRANCH   9  11
ENDBRANCH   5   9
BRANCH   8  17
HETATM   17  O3  UNL     1      -5.185   0.216   9.583  1.00  0.00    -0.393 OA
ATOM     18  H3  UNL     1      -5.088  -0.157   8.716  1.00  0.00     0.210 HD
ENDBRANCH   8  17
TORSDOF 4
ENDMDL
MODEL 5
REMARK VINA RESULT: -6.851156514      2.066      2.793
REMARK  4 active torsions:
REMARK  status: ('A' for Active; 'I' for Inactive)
REMARK    1  A    between atoms: C4_5  and  C5_6 
REMARK    2  A    between atoms: C5_6  and  O2_8 
REMARK    3  A    between atoms: O2_8  and  C6_9 
REMARK    4  A    between atoms: C13_16  and  O3_17 
ROOT
HETATM    1  C1  UNL     1      -2.694   4.572  14.571  1.00  0.00     0.311 C 
HETATM    2  N1  UNL     1      -3.200   3.238  14.477  1.00  0.00     0.097 N 
HETATM    3  C2  UNL     1      -3.379   2.813  13.076  1.00  0.00     0.252 C 
HETATM    4  C3  UNL     1      -4.043   1.469  13.306  1.00  0.00     0.055 C 
HETATM    5  C4  UNL     1      -4.911   1.718  14.523  1.00  0.00     0.121 C 
HETATM    6  C11 UNL     1      -4.620   3.161  14.859  1.00  0.00     0.239 C 
HETATM    7  C12 UNL     1      -5.305   4.010  13.821  1.00  0.00     0.070 C 
HETATM    8  C13 UNL     1      -4.389   3.808  12.609  1.00  0.00     0.153 C 
ENDROOT
BRANCH   5   9
HETATM    9  C5  UNL     1      -4.575   0.802  15.633  1.00  0.00     0.265 C 
HETATM   10  O1  UNL     1      -3.418   0.773  16.089  1.00  0.00    -0.265 OA
BRANCH   9  11
HETATM   11  O2  UNL     1      -5.524  -0.032  16.187  1.00  0.00    -0.316 OA
BRANCH  11  12
HETATM   12  C6  UNL     1      -6.307   0.460  17.258  1.00  0.00     0.132 C 
HETATM   13  C7  UNL     1      -7.424   1.286  16.630  1.00  0.00     0.032 C 
HETATM   14  C8  UNL     1      -7.329   2.660  17.253  1.00  0.00     0.002 C 
HETATM   15  C9  UNL     1      -6.517   2.444  18.504  1.00  0.00     0.002 C 
HETATM   16  C10 UNL     1      -5.495   1.428  18.057  1.00  0.00     0.032 C 
ENDBRANCH  11  12
ENDBRANCH   9  11
ENDBRANCH   5   9
BRANCH   8  17
HETATM   17  O3  UNL     1      -5.135   3.361  11.522  1.00  0.00    -0.393 OA
ATOM     18  H3  UNL     1      -6.063   3.286  11.711  1.00  0.00     0.210 HD
ENDBRANCH   8  17
TORSDOF 4
ENDMDL
