MODEL 1
REMARK VINA RESULT: -8.368018959      0.000      0.000
REMARK  3 active torsions:
REMARK  status: ('A' for Active; 'I' for Inactive)
REMARK    1  A    between atoms: C4_4  and  S1_5 
REMARK    2  A    between atoms: S1_5  and  N1_6 
REMARK    3  A    between atoms: C5_11  and  C6_12 
ROOT
HETATM    1  C6  UNL     1      -8.343 -25.034 -32.012  1.00  0.00     0.112 C 
HETATM    2  C7  UNL     1      -9.371 -24.097 -31.673  1.00  0.00     0.089 C 
HETATM    3  N2  UNL     1     -10.226 -23.322 -31.420  1.00  0.00    -0.192 NA
ENDROOT
BRANCH   1   4
HETATM    4  C5  UNL     1      -7.506 -25.556 -31.151  1.00  0.00     0.065 A 
HETATM    5  C4  UNL     1      -6.163 -25.257 -31.223  1.00  0.00     0.097 A 
HETATM    6  C3  UNL     1      -5.288 -25.813 -30.322  1.00  0.00     0.055 A 
HETATM    7  C2  UNL     1      -5.746 -26.667 -29.350  1.00  0.00     0.027 A 
HETATM    8  C1  UNL     1      -4.940 -27.227 -28.459  1.00  0.00     0.043 C 
HETATM    9  N3  UNL     1      -7.051 -26.949 -29.291  1.00  0.00    -0.324 N 
HETATM   10  C8  UNL     1      -7.926 -26.419 -30.158  1.00  0.00     0.258 A 
ATOM     11  H3  UNL     1      -7.391 -27.583 -28.567  1.00  0.00     0.169 HD
HETATM   12  O3  UNL     1      -9.128 -26.706 -30.071  1.00  0.00    -0.267 OA
BRANCH   5  13
HETATM   13  S1  UNL     1      -5.595 -24.177 -32.436  1.00  0.00     0.257 S 
HETATM   14  O1  UNL     1      -6.153 -24.578 -33.794  1.00  0.00    -0.201 OA
HETATM   15  O2  UNL     1      -4.092 -24.385 -32.588  1.00  0.00    -0.201 OA
BRANCH  13  16
HETATM   16  N1  UNL     1      -5.894 -22.528 -32.162  1.00  0.00    -0.324 N 
ATOM     17  H12 UNL     1      -6.034 -22.167 -31.218  1.00  0.00     0.169 HD
ATOM     18  H11 UNL     1      -5.922 -21.935 -32.992  1.00  0.00     0.169 HD
ENDBRANCH  13  16
ENDBRANCH   5  13
ENDBRANCH   1   4
TORSDOF 3
ENDMDL
MODEL 2
REMARK VINA RESULT: -8.057532429      1.344      3.667
REMARK  3 active torsions:
REMARK  status: ('A' for Active; 'I' for Inactive)
REMARK    1  A    between atoms: C4_4  and  S1_5 
REMARK    2  A    between atoms: S1_5  and  N1_6 
REMARK    3  A    between atoms: C5_11  and  C6_12 
ROOT
HETATM    1  C6  UNL     1      -5.820 -26.158 -30.434  1.00  0.00     0.112 C 
HETATM    2  C7  UNL     1      -5.622 -26.617 -29.092  1.00  0.00     0.089 C 
HETATM    3  N2  UNL     1      -5.434 -27.006 -27.993  1.00  0.00    -0.192 NA
ENDROOT
BRANCH   1   4
HETATM    4  C5  UNL     1      -6.898 -25.546 -30.853  1.00  0.00     0.065 A 
HETATM    5  C4  UNL     1      -6.792 -24.421 -31.641  1.00  0.00     0.097 A 
HETATM    6  C3  UNL     1      -7.927 -23.777 -32.073  1.00  0.00     0.055 A 
HETATM    7  C2  UNL     1      -9.167 -24.250 -31.721  1.00  0.00     0.027 A 
HETATM    8  C1  UNL     1     -10.289 -23.663 -32.113  1.00  0.00     0.043 C 
HETATM    9  N3  UNL     1      -9.256 -25.343 -30.957  1.00  0.00    -0.324 N 
HETATM   10  C8  UNL     1      -8.164 -25.989 -30.523  1.00  0.00     0.258 A 
ATOM     11  H3  UNL     1     -10.178 -25.695 -30.698  1.00  0.00     0.169 HD
HETATM   12  O3  UNL     1      -8.288 -26.999 -29.816  1.00  0.00    -0.267 OA
BRANCH   5  13
HETATM   13  S1  UNL     1      -5.237 -23.837 -32.089  1.00  0.00     0.257 S 
HETATM   14  O1  UNL     1      -5.375 -22.680 -33.068  1.00  0.00    -0.201 OA
HETATM   15  O2  UNL     1      -4.541 -24.921 -32.905  1.00  0.00    -0.201 OA
BRANCH  13  16
HETATM   16  N1  UNL     1      -4.219 -23.379 -30.807  1.00  0.00    -0.324 N 
ATOM     17  H12 UNL     1      -4.595 -22.945 -29.965  1.00  0.00     0.169 HD
ATOM     18  H11 UNL     1      -3.225 -23.565 -30.939  1.00  0.00     0.169 HD
ENDBRANCH  13  16
ENDBRANCH   5  13
ENDBRANCH   1   4
TORSDOF 3
ENDMDL
MODEL 3
REMARK VINA RESULT: -7.772210504      2.556      4.001
REMARK  3 active torsions:
REMARK  status: ('A' for Active; 'I' for Inactive)
REMARK    1  A    between atoms: C4_4  and  S1_5 
REMARK    2  A    between atoms: S1_5  and  N1_6 
REMARK    3  A    between atoms: C5_11  and  C6_12 
ROOT
HETATM    1  C6  UNL     1      -9.419 -23.768 -31.548  1.00  0.00     0.112 C 
HETATM    2  C7  UNL     1     -10.418 -24.337 -32.402  1.00  0.00     0.089 C 
HETATM    3  N2  UNL     1     -11.261 -24.796 -33.089  1.00  0.00    -0.192 NA
ENDROOT
BRANCH   1   4
HETATM    4  C5  UNL     1      -8.130 -23.874 -31.747  1.00  0.00     0.065 A 
HETATM    5  C4  UNL     1      -7.455 -24.997 -31.322  1.00  0.00     0.097 A 
HETATM    6  C3  UNL     1      -6.100 -25.100 -31.527  1.00  0.00     0.055 A 
HETATM    7  C2  UNL     1      -5.416 -24.088 -32.153  1.00  0.00     0.027 A 
HETATM    8  C1  UNL     1      -4.110 -24.143 -32.373  1.00  0.00     0.043 C 
HETATM    9  N3  UNL     1      -6.084 -23.004 -32.561  1.00  0.00    -0.324 N 
HETATM   10  C8  UNL     1      -7.405 -22.879 -32.373  1.00  0.00     0.258 A 
ATOM     11  H3  UNL     1      -5.574 -22.253 -33.028  1.00  0.00     0.169 HD
HETATM   12  O3  UNL     1      -7.987 -21.859 -32.766  1.00  0.00    -0.267 OA
BRANCH   5  13
HETATM   13  S1  UNL     1      -8.317 -26.268 -30.547  1.00  0.00     0.257 S 
HETATM   14  O1  UNL     1      -9.045 -25.733 -29.322  1.00  0.00    -0.201 OA
HETATM   15  O2  UNL     1      -7.300 -27.244 -29.965  1.00  0.00    -0.201 OA
BRANCH  13  16
HETATM   16  N1  UNL     1      -9.406 -27.131 -31.525  1.00  0.00    -0.324 N 
ATOM     17  H12 UNL     1     -10.381 -26.845 -31.607  1.00  0.00     0.169 HD
ATOM     18  H11 UNL     1      -9.021 -27.938 -32.015  1.00  0.00     0.169 HD
ENDBRANCH  13  16
ENDBRANCH   5  13
ENDBRANCH   1   4
TORSDOF 3
ENDMDL
MODEL 4
REMARK VINA RESULT: -7.729354262      1.296      3.671
REMARK  3 active torsions:
REMARK  status: ('A' for Active; 'I' for Inactive)
REMARK    1  A    between atoms: C4_4  and  S1_5 
REMARK    2  A    between atoms: S1_5  and  N1_6 
REMARK    3  A    between atoms: C5_11  and  C6_12 
ROOT
HETATM    1  C6  UNL     1      -5.556 -26.087 -30.475  1.00  0.00     0.112 C 
HETATM    2  C7  UNL     1      -5.299 -26.597 -29.161  1.00  0.00     0.089 C 
HETATM    3  N2  UNL     1      -5.062 -27.027 -28.087  1.00  0.00    -0.192 NA
ENDROOT
BRANCH   1   4
HETATM    4  C5  UNL     1      -6.671 -25.505 -30.835  1.00  0.00     0.065 A 
HETATM    5  C4  UNL     1      -6.641 -24.402 -31.661  1.00  0.00     0.097 A 
HETATM    6  C3  UNL     1      -7.814 -23.790 -32.030  1.00  0.00     0.055 A 
HETATM    7  C2  UNL     1      -9.018 -24.272 -31.580  1.00  0.00     0.027 A 
HETATM    8  C1  UNL     1     -10.175 -23.716 -31.909  1.00  0.00     0.043 C 
HETATM    9  N3  UNL     1      -9.033 -25.344 -30.780  1.00  0.00    -0.324 N 
HETATM   10  C8  UNL     1      -7.903 -25.959 -30.405  1.00  0.00     0.258 A 
ATOM     11  H3  UNL     1      -9.929 -25.702 -30.447  1.00  0.00     0.169 HD
HETATM   12  O3  UNL     1      -7.959 -26.949 -29.662  1.00  0.00    -0.267 OA
BRANCH   5  13
HETATM   13  S1  UNL     1      -5.131 -23.807 -32.231  1.00  0.00     0.257 S 
HETATM   14  O1  UNL     1      -4.253 -24.963 -32.689  1.00  0.00    -0.201 OA
HETATM   15  O2  UNL     1      -4.372 -23.225 -31.043  1.00  0.00    -0.201 OA
BRANCH  13  16
HETATM   16  N1  UNL     1      -5.211 -22.633 -33.457  1.00  0.00    -0.324 N 
ATOM     17  H12 UNL     1      -5.575 -21.699 -33.270  1.00  0.00     0.169 HD
ATOM     18  H11 UNL     1      -4.876 -22.924 -34.375  1.00  0.00     0.169 HD
ENDBRANCH  13  16
ENDBRANCH   5  13
ENDBRANCH   1   4
TORSDOF 3
ENDMDL
MODEL 5
REMARK VINA RESULT: -7.626931127      2.408      4.755
REMARK  3 active torsions:
REMARK  status: ('A' for Active; 'I' for Inactive)
REMARK    1  A    between atoms: C4_4  and  S1_5 
REMARK    2  A    between atoms: S1_5  and  N1_6 
REMARK    3  A    between atoms: C5_11  and  C6_12 
ROOT
HETATM    1  C6  UNL     1      -5.391 -24.099 -32.126  1.00  0.00     0.112 C 
HETATM    2  C7  UNL     1      -4.580 -22.927 -31.980  1.00  0.00     0.089 C 
HETATM    3  N2  UNL     1      -3.889 -21.978 -31.859  1.00  0.00    -0.192 NA
ENDROOT
BRANCH   1   4
HETATM    4  C5  UNL     1      -6.699 -24.090 -32.182  1.00  0.00     0.065 A 
HETATM    5  C4  UNL     1      -7.433 -24.893 -31.336  1.00  0.00     0.097 A 
HETATM    6  C3  UNL     1      -8.805 -24.885 -31.404  1.00  0.00     0.055 A 
HETATM    7  C2  UNL     1      -9.449 -24.080 -32.310  1.00  0.00     0.027 A 
HETATM    8  C1  UNL     1     -10.769 -24.038 -32.412  1.00  0.00     0.043 C 
HETATM    9  N3  UNL     1      -8.724 -23.305 -33.124  1.00  0.00    -0.324 N 
HETATM   10  C8  UNL     1      -7.385 -23.294 -33.078  1.00  0.00     0.258 A 
ATOM     11  H3  UNL     1      -9.204 -22.706 -33.797  1.00  0.00     0.169 HD
HETATM   12  O3  UNL     1      -6.749 -22.562 -33.850  1.00  0.00    -0.267 OA
BRANCH   5  13
HETATM   13  S1  UNL     1      -6.623 -25.893 -30.194  1.00  0.00     0.257 S 
HETATM   14  O1  UNL     1      -5.996 -27.088 -30.898  1.00  0.00    -0.201 OA
HETATM   15  O2  UNL     1      -7.674 -26.520 -29.284  1.00  0.00    -0.201 OA
BRANCH  13  16
HETATM   16  N1  UNL     1      -5.454 -25.123 -29.231  1.00  0.00    -0.324 N 
ATOM     17  H12 UNL     1      -4.482 -25.060 -29.531  1.00  0.00     0.169 HD
ATOM     18  H11 UNL     1      -5.789 -24.737 -28.348  1.00  0.00     0.169 HD
ENDBRANCH  13  16
ENDBRANCH   5  13
ENDBRANCH   1   4
TORSDOF 3
ENDMDL
