MODEL 1
REMARK VINA RESULT: -7.318257434      0.000      0.000
REMARK  4 active torsions:
REMARK  status: ('A' for Active; 'I' for Inactive)
REMARK    1  A    between atoms: N1_1  and  S1_4 
REMARK    2  A    between atoms: S1_4  and  C1_7 
REMARK    3  A    between atoms: C3_11  and  N3_12 
REMARK    4  A    between atoms: N3_12  and  C4_14 
ROOT
HETATM    1  C1  UNL     1      -8.272 -24.884 -31.249  1.00  0.00     0.163 A 
HETATM    2  C2  UNL     1      -7.035 -24.444 -31.685  1.00  0.00     0.137 A 
HETATM    3  N2  UNL     1      -5.929 -24.818 -31.054  1.00  0.00    -0.200 N 
ATOM      4  H2  UNL     1      -5.031 -24.478 -31.396  1.00  0.00     0.183 HD
HETATM    5  C3  UNL     1      -5.947 -25.629 -29.979  1.00  0.00     0.687 A 
HETATM    6  N4  UNL     1      -7.145 -26.080 -29.523  1.00  0.00    -0.154 N 
ATOM      7  H4  UNL     1      -7.181 -26.695 -28.710  1.00  0.00     0.187 HD
HETATM    8  C5  UNL     1      -8.283 -25.719 -30.141  1.00  0.00     0.284 A 
HETATM    9  O4  UNL     1      -9.421 -26.112 -29.758  1.00  0.00    -0.266 OA
ENDROOT
BRANCH   1  10
HETATM   10  S1  UNL     1      -9.764 -24.415 -32.054  1.00  0.00     0.263 S 
HETATM   11  O1  UNL     1      -9.405 -24.024 -33.468  1.00  0.00    -0.200 OA
HETATM   12  O2  UNL     1     -10.385 -23.270 -31.306  1.00  0.00    -0.200 OA
BRANCH  10  13
HETATM   13  N1  UNL     1     -10.853 -25.755 -32.175  1.00  0.00    -0.324 N 
ATOM     14  H12 UNL     1     -11.616 -25.966 -31.532  1.00  0.00     0.169 HD
ATOM     15  H11 UNL     1     -10.577 -26.278 -33.006  1.00  0.00     0.169 HD
ENDBRANCH  10  13
ENDBRANCH   1  10
BRANCH   5  16
HETATM   16  N3  UNL     1      -4.863 -25.992 -29.365  1.00  0.00    -0.167 N 
ATOM     17  H3  UNL     1      -4.023 -25.418 -29.431  1.00  0.00     0.186 HD
BRANCH  16  18
HETATM   18  C4  UNL     1      -4.846 -27.182 -28.608  1.00  0.00     0.368 C 
HETATM   19  O3  UNL     1      -5.573 -27.339 -27.597  1.00  0.00    -0.283 OA
ENDBRANCH  16  18
ENDBRANCH   5  16
TORSDOF 4
ENDMDL
MODEL 2
REMARK VINA RESULT: -7.083654206      1.931      2.202
REMARK  4 active torsions:
REMARK  status: ('A' for Active; 'I' for Inactive)
REMARK    1  A    between atoms: N1_1  and  S1_4 
REMARK    2  A    between atoms: S1_4  and  C1_7 
REMARK    3  A    between atoms: C3_11  and  N3_12 
REMARK    4  A    between atoms: N3_12  and  C4_14 
ROOT
HETATM    1  C1  UNL     1      -7.440 -24.053 -31.918  1.00  0.00     0.163 A 
HETATM    2  C2  UNL     1      -6.207 -24.627 -31.667  1.00  0.00     0.137 A 
HETATM    3  N2  UNL     1      -6.080 -25.563 -30.735  1.00  0.00    -0.200 N 
ATOM      4  H2  UNL     1      -5.159 -25.969 -30.570  1.00  0.00     0.183 HD
HETATM    5  C3  UNL     1      -7.120 -26.000 -30.000  1.00  0.00     0.687 A 
HETATM    6  N4  UNL     1      -8.346 -25.458 -30.219  1.00  0.00    -0.154 N 
ATOM      7  H4  UNL     1      -9.148 -25.774 -29.673  1.00  0.00     0.187 HD
HETATM    8  C5  UNL     1      -8.507 -24.507 -31.156  1.00  0.00     0.284 A 
HETATM    9  O4  UNL     1      -9.625 -23.973 -31.400  1.00  0.00    -0.266 OA
ENDROOT
BRANCH   1  10
HETATM   10  S1  UNL     1      -7.657 -22.809 -33.143  1.00  0.00     0.263 S 
HETATM   11  O1  UNL     1      -6.413 -22.805 -34.000  1.00  0.00    -0.200 OA
HETATM   12  O2  UNL     1      -7.862 -21.484 -32.464  1.00  0.00    -0.200 OA
BRANCH  10  13
HETATM   13  N1  UNL     1      -8.977 -23.193 -34.193  1.00  0.00    -0.324 N 
ATOM     14  H12 UNL     1      -9.456 -24.092 -34.249  1.00  0.00     0.169 HD
ATOM     15  H11 UNL     1      -9.174 -22.350 -34.732  1.00  0.00     0.169 HD
ENDBRANCH  10  13
ENDBRANCH   1  10
BRANCH   5  16
HETATM   16  N3  UNL     1      -6.991 -26.916 -29.090  1.00  0.00    -0.167 N 
ATOM     17  H3  UNL     1      -7.805 -27.225 -28.559  1.00  0.00     0.186 HD
BRANCH  16  18
HETATM   18  C4  UNL     1      -5.726 -27.485 -28.835  1.00  0.00     0.368 C 
HETATM   19  O3  UNL     1      -4.950 -27.020 -27.966  1.00  0.00    -0.283 OA
ENDBRANCH  16  18
ENDBRANCH   5  16
TORSDOF 4
ENDMDL
MODEL 3
REMARK VINA RESULT: -6.991771320      1.565      2.205
REMARK  4 active torsions:
REMARK  status: ('A' for Active; 'I' for Inactive)
REMARK    1  A    between atoms: N1_1  and  S1_4 
REMARK    2  A    between atoms: S1_4  and  C1_7 
REMARK    3  A    between atoms: C3_11  and  N3_12 
REMARK    4  A    between atoms: N3_12  and  C4_14 
ROOT
HETATM    1  C1  UNL     1      -8.820 -24.987 -31.630  1.00  0.00     0.163 A 
HETATM    2  C2  UNL     1      -8.825 -26.227 -31.018  1.00  0.00     0.137 A 
HETATM    3  N2  UNL     1      -7.709 -26.726 -30.503  1.00  0.00    -0.200 N 
ATOM      4  H2  UNL     1      -7.742 -27.644 -30.059  1.00  0.00     0.183 HD
HETATM    5  C3  UNL     1      -6.535 -26.068 -30.542  1.00  0.00     0.687 A 
HETATM    6  N4  UNL     1      -6.492 -24.847 -31.135  1.00  0.00    -0.154 N 
ATOM      7  H4  UNL     1      -5.613 -24.331 -31.177  1.00  0.00     0.187 HD
HETATM    8  C5  UNL     1      -7.607 -24.315 -31.667  1.00  0.00     0.284 A 
HETATM    9  O4  UNL     1      -7.621 -23.183 -32.228  1.00  0.00    -0.266 OA
ENDROOT
BRANCH   1  10
HETATM   10  S1  UNL     1     -10.275 -24.285 -32.327  1.00  0.00     0.263 S 
HETATM   11  O1  UNL     1     -10.758 -23.219 -31.372  1.00  0.00    -0.200 OA
HETATM   12  O2  UNL     1     -11.301 -25.367 -32.511  1.00  0.00    -0.200 OA
BRANCH  10  13
HETATM   13  N1  UNL     1      -9.925 -23.486 -33.821  1.00  0.00    -0.324 N 
ATOM     14  H12 UNL     1     -10.528 -22.816 -34.298  1.00  0.00     0.169 HD
ATOM     15  H11 UNL     1      -9.008 -23.819 -34.120  1.00  0.00     0.169 HD
ENDBRANCH  10  13
ENDBRANCH   1  10
BRANCH   5  16
HETATM   16  N3  UNL     1      -5.446 -26.560 -30.036  1.00  0.00    -0.167 N 
ATOM     17  H3  UNL     1      -4.584 -26.557 -30.581  1.00  0.00     0.186 HD
BRANCH  16  18
HETATM   18  C4  UNL     1      -5.453 -27.098 -28.733  1.00  0.00     0.368 C 
HETATM   19  O3  UNL     1      -6.348 -27.888 -28.343  1.00  0.00    -0.283 OA
ENDBRANCH  16  18
ENDBRANCH   5  16
TORSDOF 4
ENDMDL
MODEL 4
REMARK VINA RESULT: -6.872836454      2.292      3.143
REMARK  4 active torsions:
REMARK  status: ('A' for Active; 'I' for Inactive)
REMARK    1  A    between atoms: N1_1  and  S1_4 
REMARK    2  A    between atoms: S1_4  and  C1_7 
REMARK    3  A    between atoms: C3_11  and  N3_12 
REMARK    4  A    between atoms: N3_12  and  C4_14 
ROOT
HETATM    1  C1  UNL     1      -6.542 -24.046 -31.923  1.00  0.00     0.163 A 
HETATM    2  C2  UNL     1      -7.231 -25.095 -31.342  1.00  0.00     0.137 A 
HETATM    3  N2  UNL     1      -6.622 -25.908 -30.488  1.00  0.00    -0.200 N 
ATOM      4  H2  UNL     1      -7.154 -26.674 -30.076  1.00  0.00     0.183 HD
HETATM    5  C3  UNL     1      -5.328 -25.760 -30.145  1.00  0.00     0.687 A 
HETATM    6  N4  UNL     1      -4.620 -24.740 -30.695  1.00  0.00    -0.154 N 
ATOM      7  H4  UNL     1      -3.639 -24.610 -30.449  1.00  0.00     0.187 HD
HETATM    8  C5  UNL     1      -5.209 -23.900 -31.564  1.00  0.00     0.284 A 
HETATM    9  O4  UNL     1      -4.596 -22.936 -32.103  1.00  0.00    -0.266 OA
ENDROOT
BRANCH   1  10
HETATM   10  S1  UNL     1      -7.308 -22.944 -33.060  1.00  0.00     0.263 S 
HETATM   11  O1  UNL     1      -7.661 -21.689 -32.297  1.00  0.00    -0.200 OA
HETATM   12  O2  UNL     1      -8.530 -23.603 -33.633  1.00  0.00    -0.200 OA
BRANCH  10  13
HETATM   13  N1  UNL     1      -6.204 -22.469 -34.305  1.00  0.00    -0.324 N 
ATOM     14  H12 UNL     1      -5.215 -22.714 -34.354  1.00  0.00     0.169 HD
ATOM     15  H11 UNL     1      -6.737 -21.904 -34.966  1.00  0.00     0.169 HD
ENDBRANCH  10  13
ENDBRANCH   1  10
BRANCH   5  16
HETATM   16  N3  UNL     1      -4.737 -26.556 -29.309  1.00  0.00    -0.167 N 
ATOM     17  H3  UNL     1      -3.730 -26.704 -29.371  1.00  0.00     0.186 HD
BRANCH  16  18
HETATM   18  C4  UNL     1      -5.485 -27.219 -28.314  1.00  0.00     0.368 C 
HETATM   19  O3  UNL     1      -6.437 -27.986 -28.596  1.00  0.00    -0.283 OA
ENDBRANCH  16  18
ENDBRANCH   5  16
TORSDOF 4
ENDMDL
MODEL 5
REMARK VINA RESULT: -6.773250319      1.822      2.290
REMARK  4 active torsions:
REMARK  status: ('A' for Active; 'I' for Inactive)
REMARK    1  A    between atoms: N1_1  and  S1_4 
REMARK    2  A    between atoms: S1_4  and  C1_7 
REMARK    3  A    between atoms: C3_11  and  N3_12 
REMARK    4  A    between atoms: N3_12  and  C4_14 
ROOT
HETATM    1  C1  UNL     1      -6.743 -24.240 -31.787  1.00  0.00     0.163 A 
HETATM    2  C2  UNL     1      -5.371 -24.198 -31.618  1.00  0.00     0.137 A 
HETATM    3  N2  UNL     1      -4.800 -24.842 -30.608  1.00  0.00    -0.200 N 
ATOM      4  H2  UNL     1      -3.787 -24.794 -30.507  1.00  0.00     0.183 HD
HETATM    5  C3  UNL     1      -5.507 -25.557 -29.712  1.00  0.00     0.687 A 
HETATM    6  N4  UNL     1      -6.857 -25.620 -29.847  1.00  0.00    -0.154 N 
ATOM      7  H4  UNL     1      -7.411 -26.156 -29.179  1.00  0.00     0.187 HD
HETATM    8  C5  UNL     1      -7.465 -24.978 -30.860  1.00  0.00     0.284 A 
HETATM    9  O4  UNL     1      -8.716 -25.005 -31.031  1.00  0.00    -0.266 OA
ENDROOT
BRANCH   1  10
HETATM   10  S1  UNL     1      -7.545 -23.402 -33.111  1.00  0.00     0.263 S 
HETATM   11  O1  UNL     1      -8.468 -22.377 -32.496  1.00  0.00    -0.200 OA
HETATM   12  O2  UNL     1      -8.303 -24.402 -33.936  1.00  0.00    -0.200 OA
BRANCH  10  13
HETATM   13  N1  UNL     1      -6.405 -22.524 -34.072  1.00  0.00    -0.324 N 
ATOM     14  H12 UNL     1      -6.588 -21.655 -34.574  1.00  0.00     0.169 HD
ATOM     15  H11 UNL     1      -5.530 -23.047 -34.033  1.00  0.00     0.169 HD
ENDBRANCH  10  13
ENDBRANCH   1  10
BRANCH   5  16
HETATM   16  N3  UNL     1      -4.944 -26.186 -28.727  1.00  0.00    -0.167 N 
ATOM     17  H3  UNL     1      -4.274 -25.702 -28.129  1.00  0.00     0.186 HD
BRANCH  16  18
HETATM   18  C4  UNL     1      -5.257 -27.539 -28.481  1.00  0.00     0.368 C 
HETATM   19  O3  UNL     1      -6.437 -27.930 -28.314  1.00  0.00    -0.283 OA
ENDBRANCH  16  18
ENDBRANCH   5  16
TORSDOF 4
ENDMDL
