MODEL 1
REMARK VINA RESULT: -8.111595954      0.000      0.000
REMARK  2 active torsions:
REMARK  status: ('A' for Active; 'I' for Inactive)
REMARK    1  A    between atoms: C6_11  and  C7_12 
REMARK    2  A    between atoms: C7_12  and  C8_13 
ROOT
HETATM    1  C1  UNL     1      -4.820 -24.669 -31.340  1.00  0.00     0.045 C 
HETATM    2  C2  UNL     1      -5.350 -25.514 -30.491  1.00  0.00     0.052 A 
HETATM    3  N1  UNL     1      -4.547 -26.214 -29.636  1.00  0.00    -0.321 N 
ATOM      4  H1  UNL     1      -3.538 -26.067 -29.671  1.00  0.00     0.169 HD
HETATM    5  C3  UNL     1      -5.044 -27.079 -28.761  1.00  0.00     0.261 A 
HETATM    6  O1  UNL     1      -4.220 -27.682 -28.007  1.00  0.00    -0.267 OA
HETATM    7  C4  UNL     1      -6.394 -27.316 -28.669  1.00  0.00     0.163 A 
HETATM    8  N2  UNL     1      -7.204 -26.652 -29.488  1.00  0.00    -0.359 N 
ATOM      9  H2  UNL     1      -8.211 -26.809 -29.442  1.00  0.00     0.165 HD
HETATM   10  C5  UNL     1      -6.697 -25.762 -30.389  1.00  0.00     0.054 A 
HETATM   11  C6  UNL     1      -7.541 -25.121 -31.187  1.00  0.00     0.012 C 
ENDROOT
BRANCH  11  12
HETATM   12  C7  UNL     1      -9.010 -25.415 -31.049  1.00  0.00     0.107 C 
BRANCH  12  13
HETATM   13  C8  UNL     1      -9.664 -24.695 -32.192  1.00  0.00     0.103 A 
HETATM   14  N3  UNL     1      -8.945 -24.187 -33.237  1.00  0.00    -0.296 N 
HETATM   15  C9  UNL     1      -9.817 -23.610 -34.082  1.00  0.00     0.340 A 
ATOM     16  H3  UNL     1      -7.934 -24.236 -33.354  1.00  0.00     0.172 HD
HETATM   17  O2  UNL     1      -9.520 -23.035 -35.162  1.00  0.00    -0.245 OA
HETATM   18  N4  UNL     1     -11.028 -23.772 -33.553  1.00  0.00    -0.250 N 
HETATM   19  N5  UNL     1     -10.952 -24.432 -32.400  1.00  0.00    -0.285 N 
ATOM     20  H4  UNL     1     -11.894 -23.437 -33.973  1.00  0.00     0.192 HD
ATOM     21  H5  UNL     1     -11.731 -24.687 -31.792  1.00  0.00     0.188 HD
ENDBRANCH  12  13
ENDBRANCH  11  12
TORSDOF 2
ENDMDL
MODEL 2
REMARK VINA RESULT: -8.001226239      1.629      1.854
REMARK  2 active torsions:
REMARK  status: ('A' for Active; 'I' for Inactive)
REMARK    1  A    between atoms: C6_11  and  C7_12 
REMARK    2  A    between atoms: C7_12  and  C8_13 
ROOT
HETATM    1  C1  UNL     1      -4.066 -24.462 -30.944  1.00  0.00     0.045 C 
HETATM    2  C2  UNL     1      -4.926 -25.384 -30.589  1.00  0.00     0.052 A 
HETATM    3  N1  UNL     1      -4.833 -25.962 -29.355  1.00  0.00    -0.321 N 
ATOM      4  H1  UNL     1      -4.089 -25.666 -28.723  1.00  0.00     0.169 HD
HETATM    5  C3  UNL     1      -5.685 -26.900 -28.956  1.00  0.00     0.261 A 
HETATM    6  O1  UNL     1      -5.520 -27.378 -27.792  1.00  0.00    -0.267 OA
HETATM    7  C4  UNL     1      -6.705 -27.337 -29.765  1.00  0.00     0.163 A 
HETATM    8  N2  UNL     1      -6.824 -26.795 -30.973  1.00  0.00    -0.359 N 
ATOM      9  H2  UNL     1      -7.572 -27.101 -31.595  1.00  0.00     0.165 HD
HETATM   10  C5  UNL     1      -5.951 -25.832 -31.387  1.00  0.00     0.054 A 
HETATM   11  C6  UNL     1      -6.106 -25.318 -32.600  1.00  0.00     0.012 C 
ENDROOT
BRANCH  11  12
HETATM   12  C7  UNL     1      -7.238 -25.830 -33.448  1.00  0.00     0.107 C 
BRANCH  12  13
HETATM   13  C8  UNL     1      -8.336 -24.819 -33.288  1.00  0.00     0.103 A 
HETATM   14  N3  UNL     1      -9.121 -24.770 -32.171  1.00  0.00    -0.296 N 
HETATM   15  C9  UNL     1      -9.998 -23.765 -32.340  1.00  0.00     0.340 A 
ATOM     16  H3  UNL     1      -9.055 -25.383 -31.360  1.00  0.00     0.172 HD
HETATM   17  O2  UNL     1     -10.883 -23.418 -31.514  1.00  0.00    -0.245 OA
HETATM   18  N4  UNL     1      -9.740 -23.228 -33.530  1.00  0.00    -0.250 N 
HETATM   19  N5  UNL     1      -8.730 -23.859 -34.121  1.00  0.00    -0.285 N 
ATOM     20  H4  UNL     1     -10.248 -22.440 -33.933  1.00  0.00     0.192 HD
ATOM     21  H5  UNL     1      -8.333 -23.647 -35.037  1.00  0.00     0.188 HD
ENDBRANCH  12  13
ENDBRANCH  11  12
TORSDOF 2
ENDMDL
MODEL 3
REMARK VINA RESULT: -7.819106919      1.807      5.856
REMARK  2 active torsions:
REMARK  status: ('A' for Active; 'I' for Inactive)
REMARK    1  A    between atoms: C6_11  and  C7_12 
REMARK    2  A    between atoms: C7_12  and  C8_13 
ROOT
HETATM    1  C1  UNL     1      -8.121 -22.191 -33.087  1.00  0.00     0.045 C 
HETATM    2  C2  UNL     1      -8.519 -23.398 -32.769  1.00  0.00     0.052 A 
HETATM    3  N1  UNL     1      -9.852 -23.663 -32.642  1.00  0.00    -0.321 N 
ATOM      4  H1  UNL     1     -10.525 -22.912 -32.798  1.00  0.00     0.169 HD
HETATM    5  C3  UNL     1     -10.297 -24.872 -32.321  1.00  0.00     0.261 A 
HETATM    6  O1  UNL     1     -11.554 -25.023 -32.227  1.00  0.00    -0.267 OA
HETATM    7  C4  UNL     1      -9.438 -25.920 -32.101  1.00  0.00     0.163 A 
HETATM    8  N2  UNL     1      -8.132 -25.696 -32.216  1.00  0.00    -0.359 N 
ATOM      9  H2  UNL     1      -7.471 -26.457 -32.057  1.00  0.00     0.165 HD
HETATM   10  C5  UNL     1      -7.671 -24.456 -32.545  1.00  0.00     0.054 A 
HETATM   11  C6  UNL     1      -6.361 -24.275 -32.649  1.00  0.00     0.012 C 
ENDROOT
BRANCH  11  12
HETATM   12  C7  UNL     1      -5.461 -25.454 -32.397  1.00  0.00     0.107 C 
BRANCH  12  13
HETATM   13  C8  UNL     1      -5.392 -25.584 -30.903  1.00  0.00     0.103 A 
HETATM   14  N3  UNL     1      -5.786 -26.719 -30.254  1.00  0.00    -0.296 N 
HETATM   15  C9  UNL     1      -5.600 -26.516 -28.938  1.00  0.00     0.340 A 
ATOM     16  H3  UNL     1      -6.154 -27.565 -30.688  1.00  0.00     0.172 HD
HETATM   17  O2  UNL     1      -5.852 -27.345 -28.025  1.00  0.00    -0.245 OA
HETATM   18  N4  UNL     1      -5.105 -25.287 -28.807  1.00  0.00    -0.250 N 
HETATM   19  N5  UNL     1      -4.972 -24.705 -29.996  1.00  0.00    -0.285 N 
ATOM     20  H4  UNL     1      -4.862 -24.851 -27.918  1.00  0.00     0.192 HD
ATOM     21  H5  UNL     1      -4.617 -23.766 -30.177  1.00  0.00     0.188 HD
ENDBRANCH  12  13
ENDBRANCH  11  12
TORSDOF 2
ENDMDL
MODEL 4
REMARK VINA RESULT: -7.808453267      3.388      5.313
REMARK  2 active torsions:
REMARK  status: ('A' for Active; 'I' for Inactive)
REMARK    1  A    between atoms: C6_11  and  C7_12 
REMARK    2  A    between atoms: C7_12  and  C8_13 
ROOT
HETATM    1  C1  UNL     1     -10.137 -23.723 -32.968  1.00  0.00     0.045 C 
HETATM    2  C2  UNL     1      -9.726 -24.873 -32.492  1.00  0.00     0.052 A 
HETATM    3  N1  UNL     1     -10.607 -25.698 -31.854  1.00  0.00    -0.321 N 
ATOM      4  H1  UNL     1     -11.579 -25.406 -31.756  1.00  0.00     0.169 HD
HETATM    5  C3  UNL     1     -10.231 -26.871 -31.358  1.00  0.00     0.261 A 
HETATM    6  O1  UNL     1     -11.120 -27.571 -30.782  1.00  0.00    -0.267 OA
HETATM    7  C4  UNL     1      -8.936 -27.316 -31.461  1.00  0.00     0.163 A 
HETATM    8  N2  UNL     1      -8.053 -26.535 -32.076  1.00  0.00    -0.359 N 
ATOM      9  H2  UNL     1      -7.083 -26.840 -32.167  1.00  0.00     0.165 HD
HETATM   10  C5  UNL     1      -8.434 -25.330 -32.587  1.00  0.00     0.054 A 
HETATM   11  C6  UNL     1      -7.521 -24.583 -33.193  1.00  0.00     0.012 C 
ENDROOT
BRANCH  11  12
HETATM   12  C7  UNL     1      -6.116 -25.113 -33.281  1.00  0.00     0.107 C 
BRANCH  12  13
HETATM   13  C8  UNL     1      -5.303 -24.221 -32.389  1.00  0.00     0.103 A 
HETATM   14  N3  UNL     1      -4.901 -22.975 -32.779  1.00  0.00    -0.296 N 
HETATM   15  C9  UNL     1      -4.199 -22.442 -31.764  1.00  0.00     0.340 A 
ATOM     16  H3  UNL     1      -5.097 -22.531 -33.676  1.00  0.00     0.172 HD
HETATM   17  O2  UNL     1      -3.669 -21.300 -31.759  1.00  0.00    -0.245 OA
HETATM   18  N4  UNL     1      -4.185 -23.350 -30.790  1.00  0.00    -0.250 N 
HETATM   19  N5  UNL     1      -4.853 -24.440 -31.155  1.00  0.00    -0.285 N 
ATOM     20  H4  UNL     1      -3.724 -23.226 -29.889  1.00  0.00     0.192 HD
ATOM     21  H5  UNL     1      -4.994 -25.283 -30.597  1.00  0.00     0.188 HD
ENDBRANCH  12  13
ENDBRANCH  11  12
TORSDOF 2
ENDMDL
MODEL 5
REMARK VINA RESULT: -7.646789344      2.942      3.913
REMARK  2 active torsions:
REMARK  status: ('A' for Active; 'I' for Inactive)
REMARK    1  A    between atoms: C6_11  and  C7_12 
REMARK    2  A    between atoms: C7_12  and  C8_13 
ROOT
HETATM    1  C1  UNL     1      -9.071 -26.684 -30.737  1.00  0.00     0.045 C 
HETATM    2  C2  UNL     1      -7.794 -26.570 -30.467  1.00  0.00     0.052 A 
HETATM    3  N1  UNL     1      -7.308 -27.019 -29.273  1.00  0.00    -0.321 N 
ATOM      4  H1  UNL     1      -7.951 -27.441 -28.602  1.00  0.00     0.169 HD
HETATM    5  C3  UNL     1      -6.021 -26.923 -28.961  1.00  0.00     0.261 A 
HETATM    6  O1  UNL     1      -5.662 -27.368 -27.828  1.00  0.00    -0.267 OA
HETATM    7  C4  UNL     1      -5.111 -26.366 -29.825  1.00  0.00     0.163 A 
HETATM    8  N2  UNL     1      -5.552 -25.917 -30.997  1.00  0.00    -0.359 N 
ATOM      9  H2  UNL     1      -4.897 -25.498 -31.658  1.00  0.00     0.165 HD
HETATM   10  C5  UNL     1      -6.872 -26.015 -31.321  1.00  0.00     0.054 A 
HETATM   11  C6  UNL     1      -7.269 -25.555 -32.500  1.00  0.00     0.012 C 
ENDROOT
BRANCH  11  12
HETATM   12  C7  UNL     1      -6.235 -24.953 -33.411  1.00  0.00     0.107 C 
BRANCH  12  13
HETATM   13  C8  UNL     1      -5.845 -23.657 -32.762  1.00  0.00     0.103 A 
HETATM   14  N3  UNL     1      -4.541 -23.267 -32.644  1.00  0.00    -0.296 N 
HETATM   15  C9  UNL     1      -4.532 -22.075 -32.023  1.00  0.00     0.340 A 
ATOM     16  H3  UNL     1      -3.725 -23.785 -32.967  1.00  0.00     0.172 HD
HETATM   17  O2  UNL     1      -3.505 -21.403 -31.741  1.00  0.00    -0.245 OA
HETATM   18  N4  UNL     1      -5.802 -21.762 -31.777  1.00  0.00    -0.250 N 
HETATM   19  N5  UNL     1      -6.616 -22.716 -32.221  1.00  0.00    -0.285 N 
ATOM     20  H4  UNL     1      -6.109 -20.908 -31.312  1.00  0.00     0.192 HD
ATOM     21  H5  UNL     1      -7.634 -22.725 -32.159  1.00  0.00     0.188 HD
ENDBRANCH  12  13
ENDBRANCH  11  12
TORSDOF 2
ENDMDL
