MODEL 1
REMARK VINA RESULT: -7.627636815      0.000      0.000
REMARK  6 active torsions:
REMARK  status: ('A' for Active; 'I' for Inactive)
REMARK    1  A    between atoms: O1_2  and  C2_3 
REMARK    2  A    between atoms: C2_3  and  C3_5 
REMARK    3  A    between atoms: C3_5  and  C5_7 
REMARK    4  A    between atoms: C7_10  and  O4_11 
REMARK    5  A    between atoms: C10_15  and  O5_16 
REMARK    6  A    between atoms: O5_16  and  C11_17 
ROOT
HETATM    1  C5  UNL     1      -3.803   2.039  12.337  1.00  0.00     0.141 C 
HETATM    2  C6  UNL     1      -4.774   2.676  11.423  1.00  0.00     0.168 C 
HETATM    3  O3  UNL     1      -5.847   2.146  11.240  1.00  0.00    -0.294 OA
HETATM    4  C7  UNL     1      -4.508   3.945  10.707  1.00  0.00     0.200 C 
HETATM    5  C8  UNL     1      -3.616   4.887  11.432  1.00  0.00     0.028 C 
HETATM    6  C9  UNL     1      -2.565   5.459  10.499  1.00  0.00     0.022 C 
HETATM    7  C10 UNL     1      -4.391   6.043  12.082  1.00  0.00     0.152 C 
HETATM    8  C13 UNL     1      -4.104   5.430  13.441  1.00  0.00    -0.009 C 
HETATM    9  C14 UNL     1      -5.306   4.802  14.059  1.00  0.00     0.018 C 
HETATM   10  C15 UNL     1      -3.420   6.373  14.403  1.00  0.00     0.018 C 
HETATM   11  C16 UNL     1      -3.124   4.522  12.763  1.00  0.00     0.080 C 
HETATM   12  C17 UNL     1      -3.231   3.129  13.185  1.00  0.00     0.145 C 
HETATM   13  O7  UNL     1      -2.835   2.823  14.289  1.00  0.00    -0.297 OA
ENDROOT
BRANCH   1  14
HETATM   14  C3  UNL     1      -2.725   1.249  11.663  1.00  0.00     0.100 C 
HETATM   15  C4  UNL     1      -3.306   0.350  10.569  1.00  0.00     0.022 C 
BRANCH  14  16
HETATM   16  C2  UNL     1      -1.678   2.063  11.018  1.00  0.00     0.263 C 
HETATM   17  O2  UNL     1      -1.656   2.299   9.795  1.00  0.00    -0.265 OA
BRANCH  16  18
HETATM   18  O1  UNL     1      -0.625   2.628  11.756  1.00  0.00    -0.326 OA
HETATM   19  C1  UNL     1       0.334   3.455  11.133  1.00  0.00     0.213 C 
ENDBRANCH  16  18
ENDBRANCH  14  16
ENDBRANCH   1  14
BRANCH   4  20
HETATM   20  O4  UNL     1      -3.991   3.608   9.455  1.00  0.00    -0.387 OA
ATOM     21  H4  UNL     1      -3.632   4.403   9.078  1.00  0.00     0.210 HD
ENDBRANCH   4  20
BRANCH   7  22
HETATM   22  O5  UNL     1      -5.742   6.092  11.729  1.00  0.00    -0.315 OA
BRANCH  22  23
HETATM   23  C11 UNL     1      -6.250   6.907  10.717  1.00  0.00     0.255 C 
HETATM   24  C12 UNL     1      -6.304   8.397  10.875  1.00  0.00     0.126 C 
HETATM   25  O6  UNL     1      -6.660   6.340   9.674  1.00  0.00    -0.266 OA
ENDBRANCH  22  23
ENDBRANCH   7  22
TORSDOF 6
ENDMDL
MODEL 2
REMARK VINA RESULT: -7.272554498      2.262      4.050
REMARK  6 active torsions:
REMARK  status: ('A' for Active; 'I' for Inactive)
REMARK    1  A    between atoms: O1_2  and  C2_3 
REMARK    2  A    between atoms: C2_3  and  C3_5 
REMARK    3  A    between atoms: C3_5  and  C5_7 
REMARK    4  A    between atoms: C7_10  and  O4_11 
REMARK    5  A    between atoms: C10_15  and  O5_16 
REMARK    6  A    between atoms: O5_16  and  C11_17 
ROOT
HETATM    1  C5  UNL     1      -4.606   2.753  13.571  1.00  0.00     0.141 C 
HETATM    2  C6  UNL     1      -4.677   2.333  12.156  1.00  0.00     0.168 C 
HETATM    3  O3  UNL     1      -5.729   1.933  11.711  1.00  0.00    -0.294 OA
HETATM    4  C7  UNL     1      -3.518   2.374  11.234  1.00  0.00     0.200 C 
HETATM    5  C8  UNL     1      -2.541   3.456  11.519  1.00  0.00     0.028 C 
HETATM    6  C9  UNL     1      -1.120   2.926  11.466  1.00  0.00     0.022 C 
HETATM    7  C10 UNL     1      -2.672   4.635  10.544  1.00  0.00     0.152 C 
HETATM    8  C13 UNL     1      -3.246   5.468  11.677  1.00  0.00    -0.009 C 
HETATM    9  C14 UNL     1      -4.710   5.705  11.537  1.00  0.00     0.018 C 
HETATM   10  C15 UNL     1      -2.500   6.760  11.922  1.00  0.00     0.018 C 
HETATM   11  C16 UNL     1      -2.809   4.388  12.618  1.00  0.00     0.080 C 
HETATM   12  C17 UNL     1      -3.823   4.027  13.603  1.00  0.00     0.145 C 
HETATM   13  O7  UNL     1      -4.057   4.799  14.508  1.00  0.00    -0.297 OA
ENDROOT
BRANCH   1  14
HETATM   14  C3  UNL     1      -4.028   1.735  14.504  1.00  0.00     0.100 C 
HETATM   15  C4  UNL     1      -3.092   2.392  15.521  1.00  0.00     0.022 C 
BRANCH  14  16
HETATM   16  C2  UNL     1      -5.027   0.981  15.286  1.00  0.00     0.263 C 
HETATM   17  O2  UNL     1      -5.025  -0.261  15.375  1.00  0.00    -0.265 OA
BRANCH  16  18
HETATM   18  O1  UNL     1      -6.057   1.631  15.986  1.00  0.00    -0.326 OA
HETATM   19  C1  UNL     1      -6.866   0.927  16.903  1.00  0.00     0.213 C 
ENDBRANCH  16  18
ENDBRANCH  14  16
ENDBRANCH   1  14
BRANCH   4  20
HETATM   20  O4  UNL     1      -2.917   1.114  11.275  1.00  0.00    -0.387 OA
ATOM     21  H4  UNL     1      -3.611   0.481  11.419  1.00  0.00     0.210 HD
ENDBRANCH   4  20
BRANCH   7  22
HETATM   22  O5  UNL     1      -3.548   4.400   9.481  1.00  0.00    -0.315 OA
BRANCH  22  23
HETATM   23  C11 UNL     1      -3.460   5.044   8.247  1.00  0.00     0.255 C 
HETATM   24  C12 UNL     1      -2.493   6.168   8.025  1.00  0.00     0.126 C 
HETATM   25  O6  UNL     1      -4.224   4.644   7.333  1.00  0.00    -0.266 OA
ENDBRANCH  22  23
ENDBRANCH   7  22
TORSDOF 6
ENDMDL
MODEL 3
REMARK VINA RESULT: -7.247515628      2.184      4.141
REMARK  6 active torsions:
REMARK  status: ('A' for Active; 'I' for Inactive)
REMARK    1  A    between atoms: O1_2  and  C2_3 
REMARK    2  A    between atoms: C2_3  and  C3_5 
REMARK    3  A    between atoms: C3_5  and  C5_7 
REMARK    4  A    between atoms: C7_10  and  O4_11 
REMARK    5  A    between atoms: C10_15  and  O5_16 
REMARK    6  A    between atoms: O5_16  and  C11_17 
ROOT
HETATM    1  C5  UNL     1      -2.928   2.944  11.566  1.00  0.00     0.141 C 
HETATM    2  C6  UNL     1      -1.863   3.659  12.300  1.00  0.00     0.168 C 
HETATM    3  O3  UNL     1      -0.710   3.497  11.971  1.00  0.00    -0.294 OA
HETATM    4  C7  UNL     1      -2.128   4.576  13.432  1.00  0.00     0.200 C 
HETATM    5  C8  UNL     1      -3.427   5.293  13.354  1.00  0.00     0.028 C 
HETATM    6  C9  UNL     1      -4.142   5.260  14.692  1.00  0.00     0.022 C 
HETATM    7  C10 UNL     1      -3.263   6.754  12.911  1.00  0.00     0.152 C 
HETATM    8  C13 UNL     1      -3.895   6.390  11.579  1.00  0.00    -0.009 C 
HETATM    9  C14 UNL     1      -2.912   6.355  10.461  1.00  0.00     0.018 C 
HETATM   10  C15 UNL     1      -5.101   7.229  11.227  1.00  0.00     0.018 C 
HETATM   11  C16 UNL     1      -4.291   5.080  12.190  1.00  0.00     0.080 C 
HETATM   12  C17 UNL     1      -4.026   3.931  11.330  1.00  0.00     0.145 C 
HETATM   13  O7  UNL     1      -4.731   3.756  10.359  1.00  0.00    -0.297 OA
ENDROOT
BRANCH   1  14
HETATM   14  C3  UNL     1      -3.442   1.710  12.240  1.00  0.00     0.100 C 
HETATM   15  C4  UNL     1      -4.844   1.939  12.810  1.00  0.00     0.022 C 
BRANCH  14  16
HETATM   16  C2  UNL     1      -3.539   0.526  11.365  1.00  0.00     0.263 C 
HETATM   17  O2  UNL     1      -3.333   0.569  10.137  1.00  0.00    -0.265 OA
BRANCH  16  18
HETATM   18  O1  UNL     1      -3.877  -0.739  11.873  1.00  0.00    -0.326 OA
HETATM   19  C1  UNL     1      -3.241  -1.905  11.395  1.00  0.00     0.213 C 
ENDBRANCH  16  18
ENDBRANCH  14  16
ENDBRANCH   1  14
BRANCH   4  20
HETATM   20  O4  UNL     1      -2.026   3.822  14.602  1.00  0.00    -0.387 OA
ATOM     21  H4  UNL     1      -2.304   4.381  15.319  1.00  0.00     0.210 HD
ENDBRANCH   4  20
BRANCH   7  22
HETATM   22  O5  UNL     1      -1.934   7.181  12.837  1.00  0.00    -0.315 OA
BRANCH  22  23
HETATM   23  C11 UNL     1      -1.342   8.039  13.764  1.00  0.00     0.255 C 
HETATM   24  C12 UNL     1      -2.028   8.382  15.052  1.00  0.00     0.126 C 
HETATM   25  O6  UNL     1      -0.215   8.512  13.472  1.00  0.00    -0.266 OA
ENDBRANCH  22  23
ENDBRANCH   7  22
TORSDOF 6
ENDMDL
MODEL 4
REMARK VINA RESULT: -7.148146379      1.290      2.032
REMARK  6 active torsions:
REMARK  status: ('A' for Active; 'I' for Inactive)
REMARK    1  A    between atoms: O1_2  and  C2_3 
REMARK    2  A    between atoms: C2_3  and  C3_5 
REMARK    3  A    between atoms: C3_5  and  C5_7 
REMARK    4  A    between atoms: C7_10  and  O4_11 
REMARK    5  A    between atoms: C10_15  and  O5_16 
REMARK    6  A    between atoms: O5_16  and  C11_17 
ROOT
HETATM    1  C5  UNL     1      -3.182   2.776  11.747  1.00  0.00     0.141 C 
HETATM    2  C6  UNL     1      -4.399   3.312  11.101  1.00  0.00     0.168 C 
HETATM    3  O3  UNL     1      -5.411   2.648  11.108  1.00  0.00    -0.294 OA
HETATM    4  C7  UNL     1      -4.454   4.635  10.437  1.00  0.00     0.200 C 
HETATM    5  C8  UNL     1      -3.553   5.659  11.025  1.00  0.00     0.028 C 
HETATM    6  C9  UNL     1      -2.807   6.408   9.936  1.00  0.00     0.022 C 
HETATM    7  C10 UNL     1      -4.308   6.669  11.901  1.00  0.00     0.152 C 
HETATM    8  C13 UNL     1      -3.661   6.044  13.125  1.00  0.00    -0.009 C 
HETATM    9  C14 UNL     1      -4.613   5.233  13.933  1.00  0.00     0.018 C 
HETATM   10  C15 UNL     1      -2.909   7.032  13.987  1.00  0.00     0.018 C 
HETATM   11  C16 UNL     1      -2.744   5.309  12.196  1.00  0.00     0.080 C 
HETATM   12  C17 UNL     1      -2.582   3.899  12.532  1.00  0.00     0.145 C 
HETATM   13  O7  UNL     1      -1.923   3.604  13.506  1.00  0.00    -0.297 OA
ENDROOT
BRANCH   1  14
HETATM   14  C3  UNL     1      -2.184   2.171  10.810  1.00  0.00     0.100 C 
HETATM   15  C4  UNL     1      -0.757   2.566  11.199  1.00  0.00     0.022 C 
BRANCH  14  16
HETATM   16  C2  UNL     1      -2.205   0.697  10.757  1.00  0.00     0.263 C 
HETATM   17  O2  UNL     1      -1.315  -0.015  11.260  1.00  0.00    -0.265 OA
BRANCH  16  18
HETATM   18  O1  UNL     1      -3.246  -0.002  10.124  1.00  0.00    -0.326 OA
HETATM   19  C1  UNL     1      -4.258  -0.634  10.878  1.00  0.00     0.213 C 
ENDBRANCH  16  18
ENDBRANCH  14  16
ENDBRANCH   1  14
BRANCH   4  20
HETATM   20  O4  UNL     1      -4.181   4.424   9.084  1.00  0.00    -0.387 OA
ATOM     21  H4  UNL     1      -4.927   3.962   8.718  1.00  0.00     0.210 HD
ENDBRANCH   4  20
BRANCH   7  22
HETATM   22  O5  UNL     1      -5.699   6.547  11.841  1.00  0.00    -0.315 OA
BRANCH  22  23
HETATM   23  C11 UNL     1      -6.548   7.559  11.393  1.00  0.00     0.255 C 
HETATM   24  C12 UNL     1      -6.035   8.680  10.540  1.00  0.00     0.126 C 
HETATM   25  O6  UNL     1      -7.755   7.491  11.736  1.00  0.00    -0.266 OA
ENDBRANCH  22  23
ENDBRANCH   7  22
TORSDOF 6
ENDMDL
MODEL 5
REMARK VINA RESULT: -7.142443418      1.993      3.226
REMARK  6 active torsions:
REMARK  status: ('A' for Active; 'I' for Inactive)
REMARK    1  A    between atoms: O1_2  and  C2_3 
REMARK    2  A    between atoms: C2_3  and  C3_5 
REMARK    3  A    between atoms: C3_5  and  C5_7 
REMARK    4  A    between atoms: C7_10  and  O4_11 
REMARK    5  A    between atoms: C10_15  and  O5_16 
REMARK    6  A    between atoms: O5_16  and  C11_17 
ROOT
HETATM    1  C5  UNL     1      -4.581   3.007  13.071  1.00  0.00     0.141 C 
HETATM    2  C6  UNL     1      -4.745   2.756  11.624  1.00  0.00     0.168 C 
HETATM    3  O3  UNL     1      -5.769   2.247  11.227  1.00  0.00    -0.294 OA
HETATM    4  C7  UNL     1      -3.715   3.097  10.616  1.00  0.00     0.200 C 
HETATM    5  C8  UNL     1      -2.885   4.280  10.958  1.00  0.00     0.028 C 
HETATM    6  C9  UNL     1      -1.416   3.999  10.704  1.00  0.00     0.022 C 
HETATM    7  C10 UNL     1      -3.298   5.532  10.170  1.00  0.00     0.152 C 
HETATM    8  C13 UNL     1      -3.861   6.117  11.454  1.00  0.00    -0.009 C 
HETATM    9  C14 UNL     1      -5.350   6.128  11.482  1.00  0.00     0.018 C 
HETATM   10  C15 UNL     1      -3.294   7.472  11.806  1.00  0.00     0.018 C 
HETATM   11  C16 UNL     1      -3.165   5.015  12.194  1.00  0.00     0.080 C 
HETATM   12  C17 UNL     1      -3.999   4.377  13.207  1.00  0.00     0.145 C 
HETATM   13  O7  UNL     1      -4.243   4.985  14.228  1.00  0.00    -0.297 OA
ENDROOT
BRANCH   1  14
HETATM   14  C3  UNL     1      -3.758   1.990  13.799  1.00  0.00     0.100 C 
HETATM   15  C4  UNL     1      -3.954   2.108  15.313  1.00  0.00     0.022 C 
BRANCH  14  16
HETATM   16  C2  UNL     1      -4.061   0.589  13.450  1.00  0.00     0.263 C 
HETATM   17  O2  UNL     1      -4.812  -0.135  14.132  1.00  0.00    -0.265 OA
BRANCH  16  18
HETATM   18  O1  UNL     1      -3.510  -0.022  12.311  1.00  0.00    -0.326 OA
HETATM   19  C1  UNL     1      -4.205  -1.043  11.629  1.00  0.00     0.213 C 
ENDBRANCH  16  18
ENDBRANCH  14  16
ENDBRANCH   1  14
BRANCH   4  20
HETATM   20  O4  UNL     1      -2.933   1.956  10.429  1.00  0.00    -0.387 OA
ATOM     21  H4  UNL     1      -3.126   1.626   9.558  1.00  0.00     0.210 HD
ENDBRANCH   4  20
BRANCH   7  22
HETATM   22  O5  UNL     1      -4.242   5.289   9.168  1.00  0.00    -0.315 OA
BRANCH  22  23
HETATM   23  C11 UNL     1      -4.007   5.511   7.811  1.00  0.00     0.255 C 
HETATM   24  C12 UNL     1      -3.353   6.773   7.333  1.00  0.00     0.126 C 
HETATM   25  O6  UNL     1      -4.366   4.611   7.011  1.00  0.00    -0.266 OA
ENDBRANCH  22  23
ENDBRANCH   7  22
TORSDOF 6
ENDMDL
