MODEL 1
REMARK VINA RESULT: -3.180584516      0.000      0.000
REMARK  1 active torsions:
REMARK  status: ('A' for Active; 'I' for Inactive)
REMARK    1  A    between atoms: C4_5  and  C5_6 
ROOT
HETATM    1  C1  UNL     1      -3.264   8.961   2.797  1.00  0.00     0.310 C 
HETATM    2  N1  UNL     1      -1.964   8.399   2.978  1.00  0.00     0.094 N 
HETATM    3  C2  UNL     1      -1.621   8.332   4.356  1.00  0.00     0.274 C 
HETATM    4  C3  UNL     1      -0.350   9.093   4.572  1.00  0.00     0.048 C 
HETATM    5  C4  UNL     1       0.045   9.648   3.223  1.00  0.00     0.126 C 
HETATM    6  C6  UNL     1      -0.918   9.025   2.247  1.00  0.00     0.165 C 
HETATM    7  C7  UNL     1      -1.405  10.029   1.219  1.00  0.00     0.049 C 
HETATM    8  C8  UNL     1      -0.175   7.937   1.463  1.00  0.00     0.049 C 
ENDROOT
BRANCH   5   9
HETATM    9  C5  UNL     1       0.035  11.114   3.180  1.00  0.00     0.179 C 
HETATM   10  O1  UNL     1      -0.867  11.772   3.771  1.00  0.00    -0.648 OA
HETATM   11  O2  UNL     1       1.016  11.852   2.486  1.00  0.00    -0.648 OA
ENDBRANCH   5   9
TORSDOF 1
ENDMDL
MODEL 2
REMARK VINA RESULT: -2.934369255      1.645      2.085
REMARK  1 active torsions:
REMARK  status: ('A' for Active; 'I' for Inactive)
REMARK    1  A    between atoms: C4_5  and  C5_6 
ROOT
HETATM    1  C1  UNL     1      -2.145   6.608   2.806  1.00  0.00     0.310 C 
HETATM    2  N1  UNL     1      -1.102   6.786   3.766  1.00  0.00     0.094 N 
HETATM    3  C2  UNL     1      -1.613   7.298   4.989  1.00  0.00     0.274 C 
HETATM    4  C3  UNL     1      -0.908   8.581   5.303  1.00  0.00     0.048 C 
HETATM    5  C4  UNL     1       0.057   8.823   4.166  1.00  0.00     0.126 C 
HETATM    6  C6  UNL     1       0.002   7.569   3.334  1.00  0.00     0.165 C 
HETATM    7  C7  UNL     1      -0.011   7.880   1.849  1.00  0.00     0.049 C 
HETATM    8  C8  UNL     1       1.281   6.762   3.590  1.00  0.00     0.049 C 
ENDROOT
BRANCH   5   9
HETATM    9  C5  UNL     1      -0.253  10.034   3.397  1.00  0.00     0.179 C 
HETATM   10  O1  UNL     1       0.633  10.909   3.186  1.00  0.00    -0.648 OA
HETATM   11  O2  UNL     1      -1.536  10.278   2.865  1.00  0.00    -0.648 OA
ENDBRANCH   5   9
TORSDOF 1
ENDMDL
MODEL 3
REMARK VINA RESULT: -2.878928405      0.966      2.585
REMARK  1 active torsions:
REMARK  status: ('A' for Active; 'I' for Inactive)
REMARK    1  A    between atoms: C4_5  and  C5_6 
ROOT
HETATM    1  C1  UNL     1       0.572   7.531   2.255  1.00  0.00     0.310 C 
HETATM    2  N1  UNL     1      -0.761   8.035   2.185  1.00  0.00     0.094 N 
HETATM    3  C2  UNL     1      -1.012   8.649   0.928  1.00  0.00     0.274 C 
HETATM    4  C3  UNL     1      -1.436  10.066   1.161  1.00  0.00     0.048 C 
HETATM    5  C4  UNL     1      -1.404  10.276   2.657  1.00  0.00     0.126 C 
HETATM    6  C6  UNL     1      -1.143   8.911   3.237  1.00  0.00     0.165 C 
HETATM    7  C7  UNL     1      -0.145   8.968   4.379  1.00  0.00     0.049 C 
HETATM    8  C8  UNL     1      -2.450   8.383   3.839  1.00  0.00     0.049 C 
ENDROOT
BRANCH   5   9
HETATM    9  C5  UNL     1      -0.415  11.275   3.075  1.00  0.00     0.179 C 
HETATM   10  O1  UNL     1      -0.672  12.087   4.008  1.00  0.00    -0.648 OA
HETATM   11  O2  UNL     1       0.852  11.378   2.467  1.00  0.00    -0.648 OA
ENDBRANCH   5   9
TORSDOF 1
ENDMDL
MODEL 4
REMARK VINA RESULT: -2.782286205      2.813      3.700
REMARK  1 active torsions:
REMARK  status: ('A' for Active; 'I' for Inactive)
REMARK    1  A    between atoms: C4_5  and  C5_6 
ROOT
HETATM    1  C1  UNL     1      -2.911   8.213   3.483  1.00  0.00     0.310 C 
HETATM    2  N1  UNL     1      -1.747   8.746   2.850  1.00  0.00     0.094 N 
HETATM    3  C2  UNL     1      -1.476   8.075   1.628  1.00  0.00     0.274 C 
HETATM    4  C3  UNL     1      -0.093   7.504   1.691  1.00  0.00     0.048 C 
HETATM    5  C4  UNL     1       0.450   7.860   3.055  1.00  0.00     0.126 C 
HETATM    6  C6  UNL     1      -0.576   8.786   3.654  1.00  0.00     0.165 C 
HETATM    7  C7  UNL     1      -0.826   8.476   5.118  1.00  0.00     0.049 C 
HETATM    8  C8  UNL     1      -0.022  10.215   3.609  1.00  0.00     0.049 C 
ENDROOT
BRANCH   5   9
HETATM    9  C5  UNL     1       0.717   6.684   3.891  1.00  0.00     0.179 C 
HETATM   10  O1  UNL     1       1.765   6.616   4.592  1.00  0.00    -0.648 OA
HETATM   11  O2  UNL     1      -0.169   5.589   3.952  1.00  0.00    -0.648 OA
ENDBRANCH   5   9
TORSDOF 1
ENDMDL
MODEL 5
REMARK VINA RESULT: -2.727593055      2.244      3.265
REMARK  1 active torsions:
REMARK  status: ('A' for Active; 'I' for Inactive)
REMARK    1  A    between atoms: C4_5  and  C5_6 
ROOT
HETATM    1  C1  UNL     1      -0.794   8.585   5.088  1.00  0.00     0.310 C 
HETATM    2  N1  UNL     1      -0.161   8.871   3.840  1.00  0.00     0.094 N 
HETATM    3  C2  UNL     1      -0.179  10.265   3.564  1.00  0.00     0.274 C 
HETATM    4  C3  UNL     1      -0.867  10.485   2.252  1.00  0.00     0.048 C 
HETATM    5  C4  UNL     1      -1.286   9.119   1.760  1.00  0.00     0.126 C 
HETATM    6  C6  UNL     1      -0.655   8.147   2.721  1.00  0.00     0.165 C 
HETATM    7  C7  UNL     1      -1.606   7.024   3.090  1.00  0.00     0.049 C 
HETATM    8  C8  UNL     1       0.539   7.484   2.025  1.00  0.00     0.049 C 
ENDROOT
BRANCH   5   9
HETATM    9  C5  UNL     1      -2.742   8.966   1.663  1.00  0.00     0.179 C 
HETATM   10  O1  UNL     1      -3.266   8.387   0.671  1.00  0.00    -0.648 OA
HETATM   11  O2  UNL     1      -3.616   9.450   2.658  1.00  0.00    -0.648 OA
ENDBRANCH   5   9
TORSDOF 1
ENDMDL
