MODEL 1
REMARK VINA RESULT: -8.647850822      0.000      0.000
REMARK  10 active torsions:
REMARK  status: ('A' for Active; 'I' for Inactive)
REMARK    1  A    between atoms: C2_2  and  O1_4 
REMARK    2  A    between atoms: O1_4  and  C4_5 
REMARK    3  A    between atoms: C4_5  and  O3_7 
REMARK    4  A    between atoms: O3_7  and  C5_8 
REMARK       I    between atoms: N1_17  and  C14_18 
REMARK    5  A    between atoms: C14_18  and  C15_20 
REMARK    6  A    between atoms: C15_20  and  C16_21 
REMARK    7  A    between atoms: C16_21  and  S1_22 
REMARK    8  A    between atoms: S1_22  and  C17_23 
REMARK    9  A    between atoms: C27_35  and  C29_37 
REMARK   10  A    between atoms: C29_37  and  O5_38 
ROOT
HETATM    1  C5  UNL     1     -29.549   7.836 -16.130  1.00  0.00     0.173 C 
HETATM    2  C6  UNL     1     -29.298   9.039 -16.850  1.00  0.00     0.043 C 
HETATM    3  C7  UNL     1     -28.006   9.575 -17.416  1.00  0.00    -0.006 C 
HETATM    4  C8  UNL     1     -28.307  11.023 -17.847  1.00  0.00     0.011 C 
HETATM    5  C9  UNL     1     -26.918   9.331 -16.566  1.00  0.00    -0.018 C 
HETATM    6  C10 UNL     1     -27.446   9.741 -15.230  1.00  0.00     0.012 C 
HETATM    7  C11 UNL     1     -26.530   9.290 -14.162  1.00  0.00     0.008 C 
HETATM    8  C12 UNL     1     -25.503   8.869 -15.203  1.00  0.00     0.021 C 
HETATM    9  C13 UNL     1     -26.094   7.562 -15.632  1.00  0.00     0.105 C 
HETATM   10  N1  UNL     1     -27.282   6.890 -15.346  1.00  0.00    -0.323 N 
HETATM   11  C14 UNL     1     -27.014   5.905 -14.336  1.00  0.00     0.224 C 
HETATM   12  O4  UNL     1     -27.939   5.165 -13.868  1.00  0.00    -0.273 OA
HETATM   13  C23 UNL     1     -28.681   6.743 -15.701  1.00  0.00     0.100 C 
HETATM   14  C24 UNL     1     -26.276   8.079 -17.022  1.00  0.00    -0.017 C 
HETATM   15  C25 UNL     1     -24.788   7.912 -17.370  1.00  0.00     0.018 C 
HETATM   16  C26 UNL     1     -26.804   7.254 -18.081  1.00  0.00     0.018 C 
HETATM   17  C27 UNL     1     -25.660   9.977 -16.199  1.00  0.00    -0.008 C 
HETATM   18  C28 UNL     1     -25.483  11.192 -15.338  1.00  0.00     0.018 C 
ENDROOT
BRANCH  11  19
HETATM   19  C15 UNL     1     -25.669   5.657 -13.755  1.00  0.00     0.114 C 
BRANCH  19  20
HETATM   20  C16 UNL     1     -25.169   4.254 -14.100  1.00  0.00     0.089 C 
BRANCH  20  21
HETATM   21  S1  UNL     1     -25.705   3.139 -12.774  1.00  0.00    -0.126 SA
BRANCH  21  22
HETATM   22  C17 UNL     1     -26.339   1.627 -13.441  1.00  0.00     0.039 A 
HETATM   23  C18 UNL     1     -25.503   0.723 -14.083  1.00  0.00     0.025 A 
HETATM   24  C19 UNL     1     -25.989  -0.445 -14.599  1.00  0.00     0.044 A 
HETATM   25  C20 UNL     1     -27.315  -0.755 -14.494  1.00  0.00     0.119 A 
HETATM   26  F1  UNL     1     -27.821  -1.896 -14.992  1.00  0.00    -0.206 F 
HETATM   27  C21 UNL     1     -28.159   0.135 -13.857  1.00  0.00     0.086 A 
HETATM   28  C22 UNL     1     -27.665   1.327 -13.330  1.00  0.00     0.136 A 
HETATM   29  F2  UNL     1     -28.538   2.178 -12.707  1.00  0.00    -0.205 F 
ENDBRANCH  21  22
ENDBRANCH  20  21
ENDBRANCH  19  20
ENDBRANCH  11  19
BRANCH   1  30
HETATM   30  O3  UNL     1     -30.587   7.107 -16.862  1.00  0.00    -0.287 OA
BRANCH  30  31
HETATM   31  C4  UNL     1     -30.377   6.058 -17.685  1.00  0.00     0.407 C 
HETATM   32  O2  UNL     1     -29.903   4.999 -17.189  1.00  0.00    -0.229 OA
BRANCH  31  33
HETATM   33  O1  UNL     1     -30.686   6.176 -19.032  1.00  0.00    -0.293 OA
BRANCH  33  34
HETATM   34  C2  UNL     1     -30.733   5.037 -19.856  1.00  0.00     0.126 C 
HETATM   35  C1  UNL     1     -31.981   5.006 -20.713  1.00  0.00     0.040 C 
HETATM   36  C3  UNL     1     -29.555   5.105 -20.806  1.00  0.00     0.040 C 
ENDBRANCH  33  34
ENDBRANCH  31  33
ENDBRANCH  30  31
ENDBRANCH   1  30
BRANCH  17  37
HETATM   37  C29 UNL     1     -25.128  10.487 -17.398  1.00  0.00     0.174 C 
BRANCH  37  38
HETATM   38  O5  UNL     1     -24.913  11.885 -17.513  1.00  0.00    -0.400 OA
ATOM     39  H5  UNL     1     -24.303  12.202 -18.167  1.00  0.00     0.209 HD
ENDBRANCH  37  38
ENDBRANCH  17  37
TORSDOF 10
ENDMDL
MODEL 2
REMARK VINA RESULT: -8.305721152      1.237      1.332
REMARK  10 active torsions:
REMARK  status: ('A' for Active; 'I' for Inactive)
REMARK    1  A    between atoms: C2_2  and  O1_4 
REMARK    2  A    between atoms: O1_4  and  C4_5 
REMARK    3  A    between atoms: C4_5  and  O3_7 
REMARK    4  A    between atoms: O3_7  and  C5_8 
REMARK       I    between atoms: N1_17  and  C14_18 
REMARK    5  A    between atoms: C14_18  and  C15_20 
REMARK    6  A    between atoms: C15_20  and  C16_21 
REMARK    7  A    between atoms: C16_21  and  S1_22 
REMARK    8  A    between atoms: S1_22  and  C17_23 
REMARK    9  A    between atoms: C27_35  and  C29_37 
REMARK   10  A    between atoms: C29_37  and  O5_38 
ROOT
HETATM    1  C5  UNL     1     -29.557   8.463 -16.279  1.00  0.00     0.173 C 
HETATM    2  C6  UNL     1     -29.216   9.682 -16.933  1.00  0.00     0.043 C 
HETATM    3  C7  UNL     1     -27.887  10.149 -17.475  1.00  0.00    -0.006 C 
HETATM    4  C8  UNL     1     -28.077  11.638 -17.823  1.00  0.00     0.011 C 
HETATM    5  C9  UNL     1     -26.820   9.775 -16.647  1.00  0.00    -0.018 C 
HETATM    6  C10 UNL     1     -27.313  10.149 -15.286  1.00  0.00     0.012 C 
HETATM    7  C11 UNL     1     -26.433   9.570 -14.251  1.00  0.00     0.008 C 
HETATM    8  C12 UNL     1     -25.442   9.131 -15.320  1.00  0.00     0.021 C 
HETATM    9  C13 UNL     1     -26.133   7.900 -15.818  1.00  0.00     0.105 C 
HETATM   10  N1  UNL     1     -27.368   7.305 -15.563  1.00  0.00    -0.323 N 
HETATM   11  C14 UNL     1     -27.175   6.247 -14.611  1.00  0.00     0.224 C 
HETATM   12  O4  UNL     1     -28.153   5.555 -14.180  1.00  0.00    -0.273 OA
HETATM   13  C23 UNL     1     -28.775   7.285 -15.918  1.00  0.00     0.100 C 
HETATM   14  C24 UNL     1     -26.277   8.506 -17.176  1.00  0.00    -0.017 C 
HETATM   15  C25 UNL     1     -24.806   8.246 -17.540  1.00  0.00     0.018 C 
HETATM   16  C26 UNL     1     -26.867   7.785 -18.276  1.00  0.00     0.018 C 
HETATM   17  C27 UNL     1     -25.516  10.302 -16.251  1.00  0.00    -0.008 C 
HETATM   18  C28 UNL     1     -25.246  11.450 -15.324  1.00  0.00     0.018 C 
ENDROOT
BRANCH  11  19
HETATM   19  C15 UNL     1     -25.852   5.865 -14.053  1.00  0.00     0.114 C 
BRANCH  19  20
HETATM   20  C16 UNL     1     -26.005   4.896 -12.881  1.00  0.00     0.089 C 
BRANCH  20  21
HETATM   21  S1  UNL     1     -25.393   3.277 -13.422  1.00  0.00    -0.126 SA
BRANCH  21  22
HETATM   22  C17 UNL     1     -26.236   1.970 -12.578  1.00  0.00     0.039 A 
HETATM   23  C18 UNL     1     -25.595   1.221 -11.600  1.00  0.00     0.025 A 
HETATM   24  C19 UNL     1     -26.242   0.211 -10.947  1.00  0.00     0.044 A 
HETATM   25  C20 UNL     1     -27.543  -0.089 -11.239  1.00  0.00     0.119 A 
HETATM   26  F1  UNL     1     -28.205  -1.076 -10.614  1.00  0.00    -0.206 F 
HETATM   27  C21 UNL     1     -28.193   0.649 -12.211  1.00  0.00     0.086 A 
HETATM   28  C22 UNL     1     -27.534   1.680 -12.879  1.00  0.00     0.136 A 
HETATM   29  F2  UNL     1     -28.219   2.384 -13.833  1.00  0.00    -0.205 F 
ENDBRANCH  21  22
ENDBRANCH  20  21
ENDBRANCH  19  20
ENDBRANCH  11  19
BRANCH   1  30
HETATM   30  O3  UNL     1     -30.649   7.858 -17.046  1.00  0.00    -0.287 OA
BRANCH  30  31
HETATM   31  C4  UNL     1     -30.628   6.631 -17.605  1.00  0.00     0.407 C 
HETATM   32  O2  UNL     1     -30.616   5.628 -16.838  1.00  0.00    -0.229 OA
BRANCH  31  33
HETATM   33  O1  UNL     1     -30.622   6.511 -18.987  1.00  0.00    -0.293 OA
BRANCH  33  34
HETATM   34  C2  UNL     1     -30.653   5.243 -19.594  1.00  0.00     0.126 C 
HETATM   35  C1  UNL     1     -31.790   5.115 -20.586  1.00  0.00     0.040 C 
HETATM   36  C3  UNL     1     -29.370   5.075 -20.381  1.00  0.00     0.040 C 
ENDBRANCH  33  34
ENDBRANCH  31  33
ENDBRANCH  30  31
ENDBRANCH   1  30
BRANCH  17  37
HETATM   37  C29 UNL     1     -24.948  10.837 -17.423  1.00  0.00     0.174 C 
BRANCH  37  38
HETATM   38  O5  UNL     1     -24.700  12.232 -17.489  1.00  0.00    -0.400 OA
ATOM     39  H5  UNL     1     -23.927  12.539 -17.946  1.00  0.00     0.209 HD
ENDBRANCH  37  38
ENDBRANCH  17  37
TORSDOF 10
ENDMDL
MODEL 3
REMARK VINA RESULT: -8.179873882      1.570      2.117
REMARK  10 active torsions:
REMARK  status: ('A' for Active; 'I' for Inactive)
REMARK    1  A    between atoms: C2_2  and  O1_4 
REMARK    2  A    between atoms: O1_4  and  C4_5 
REMARK    3  A    between atoms: C4_5  and  O3_7 
REMARK    4  A    between atoms: O3_7  and  C5_8 
REMARK       I    between atoms: N1_17  and  C14_18 
REMARK    5  A    between atoms: C14_18  and  C15_20 
REMARK    6  A    between atoms: C15_20  and  C16_21 
REMARK    7  A    between atoms: C16_21  and  S1_22 
REMARK    8  A    between atoms: S1_22  and  C17_23 
REMARK    9  A    between atoms: C27_35  and  C29_37 
REMARK   10  A    between atoms: C29_37  and  O5_38 
ROOT
HETATM    1  C5  UNL     1     -29.381   9.437 -15.964  1.00  0.00     0.173 C 
HETATM    2  C6  UNL     1     -28.870  10.632 -16.547  1.00  0.00     0.043 C 
HETATM    3  C7  UNL     1     -27.510  10.915 -17.137  1.00  0.00    -0.006 C 
HETATM    4  C8  UNL     1     -27.460  12.438 -17.364  1.00  0.00     0.011 C 
HETATM    5  C9  UNL     1     -26.482  10.302 -16.405  1.00  0.00    -0.018 C 
HETATM    6  C10 UNL     1     -26.837  10.641 -14.994  1.00  0.00     0.012 C 
HETATM    7  C11 UNL     1     -26.019   9.842 -14.059  1.00  0.00     0.008 C 
HETATM    8  C12 UNL     1     -25.171   9.333 -15.217  1.00  0.00     0.021 C 
HETATM    9  C13 UNL     1     -26.085   8.278 -15.758  1.00  0.00     0.105 C 
HETATM   10  N1  UNL     1     -27.389   7.878 -15.470  1.00  0.00    -0.323 N 
HETATM   11  C14 UNL     1     -27.332   6.729 -14.611  1.00  0.00     0.224 C 
HETATM   12  O4  UNL     1     -28.391   6.175 -14.171  1.00  0.00    -0.273 OA
HETATM   13  C23 UNL     1     -28.794   8.120 -15.737  1.00  0.00     0.100 C 
HETATM   14  C24 UNL     1     -26.190   9.008 -17.057  1.00  0.00    -0.017 C 
HETATM   15  C25 UNL     1     -24.804   8.539 -17.530  1.00  0.00     0.018 C 
HETATM   16  C26 UNL     1     -26.948   8.487 -18.167  1.00  0.00     0.018 C 
HETATM   17  C27 UNL     1     -25.090  10.572 -16.055  1.00  0.00    -0.008 C 
HETATM   18  C28 UNL     1     -24.583  11.580 -15.066  1.00  0.00     0.018 C 
ENDROOT
BRANCH  11  19
HETATM   19  C15 UNL     1     -26.068   6.088 -14.165  1.00  0.00     0.114 C 
BRANCH  19  20
HETATM   20  C16 UNL     1     -26.311   5.144 -12.987  1.00  0.00     0.089 C 
BRANCH  20  21
HETATM   21  S1  UNL     1     -25.573   3.542 -13.406  1.00  0.00    -0.126 SA
BRANCH  21  22
HETATM   22  C17 UNL     1     -26.486   2.216 -12.671  1.00  0.00     0.039 A 
HETATM   23  C18 UNL     1     -27.694   2.451 -12.028  1.00  0.00     0.025 A 
HETATM   24  C19 UNL     1     -28.401   1.429 -11.460  1.00  0.00     0.044 A 
HETATM   25  C20 UNL     1     -27.937   0.146 -11.511  1.00  0.00     0.119 A 
HETATM   26  F1  UNL     1     -28.611  -0.878 -10.961  1.00  0.00    -0.206 F 
HETATM   27  C21 UNL     1     -26.736  -0.103 -12.149  1.00  0.00     0.086 A 
HETATM   28  C22 UNL     1     -26.013   0.938 -12.729  1.00  0.00     0.136 A 
HETATM   29  F2  UNL     1     -24.829   0.644 -13.350  1.00  0.00    -0.205 F 
ENDBRANCH  21  22
ENDBRANCH  20  21
ENDBRANCH  19  20
ENDBRANCH  11  19
BRANCH   1  30
HETATM   30  O3  UNL     1     -30.597   9.086 -16.702  1.00  0.00    -0.287 OA
BRANCH  30  31
HETATM   31  C4  UNL     1     -30.635   8.492 -17.912  1.00  0.00     0.407 C 
HETATM   32  O2  UNL     1     -30.389   9.197 -18.929  1.00  0.00    -0.229 OA
BRANCH  31  33
HETATM   33  O1  UNL     1     -30.939   7.141 -17.999  1.00  0.00    -0.293 OA
BRANCH  33  34
HETATM   34  C2  UNL     1     -30.036   6.243 -18.597  1.00  0.00     0.126 C 
HETATM   35  C1  UNL     1     -29.477   5.250 -17.600  1.00  0.00     0.040 C 
HETATM   36  C3  UNL     1     -30.800   5.438 -19.629  1.00  0.00     0.040 C 
ENDBRANCH  33  34
ENDBRANCH  31  33
ENDBRANCH  30  31
ENDBRANCH   1  30
BRANCH  17  37
HETATM   37  C29 UNL     1     -24.497  11.098 -17.218  1.00  0.00     0.174 C 
BRANCH  37  38
HETATM   38  O5  UNL     1     -24.353  12.505 -17.337  1.00  0.00    -0.400 OA
ATOM     39  H5  UNL     1     -25.125  13.032 -17.503  1.00  0.00     0.209 HD
ENDBRANCH  37  38
ENDBRANCH  17  37
TORSDOF 10
ENDMDL
MODEL 4
REMARK VINA RESULT: -8.124012099      1.441      1.912
REMARK  10 active torsions:
REMARK  status: ('A' for Active; 'I' for Inactive)
REMARK    1  A    between atoms: C2_2  and  O1_4 
REMARK    2  A    between atoms: O1_4  and  C4_5 
REMARK    3  A    between atoms: C4_5  and  O3_7 
REMARK    4  A    between atoms: O3_7  and  C5_8 
REMARK       I    between atoms: N1_17  and  C14_18 
REMARK    5  A    between atoms: C14_18  and  C15_20 
REMARK    6  A    between atoms: C15_20  and  C16_21 
REMARK    7  A    between atoms: C16_21  and  S1_22 
REMARK    8  A    between atoms: S1_22  and  C17_23 
REMARK    9  A    between atoms: C27_35  and  C29_37 
REMARK   10  A    between atoms: C29_37  and  O5_38 
ROOT
HETATM    1  C5  UNL     1     -29.329   9.784 -15.941  1.00  0.00     0.173 C 
HETATM    2  C6  UNL     1     -28.862  10.874 -16.730  1.00  0.00     0.043 C 
HETATM    3  C7  UNL     1     -27.512  11.095 -17.369  1.00  0.00    -0.006 C 
HETATM    4  C8  UNL     1     -27.518  12.555 -17.863  1.00  0.00     0.011 C 
HETATM    5  C9  UNL     1     -26.463  10.659 -16.547  1.00  0.00    -0.018 C 
HETATM    6  C10 UNL     1     -26.830  11.230 -15.216  1.00  0.00     0.012 C 
HETATM    7  C11 UNL     1     -25.983  10.638 -14.160  1.00  0.00     0.008 C 
HETATM    8  C12 UNL     1     -25.118   9.962 -15.214  1.00  0.00     0.021 C 
HETATM    9  C13 UNL     1     -25.993   8.797 -15.554  1.00  0.00     0.105 C 
HETATM   10  N1  UNL     1     -27.282   8.408 -15.191  1.00  0.00    -0.323 N 
HETATM   11  C14 UNL     1     -27.184   7.432 -14.143  1.00  0.00     0.224 C 
HETATM   12  O4  UNL     1     -28.223   6.929 -13.605  1.00  0.00    -0.273 OA
HETATM   13  C23 UNL     1     -28.696   8.550 -15.488  1.00  0.00     0.100 C 
HETATM   14  C24 UNL     1     -26.125   9.281 -16.961  1.00  0.00    -0.017 C 
HETATM   15  C25 UNL     1     -24.724   8.784 -17.353  1.00  0.00     0.018 C 
HETATM   16  C26 UNL     1     -26.864   8.544 -17.957  1.00  0.00     0.018 C 
HETATM   17  C27 UNL     1     -25.082  11.035 -16.259  1.00  0.00    -0.008 C 
HETATM   18  C28 UNL     1     -24.611  12.219 -15.468  1.00  0.00     0.018 C 
ENDROOT
BRANCH  11  19
HETATM   19  C15 UNL     1     -25.898   6.925 -13.598  1.00  0.00     0.114 C 
BRANCH  19  20
HETATM   20  C16 UNL     1     -25.742   5.426 -13.852  1.00  0.00     0.089 C 
BRANCH  20  21
HETATM   21  S1  UNL     1     -26.919   4.563 -12.776  1.00  0.00    -0.126 SA
BRANCH  21  22
HETATM   22  C17 UNL     1     -26.656   2.814 -12.828  1.00  0.00     0.039 A 
HETATM   23  C18 UNL     1     -25.430   2.287 -13.214  1.00  0.00     0.025 A 
HETATM   24  C19 UNL     1     -25.223   0.937 -13.257  1.00  0.00     0.044 A 
HETATM   25  C20 UNL     1     -26.220   0.068 -12.917  1.00  0.00     0.119 A 
HETATM   26  F1  UNL     1     -26.045  -1.264 -12.949  1.00  0.00    -0.206 F 
HETATM   27  C21 UNL     1     -27.445   0.578 -12.530  1.00  0.00     0.086 A 
HETATM   28  C22 UNL     1     -27.658   1.955 -12.487  1.00  0.00     0.136 A 
HETATM   29  F2  UNL     1     -28.887   2.414 -12.097  1.00  0.00    -0.205 F 
ENDBRANCH  21  22
ENDBRANCH  20  21
ENDBRANCH  19  20
ENDBRANCH  11  19
BRANCH   1  30
HETATM   30  O3  UNL     1     -30.532   9.265 -16.597  1.00  0.00    -0.287 OA
BRANCH  30  31
HETATM   31  C4  UNL     1     -30.557   8.575 -17.756  1.00  0.00     0.407 C 
HETATM   32  O2  UNL     1     -30.339   9.205 -18.828  1.00  0.00    -0.229 OA
BRANCH  31  33
HETATM   33  O1  UNL     1     -30.817   7.213 -17.733  1.00  0.00    -0.293 OA
BRANCH  33  34
HETATM   34  C2  UNL     1     -29.844   6.293 -18.164  1.00  0.00     0.126 C 
HETATM   35  C1  UNL     1     -29.436   5.337 -17.063  1.00  0.00     0.040 C 
HETATM   36  C3  UNL     1     -30.459   5.451 -19.264  1.00  0.00     0.040 C 
ENDBRANCH  33  34
ENDBRANCH  31  33
ENDBRANCH  30  31
ENDBRANCH   1  30
BRANCH  17  37
HETATM   37  C29 UNL     1     -24.508  11.367 -17.502  1.00  0.00     0.174 C 
BRANCH  37  38
HETATM   38  O5  UNL     1     -24.290  12.735 -17.811  1.00  0.00    -0.400 OA
ATOM     39  H5  UNL     1     -23.544  13.178 -17.425  1.00  0.00     0.209 HD
ENDBRANCH  37  38
ENDBRANCH  17  37
TORSDOF 10
ENDMDL
MODEL 5
REMARK VINA RESULT: -8.080785422      4.094      8.000
REMARK  10 active torsions:
REMARK  status: ('A' for Active; 'I' for Inactive)
REMARK    1  A    between atoms: C2_2  and  O1_4 
REMARK    2  A    between atoms: O1_4  and  C4_5 
REMARK    3  A    between atoms: C4_5  and  O3_7 
REMARK    4  A    between atoms: O3_7  and  C5_8 
REMARK       I    between atoms: N1_17  and  C14_18 
REMARK    5  A    between atoms: C14_18  and  C15_20 
REMARK    6  A    between atoms: C15_20  and  C16_21 
REMARK    7  A    between atoms: C16_21  and  S1_22 
REMARK    8  A    between atoms: S1_22  and  C17_23 
REMARK    9  A    between atoms: C27_35  and  C29_37 
REMARK   10  A    between atoms: C29_37  and  O5_38 
ROOT
HETATM    1  C5  UNL     1     -28.350   7.409 -13.962  1.00  0.00     0.173 C 
HETATM    2  C6  UNL     1     -28.831   6.157 -14.441  1.00  0.00     0.043 C 
HETATM    3  C7  UNL     1     -28.771   5.565 -15.829  1.00  0.00    -0.006 C 
HETATM    4  C8  UNL     1     -29.679   4.322 -15.793  1.00  0.00     0.011 C 
HETATM    5  C9  UNL     1     -28.981   6.532 -16.822  1.00  0.00    -0.018 C 
HETATM    6  C10 UNL     1     -30.173   7.274 -16.312  1.00  0.00     0.012 C 
HETATM    7  C11 UNL     1     -30.371   8.514 -17.091  1.00  0.00     0.008 C 
HETATM    8  C12 UNL     1     -29.297   8.079 -18.079  1.00  0.00     0.021 C 
HETATM    9  C13 UNL     1     -28.072   8.436 -17.297  1.00  0.00     0.105 C 
HETATM   10  N1  UNL     1     -27.844   8.901 -16.002  1.00  0.00    -0.323 N 
HETATM   11  C14 UNL     1     -27.655  10.323 -16.057  1.00  0.00     0.224 C 
HETATM   12  O4  UNL     1     -27.456  11.008 -15.002  1.00  0.00    -0.273 OA
HETATM   13  C23 UNL     1     -27.660   8.517 -14.615  1.00  0.00     0.100 C 
HETATM   14  C24 UNL     1     -27.651   7.003 -17.265  1.00  0.00    -0.017 C 
HETATM   15  C25 UNL     1     -27.151   7.030 -18.719  1.00  0.00     0.018 C 
HETATM   16  C26 UNL     1     -26.414   6.583 -16.654  1.00  0.00     0.018 C 
HETATM   17  C27 UNL     1     -29.579   6.610 -18.153  1.00  0.00    -0.008 C 
HETATM   18  C28 UNL     1     -31.040   6.594 -18.492  1.00  0.00     0.018 C 
ENDROOT
BRANCH  11  19
HETATM   19  C15 UNL     1     -27.671  11.115 -17.315  1.00  0.00     0.114 C 
BRANCH  19  20
HETATM   20  C16 UNL     1     -27.388  12.592 -17.043  1.00  0.00     0.089 C 
BRANCH  20  21
HETATM   21  S1  UNL     1     -25.588  12.812 -17.022  1.00  0.00    -0.126 SA
BRANCH  21  22
HETATM   22  C17 UNL     1     -24.954  12.667 -15.377  1.00  0.00     0.039 A 
HETATM   23  C18 UNL     1     -23.887  11.823 -15.095  1.00  0.00     0.025 A 
HETATM   24  C19 UNL     1     -23.395  11.708 -13.825  1.00  0.00     0.044 A 
HETATM   25  C20 UNL     1     -23.940  12.425 -12.798  1.00  0.00     0.119 A 
HETATM   26  F1  UNL     1     -23.476  12.332 -11.540  1.00  0.00    -0.206 F 
HETATM   27  C21 UNL     1     -25.002  13.269 -13.064  1.00  0.00     0.086 A 
HETATM   28  C22 UNL     1     -25.506  13.387 -14.359  1.00  0.00     0.136 A 
HETATM   29  F2  UNL     1     -26.558  14.236 -14.576  1.00  0.00    -0.205 F 
ENDBRANCH  21  22
ENDBRANCH  20  21
ENDBRANCH  19  20
ENDBRANCH  11  19
BRANCH   1  30
HETATM   30  O3  UNL     1     -27.441   7.121 -12.850  1.00  0.00    -0.287 OA
BRANCH  30  31
HETATM   31  C4  UNL     1     -26.558   6.102 -12.803  1.00  0.00     0.407 C 
HETATM   32  O2  UNL     1     -25.393   6.305 -13.244  1.00  0.00    -0.229 OA
BRANCH  31  33
HETATM   33  O1  UNL     1     -26.953   4.881 -12.277  1.00  0.00    -0.293 OA
BRANCH  33  34
HETATM   34  C2  UNL     1     -27.008   3.737 -13.094  1.00  0.00     0.126 C 
HETATM   35  C1  UNL     1     -25.775   2.871 -12.945  1.00  0.00     0.040 C 
HETATM   36  C3  UNL     1     -28.185   2.899 -12.637  1.00  0.00     0.040 C 
ENDBRANCH  33  34
ENDBRANCH  31  33
ENDBRANCH  30  31
ENDBRANCH   1  30
BRANCH  17  37
HETATM   37  C29 UNL     1     -29.194   5.429 -18.815  1.00  0.00     0.174 C 
BRANCH  37  38
HETATM   38  O5  UNL     1     -30.016   4.929 -19.857  1.00  0.00    -0.400 OA
ATOM     39  H5  UNL     1     -30.948   5.108 -19.832  1.00  0.00     0.209 HD
ENDBRANCH  37  38
ENDBRANCH  17  37
TORSDOF 10
ENDMDL
