MODEL 1
REMARK VINA RESULT: -8.130526603      0.000      0.000
REMARK  10 active torsions:
REMARK  status: ('A' for Active; 'I' for Inactive)
REMARK    1  A    between atoms: C2_2  and  O1_3 
REMARK    2  A    between atoms: C2_2  and  C20_26 
REMARK    3  A    between atoms: O1_3  and  C3_4 
REMARK    4  A    between atoms: C8_11  and  C10_13 
REMARK    5  A    between atoms: C18_22  and  O5_24 
REMARK    6  A    between atoms: C23_29  and  N1_30 
REMARK    7  A    between atoms: N1_30  and  C24_31 
REMARK    8  A    between atoms: N1_30  and  C26_34 
REMARK    9  A    between atoms: C24_31  and  C25_32 
REMARK   10  A    between atoms: C26_34  and  C27_35 
ROOT
HETATM    1  C3  UNL     1     -27.309   6.493 -15.417  1.00  0.00     0.190 C 
HETATM    2  C4  UNL     1     -27.047   7.705 -14.487  1.00  0.00     0.049 C 
HETATM    3  C5  UNL     1     -27.990   7.750 -13.357  1.00  0.00     0.015 C 
HETATM    4  C6  UNL     1     -26.920   8.942 -15.324  1.00  0.00     0.172 C 
HETATM    5  O2  UNL     1     -26.585  10.026 -14.519  1.00  0.00    -0.312 OA
HETATM    6  C7  UNL     1     -25.939  11.243 -14.808  1.00  0.00     0.268 C 
HETATM    7  O3  UNL     1     -25.426  11.740 -13.778  1.00  0.00    -0.264 OA
HETATM    8  C8  UNL     1     -25.778  11.993 -16.077  1.00  0.00     0.047 C 
HETATM    9  C9  UNL     1     -24.801  11.342 -17.032  1.00  0.00     0.026 C 
HETATM   10  C13 UNL     1     -27.128  12.208 -16.661  1.00  0.00     0.020 C 
HETATM   11  C14 UNL     1     -27.663  11.254 -17.620  1.00  0.00     0.004 C 
HETATM   12  C15 UNL     1     -27.661   9.819 -17.460  1.00  0.00     0.040 C 
HETATM   13  C16 UNL     1     -28.144   9.201 -16.182  1.00  0.00     0.088 C 
HETATM   14  C17 UNL     1     -29.113  10.143 -15.444  1.00  0.00     0.049 C 
HETATM   15  O4  UNL     1     -28.850   8.095 -16.470  1.00  0.00    -0.340 OA
HETATM   16  C18 UNL     1     -28.583   6.849 -16.121  1.00  0.00     0.185 C 
HETATM   17  C19 UNL     1     -28.575   6.054 -17.451  1.00  0.00     0.082 C 
ENDROOT
BRANCH   1  18
HETATM   18  O1  UNL     1     -27.457   5.402 -14.639  1.00  0.00    -0.370 OA
BRANCH  18  19
HETATM   19  C2  UNL     1     -26.538   5.038 -13.722  1.00  0.00     0.151 C 
HETATM   20  C1  UNL     1     -25.110   4.947 -14.269  1.00  0.00     0.045 C 
BRANCH  19  21
HETATM   21  C20 UNL     1     -26.794   3.820 -12.926  1.00  0.00    -0.030 A 
HETATM   22  C21 UNL     1     -27.975   3.613 -12.268  1.00  0.00     0.012 A 
HETATM   23  C22 UNL     1     -28.243   2.458 -11.508  1.00  0.00     0.030 A 
HETATM   24  C23 UNL     1     -27.304   1.492 -11.408  1.00  0.00     0.030 A 
HETATM   25  C28 UNL     1     -26.105   1.660 -12.052  1.00  0.00     0.030 A 
HETATM   26  C29 UNL     1     -25.849   2.801 -12.799  1.00  0.00     0.012 A 
BRANCH  24  27
HETATM   27  N1  UNL     1     -27.611   0.304 -10.624  1.00  0.00    -0.379 N 
BRANCH  27  28
HETATM   28  C24 UNL     1     -28.951   0.230 -10.146  1.00  0.00     0.138 C 
BRANCH  28  29
HETATM   29  C25 UNL     1     -29.209  -0.525  -8.895  1.00  0.00     0.134 C 
HETATM   30 CL1  UNL     1     -28.763   0.608  -7.548  1.00  0.00    -0.129 Cl
ENDBRANCH  28  29
ENDBRANCH  27  28
BRANCH  27  31
HETATM   31  C26 UNL     1     -26.546  -0.615 -10.432  1.00  0.00     0.138 C 
BRANCH  31  32
HETATM   32  C27 UNL     1     -25.916  -0.671  -9.084  1.00  0.00     0.134 C 
HETATM   33 CL2  UNL     1     -24.637   0.597  -9.051  1.00  0.00    -0.129 Cl
ENDBRANCH  31  32
ENDBRANCH  27  31
ENDBRANCH  24  27
ENDBRANCH  19  21
ENDBRANCH  18  19
ENDBRANCH   1  18
BRANCH  16  34
HETATM   34  O5  UNL     1     -29.608   6.211 -15.393  1.00  0.00    -0.363 OA
ATOM     35  H5  UNL     1     -30.310   6.848 -15.331  1.00  0.00     0.213 HD
ENDBRANCH  16  34
BRANCH   8  36
HETATM   36  C10 UNL     1     -25.160  13.344 -15.727  1.00  0.00    -0.005 C 
HETATM   37  C11 UNL     1     -26.094  14.267 -15.025  1.00  0.00     0.011 C 
HETATM   38  C12 UNL     1     -24.551  14.037 -16.909  1.00  0.00     0.011 C 
ENDBRANCH   8  36
TORSDOF 10
ENDMDL
MODEL 2
REMARK VINA RESULT: -8.110859101      0.028      1.409
REMARK  10 active torsions:
REMARK  status: ('A' for Active; 'I' for Inactive)
REMARK    1  A    between atoms: C2_2  and  O1_3 
REMARK    2  A    between atoms: C2_2  and  C20_26 
REMARK    3  A    between atoms: O1_3  and  C3_4 
REMARK    4  A    between atoms: C8_11  and  C10_13 
REMARK    5  A    between atoms: C18_22  and  O5_24 
REMARK    6  A    between atoms: C23_29  and  N1_30 
REMARK    7  A    between atoms: N1_30  and  C24_31 
REMARK    8  A    between atoms: N1_30  and  C26_34 
REMARK    9  A    between atoms: C24_31  and  C25_32 
REMARK   10  A    between atoms: C26_34  and  C27_35 
ROOT
HETATM    1  C3  UNL     1     -27.313   6.488 -15.410  1.00  0.00     0.190 C 
HETATM    2  C4  UNL     1     -27.044   7.701 -14.484  1.00  0.00     0.049 C 
HETATM    3  C5  UNL     1     -27.985   7.755 -13.353  1.00  0.00     0.015 C 
HETATM    4  C6  UNL     1     -26.910   8.935 -15.325  1.00  0.00     0.172 C 
HETATM    5  O2  UNL     1     -26.569  10.020 -14.523  1.00  0.00    -0.312 OA
HETATM    6  C7  UNL     1     -25.917  11.232 -14.817  1.00  0.00     0.268 C 
HETATM    7  O3  UNL     1     -25.400  11.730 -13.789  1.00  0.00    -0.264 OA
HETATM    8  C8  UNL     1     -25.752  11.977 -16.088  1.00  0.00     0.047 C 
HETATM    9  C9  UNL     1     -24.780  11.317 -17.041  1.00  0.00     0.026 C 
HETATM   10  C13 UNL     1     -27.101  12.197 -16.672  1.00  0.00     0.020 C 
HETATM   11  C14 UNL     1     -27.643  11.243 -17.628  1.00  0.00     0.004 C 
HETATM   12  C15 UNL     1     -27.648   9.809 -17.463  1.00  0.00     0.040 C 
HETATM   13  C16 UNL     1     -28.134   9.197 -16.183  1.00  0.00     0.088 C 
HETATM   14  C17 UNL     1     -29.097  10.147 -15.448  1.00  0.00     0.049 C 
HETATM   15  O4  UNL     1     -28.846   8.094 -16.466  1.00  0.00    -0.340 OA
HETATM   16  C18 UNL     1     -28.585   6.848 -16.114  1.00  0.00     0.185 C 
HETATM   17  C19 UNL     1     -28.582   6.049 -17.442  1.00  0.00     0.082 C 
ENDROOT
BRANCH   1  18
HETATM   18  O1  UNL     1     -27.466   5.400 -14.628  1.00  0.00    -0.370 OA
BRANCH  18  19
HETATM   19  C2  UNL     1     -26.548   5.034 -13.711  1.00  0.00     0.151 C 
HETATM   20  C1  UNL     1     -25.120   4.946 -14.256  1.00  0.00     0.045 C 
BRANCH  19  21
HETATM   21  C20 UNL     1     -26.804   3.812 -12.920  1.00  0.00    -0.030 A 
HETATM   22  C21 UNL     1     -27.984   3.604 -12.261  1.00  0.00     0.012 A 
HETATM   23  C22 UNL     1     -28.252   2.445 -11.505  1.00  0.00     0.030 A 
HETATM   24  C23 UNL     1     -27.314   1.478 -11.411  1.00  0.00     0.030 A 
HETATM   25  C28 UNL     1     -26.116   1.647 -12.057  1.00  0.00     0.030 A 
HETATM   26  C29 UNL     1     -25.860   2.791 -12.800  1.00  0.00     0.012 A 
BRANCH  24  27
HETATM   27  N1  UNL     1     -27.621   0.286 -10.633  1.00  0.00    -0.379 N 
BRANCH  27  28
HETATM   28  C24 UNL     1     -26.531  -0.615 -10.463  1.00  0.00     0.138 C 
BRANCH  28  29
HETATM   29  C25 UNL     1     -25.910  -0.720  -9.119  1.00  0.00     0.134 C 
HETATM   30 CL1  UNL     1     -24.640   0.577  -9.072  1.00  0.00    -0.129 Cl
ENDBRANCH  28  29
ENDBRANCH  27  28
BRANCH  27  31
HETATM   31  C26 UNL     1     -28.953   0.172 -10.157  1.00  0.00     0.138 C 
BRANCH  31  32
HETATM   32  C27 UNL     1     -29.169  -0.556  -8.876  1.00  0.00     0.134 C 
HETATM   33 CL2  UNL     1     -28.768   0.593  -7.547  1.00  0.00    -0.129 Cl
ENDBRANCH  31  32
ENDBRANCH  27  31
ENDBRANCH  24  27
ENDBRANCH  19  21
ENDBRANCH  18  19
ENDBRANCH   1  18
BRANCH  16  34
HETATM   34  O5  UNL     1     -29.613   6.218 -15.383  1.00  0.00    -0.363 OA
ATOM     35  H5  UNL     1     -29.613   6.637 -14.531  1.00  0.00     0.213 HD
ENDBRANCH  16  34
BRANCH   8  36
HETATM   36  C10 UNL     1     -25.127  13.325 -15.743  1.00  0.00    -0.005 C 
HETATM   37  C11 UNL     1     -26.057  14.258 -15.049  1.00  0.00     0.011 C 
HETATM   38  C12 UNL     1     -24.509  14.008 -16.926  1.00  0.00     0.011 C 
ENDBRANCH   8  36
TORSDOF 10
ENDMDL
MODEL 3
REMARK VINA RESULT: -8.088317371      1.474      1.749
REMARK  10 active torsions:
REMARK  status: ('A' for Active; 'I' for Inactive)
REMARK    1  A    between atoms: C2_2  and  O1_3 
REMARK    2  A    between atoms: C2_2  and  C20_26 
REMARK    3  A    between atoms: O1_3  and  C3_4 
REMARK    4  A    between atoms: C8_11  and  C10_13 
REMARK    5  A    between atoms: C18_22  and  O5_24 
REMARK    6  A    between atoms: C23_29  and  N1_30 
REMARK    7  A    between atoms: N1_30  and  C24_31 
REMARK    8  A    between atoms: N1_30  and  C26_34 
REMARK    9  A    between atoms: C24_31  and  C25_32 
REMARK   10  A    between atoms: C26_34  and  C27_35 
ROOT
HETATM    1  C3  UNL     1     -27.495   6.675 -15.434  1.00  0.00     0.190 C 
HETATM    2  C4  UNL     1     -27.331   7.919 -14.525  1.00  0.00     0.049 C 
HETATM    3  C5  UNL     1     -28.394   8.008 -13.510  1.00  0.00     0.015 C 
HETATM    4  C6  UNL     1     -27.103   9.125 -15.387  1.00  0.00     0.172 C 
HETATM    5  O2  UNL     1     -26.853  10.237 -14.588  1.00  0.00    -0.312 OA
HETATM    6  C7  UNL     1     -26.171  11.440 -14.847  1.00  0.00     0.268 C 
HETATM    7  O3  UNL     1     -25.773  11.974 -13.785  1.00  0.00    -0.264 OA
HETATM    8  C8  UNL     1     -25.865  12.144 -16.116  1.00  0.00     0.047 C 
HETATM    9  C9  UNL     1     -24.791  11.456 -16.931  1.00  0.00     0.026 C 
HETATM   10  C13 UNL     1     -27.139  12.340 -16.855  1.00  0.00     0.020 C 
HETATM   11  C14 UNL     1     -27.570  11.353 -17.833  1.00  0.00     0.004 C 
HETATM   12  C15 UNL     1     -27.595   9.925 -17.622  1.00  0.00     0.040 C 
HETATM   13  C16 UNL     1     -28.222   9.355 -16.385  1.00  0.00     0.088 C 
HETATM   14  C17 UNL     1     -29.261  10.326 -15.795  1.00  0.00     0.049 C 
HETATM   15  O4  UNL     1     -28.898   8.240 -16.710  1.00  0.00    -0.340 OA
HETATM   16  C18 UNL     1     -28.680   7.007 -16.289  1.00  0.00     0.185 C 
HETATM   17  C19 UNL     1     -28.528   6.165 -17.580  1.00  0.00     0.082 C 
ENDROOT
BRANCH   1  18
HETATM   18  O1  UNL     1     -27.736   5.613 -14.638  1.00  0.00    -0.370 OA
BRANCH  18  19
HETATM   19  C2  UNL     1     -26.914   5.266 -13.628  1.00  0.00     0.151 C 
HETATM   20  C1  UNL     1     -25.467   5.735 -13.809  1.00  0.00     0.045 C 
BRANCH  19  21
HETATM   21  C20 UNL     1     -26.880   3.848 -13.216  1.00  0.00    -0.030 A 
HETATM   22  C21 UNL     1     -28.014   3.152 -12.900  1.00  0.00     0.012 A 
HETATM   23  C22 UNL     1     -28.005   1.798 -12.509  1.00  0.00     0.030 A 
HETATM   24  C23 UNL     1     -26.833   1.132 -12.435  1.00  0.00     0.030 A 
HETATM   25  C28 UNL     1     -25.672   1.793 -12.744  1.00  0.00     0.030 A 
HETATM   26  C29 UNL     1     -25.688   3.126 -13.129  1.00  0.00     0.012 A 
BRANCH  24  27
HETATM   27  N1  UNL     1     -26.854  -0.269 -12.040  1.00  0.00    -0.379 N 
BRANCH  27  28
HETATM   28  C24 UNL     1     -26.418  -1.182 -13.043  1.00  0.00     0.138 C 
BRANCH  28  29
HETATM   29  C25 UNL     1     -26.988  -1.050 -14.407  1.00  0.00     0.134 C 
HETATM   30 CL1  UNL     1     -28.771  -1.331 -14.213  1.00  0.00    -0.129 Cl
ENDBRANCH  28  29
ENDBRANCH  27  28
BRANCH  27  31
HETATM   31  C26 UNL     1     -27.309  -0.544 -10.723  1.00  0.00     0.138 C 
BRANCH  31  32
HETATM   32  C27 UNL     1     -26.311  -1.041  -9.737  1.00  0.00     0.134 C 
HETATM   33 CL2  UNL     1     -25.284   0.366  -9.276  1.00  0.00    -0.129 Cl
ENDBRANCH  31  32
ENDBRANCH  27  31
ENDBRANCH  24  27
ENDBRANCH  19  21
ENDBRANCH  18  19
ENDBRANCH   1  18
BRANCH  16  34
HETATM   34  O5  UNL     1     -29.784   6.399 -15.658  1.00  0.00    -0.363 OA
ATOM     35  H5  UNL     1     -30.234   7.100 -15.201  1.00  0.00     0.213 HD
ENDBRANCH  16  34
BRANCH   8  36
HETATM   36  C10 UNL     1     -25.281  13.504 -15.748  1.00  0.00    -0.005 C 
HETATM   37  C11 UNL     1     -26.303  14.499 -15.318  1.00  0.00     0.011 C 
HETATM   38  C12 UNL     1     -24.424  14.090 -16.830  1.00  0.00     0.011 C 
ENDBRANCH   8  36
TORSDOF 10
ENDMDL
MODEL 4
REMARK VINA RESULT: -8.079516355      1.473      1.820
REMARK  10 active torsions:
REMARK  status: ('A' for Active; 'I' for Inactive)
REMARK    1  A    between atoms: C2_2  and  O1_3 
REMARK    2  A    between atoms: C2_2  and  C20_26 
REMARK    3  A    between atoms: O1_3  and  C3_4 
REMARK    4  A    between atoms: C8_11  and  C10_13 
REMARK    5  A    between atoms: C18_22  and  O5_24 
REMARK    6  A    between atoms: C23_29  and  N1_30 
REMARK    7  A    between atoms: N1_30  and  C24_31 
REMARK    8  A    between atoms: N1_30  and  C26_34 
REMARK    9  A    between atoms: C24_31  and  C25_32 
REMARK   10  A    between atoms: C26_34  and  C27_35 
ROOT
HETATM    1  C3  UNL     1     -27.486   6.688 -15.419  1.00  0.00     0.190 C 
HETATM    2  C4  UNL     1     -27.323   7.932 -14.510  1.00  0.00     0.049 C 
HETATM    3  C5  UNL     1     -28.377   8.011 -13.484  1.00  0.00     0.015 C 
HETATM    4  C6  UNL     1     -27.113   9.141 -15.372  1.00  0.00     0.172 C 
HETATM    5  O2  UNL     1     -26.865  10.254 -14.574  1.00  0.00    -0.312 OA
HETATM    6  C7  UNL     1     -26.195  11.463 -14.837  1.00  0.00     0.268 C 
HETATM    7  O3  UNL     1     -25.791  11.998 -13.778  1.00  0.00    -0.264 OA
HETATM    8  C8  UNL     1     -25.906  12.171 -16.109  1.00  0.00     0.047 C 
HETATM    9  C9  UNL     1     -24.836  11.493 -16.935  1.00  0.00     0.026 C 
HETATM   10  C13 UNL     1     -27.189  12.358 -16.835  1.00  0.00     0.020 C 
HETATM   11  C14 UNL     1     -27.622  11.369 -17.810  1.00  0.00     0.004 C 
HETATM   12  C15 UNL     1     -27.633   9.941 -17.601  1.00  0.00     0.040 C 
HETATM   13  C16 UNL     1     -28.244   9.363 -16.359  1.00  0.00     0.088 C 
HETATM   14  C17 UNL     1     -29.285  10.325 -15.757  1.00  0.00     0.049 C 
HETATM   15  O4  UNL     1     -28.914   8.244 -16.679  1.00  0.00    -0.340 OA
HETATM   16  C18 UNL     1     -28.682   7.012 -16.262  1.00  0.00     0.185 C 
HETATM   17  C19 UNL     1     -28.536   6.173 -17.556  1.00  0.00     0.082 C 
ENDROOT
BRANCH   1  18
HETATM   18  O1  UNL     1     -27.711   5.623 -14.623  1.00  0.00    -0.370 OA
BRANCH  18  19
HETATM   19  C2  UNL     1     -26.862   5.265 -13.639  1.00  0.00     0.151 C 
HETATM   20  C1  UNL     1     -25.414   5.707 -13.870  1.00  0.00     0.045 C 
BRANCH  19  21
HETATM   21  C20 UNL     1     -26.840   3.848 -13.221  1.00  0.00    -0.030 A 
HETATM   22  C21 UNL     1     -27.980   3.164 -12.901  1.00  0.00     0.012 A 
HETATM   23  C22 UNL     1     -27.983   1.811 -12.505  1.00  0.00     0.030 A 
HETATM   24  C23 UNL     1     -26.816   1.135 -12.431  1.00  0.00     0.030 A 
HETATM   25  C28 UNL     1     -25.650   1.784 -12.743  1.00  0.00     0.030 A 
HETATM   26  C29 UNL     1     -25.655   3.116 -13.133  1.00  0.00     0.012 A 
BRANCH  24  27
HETATM   27  N1  UNL     1     -26.849  -0.264 -12.029  1.00  0.00    -0.379 N 
BRANCH  27  28
HETATM   28  C24 UNL     1     -27.283  -0.494 -10.692  1.00  0.00     0.138 C 
BRANCH  28  29
HETATM   29  C25 UNL     1     -26.318  -1.091  -9.735  1.00  0.00     0.134 C 
HETATM   30 CL1  UNL     1     -25.257   0.283  -9.201  1.00  0.00    -0.129 Cl
ENDBRANCH  28  29
ENDBRANCH  27  28
BRANCH  27  31
HETATM   31  C26 UNL     1     -26.441  -1.209 -13.008  1.00  0.00     0.138 C 
BRANCH  31  32
HETATM   32  C27 UNL     1     -27.019  -1.083 -14.373  1.00  0.00     0.134 C 
HETATM   33 CL2  UNL     1     -28.800  -1.300 -14.210  1.00  0.00    -0.129 Cl
ENDBRANCH  31  32
ENDBRANCH  27  31
ENDBRANCH  24  27
ENDBRANCH  19  21
ENDBRANCH  18  19
ENDBRANCH   1  18
BRANCH  16  34
HETATM   34  O5  UNL     1     -29.774   6.394 -15.621  1.00  0.00    -0.363 OA
ATOM     35  H5  UNL     1     -29.994   5.643 -16.160  1.00  0.00     0.213 HD
ENDBRANCH  16  34
BRANCH   8  36
HETATM   36  C10 UNL     1     -25.330  13.536 -15.744  1.00  0.00    -0.005 C 
HETATM   37  C11 UNL     1     -26.360  14.534 -15.342  1.00  0.00     0.011 C 
HETATM   38  C12 UNL     1     -24.455  14.111 -16.816  1.00  0.00     0.011 C 
ENDBRANCH   8  36
TORSDOF 10
ENDMDL
MODEL 5
REMARK VINA RESULT: -7.480468071      5.328     12.856
REMARK  10 active torsions:
REMARK  status: ('A' for Active; 'I' for Inactive)
REMARK    1  A    between atoms: C2_2  and  O1_3 
REMARK    2  A    between atoms: C2_2  and  C20_26 
REMARK    3  A    between atoms: O1_3  and  C3_4 
REMARK    4  A    between atoms: C8_11  and  C10_13 
REMARK    5  A    between atoms: C18_22  and  O5_24 
REMARK    6  A    between atoms: C23_29  and  N1_30 
REMARK    7  A    between atoms: N1_30  and  C24_31 
REMARK    8  A    between atoms: N1_30  and  C26_34 
REMARK    9  A    between atoms: C24_31  and  C25_32 
REMARK   10  A    between atoms: C26_34  and  C27_35 
ROOT
HETATM    1  C3  UNL     1     -26.465  -0.614 -10.566  1.00  0.00     0.190 C 
HETATM    2  C4  UNL     1     -27.075  -1.862  -9.878  1.00  0.00     0.049 C 
HETATM    3  C5  UNL     1     -28.332  -1.550  -9.179  1.00  0.00     0.015 C 
HETATM    4  C6  UNL     1     -26.004  -2.554  -9.089  1.00  0.00     0.172 C 
HETATM    5  O2  UNL     1     -26.505  -3.732  -8.543  1.00  0.00    -0.312 OA
HETATM    6  C7  UNL     1     -25.868  -4.916  -8.128  1.00  0.00     0.268 C 
HETATM    7  O3  UNL     1     -26.665  -5.884  -8.125  1.00  0.00    -0.264 OA
HETATM    8  C8  UNL     1     -24.470  -5.187  -7.713  1.00  0.00     0.047 C 
HETATM    9  C9  UNL     1     -23.492  -5.162  -8.867  1.00  0.00     0.026 C 
HETATM   10  C13 UNL     1     -24.122  -4.243  -6.619  1.00  0.00     0.020 C 
HETATM   11  C14 UNL     1     -23.486  -2.972  -6.931  1.00  0.00     0.004 C 
HETATM   12  C15 UNL     1     -23.919  -2.053  -7.957  1.00  0.00     0.040 C 
HETATM   13  C16 UNL     1     -25.360  -1.651  -8.053  1.00  0.00     0.088 C 
HETATM   14  C17 UNL     1     -26.071  -1.818  -6.697  1.00  0.00     0.049 C 
HETATM   15  O4  UNL     1     -25.433  -0.343  -8.351  1.00  0.00    -0.340 OA
HETATM   16  C18 UNL     1     -25.960   0.215  -9.426  1.00  0.00     0.185 C 
HETATM   17  C19 UNL     1     -24.833   1.105 -10.007  1.00  0.00     0.082 C 
ENDROOT
BRANCH   1  18
HETATM   18  O1  UNL     1     -27.454   0.010 -11.238  1.00  0.00    -0.370 OA
BRANCH  18  19
HETATM   19  C2  UNL     1     -27.344   0.346 -12.538  1.00  0.00     0.151 C 
HETATM   20  C1  UNL     1     -26.114  -0.243 -13.235  1.00  0.00     0.045 C 
BRANCH  19  21
HETATM   21  C20 UNL     1     -27.421   1.778 -12.895  1.00  0.00    -0.030 A 
HETATM   22  C21 UNL     1     -28.585   2.366 -13.308  1.00  0.00     0.012 A 
HETATM   23  C22 UNL     1     -28.682   3.730 -13.648  1.00  0.00     0.030 A 
HETATM   24  C23 UNL     1     -27.588   4.517 -13.571  1.00  0.00     0.030 A 
HETATM   25  C28 UNL     1     -26.400   3.967 -13.162  1.00  0.00     0.030 A 
HETATM   26  C29 UNL     1     -26.312   2.623 -12.828  1.00  0.00     0.012 A 
BRANCH  24  27
HETATM   27  N1  UNL     1     -27.719   5.925 -13.918  1.00  0.00    -0.379 N 
BRANCH  27  28
HETATM   28  C24 UNL     1     -28.928   6.267 -14.589  1.00  0.00     0.138 C 
BRANCH  28  29
HETATM   29  C25 UNL     1     -28.883   6.458 -16.060  1.00  0.00     0.134 C 
HETATM   30 CL1  UNL     1     -29.648   8.078 -16.359  1.00  0.00    -0.129 Cl
ENDBRANCH  28  29
ENDBRANCH  27  28
BRANCH  27  31
HETATM   31  C26 UNL     1     -26.634   6.766 -13.555  1.00  0.00     0.138 C 
BRANCH  31  32
HETATM   32  C27 UNL     1     -25.884   7.438 -14.651  1.00  0.00     0.134 C 
HETATM   33 CL2  UNL     1     -26.531   9.115 -14.777  1.00  0.00    -0.129 Cl
ENDBRANCH  31  32
ENDBRANCH  27  31
ENDBRANCH  24  27
ENDBRANCH  19  21
ENDBRANCH  18  19
ENDBRANCH   1  18
BRANCH  16  34
HETATM   34  O5  UNL     1     -26.979   1.152  -9.160  1.00  0.00    -0.363 OA
ATOM     35  H5  UNL     1     -27.183   1.551  -9.997  1.00  0.00     0.213 HD
ENDBRANCH  16  34
BRANCH   8  36
HETATM   36  C10 UNL     1     -24.427  -6.615  -7.178  1.00  0.00    -0.005 C 
HETATM   37  C11 UNL     1     -23.505  -6.795  -6.022  1.00  0.00     0.011 C 
HETATM   38  C12 UNL     1     -24.121  -7.631  -8.237  1.00  0.00     0.011 C 
ENDBRANCH   8  36
TORSDOF 10
ENDMDL
