MODEL 1
REMARK VINA RESULT: -9.915776466      0.000      0.000
REMARK  7 active torsions:
REMARK  status: ('A' for Active; 'I' for Inactive)
REMARK    1  A    between atoms: C2_2  and  C4_4 
REMARK    2  A    between atoms: C2_2  and  C5_7 
REMARK    3  A    between atoms: C7_12  and  O3_13 
REMARK    4  A    between atoms: O3_13  and  C8_14 
REMARK    5  A    between atoms: C8_14  and  C9_15 
REMARK    6  A    between atoms: C12_19  and  C13_20 
REMARK    7  A    between atoms: N3_23  and  C16_24 
ROOT
HETATM    1  C5  UNL     1     -29.314   6.775 -15.906  1.00  0.00    -0.009 A 
HETATM    2  C6  UNL     1     -29.517   5.587 -15.190  1.00  0.00     0.126 A 
HETATM    3  N1  UNL     1     -28.397   5.360 -14.432  1.00  0.00    -0.261 N 
HETATM    4  N2  UNL     1     -28.107   4.235 -13.783  1.00  0.00    -0.271 N 
ATOM      5  H2  UNL     1     -28.839   3.539 -13.638  1.00  0.00     0.189 HD
HETATM    6  C7  UNL     1     -26.884   3.997 -13.319  1.00  0.00     0.201 A 
HETATM    7  C22 UNL     1     -25.928   5.040 -13.603  1.00  0.00     0.209 A 
HETATM    8  F1  UNL     1     -24.612   4.797 -13.234  1.00  0.00    -0.198 F 
HETATM    9  C23 UNL     1     -26.216   6.172 -14.228  1.00  0.00     0.188 A 
HETATM   10  F2  UNL     1     -25.295   7.113 -14.512  1.00  0.00    -0.200 F 
HETATM   11  C24 UNL     1     -27.561   6.345 -14.658  1.00  0.00     0.108 A 
HETATM   12  C25 UNL     1     -28.072   7.276 -15.534  1.00  0.00     0.007 A 
HETATM   13  C26 UNL     1     -27.583   8.587 -15.834  1.00  0.00    -0.067 C 
HETATM   14  C27 UNL     1     -28.278   9.659 -14.927  1.00  0.00     0.035 C 
HETATM   15  C28 UNL     1     -28.059  10.860 -15.768  1.00  0.00     0.005 C 
HETATM   16  C29 UNL     1     -26.671  10.584 -16.362  1.00  0.00     0.005 C 
HETATM   17  C30 UNL     1     -27.006   9.169 -16.979  1.00  0.00     0.035 C 
ENDROOT
BRANCH   6  18
HETATM   18  O3  UNL     1     -26.408   3.025 -12.629  1.00  0.00    -0.326 OA
BRANCH  18  19
HETATM   19  C8  UNL     1     -25.902   2.038 -11.938  1.00  0.00     0.242 C 
BRANCH  19  20
HETATM   20  C9  UNL     1     -27.161   1.456 -11.374  1.00  0.00     0.083 A 
HETATM   21  O4  UNL     1     -27.711   1.906 -10.282  1.00  0.00    -0.324 OA
HETATM   22  C10 UNL     1     -28.830   1.214 -10.056  1.00  0.00     0.143 A 
HETATM   23  C11 UNL     1     -28.987   0.294 -11.066  1.00  0.00     0.034 A 
HETATM   24  C12 UNL     1     -27.902   0.445 -11.910  1.00  0.00    -0.020 A 
BRANCH  24  25
HETATM   25  C13 UNL     1     -27.567  -0.471 -12.957  1.00  0.00     0.024 C 
HETATM   26  C14 UNL     1     -27.801   0.243 -14.280  1.00  0.00     0.029 C 
HETATM   27  C15 UNL     1     -26.331   0.441 -14.882  1.00  0.00     0.118 C 
HETATM   28  N3  UNL     1     -25.975  -0.832 -15.346  1.00  0.00    -0.406 N 
HETATM   29  C20 UNL     1     -26.330  -1.878 -14.469  1.00  0.00     0.118 C 
HETATM   30  C21 UNL     1     -26.373  -1.273 -13.049  1.00  0.00     0.029 C 
BRANCH  28  31
HETATM   31  C16 UNL     1     -25.547  -1.084 -16.628  1.00  0.00     0.104 C 
HETATM   32  C17 UNL     1     -24.582  -0.096 -17.195  1.00  0.00     0.053 C 
HETATM   33  C18 UNL     1     -23.266  -0.785 -16.847  1.00  0.00     0.169 C 
HETATM   34  O5  UNL     1     -23.510  -2.142 -16.688  1.00  0.00    -0.389 OA
HETATM   35  C19 UNL     1     -24.835  -2.395 -16.826  1.00  0.00     0.192 C 
ENDBRANCH  28  31
ENDBRANCH  24  25
ENDBRANCH  19  20
ENDBRANCH  18  19
ENDBRANCH   6  18
BRANCH   1  36
HETATM   36  C2  UNL     1     -29.994   7.112 -17.129  1.00  0.00     0.070 C 
HETATM   37  C1  UNL     1     -30.238   8.447 -17.566  1.00  0.00     0.032 C 
HETATM   38  C3  UNL     1     -31.360   6.407 -17.120  1.00  0.00     0.032 C 
BRANCH  36  39
HETATM   39  C4  UNL     1     -29.365   6.223 -18.260  1.00  0.00     0.185 C 
HETATM   40  O1  UNL     1     -28.177   6.202 -18.366  1.00  0.00    -0.647 OA
HETATM   41  O2  UNL     1     -30.288   5.522 -19.023  1.00  0.00    -0.647 OA
ENDBRANCH  36  39
ENDBRANCH   1  36
TORSDOF 7
ENDMDL
MODEL 2
REMARK VINA RESULT: -9.690336309      2.350      3.431
REMARK  7 active torsions:
REMARK  status: ('A' for Active; 'I' for Inactive)
REMARK    1  A    between atoms: C2_2  and  C4_4 
REMARK    2  A    between atoms: C2_2  and  C5_7 
REMARK    3  A    between atoms: C7_12  and  O3_13 
REMARK    4  A    between atoms: O3_13  and  C8_14 
REMARK    5  A    between atoms: C8_14  and  C9_15 
REMARK    6  A    between atoms: C12_19  and  C13_20 
REMARK    7  A    between atoms: N3_23  and  C16_24 
ROOT
HETATM    1  C5  UNL     1     -26.623   8.992 -15.628  1.00  0.00    -0.009 A 
HETATM    2  C6  UNL     1     -25.641   8.151 -15.087  1.00  0.00     0.126 A 
HETATM    3  N1  UNL     1     -26.211   6.921 -14.882  1.00  0.00    -0.261 N 
HETATM    4  N2  UNL     1     -25.678   5.917 -14.190  1.00  0.00    -0.271 N 
ATOM      5  H2  UNL     1     -24.687   5.945 -13.953  1.00  0.00     0.189 HD
HETATM    6  C7  UNL     1     -26.410   4.879 -13.800  1.00  0.00     0.201 A 
HETATM    7  C22 UNL     1     -27.802   4.959 -14.172  1.00  0.00     0.209 A 
HETATM    8  F1  UNL     1     -28.632   3.952 -13.700  1.00  0.00    -0.198 F 
HETATM    9  C23 UNL     1     -28.333   5.943 -14.882  1.00  0.00     0.188 A 
HETATM   10  F2  UNL     1     -29.643   6.011 -15.183  1.00  0.00    -0.200 F 
HETATM   11  C24 UNL     1     -27.460   6.994 -15.278  1.00  0.00     0.108 A 
HETATM   12  C25 UNL     1     -27.779   8.236 -15.781  1.00  0.00     0.007 A 
HETATM   13  C26 UNL     1     -28.936   8.630 -16.523  1.00  0.00    -0.067 C 
HETATM   14  C27 UNL     1     -28.671   8.524 -18.064  1.00  0.00     0.035 C 
HETATM   15  C28 UNL     1     -29.710   9.464 -18.549  1.00  0.00     0.005 C 
HETATM   16  C29 UNL     1     -30.856   9.211 -17.562  1.00  0.00     0.005 C 
HETATM   17  C30 UNL     1     -30.030   9.471 -16.240  1.00  0.00     0.035 C 
ENDROOT
BRANCH   6  18
HETATM   18  O3  UNL     1     -26.094   3.796 -13.186  1.00  0.00    -0.326 OA
BRANCH  18  19
HETATM   19  C8  UNL     1     -25.758   2.688 -12.580  1.00  0.00     0.242 C 
BRANCH  19  20
HETATM   20  C9  UNL     1     -27.047   2.385 -11.880  1.00  0.00     0.083 A 
HETATM   21  O4  UNL     1     -27.648   3.253 -11.118  1.00  0.00    -0.324 OA
HETATM   22  C10 UNL     1     -28.781   2.708 -10.667  1.00  0.00     0.143 A 
HETATM   23  C11 UNL     1     -28.892   1.439 -11.185  1.00  0.00     0.034 A 
HETATM   24  C12 UNL     1     -27.765   1.229 -11.960  1.00  0.00    -0.020 A 
BRANCH  24  25
HETATM   25  C13 UNL     1     -27.382  -0.044 -12.490  1.00  0.00     0.024 C 
HETATM   26  C14 UNL     1     -28.549  -0.562 -13.319  1.00  0.00     0.029 C 
HETATM   27  C15 UNL     1     -28.009  -0.512 -14.825  1.00  0.00     0.118 C 
HETATM   28  N3  UNL     1     -27.136  -1.604 -14.914  1.00  0.00    -0.406 N 
HETATM   29  C20 UNL     1     -26.303  -1.761 -13.787  1.00  0.00     0.118 C 
HETATM   30  C21 UNL     1     -26.143  -0.362 -13.153  1.00  0.00     0.029 C 
BRANCH  28  31
HETATM   31  C16 UNL     1     -27.231  -2.580 -15.878  1.00  0.00     0.104 C 
HETATM   32  C17 UNL     1     -26.865  -2.161 -17.263  1.00  0.00     0.053 C 
HETATM   33  C18 UNL     1     -25.399  -2.581 -17.285  1.00  0.00     0.169 C 
HETATM   34  O5  UNL     1     -25.212  -3.573 -16.334  1.00  0.00    -0.389 OA
HETATM   35  C19 UNL     1     -26.368  -3.792 -15.658  1.00  0.00     0.192 C 
ENDBRANCH  28  31
ENDBRANCH  24  25
ENDBRANCH  19  20
ENDBRANCH  18  19
ENDBRANCH   6  18
BRANCH   1  36
HETATM   36  C2  UNL     1     -26.598  10.429 -15.544  1.00  0.00     0.070 C 
HETATM   37  C1  UNL     1     -27.464  11.196 -14.710  1.00  0.00     0.032 C 
HETATM   38  C3  UNL     1     -26.765  10.988 -16.966  1.00  0.00     0.032 C 
BRANCH  36  39
HETATM   39  C4  UNL     1     -25.094  10.850 -15.385  1.00  0.00     0.185 C 
HETATM   40  O1  UNL     1     -24.705  11.154 -14.299  1.00  0.00    -0.647 OA
HETATM   41  O2  UNL     1     -24.355  10.804 -16.559  1.00  0.00    -0.647 OA
ENDBRANCH  36  39
ENDBRANCH   1  36
TORSDOF 7
ENDMDL
MODEL 3
REMARK VINA RESULT: -9.628332912      1.390      1.840
REMARK  7 active torsions:
REMARK  status: ('A' for Active; 'I' for Inactive)
REMARK    1  A    between atoms: C2_2  and  C4_4 
REMARK    2  A    between atoms: C2_2  and  C5_7 
REMARK    3  A    between atoms: C7_12  and  O3_13 
REMARK    4  A    between atoms: O3_13  and  C8_14 
REMARK    5  A    between atoms: C8_14  and  C9_15 
REMARK    6  A    between atoms: C12_19  and  C13_20 
REMARK    7  A    between atoms: N3_23  and  C16_24 
ROOT
HETATM    1  C5  UNL     1     -29.170   6.565 -16.007  1.00  0.00    -0.009 A 
HETATM    2  C6  UNL     1     -29.870   5.422 -15.597  1.00  0.00     0.126 A 
HETATM    3  N1  UNL     1     -29.177   4.858 -14.557  1.00  0.00    -0.261 N 
HETATM    4  N2  UNL     1     -29.392   3.653 -14.035  1.00  0.00    -0.271 N 
ATOM      5  H2  UNL     1     -30.260   3.163 -14.253  1.00  0.00     0.189 HD
HETATM    6  C7  UNL     1     -28.502   3.074 -13.237  1.00  0.00     0.201 A 
HETATM    7  C22 UNL     1     -27.305   3.850 -13.020  1.00  0.00     0.209 A 
HETATM    8  F1  UNL     1     -26.298   3.247 -12.278  1.00  0.00    -0.198 F 
HETATM    9  C23 UNL     1     -27.095   5.060 -13.516  1.00  0.00     0.188 A 
HETATM   10  F2  UNL     1     -25.952   5.746 -13.327  1.00  0.00    -0.200 F 
HETATM   11  C24 UNL     1     -28.122   5.606 -14.335  1.00  0.00     0.108 A 
HETATM   12  C25 UNL     1     -28.067   6.698 -15.171  1.00  0.00     0.007 A 
HETATM   13  C26 UNL     1     -27.230   7.855 -15.080  1.00  0.00    -0.067 C 
HETATM   14  C27 UNL     1     -27.954   9.003 -14.297  1.00  0.00     0.035 C 
HETATM   15  C28 UNL     1     -27.190  10.162 -14.816  1.00  0.00     0.005 C 
HETATM   16  C29 UNL     1     -25.778   9.579 -14.953  1.00  0.00     0.005 C 
HETATM   17  C30 UNL     1     -26.168   8.347 -15.862  1.00  0.00     0.035 C 
ENDROOT
BRANCH   6  18
HETATM   18  O3  UNL     1     -28.531   1.964 -12.591  1.00  0.00    -0.326 OA
BRANCH  18  19
HETATM   19  C8  UNL     1     -28.583   0.830 -11.944  1.00  0.00     0.242 C 
BRANCH  19  20
HETATM   20  C9  UNL     1     -27.315   0.936 -11.153  1.00  0.00     0.083 A 
HETATM   21  O4  UNL     1     -27.282   1.434  -9.950  1.00  0.00    -0.324 OA
HETATM   22  C10 UNL     1     -26.028   1.363  -9.497  1.00  0.00     0.143 A 
HETATM   23  C11 UNL     1     -25.245   0.782 -10.467  1.00  0.00     0.034 A 
HETATM   24  C12 UNL     1     -26.077   0.517 -11.539  1.00  0.00    -0.020 A 
BRANCH  24  25
HETATM   25  C13 UNL     1     -25.614   0.123 -12.835  1.00  0.00     0.024 C 
HETATM   26  C14 UNL     1     -26.227  -1.235 -13.146  1.00  0.00     0.029 C 
HETATM   27  C15 UNL     1     -27.259  -0.934 -14.332  1.00  0.00     0.118 C 
HETATM   28  N3  UNL     1     -26.445  -0.765 -15.460  1.00  0.00    -0.406 N 
HETATM   29  C20 UNL     1     -25.285  -0.001 -15.217  1.00  0.00     0.118 C 
HETATM   30  C21 UNL     1     -25.607   0.931 -14.029  1.00  0.00     0.029 C 
BRANCH  28  31
HETATM   31  C16 UNL     1     -26.611  -1.465 -16.632  1.00  0.00     0.104 C 
HETATM   32  C17 UNL     1     -25.368  -1.718 -17.418  1.00  0.00     0.053 C 
HETATM   33  C18 UNL     1     -25.003  -3.103 -16.892  1.00  0.00     0.169 C 
HETATM   34  O5  UNL     1     -26.152  -3.702 -16.400  1.00  0.00    -0.389 OA
HETATM   35  C19 UNL     1     -27.198  -2.843 -16.486  1.00  0.00     0.192 C 
ENDBRANCH  28  31
ENDBRANCH  24  25
ENDBRANCH  19  20
ENDBRANCH  18  19
ENDBRANCH   6  18
BRANCH   1  36
HETATM   36  C2  UNL     1     -29.272   7.154 -17.317  1.00  0.00     0.070 C 
HETATM   37  C1  UNL     1     -29.031   8.531 -17.595  1.00  0.00     0.032 C 
HETATM   38  C3  UNL     1     -30.674   6.843 -17.866  1.00  0.00     0.032 C 
BRANCH  36  39
HETATM   39  C4  UNL     1     -28.504   6.205 -18.304  1.00  0.00     0.185 C 
HETATM   40  O1  UNL     1     -27.311   6.248 -18.315  1.00  0.00    -0.647 OA
HETATM   41  O2  UNL     1     -29.321   5.383 -19.067  1.00  0.00    -0.647 OA
ENDBRANCH  36  39
ENDBRANCH   1  36
TORSDOF 7
ENDMDL
MODEL 4
REMARK VINA RESULT: -9.517870432      2.000      4.580
REMARK  7 active torsions:
REMARK  status: ('A' for Active; 'I' for Inactive)
REMARK    1  A    between atoms: C2_2  and  C4_4 
REMARK    2  A    between atoms: C2_2  and  C5_7 
REMARK    3  A    between atoms: C7_12  and  O3_13 
REMARK    4  A    between atoms: O3_13  and  C8_14 
REMARK    5  A    between atoms: C8_14  and  C9_15 
REMARK    6  A    between atoms: C12_19  and  C13_20 
REMARK    7  A    between atoms: N3_23  and  C16_24 
ROOT
HETATM    1  C5  UNL     1     -29.362   6.886 -16.037  1.00  0.00    -0.009 A 
HETATM    2  C6  UNL     1     -29.605   5.706 -15.320  1.00  0.00     0.126 A 
HETATM    3  N1  UNL     1     -28.513   5.467 -14.525  1.00  0.00    -0.261 N 
HETATM    4  N2  UNL     1     -28.260   4.343 -13.859  1.00  0.00    -0.271 N 
ATOM      5  H2  UNL     1     -29.007   3.659 -13.733  1.00  0.00     0.189 HD
HETATM    6  C7  UNL     1     -27.057   4.092 -13.355  1.00  0.00     0.201 A 
HETATM    7  C22 UNL     1     -26.077   5.119 -13.616  1.00  0.00     0.209 A 
HETATM    8  F1  UNL     1     -24.778   4.859 -13.202  1.00  0.00    -0.198 F 
HETATM    9  C23 UNL     1     -26.329   6.250 -14.256  1.00  0.00     0.188 A 
HETATM   10  F2  UNL     1     -25.385   7.175 -14.517  1.00  0.00    -0.200 F 
HETATM   11  C24 UNL     1     -27.656   6.439 -14.731  1.00  0.00     0.108 A 
HETATM   12  C25 UNL     1     -28.125   7.371 -15.629  1.00  0.00     0.007 A 
HETATM   13  C26 UNL     1     -27.608   8.673 -15.922  1.00  0.00    -0.067 C 
HETATM   14  C27 UNL     1     -28.316   9.761 -15.045  1.00  0.00     0.035 C 
HETATM   15  C28 UNL     1     -28.052  10.952 -15.886  1.00  0.00     0.005 C 
HETATM   16  C29 UNL     1     -26.651  10.653 -16.433  1.00  0.00     0.005 C 
HETATM   17  C30 UNL     1     -26.986   9.238 -17.051  1.00  0.00     0.035 C 
ENDROOT
BRANCH   6  18
HETATM   18  O3  UNL     1     -26.617   3.117 -12.643  1.00  0.00    -0.326 OA
BRANCH  18  19
HETATM   19  C8  UNL     1     -26.154   2.142 -11.907  1.00  0.00     0.242 C 
BRANCH  19  20
HETATM   20  C9  UNL     1     -26.449   0.985 -12.812  1.00  0.00     0.083 A 
HETATM   21  O4  UNL     1     -25.969   0.903 -14.020  1.00  0.00    -0.324 OA
HETATM   22  C10 UNL     1     -26.378  -0.248 -14.560  1.00  0.00     0.143 A 
HETATM   23  C11 UNL     1     -27.143  -0.918 -13.635  1.00  0.00     0.034 A 
HETATM   24  C12 UNL     1     -27.196  -0.114 -12.511  1.00  0.00    -0.020 A 
BRANCH  24  25
HETATM   25  C13 UNL     1     -28.077  -0.339 -11.405  1.00  0.00     0.024 C 
HETATM   26  C14 UNL     1     -27.240  -0.895 -10.262  1.00  0.00     0.029 C 
HETATM   27  C15 UNL     1     -27.241   0.278  -9.172  1.00  0.00     0.118 C 
HETATM   28  N3  UNL     1     -28.519   0.214  -8.600  1.00  0.00    -0.406 N 
HETATM   29  C20 UNL     1     -29.554   0.012  -9.537  1.00  0.00     0.118 C 
HETATM   30  C21 UNL     1     -29.054   0.582 -10.882  1.00  0.00     0.029 C 
BRANCH  28  31
HETATM   31  C16 UNL     1     -28.744   0.109  -7.248  1.00  0.00     0.104 C 
HETATM   32  C17 UNL     1     -29.615  -1.026  -6.821  1.00  0.00     0.053 C 
HETATM   33  C18 UNL     1     -28.549  -2.070  -6.507  1.00  0.00     0.169 C 
HETATM   34  O5  UNL     1     -27.358  -1.413  -6.233  1.00  0.00    -0.389 OA
HETATM   35  C19 UNL     1     -27.516  -0.076  -6.399  1.00  0.00     0.192 C 
ENDBRANCH  28  31
ENDBRANCH  24  25
ENDBRANCH  19  20
ENDBRANCH  18  19
ENDBRANCH   6  18
BRANCH   1  36
HETATM   36  C2  UNL     1     -29.997   7.223 -17.284  1.00  0.00     0.070 C 
HETATM   37  C1  UNL     1     -30.197   8.558 -17.743  1.00  0.00     0.032 C 
HETATM   38  C3  UNL     1     -31.379   6.549 -17.308  1.00  0.00     0.032 C 
BRANCH  36  39
HETATM   39  C4  UNL     1     -29.356   6.307 -18.385  1.00  0.00     0.185 C 
HETATM   40  O1  UNL     1     -28.166   6.246 -18.446  1.00  0.00    -0.647 OA
HETATM   41  O2  UNL     1     -30.272   5.632 -19.179  1.00  0.00    -0.647 OA
ENDBRANCH  36  39
ENDBRANCH   1  36
TORSDOF 7
ENDMDL
MODEL 5
REMARK VINA RESULT: -9.418208571      2.753      5.365
REMARK  7 active torsions:
REMARK  status: ('A' for Active; 'I' for Inactive)
REMARK    1  A    between atoms: C2_2  and  C4_4 
REMARK    2  A    between atoms: C2_2  and  C5_7 
REMARK    3  A    between atoms: C7_12  and  O3_13 
REMARK    4  A    between atoms: O3_13  and  C8_14 
REMARK    5  A    between atoms: C8_14  and  C9_15 
REMARK    6  A    between atoms: C12_19  and  C13_20 
REMARK    7  A    between atoms: N3_23  and  C16_24 
ROOT
HETATM    1  C5  UNL     1     -26.393   8.364 -16.215  1.00  0.00    -0.009 A 
HETATM    2  C6  UNL     1     -25.432   7.469 -15.723  1.00  0.00     0.126 A 
HETATM    3  N1  UNL     1     -26.097   6.408 -15.163  1.00  0.00    -0.261 N 
HETATM    4  N2  UNL     1     -25.556   5.459 -14.404  1.00  0.00    -0.271 N 
ATOM      5  H2  UNL     1     -24.541   5.355 -14.382  1.00  0.00     0.189 HD
HETATM    6  C7  UNL     1     -26.308   4.643 -13.672  1.00  0.00     0.201 A 
HETATM    7  C22 UNL     1     -27.725   4.899 -13.765  1.00  0.00     0.209 A 
HETATM    8  F1  UNL     1     -28.550   4.145 -12.942  1.00  0.00    -0.198 F 
HETATM    9  C23 UNL     1     -28.271   5.826 -14.538  1.00  0.00     0.188 A 
HETATM   10  F2  UNL     1     -29.595   6.067 -14.576  1.00  0.00    -0.200 F 
HETATM   11  C24 UNL     1     -27.382   6.629 -15.306  1.00  0.00     0.108 A 
HETATM   12  C25 UNL     1     -27.642   7.803 -15.975  1.00  0.00     0.007 A 
HETATM   13  C26 UNL     1     -28.878   8.261 -16.533  1.00  0.00    -0.067 C 
HETATM   14  C27 UNL     1     -28.991   7.852 -18.041  1.00  0.00     0.035 C 
HETATM   15  C28 UNL     1     -29.980   8.862 -18.488  1.00  0.00     0.005 C 
HETATM   16  C29 UNL     1     -30.891   8.981 -17.259  1.00  0.00     0.005 C 
HETATM   17  C30 UNL     1     -29.756   9.314 -16.212  1.00  0.00     0.035 C 
ENDROOT
BRANCH   6  18
HETATM   18  O3  UNL     1     -26.005   3.642 -12.928  1.00  0.00    -0.326 OA
BRANCH  18  19
HETATM   19  C8  UNL     1     -25.685   2.638 -12.155  1.00  0.00     0.242 C 
BRANCH  19  20
HETATM   20  C9  UNL     1     -25.789   1.518 -13.144  1.00  0.00     0.083 A 
HETATM   21  O4  UNL     1     -25.138   1.520 -14.272  1.00  0.00    -0.324 OA
HETATM   22  C10 UNL     1     -25.407   0.381 -14.916  1.00  0.00     0.143 A 
HETATM   23  C11 UNL     1     -26.261  -0.368 -14.142  1.00  0.00     0.034 A 
HETATM   24  C12 UNL     1     -26.515   0.373 -13.003  1.00  0.00    -0.020 A 
BRANCH  24  25
HETATM   25  C13 UNL     1     -27.532   0.053 -12.047  1.00  0.00     0.024 C 
HETATM   26  C14 UNL     1     -26.852  -0.628 -10.869  1.00  0.00     0.029 C 
HETATM   27  C15 UNL     1     -26.989   0.430  -9.675  1.00  0.00     0.118 C 
HETATM   28  N3  UNL     1     -28.330   0.330  -9.281  1.00  0.00    -0.406 N 
HETATM   29  C20 UNL     1     -29.236   0.240 -10.358  1.00  0.00     0.118 C 
HETATM   30  C21 UNL     1     -28.565   0.933 -11.563  1.00  0.00     0.029 C 
BRANCH  28  31
HETATM   31  C16 UNL     1     -28.728   0.095  -7.986  1.00  0.00     0.104 C 
HETATM   32  C17 UNL     1     -29.645  -1.068  -7.790  1.00  0.00     0.053 C 
HETATM   33  C18 UNL     1     -28.626  -2.150  -7.447  1.00  0.00     0.169 C 
HETATM   34  O5  UNL     1     -27.482  -1.536  -6.958  1.00  0.00    -0.389 OA
HETATM   35  C19 UNL     1     -27.620  -0.188  -7.008  1.00  0.00     0.192 C 
ENDBRANCH  28  31
ENDBRANCH  24  25
ENDBRANCH  19  20
ENDBRANCH  18  19
ENDBRANCH   6  18
BRANCH   1  36
HETATM   36  C2  UNL     1     -26.161   9.768 -16.430  1.00  0.00     0.070 C 
HETATM   37  C1  UNL     1     -26.839  10.549 -17.411  1.00  0.00     0.032 C 
HETATM   38  C3  UNL     1     -24.658   9.963 -16.690  1.00  0.00     0.032 C 
BRANCH  36  39
HETATM   39  C4  UNL     1     -26.166  10.453 -15.018  1.00  0.00     0.185 C 
HETATM   40  O1  UNL     1     -27.183  10.945 -14.633  1.00  0.00    -0.647 OA
HETATM   41  O2  UNL     1     -24.955  10.393 -14.343  1.00  0.00    -0.647 OA
ENDBRANCH  36  39
ENDBRANCH   1  36
TORSDOF 7
ENDMDL
