MODEL 1
REMARK VINA RESULT: -7.430938295      0.000      0.000
REMARK  3 active torsions:
REMARK  status: ('A' for Active; 'I' for Inactive)
REMARK    1  A    between atoms: N3_8  and  C3_9 
REMARK    2  A    between atoms: C3_9  and  C4_10 
REMARK    3  A    between atoms: N5_18  and  O3_19 
ROOT
HETATM    1  N1  UNL     1     -29.511  87.172  37.632  1.00  0.00    -0.232 N 
ATOM      2  H11 UNL     1     -29.158  86.505  38.319  1.00  0.00     0.174 HD
ATOM      3  H12 UNL     1     -29.444  88.162  37.873  1.00  0.00     0.174 HD
HETATM    4  C1  UNL     1     -30.024  86.802  36.501  1.00  0.00     0.704 A 
HETATM    5  N2  UNL     1     -30.490  87.682  35.596  1.00  0.00    -0.186 N 
ATOM      6  H2  UNL     1     -30.435  88.677  35.815  1.00  0.00     0.185 HD
HETATM    7  C2  UNL     1     -31.025  87.318  34.418  1.00  0.00     0.201 A 
HETATM    8  N3  UNL     1     -31.111  86.006  34.103  1.00  0.00    -0.334 N 
HETATM    9  C7  UNL     1     -30.646  85.122  35.007  1.00  0.00     0.236 A 
HETATM   10  N5  UNL     1     -30.113  85.495  36.184  1.00  0.00    -0.048 N 
ENDROOT
BRANCH   8  11
HETATM   11  C3  UNL     1     -31.673  85.577  32.862  1.00  0.00     0.157 C 
BRANCH  11  12
HETATM   12  C4  UNL     1     -31.787  86.732  31.860  1.00  0.00     0.129 C 
HETATM   13  C5  UNL     1     -30.590  86.593  30.927  1.00  0.00     0.207 C 
HETATM   14  O1  UNL     1     -31.042  85.765  29.852  1.00  0.00    -0.302 OA
HETATM   15  C6  UNL     1     -32.443  85.852  29.817  1.00  0.00     0.361 C 
HETATM   16  O2  UNL     1     -33.134  85.390  28.868  1.00  0.00    -0.239 OA
HETATM   17  N4  UNL     1     -32.904  86.520  30.983  1.00  0.00    -0.329 N 
ATOM     18  H4  UNL     1     -33.867  86.802  31.165  1.00  0.00     0.165 HD
ENDBRANCH  11  12
ENDBRANCH   8  11
BRANCH  10  19
HETATM   19  O3  UNL     1     -29.637  84.590  37.108  1.00  0.00    -0.269 OA
ATOM     20  H3  UNL     1     -29.743  83.668  36.905  1.00  0.00     0.246 HD
ENDBRANCH  10  19
TORSDOF 3
ENDMDL
MODEL 2
REMARK VINA RESULT: -7.400756365      1.612      2.152
REMARK  3 active torsions:
REMARK  status: ('A' for Active; 'I' for Inactive)
REMARK    1  A    between atoms: N3_8  and  C3_9 
REMARK    2  A    between atoms: C3_9  and  C4_10 
REMARK    3  A    between atoms: N5_18  and  O3_19 
ROOT
HETATM    1  N1  UNL     1     -29.504  84.272  37.668  1.00  0.00    -0.232 N 
ATOM      2  H11 UNL     1     -29.082  84.832  38.408  1.00  0.00     0.174 HD
ATOM      3  H12 UNL     1     -29.501  83.260  37.795  1.00  0.00     0.174 HD
HETATM    4  C1  UNL     1     -30.029  84.801  36.607  1.00  0.00     0.704 A 
HETATM    5  N2  UNL     1     -30.587  84.062  35.630  1.00  0.00    -0.186 N 
ATOM      6  H2  UNL     1     -30.593  83.047  35.735  1.00  0.00     0.185 HD
HETATM    7  C2  UNL     1     -31.136  84.592  34.524  1.00  0.00     0.201 A 
HETATM    8  N3  UNL     1     -31.140  85.933  34.360  1.00  0.00    -0.334 N 
HETATM    9  C7  UNL     1     -30.582  86.677  35.335  1.00  0.00     0.236 A 
HETATM   10  N5  UNL     1     -30.034  86.139  36.439  1.00  0.00    -0.048 N 
ENDROOT
BRANCH   8  11
HETATM   11  C3  UNL     1     -31.712  86.537  33.199  1.00  0.00     0.157 C 
BRANCH  11  12
HETATM   12  C4  UNL     1     -31.256  85.838  31.912  1.00  0.00     0.129 C 
HETATM   13  C5  UNL     1     -32.527  85.326  31.244  1.00  0.00     0.207 C 
HETATM   14  O1  UNL     1     -32.956  86.385  30.383  1.00  0.00    -0.302 OA
HETATM   15  C6  UNL     1     -31.835  87.186  30.116  1.00  0.00     0.361 C 
HETATM   16  O2  UNL     1     -31.835  88.093  29.238  1.00  0.00    -0.239 OA
HETATM   17  N4  UNL     1     -30.766  86.804  30.969  1.00  0.00    -0.329 N 
ATOM     18  H4  UNL     1     -29.810  87.155  30.920  1.00  0.00     0.165 HD
ENDBRANCH  11  12
ENDBRANCH   8  11
BRANCH  10  19
HETATM   19  O3  UNL     1     -29.464  86.899  37.436  1.00  0.00    -0.269 OA
ATOM     20  H3  UNL     1     -30.048  87.436  37.959  1.00  0.00     0.246 HD
ENDBRANCH  10  19
TORSDOF 3
ENDMDL
MODEL 3
REMARK VINA RESULT: -7.295024503      1.784      2.296
REMARK  3 active torsions:
REMARK  status: ('A' for Active; 'I' for Inactive)
REMARK    1  A    between atoms: N3_8  and  C3_9 
REMARK    2  A    between atoms: C3_9  and  C4_10 
REMARK    3  A    between atoms: N5_18  and  O3_19 
ROOT
HETATM    1  N1  UNL     1     -30.748  83.805  37.524  1.00  0.00    -0.232 N 
ATOM      2  H11 UNL     1     -31.040  84.527  38.184  1.00  0.00     0.174 HD
ATOM      3  H12 UNL     1     -30.410  82.928  37.920  1.00  0.00     0.174 HD
HETATM    4  C1  UNL     1     -30.797  83.974  36.240  1.00  0.00     0.704 A 
HETATM    5  N2  UNL     1     -30.412  83.022  35.370  1.00  0.00    -0.186 N 
ATOM      6  H2  UNL     1     -30.068  82.136  35.743  1.00  0.00     0.185 HD
HETATM    7  C2  UNL     1     -30.456  83.178  34.036  1.00  0.00     0.201 A 
HETATM    8  N3  UNL     1     -30.905  84.341  33.516  1.00  0.00    -0.334 N 
HETATM    9  C7  UNL     1     -31.292  85.297  34.384  1.00  0.00     0.236 A 
HETATM   10  N5  UNL     1     -31.244  85.134  35.718  1.00  0.00    -0.048 N 
ENDROOT
BRANCH   8  11
HETATM   11  C3  UNL     1     -30.968  84.548  32.104  1.00  0.00     0.157 C 
BRANCH  11  12
HETATM   12  C4  UNL     1     -31.906  85.706  31.741  1.00  0.00     0.129 C 
HETATM   13  C5  UNL     1     -31.072  86.669  30.905  1.00  0.00     0.207 C 
HETATM   14  O1  UNL     1     -31.251  86.249  29.550  1.00  0.00    -0.302 OA
HETATM   15  C6  UNL     1     -32.448  85.517  29.494  1.00  0.00     0.361 C 
HETATM   16  O2  UNL     1     -32.987  85.168  28.408  1.00  0.00    -0.239 OA
HETATM   17  N4  UNL     1     -32.908  85.261  30.813  1.00  0.00    -0.329 N 
ATOM     18  H4  UNL     1     -33.801  84.834  31.060  1.00  0.00     0.165 HD
ENDBRANCH  11  12
ENDBRANCH   8  11
BRANCH  10  19
HETATM   19  O3  UNL     1     -31.640  86.111  36.605  1.00  0.00    -0.269 OA
ATOM     20  H3  UNL     1     -32.514  86.466  36.496  1.00  0.00     0.246 HD
ENDBRANCH  10  19
TORSDOF 3
ENDMDL
MODEL 4
REMARK VINA RESULT: -7.251894559      1.878      2.346
REMARK  3 active torsions:
REMARK  status: ('A' for Active; 'I' for Inactive)
REMARK    1  A    between atoms: N3_8  and  C3_9 
REMARK    2  A    between atoms: C3_9  and  C4_10 
REMARK    3  A    between atoms: N5_18  and  O3_19 
ROOT
HETATM    1  N1  UNL     1     -30.646  83.819  37.367  1.00  0.00    -0.232 N 
ATOM      2  H11 UNL     1     -30.877  84.509  38.082  1.00  0.00     0.174 HD
ATOM      3  H12 UNL     1     -30.307  82.913  37.692  1.00  0.00     0.174 HD
HETATM    4  C1  UNL     1     -30.771  84.060  36.100  1.00  0.00     0.704 A 
HETATM    5  N2  UNL     1     -30.467  83.149  35.157  1.00  0.00    -0.186 N 
ATOM      6  H2  UNL     1     -30.125  82.236  35.459  1.00  0.00     0.185 HD
HETATM    7  C2  UNL     1     -30.591  83.380  33.839  1.00  0.00     0.201 A 
HETATM    8  N3  UNL     1     -31.041  84.580  33.413  1.00  0.00    -0.334 N 
HETATM    9  C7  UNL     1     -31.347  85.495  34.353  1.00  0.00     0.236 A 
HETATM   10  N5  UNL     1     -31.220  85.257  35.671  1.00  0.00    -0.048 N 
ENDROOT
BRANCH   8  11
HETATM   11  C3  UNL     1     -31.187  84.866  32.021  1.00  0.00     0.157 C 
BRANCH  11  12
HETATM   12  C4  UNL     1     -30.722  86.288  31.681  1.00  0.00     0.129 C 
HETATM   13  C5  UNL     1     -30.083  86.197  30.301  1.00  0.00     0.207 C 
HETATM   14  O1  UNL     1     -31.145  86.445  29.375  1.00  0.00    -0.302 OA
HETATM   15  C6  UNL     1     -32.146  87.146  30.065  1.00  0.00     0.361 C 
HETATM   16  O2  UNL     1     -33.132  87.680  29.486  1.00  0.00    -0.239 OA
HETATM   17  N4  UNL     1     -31.854  87.141  31.456  1.00  0.00    -0.329 N 
ATOM     18  H4  UNL     1     -32.363  87.657  32.173  1.00  0.00     0.165 HD
ENDBRANCH  11  12
ENDBRANCH   8  11
BRANCH  10  19
HETATM   19  O3  UNL     1     -31.532  86.193  36.633  1.00  0.00    -0.269 OA
ATOM     20  H3  UNL     1     -32.419  86.186  36.971  1.00  0.00     0.246 HD
ENDBRANCH  10  19
TORSDOF 3
ENDMDL
MODEL 5
REMARK VINA RESULT: -7.194212437      1.706      6.057
REMARK  3 active torsions:
REMARK  status: ('A' for Active; 'I' for Inactive)
REMARK    1  A    between atoms: N3_8  and  C3_9 
REMARK    2  A    between atoms: C3_9  and  C4_10 
REMARK    3  A    between atoms: N5_18  and  O3_19 
ROOT
HETATM    1  N1  UNL     1     -33.140  85.549  29.714  1.00  0.00    -0.232 N 
ATOM      2  H11 UNL     1     -33.171  86.495  29.332  1.00  0.00     0.174 HD
ATOM      3  H12 UNL     1     -33.582  84.814  29.162  1.00  0.00     0.174 HD
HETATM    4  C1  UNL     1     -32.571  85.273  30.846  1.00  0.00     0.704 A 
HETATM    5  N2  UNL     1     -32.531  84.026  31.349  1.00  0.00    -0.186 N 
ATOM      6  H2  UNL     1     -32.967  83.274  30.815  1.00  0.00     0.185 HD
HETATM    7  C2  UNL     1     -31.945  83.720  32.519  1.00  0.00     0.201 A 
HETATM    8  N3  UNL     1     -31.361  84.697  33.247  1.00  0.00    -0.334 N 
HETATM    9  C7  UNL     1     -31.399  85.947  32.746  1.00  0.00     0.236 A 
HETATM   10  N5  UNL     1     -31.987  86.245  31.574  1.00  0.00    -0.048 N 
ENDROOT
BRANCH   8  11
HETATM   11  C3  UNL     1     -30.728  84.414  34.496  1.00  0.00     0.157 C 
BRANCH  11  12
HETATM   12  C4  UNL     1     -31.487  85.041  35.672  1.00  0.00     0.129 C 
HETATM   13  C5  UNL     1     -30.979  84.330  36.921  1.00  0.00     0.207 C 
HETATM   14  O1  UNL     1     -29.866  85.107  37.373  1.00  0.00    -0.302 OA
HETATM   15  C6  UNL     1     -30.013  86.398  36.841  1.00  0.00     0.361 C 
HETATM   16  O2  UNL     1     -29.300  87.374  37.203  1.00  0.00    -0.239 OA
HETATM   17  N4  UNL     1     -31.056  86.396  35.877  1.00  0.00    -0.329 N 
ATOM     18  H4  UNL     1     -31.436  87.218  35.408  1.00  0.00     0.165 HD
ENDBRANCH  11  12
ENDBRANCH   8  11
BRANCH  10  19
HETATM   19  O3  UNL     1     -32.027  87.524  31.063  1.00  0.00    -0.269 OA
ATOM     20  H3  UNL     1     -32.439  88.192  31.598  1.00  0.00     0.246 HD
ENDBRANCH  10  19
TORSDOF 3
ENDMDL
