MODEL 1
REMARK VINA RESULT: -7.395964722      0.000      0.000
REMARK  3 active torsions:
REMARK  status: ('A' for Active; 'I' for Inactive)
REMARK    1  A    between atoms: N1_1  and  S1_4 
REMARK    2  A    between atoms: S1_4  and  C1_7 
REMARK    3  A    between atoms: C1_7  and  C2_8 
ROOT
HETATM    1  C2  UNL     1     -31.285  85.235  33.704  1.00  0.00     0.034 A 
HETATM    2  C3  UNL     1     -31.862  84.875  32.509  1.00  0.00     0.100 A 
HETATM    3  C4  UNL     1     -32.319  85.851  31.614  1.00  0.00     0.251 A 
HETATM    4  O3  UNL     1     -32.839  85.461  30.535  1.00  0.00    -0.268 OA
HETATM    5  N2  UNL     1     -32.191  87.144  31.934  1.00  0.00    -0.275 N 
ATOM      6  H2  UNL     1     -32.520  87.867  31.294  1.00  0.00     0.173 HD
HETATM    7  C5  UNL     1     -31.628  87.481  33.099  1.00  0.00     0.327 A 
HETATM    8  O4  UNL     1     -31.499  88.714  33.417  1.00  0.00    -0.247 OA
HETATM    9  N3  UNL     1     -31.184  86.544  33.967  1.00  0.00    -0.311 N 
ATOM     10  H3  UNL     1     -30.760  86.843  34.845  1.00  0.00     0.170 HD
ENDROOT
BRANCH   1  11
HETATM   11  C1  UNL     1     -30.812  84.208  34.626  1.00  0.00     0.220 C 
BRANCH  11  12
HETATM   12  S1  UNL     1     -30.695  84.754  36.304  1.00  0.00     0.229 S 
HETATM   13  O1  UNL     1     -29.371  85.493  36.423  1.00  0.00    -0.206 OA
HETATM   14  O2  UNL     1     -31.758  85.765  36.627  1.00  0.00    -0.206 OA
BRANCH  12  15
HETATM   15  N1  UNL     1     -30.718  83.488  37.434  1.00  0.00    -0.328 N 
ATOM     16  H12 UNL     1     -29.956  83.265  38.075  1.00  0.00     0.168 HD
ATOM     17  H11 UNL     1     -31.611  82.999  37.362  1.00  0.00     0.168 HD
ENDBRANCH  12  15
ENDBRANCH  11  12
ENDBRANCH   1  11
TORSDOF 3
ENDMDL
MODEL 2
REMARK VINA RESULT: -7.269407641      1.019      1.234
REMARK  3 active torsions:
REMARK  status: ('A' for Active; 'I' for Inactive)
REMARK    1  A    between atoms: N1_1  and  S1_4 
REMARK    2  A    between atoms: S1_4  and  C1_7 
REMARK    3  A    between atoms: C1_7  and  C2_8 
ROOT
HETATM    1  C2  UNL     1     -31.279  85.185  33.601  1.00  0.00     0.034 A 
HETATM    2  C3  UNL     1     -31.876  84.868  32.403  1.00  0.00     0.100 A 
HETATM    3  C4  UNL     1     -32.355  85.875  31.556  1.00  0.00     0.251 A 
HETATM    4  O3  UNL     1     -32.892  85.525  30.472  1.00  0.00    -0.268 OA
HETATM    5  N2  UNL     1     -32.228  87.157  31.923  1.00  0.00    -0.275 N 
ATOM      6  H2  UNL     1     -32.573  87.902  31.318  1.00  0.00     0.173 HD
HETATM    7  C5  UNL     1     -31.646  87.451  33.091  1.00  0.00     0.327 A 
HETATM    8  O4  UNL     1     -31.518  88.672  33.454  1.00  0.00    -0.247 OA
HETATM    9  N3  UNL     1     -31.181  86.483  33.913  1.00  0.00    -0.311 N 
ATOM     10  H3  UNL     1     -30.743  86.750  34.795  1.00  0.00     0.170 HD
ENDROOT
BRANCH   1  11
HETATM   11  C1  UNL     1     -30.783  84.125  34.473  1.00  0.00     0.220 C 
BRANCH  11  12
HETATM   12  S1  UNL     1     -30.700  84.586  36.178  1.00  0.00     0.229 S 
HETATM   13  O1  UNL     1     -31.910  85.469  36.443  1.00  0.00    -0.206 OA
HETATM   14  O2  UNL     1     -30.860  83.393  37.077  1.00  0.00    -0.206 OA
BRANCH  12  15
HETATM   15  N1  UNL     1     -29.295  85.448  36.582  1.00  0.00    -0.328 N 
ATOM     16  H12 UNL     1     -29.274  86.426  36.871  1.00  0.00     0.168 HD
ATOM     17  H11 UNL     1     -28.490  84.828  36.486  1.00  0.00     0.168 HD
ENDBRANCH  12  15
ENDBRANCH  11  12
ENDBRANCH   1  11
TORSDOF 3
ENDMDL
MODEL 3
REMARK VINA RESULT: -6.873546770      2.478      4.837
REMARK  3 active torsions:
REMARK  status: ('A' for Active; 'I' for Inactive)
REMARK    1  A    between atoms: N1_1  and  S1_4 
REMARK    2  A    between atoms: S1_4  and  C1_7 
REMARK    3  A    between atoms: C1_7  and  C2_8 
ROOT
HETATM    1  C2  UNL     1     -31.669  84.994  32.613  1.00  0.00     0.034 A 
HETATM    2  C3  UNL     1     -31.209  84.028  33.476  1.00  0.00     0.100 A 
HETATM    3  C4  UNL     1     -30.815  84.363  34.777  1.00  0.00     0.251 A 
HETATM    4  O3  UNL     1     -30.401  83.435  35.523  1.00  0.00    -0.268 OA
HETATM    5  N2  UNL     1     -30.888  85.638  35.177  1.00  0.00    -0.275 N 
ATOM      6  H2  UNL     1     -30.603  85.899  36.121  1.00  0.00     0.173 HD
HETATM    7  C5  UNL     1     -31.337  86.568  34.328  1.00  0.00     0.327 A 
HETATM    8  O4  UNL     1     -31.413  87.792  34.697  1.00  0.00    -0.247 OA
HETATM    9  N3  UNL     1     -31.720  86.252  33.070  1.00  0.00    -0.311 N 
ATOM     10  H3  UNL     1     -32.058  86.991  32.454  1.00  0.00     0.170 HD
ENDROOT
BRANCH   1  11
HETATM   11  C1  UNL     1     -32.078  84.631  31.260  1.00  0.00     0.220 C 
BRANCH  11  12
HETATM   12  S1  UNL     1     -31.962  85.960  30.099  1.00  0.00     0.229 S 
HETATM   13  O1  UNL     1     -32.608  85.464  28.814  1.00  0.00    -0.206 OA
HETATM   14  O2  UNL     1     -32.776  87.144  30.536  1.00  0.00    -0.206 OA
BRANCH  12  15
HETATM   15  N1  UNL     1     -30.366  86.430  29.762  1.00  0.00    -0.328 N 
ATOM     16  H12 UNL     1     -29.772  86.007  29.048  1.00  0.00     0.168 HD
ATOM     17  H11 UNL     1     -30.110  87.195  30.386  1.00  0.00     0.168 HD
ENDBRANCH  12  15
ENDBRANCH  11  12
ENDBRANCH   1  11
TORSDOF 3
ENDMDL
MODEL 4
REMARK VINA RESULT: -6.808408673      2.426      4.727
REMARK  3 active torsions:
REMARK  status: ('A' for Active; 'I' for Inactive)
REMARK    1  A    between atoms: N1_1  and  S1_4 
REMARK    2  A    between atoms: S1_4  and  C1_7 
REMARK    3  A    between atoms: C1_7  and  C2_8 
ROOT
HETATM    1  C2  UNL     1     -31.323  85.797  32.976  1.00  0.00     0.034 A 
HETATM    2  C3  UNL     1     -31.503  85.278  34.236  1.00  0.00     0.100 A 
HETATM    3  C4  UNL     1     -31.321  86.080  35.370  1.00  0.00     0.251 A 
HETATM    4  O3  UNL     1     -31.499  85.550  36.499  1.00  0.00    -0.268 OA
HETATM    5  N2  UNL     1     -30.967  87.362  35.217  1.00  0.00    -0.275 N 
ATOM      6  H2  UNL     1     -30.830  87.958  36.033  1.00  0.00     0.173 HD
HETATM    7  C5  UNL     1     -30.796  87.854  33.986  1.00  0.00     0.327 A 
HETATM    8  O4  UNL     1     -30.458  89.078  33.825  1.00  0.00    -0.247 OA
HETATM    9  N3  UNL     1     -30.970  87.085  32.887  1.00  0.00    -0.311 N 
ATOM     10  H3  UNL     1     -30.830  87.499  31.965  1.00  0.00     0.170 HD
ENDROOT
BRANCH   1  11
HETATM   11  C1  UNL     1     -31.517  84.951  31.803  1.00  0.00     0.220 C 
BRANCH  11  12
HETATM   12  S1  UNL     1     -31.938  85.848  30.338  1.00  0.00     0.229 S 
HETATM   13  O1  UNL     1     -32.825  87.001  30.782  1.00  0.00    -0.206 OA
HETATM   14  O2  UNL     1     -30.726  86.481  29.715  1.00  0.00    -0.206 OA
BRANCH  12  15
HETATM   15  N1  UNL     1     -32.778  84.921  29.191  1.00  0.00    -0.328 N 
ATOM     16  H12 UNL     1     -32.362  84.515  28.353  1.00  0.00     0.168 HD
ATOM     17  H11 UNL     1     -33.753  84.843  29.481  1.00  0.00     0.168 HD
ENDBRANCH  12  15
ENDBRANCH  11  12
ENDBRANCH   1  11
TORSDOF 3
ENDMDL
MODEL 5
REMARK VINA RESULT: -6.796791855      1.274      2.551
REMARK  3 active torsions:
REMARK  status: ('A' for Active; 'I' for Inactive)
REMARK    1  A    between atoms: N1_1  and  S1_4 
REMARK    2  A    between atoms: S1_4  and  C1_7 
REMARK    3  A    between atoms: C1_7  and  C2_8 
ROOT
HETATM    1  C2  UNL     1     -31.243  85.185  33.732  1.00  0.00     0.034 A 
HETATM    2  C3  UNL     1     -31.079  86.518  34.028  1.00  0.00     0.100 A 
HETATM    3  C4  UNL     1     -31.579  87.506  33.170  1.00  0.00     0.251 A 
HETATM    4  O3  UNL     1     -31.398  88.710  33.492  1.00  0.00    -0.268 OA
HETATM    5  N2  UNL     1     -32.220  87.142  32.053  1.00  0.00    -0.275 N 
ATOM      6  H2  UNL     1     -32.588  87.849  31.417  1.00  0.00     0.173 HD
HETATM    7  C5  UNL     1     -32.373  85.842  31.777  1.00  0.00     0.327 A 
HETATM    8  O4  UNL     1     -32.984  85.479  30.713  1.00  0.00    -0.247 OA
HETATM    9  N3  UNL     1     -31.893  84.883  32.602  1.00  0.00    -0.311 N 
ATOM     10  H3  UNL     1     -32.031  83.903  32.355  1.00  0.00     0.170 HD
ENDROOT
BRANCH   1  11
HETATM   11  C1  UNL     1     -30.719  84.167  34.636  1.00  0.00     0.220 C 
BRANCH  11  12
HETATM   12  S1  UNL     1     -30.764  84.635  36.341  1.00  0.00     0.229 S 
HETATM   13  O1  UNL     1     -32.140  85.235  36.583  1.00  0.00    -0.206 OA
HETATM   14  O2  UNL     1     -30.677  83.436  37.241  1.00  0.00    -0.206 OA
BRANCH  12  15
HETATM   15  N1  UNL     1     -29.585  85.780  36.763  1.00  0.00    -0.328 N 
ATOM     16  H12 UNL     1     -29.735  86.563  37.399  1.00  0.00     0.168 HD
ATOM     17  H11 UNL     1     -28.717  85.552  36.278  1.00  0.00     0.168 HD
ENDBRANCH  12  15
ENDBRANCH  11  12
ENDBRANCH   1  11
TORSDOF 3
ENDMDL
