MODEL 1
REMARK VINA RESULT: -7.152135663      0.000      0.000
REMARK  5 active torsions:
REMARK  status: ('A' for Active; 'I' for Inactive)
REMARK    1  A    between atoms: C1_4  and  C2_5 
REMARK    2  A    between atoms: C7_12  and  N3_13 
REMARK    3  A    between atoms: N5_18  and  O1_19 
REMARK    4  A    between atoms: N6_21  and  C8_22 
REMARK    5  A    between atoms: C8_22  and  N7_23 
ROOT
HETATM    1  C2  UNL     1     -31.728  85.968  31.706  1.00  0.00    -0.005 A 
HETATM    2  C3  UNL     1     -31.805  87.103  32.483  1.00  0.00     0.102 A 
HETATM    3  N2  UNL     1     -31.480  87.099  33.804  1.00  0.00    -0.349 N 
ATOM      4  H2  UNL     1     -31.555  87.965  34.337  1.00  0.00     0.167 HD
HETATM    5  C4  UNL     1     -31.064  85.981  34.424  1.00  0.00     0.141 A 
HETATM    6  C5  UNL     1     -30.982  84.835  33.655  1.00  0.00     0.056 A 
HETATM    7  C6  UNL     1     -31.303  84.809  32.319  1.00  0.00     0.033 A 
HETATM    8  C7  UNL     1     -30.555  83.668  34.269  1.00  0.00     0.131 A 
HETATM    9  N4  UNL     1     -30.236  83.679  35.578  1.00  0.00    -0.243 N 
ATOM     10  H4  UNL     1     -29.921  82.827  36.041  1.00  0.00     0.193 HD
HETATM   11  N5  UNL     1     -30.340  84.825  36.258  1.00  0.00    -0.088 N 
HETATM   12  N6  UNL     1     -30.737  85.951  35.729  1.00  0.00    -0.208 N 
ENDROOT
BRANCH  12  13
HETATM   13  C8  UNL     1     -30.828  87.162  36.522  1.00  0.00     0.383 C 
BRANCH  13  14
HETATM   14  N7  UNL     1     -29.527  87.496  37.017  1.00  0.00    -0.061 N 
ATOM     15  H73 UNL     1     -28.924  86.678  37.103  1.00  0.00     0.276 HD
ATOM     16  H72 UNL     1     -28.973  88.012  36.334  1.00  0.00     0.276 HD
ATOM     17  H71 UNL     1     -29.625  88.001  37.898  1.00  0.00     0.276 HD
ENDBRANCH  13  14
ENDBRANCH  12  13
BRANCH  11  18
HETATM   18  O1  UNL     1     -30.011  84.812  37.590  1.00  0.00    -0.253 OA
ATOM     19  H1  UNL     1     -30.193  84.021  38.084  1.00  0.00     0.248 HD
ENDBRANCH  11  18
BRANCH   8  20
HETATM   20  N3  UNL     1     -30.465  82.587  33.597  1.00  0.00    -0.384 N 
ATOM     21  H32 UNL     1     -29.571  82.311  33.191  1.00  0.00     0.157 HD
ATOM     22  H31 UNL     1     -31.286  81.996  33.464  1.00  0.00     0.157 HD
ENDBRANCH   8  20
BRANCH   1  23
HETATM   23  C1  UNL     1     -32.073  85.961  30.293  1.00  0.00     0.093 C 
HETATM   24  N1  UNL     1     -33.010  85.231  29.811  1.00  0.00    -0.407 N 
ATOM     25  H12 UNL     1     -33.526  84.636  30.459  1.00  0.00     0.155 HD
ATOM     26  H11 UNL     1     -33.252  85.226  28.821  1.00  0.00     0.155 HD
ENDBRANCH   1  23
TORSDOF 5
ENDMDL
MODEL 2
REMARK VINA RESULT: -6.890593737      2.522      5.438
REMARK  5 active torsions:
REMARK  status: ('A' for Active; 'I' for Inactive)
REMARK    1  A    between atoms: C1_4  and  C2_5 
REMARK    2  A    between atoms: C7_12  and  N3_13 
REMARK    3  A    between atoms: N5_18  and  O1_19 
REMARK    4  A    between atoms: N6_21  and  C8_22 
REMARK    5  A    between atoms: C8_22  and  N7_23 
ROOT
HETATM    1  C2  UNL     1     -30.934  84.428  35.825  1.00  0.00    -0.005 A 
HETATM    2  C3  UNL     1     -31.302  83.591  34.795  1.00  0.00     0.102 A 
HETATM    3  N2  UNL     1     -31.546  84.054  33.539  1.00  0.00    -0.349 N 
ATOM      4  H2  UNL     1     -31.818  83.394  32.810  1.00  0.00     0.167 HD
HETATM    5  C4  UNL     1     -31.439  85.359  33.235  1.00  0.00     0.141 A 
HETATM    6  C5  UNL     1     -31.069  86.209  34.260  1.00  0.00     0.056 A 
HETATM    7  C6  UNL     1     -30.817  85.771  35.538  1.00  0.00     0.033 A 
HETATM    8  C7  UNL     1     -30.951  87.560  33.974  1.00  0.00     0.131 A 
HETATM    9  N4  UNL     1     -31.195  88.004  32.726  1.00  0.00    -0.243 N 
ATOM     10  H4  UNL     1     -31.111  88.995  32.503  1.00  0.00     0.193 HD
HETATM   11  N5  UNL     1     -31.548  87.123  31.786  1.00  0.00    -0.088 N 
HETATM   12  N6  UNL     1     -31.675  85.841  32.001  1.00  0.00    -0.208 N 
ENDROOT
BRANCH  12  13
HETATM   13  C8  UNL     1     -32.061  84.936  30.936  1.00  0.00     0.383 C 
BRANCH  13  14
HETATM   14  N7  UNL     1     -33.435  85.162  30.606  1.00  0.00    -0.061 N 
ATOM     15  H73 UNL     1     -33.806  84.446  29.981  1.00  0.00     0.276 HD
ATOM     16  H72 UNL     1     -34.057  84.997  31.398  1.00  0.00     0.276 HD
ATOM     17  H71 UNL     1     -33.536  86.102  30.222  1.00  0.00     0.276 HD
ENDBRANCH  13  14
ENDBRANCH  12  13
BRANCH  11  18
HETATM   18  O1  UNL     1     -31.793  87.598  30.522  1.00  0.00    -0.253 OA
ATOM     19  H1  UNL     1     -32.284  87.044  29.927  1.00  0.00     0.248 HD
ENDBRANCH  11  18
BRANCH   8  20
HETATM   20  N3  UNL     1     -30.612  88.382  34.891  1.00  0.00    -0.384 N 
ATOM     21  H32 UNL     1     -29.957  89.136  34.685  1.00  0.00     0.157 HD
ATOM     22  H31 UNL     1     -30.995  88.286  35.832  1.00  0.00     0.157 HD
ENDBRANCH   8  20
BRANCH   1  23
HETATM   23  C1  UNL     1     -30.671  83.945  37.171  1.00  0.00     0.093 C 
HETATM   24  N1  UNL     1     -29.566  84.162  37.784  1.00  0.00    -0.407 N 
ATOM     25  H12 UNL     1     -28.851  84.698  37.292  1.00  0.00     0.155 HD
ATOM     26  H11 UNL     1     -29.382  83.823  38.728  1.00  0.00     0.155 HD
ENDBRANCH   1  23
TORSDOF 5
ENDMDL
MODEL 3
REMARK VINA RESULT: -6.731732415      1.422      2.869
REMARK  5 active torsions:
REMARK  status: ('A' for Active; 'I' for Inactive)
REMARK    1  A    between atoms: C1_4  and  C2_5 
REMARK    2  A    between atoms: C7_12  and  N3_13 
REMARK    3  A    between atoms: N5_18  and  O1_19 
REMARK    4  A    between atoms: N6_21  and  C8_22 
REMARK    5  A    between atoms: C8_22  and  N7_23 
ROOT
HETATM    1  C2  UNL     1     -31.845  84.714  32.070  1.00  0.00    -0.005 A 
HETATM    2  C3  UNL     1     -31.273  83.726  32.841  1.00  0.00     0.102 A 
HETATM    3  N2  UNL     1     -30.719  83.986  34.056  1.00  0.00    -0.349 N 
ATOM      4  H2  UNL     1     -30.307  83.220  34.589  1.00  0.00     0.167 HD
HETATM    5  C4  UNL     1     -30.700  85.228  34.571  1.00  0.00     0.141 A 
HETATM    6  C5  UNL     1     -31.271  86.228  33.807  1.00  0.00     0.056 A 
HETATM    7  C6  UNL     1     -31.838  85.996  32.577  1.00  0.00     0.033 A 
HETATM    8  C7  UNL     1     -31.265  87.518  34.315  1.00  0.00     0.131 A 
HETATM    9  N4  UNL     1     -30.713  87.760  35.519  1.00  0.00    -0.243 N 
ATOM     10  H4  UNL     1     -30.702  88.705  35.904  1.00  0.00     0.193 HD
HETATM   11  N5  UNL     1     -30.180  86.743  36.201  1.00  0.00    -0.088 N 
HETATM   12  N6  UNL     1     -30.158  85.511  35.770  1.00  0.00    -0.208 N 
ENDROOT
BRANCH  12  13
HETATM   13  C8  UNL     1     -29.563  84.449  36.560  1.00  0.00     0.383 C 
BRANCH  13  14
HETATM   14  N7  UNL     1     -30.536  83.953  37.485  1.00  0.00    -0.061 N 
ATOM     15  H73 UNL     1     -30.145  83.263  38.126  1.00  0.00     0.276 HD
ATOM     16  H72 UNL     1     -30.807  84.653  38.176  1.00  0.00     0.276 HD
ATOM     17  H71 UNL     1     -31.336  83.591  36.966  1.00  0.00     0.276 HD
ENDBRANCH  13  14
ENDBRANCH  12  13
BRANCH  11  18
HETATM   18  O1  UNL     1     -29.622  87.014  37.425  1.00  0.00    -0.253 OA
ATOM     19  H1  UNL     1     -28.756  86.668  37.605  1.00  0.00     0.248 HD
ENDBRANCH  11  18
BRANCH   8  20
HETATM   20  N3  UNL     1     -31.781  88.473  33.643  1.00  0.00    -0.384 N 
ATOM     21  H32 UNL     1     -32.041  88.330  32.667  1.00  0.00     0.157 HD
ATOM     22  H31 UNL     1     -31.935  89.382  34.080  1.00  0.00     0.157 HD
ENDBRANCH   8  20
BRANCH   1  23
HETATM   23  C1  UNL     1     -32.440  84.448  30.770  1.00  0.00     0.093 C 
HETATM   24  N1  UNL     1     -32.990  85.361  30.058  1.00  0.00    -0.407 N 
ATOM     25  H12 UNL     1     -33.003  86.309  30.434  1.00  0.00     0.155 HD
ATOM     26  H11 UNL     1     -33.407  85.174  29.146  1.00  0.00     0.155 HD
ENDBRANCH   1  23
TORSDOF 5
ENDMDL
MODEL 4
REMARK VINA RESULT: -6.536651702      2.627      4.967
REMARK  5 active torsions:
REMARK  status: ('A' for Active; 'I' for Inactive)
REMARK    1  A    between atoms: C1_4  and  C2_5 
REMARK    2  A    between atoms: C7_12  and  N3_13 
REMARK    3  A    between atoms: N5_18  and  O1_19 
REMARK    4  A    between atoms: N6_21  and  C8_22 
REMARK    5  A    between atoms: C8_22  and  N7_23 
ROOT
HETATM    1  C2  UNL     1     -30.854  86.731  35.049  1.00  0.00    -0.005 A 
HETATM    2  C3  UNL     1     -31.173  87.799  34.240  1.00  0.00     0.102 A 
HETATM    3  N2  UNL     1     -31.627  87.633  32.969  1.00  0.00    -0.349 N 
ATOM      4  H2  UNL     1     -31.849  88.456  32.409  1.00  0.00     0.167 HD
HETATM    5  C4  UNL     1     -31.789  86.411  32.432  1.00  0.00     0.141 A 
HETATM    6  C5  UNL     1     -31.473  85.331  33.233  1.00  0.00     0.056 A 
HETATM    7  C6  UNL     1     -31.012  85.467  34.521  1.00  0.00     0.033 A 
HETATM    8  C7  UNL     1     -31.631  84.060  32.705  1.00  0.00     0.131 A 
HETATM    9  N4  UNL     1     -32.082  83.911  31.445  1.00  0.00    -0.243 N 
ATOM     10  H4  UNL     1     -32.202  82.981  31.044  1.00  0.00     0.193 HD
HETATM   11  N5  UNL     1     -32.368  85.002  30.728  1.00  0.00    -0.088 N 
HETATM   12  N6  UNL     1     -32.237  86.221  31.177  1.00  0.00    -0.208 N 
ENDROOT
BRANCH  12  13
HETATM   13  C8  UNL     1     -32.565  87.365  30.348  1.00  0.00     0.383 C 
BRANCH  13  14
HETATM   14  N7  UNL     1     -31.442  87.680  29.520  1.00  0.00    -0.061 N 
ATOM     15  H73 UNL     1     -31.721  88.095  28.630  1.00  0.00     0.276 HD
ATOM     16  H72 UNL     1     -30.902  88.467  29.881  1.00  0.00     0.276 HD
ATOM     17  H71 UNL     1     -30.873  86.843  29.396  1.00  0.00     0.276 HD
ENDBRANCH  13  14
ENDBRANCH  12  13
BRANCH  11  18
HETATM   18  O1  UNL     1     -32.825  84.826  29.447  1.00  0.00    -0.253 OA
ATOM     19  H1  UNL     1     -32.368  84.202  28.895  1.00  0.00     0.248 HD
ENDBRANCH  11  18
BRANCH   8  20
HETATM   20  N3  UNL     1     -31.350  83.033  33.410  1.00  0.00    -0.384 N 
ATOM     21  H32 UNL     1     -31.893  82.824  34.248  1.00  0.00     0.157 HD
ATOM     22  H31 UNL     1     -30.582  82.419  33.138  1.00  0.00     0.157 HD
ENDBRANCH   8  20
BRANCH   1  23
HETATM   23  C1  UNL     1     -30.368  86.896  36.410  1.00  0.00     0.093 C 
HETATM   24  N1  UNL     1     -30.027  88.034  36.892  1.00  0.00    -0.407 N 
ATOM     25  H12 UNL     1     -30.107  88.848  36.283  1.00  0.00     0.155 HD
ATOM     26  H11 UNL     1     -29.686  88.150  37.846  1.00  0.00     0.155 HD
ENDBRANCH   1  23
TORSDOF 5
ENDMDL
MODEL 5
REMARK VINA RESULT: -6.531550595      6.555      8.227
REMARK  5 active torsions:
REMARK  status: ('A' for Active; 'I' for Inactive)
REMARK    1  A    between atoms: C1_4  and  C2_5 
REMARK    2  A    between atoms: C7_12  and  N3_13 
REMARK    3  A    between atoms: N5_18  and  O1_19 
REMARK    4  A    between atoms: N6_21  and  C8_22 
REMARK    5  A    between atoms: C8_22  and  N7_23 
ROOT
HETATM    1  C2  UNL     1     -25.205  83.510  30.666  1.00  0.00    -0.005 A 
HETATM    2  C3  UNL     1     -24.442  82.565  30.016  1.00  0.00     0.102 A 
HETATM    3  N2  UNL     1     -24.419  81.262  30.406  1.00  0.00    -0.349 N 
ATOM      4  H2  UNL     1     -23.837  80.600  29.893  1.00  0.00     0.167 HD
HETATM    5  C4  UNL     1     -25.143  80.825  31.451  1.00  0.00     0.141 A 
HETATM    6  C5  UNL     1     -25.913  81.764  32.111  1.00  0.00     0.056 A 
HETATM    7  C6  UNL     1     -25.957  83.087  31.741  1.00  0.00     0.033 A 
HETATM    8  C7  UNL     1     -26.670  81.341  33.193  1.00  0.00     0.131 A 
HETATM    9  N4  UNL     1     -26.638  80.048  33.567  1.00  0.00    -0.243 N 
ATOM     10  H4  UNL     1     -27.190  79.723  34.360  1.00  0.00     0.193 HD
HETATM   11  N5  UNL     1     -25.869  79.196  32.881  1.00  0.00    -0.088 N 
HETATM   12  N6  UNL     1     -25.137  79.542  31.856  1.00  0.00    -0.208 N 
ENDROOT
BRANCH  12  13
HETATM   13  C8  UNL     1     -24.324  78.569  31.152  1.00  0.00     0.383 C 
BRANCH  13  14
HETATM   14  N7  UNL     1     -25.174  77.740  30.352  1.00  0.00    -0.061 N 
ATOM     15  H73 UNL     1     -25.263  76.797  30.731  1.00  0.00     0.276 HD
ATOM     16  H72 UNL     1     -26.154  78.013  30.417  1.00  0.00     0.276 HD
ATOM     17  H71 UNL     1     -24.833  77.742  29.391  1.00  0.00     0.276 HD
ENDBRANCH  13  14
ENDBRANCH  12  13
BRANCH  11  18
HETATM   18  O1  UNL     1     -25.851  77.884  33.280  1.00  0.00    -0.253 OA
ATOM     19  H1  UNL     1     -25.422  77.676  34.102  1.00  0.00     0.248 HD
ENDBRANCH  11  18
BRANCH   8  20
HETATM   20  N3  UNL     1     -27.396  82.174  33.832  1.00  0.00    -0.384 N 
ATOM     21  H32 UNL     1     -27.866  82.930  33.334  1.00  0.00     0.157 HD
ATOM     22  H31 UNL     1     -27.508  82.086  34.842  1.00  0.00     0.157 HD
ENDBRANCH   8  20
BRANCH   1  23
HETATM   23  C1  UNL     1     -25.237  84.906  30.258  1.00  0.00     0.093 C 
HETATM   24  N1  UNL     1     -24.758  85.851  30.980  1.00  0.00    -0.407 N 
ATOM     25  H12 UNL     1     -24.340  85.596  31.875  1.00  0.00     0.155 HD
ATOM     26  H11 UNL     1     -24.781  86.829  30.694  1.00  0.00     0.155 HD
ENDBRANCH   1  23
TORSDOF 5
ENDMDL
