MODEL 1
REMARK VINA RESULT: -8.497711710      0.000      0.000
REMARK  3 active torsions:
REMARK  status: ('A' for Active; 'I' for Inactive)
REMARK    1  A    between atoms: C3_3  and  C4_4 
REMARK    2  A    between atoms: C4_4  and  N1_5 
REMARK    3  A    between atoms: N1_5  and  C5_7 
ROOT
HETATM    1  C1  UNL     1     -31.416  84.444  36.403  1.00  0.00     0.012 C 
HETATM    2  C2  UNL     1     -31.189  85.630  36.332  1.00  0.00    -0.116 C 
HETATM    3  C3  UNL     1     -30.898  87.072  36.225  1.00  0.00     0.113 C 
ENDROOT
BRANCH   3   4
HETATM    4  C4  UNL     1     -30.496  87.340  34.789  1.00  0.00     0.150 C 
BRANCH   4   5
HETATM    5  N1  UNL     1     -31.648  87.363  33.937  1.00  0.00    -0.225 N 
ATOM      6  H1  UNL     1     -32.437  87.937  34.231  1.00  0.00     0.177 HD
BRANCH   5   7
HETATM    7  C5  UNL     1     -31.765  86.723  32.839  1.00  0.00     0.685 C 
HETATM    8  N2  UNL     1     -31.502  85.406  32.897  1.00  0.00    -0.141 N 
HETATM    9  C6  UNL     1     -31.902  84.416  32.052  1.00  0.00     0.341 C 
ATOM     10  H2  UNL     1     -30.923  85.107  33.681  1.00  0.00     0.189 HD
HETATM   11  O1  UNL     1     -31.874  83.261  32.518  1.00  0.00    -0.246 OA
HETATM   12  N3  UNL     1     -32.326  84.498  30.779  1.00  0.00    -0.270 N 
HETATM   13  C7  UNL     1     -32.441  85.618  30.043  1.00  0.00     0.318 C 
ATOM     14  H3  UNL     1     -32.588  83.622  30.325  1.00  0.00     0.174 HD
HETATM   15  O2  UNL     1     -32.737  85.515  28.838  1.00  0.00    -0.262 OA
HETATM   16  C8  UNL     1     -32.268  86.933  30.455  1.00  0.00     0.328 C 
HETATM   17  O3  UNL     1     -32.223  87.818  29.561  1.00  0.00    -0.261 OA
HETATM   18  N4  UNL     1     -32.136  87.408  31.728  1.00  0.00    -0.151 N 
ATOM     19  H4  UNL     1     -32.341  88.399  31.859  1.00  0.00     0.188 HD
ENDBRANCH   5   7
ENDBRANCH   4   5
ENDBRANCH   3   4
TORSDOF 3
ENDMDL
MODEL 2
REMARK VINA RESULT: -7.670566554      2.787      5.753
REMARK  3 active torsions:
REMARK  status: ('A' for Active; 'I' for Inactive)
REMARK    1  A    between atoms: C3_3  and  C4_4 
REMARK    2  A    between atoms: C4_4  and  N1_5 
REMARK    3  A    between atoms: N1_5  and  C5_7 
ROOT
HETATM    1  C1  UNL     1     -30.322  86.390  29.920  1.00  0.00     0.012 C 
HETATM    2  C2  UNL     1     -31.215  85.719  30.383  1.00  0.00    -0.116 C 
HETATM    3  C3  UNL     1     -32.288  84.883  30.955  1.00  0.00     0.113 C 
ENDROOT
BRANCH   3   4
HETATM    4  C4  UNL     1     -31.643  83.966  31.973  1.00  0.00     0.150 C 
BRANCH   4   5
HETATM    5  N1  UNL     1     -32.023  84.338  33.303  1.00  0.00    -0.225 N 
ATOM      6  H1  UNL     1     -32.858  83.900  33.691  1.00  0.00     0.177 HD
BRANCH   5   7
HETATM    7  C5  UNL     1     -31.401  85.172  34.042  1.00  0.00     0.685 C 
HETATM    8  N2  UNL     1     -31.339  86.433  33.578  1.00  0.00    -0.141 N 
HETATM    9  C6  UNL     1     -31.119  87.587  34.266  1.00  0.00     0.341 C 
ATOM     10  H2  UNL     1     -31.475  86.540  32.573  1.00  0.00     0.189 HD
HETATM   11  O1  UNL     1     -31.496  88.633  33.705  1.00  0.00    -0.246 OA
HETATM   12  N3  UNL     1     -30.551  87.769  35.471  1.00  0.00    -0.270 N 
HETATM   13  C7  UNL     1     -30.055  86.812  36.276  1.00  0.00     0.318 C 
ATOM     14  H3  UNL     1     -30.490  88.730  35.810  1.00  0.00     0.174 HD
HETATM   15  O2  UNL     1     -29.453  87.154  37.311  1.00  0.00    -0.262 OA
HETATM   16  C8  UNL     1     -30.121  85.435  36.109  1.00  0.00     0.328 C 
HETATM   17  O3  UNL     1     -29.417  84.725  36.873  1.00  0.00    -0.261 OA
HETATM   18  N4  UNL     1     -30.864  84.730  35.206  1.00  0.00    -0.151 N 
ATOM     19  H4  UNL     1     -31.035  83.751  35.436  1.00  0.00     0.188 HD
ENDBRANCH   5   7
ENDBRANCH   4   5
ENDBRANCH   3   4
TORSDOF 3
ENDMDL
MODEL 3
REMARK VINA RESULT: -7.580981544      3.213      5.842
REMARK  3 active torsions:
REMARK  status: ('A' for Active; 'I' for Inactive)
REMARK    1  A    between atoms: C3_3  and  C4_4 
REMARK    2  A    between atoms: C4_4  and  N1_5 
REMARK    3  A    between atoms: N1_5  and  C5_7 
ROOT
HETATM    1  C1  UNL     1     -32.575  85.272  29.418  1.00  0.00     0.012 C 
HETATM    2  C2  UNL     1     -31.808  85.541  30.313  1.00  0.00    -0.116 C 
HETATM    3  C3  UNL     1     -30.880  85.892  31.405  1.00  0.00     0.113 C 
ENDROOT
BRANCH   3   4
HETATM    4  C4  UNL     1     -31.427  87.138  32.070  1.00  0.00     0.150 C 
BRANCH   4   5
HETATM    5  N1  UNL     1     -31.949  86.831  33.369  1.00  0.00    -0.225 N 
ATOM      6  H1  UNL     1     -32.952  86.950  33.511  1.00  0.00     0.177 HD
BRANCH   5   7
HETATM    7  C5  UNL     1     -31.261  86.421  34.362  1.00  0.00     0.685 C 
HETATM    8  N2  UNL     1     -30.527  87.355  34.993  1.00  0.00    -0.141 N 
HETATM    9  C6  UNL     1     -30.030  87.339  36.260  1.00  0.00     0.341 C 
ATOM     10  H2  UNL     1     -30.315  88.190  34.447  1.00  0.00     0.189 HD
HETATM   11  O1  UNL     1     -29.737  88.450  36.742  1.00  0.00    -0.246 OA
HETATM   12  N3  UNL     1     -29.804  86.295  37.077  1.00  0.00    -0.270 N 
HETATM   13  C7  UNL     1     -30.023  84.997  36.798  1.00  0.00     0.318 C 
ATOM     14  H3  UNL     1     -29.428  86.509  38.001  1.00  0.00     0.174 HD
HETATM   15  O2  UNL     1     -29.651  84.139  37.619  1.00  0.00    -0.262 OA
HETATM   16  C8  UNL     1     -30.634  84.456  35.675  1.00  0.00     0.328 C 
HETATM   17  O3  UNL     1     -30.557  83.209  35.520  1.00  0.00    -0.261 OA
HETATM   18  N4  UNL     1     -31.323  85.106  34.693  1.00  0.00    -0.151 N 
ATOM     19  H4  UNL     1     -31.961  84.534  34.140  1.00  0.00     0.188 HD
ENDBRANCH   5   7
ENDBRANCH   4   5
ENDBRANCH   3   4
TORSDOF 3
ENDMDL
MODEL 4
REMARK VINA RESULT: -7.410394549      0.881      1.471
REMARK  3 active torsions:
REMARK  status: ('A' for Active; 'I' for Inactive)
REMARK    1  A    between atoms: C3_3  and  C4_4 
REMARK    2  A    between atoms: C4_4  and  N1_5 
REMARK    3  A    between atoms: N1_5  and  C5_7 
ROOT
HETATM    1  C1  UNL     1     -29.572  88.420  37.053  1.00  0.00     0.012 C 
HETATM    2  C2  UNL     1     -29.838  87.287  36.726  1.00  0.00    -0.116 C 
HETATM    3  C3  UNL     1     -30.186  85.910  36.325  1.00  0.00     0.113 C 
ENDROOT
BRANCH   3   4
HETATM    4  C4  UNL     1     -31.473  85.991  35.531  1.00  0.00     0.150 C 
BRANCH   4   5
HETATM    5  N1  UNL     1     -31.268  86.705  34.305  1.00  0.00    -0.225 N 
ATOM      6  H1  UNL     1     -30.870  87.641  34.369  1.00  0.00     0.177 HD
BRANCH   5   7
HETATM    7  C5  UNL     1     -31.544  86.264  33.140  1.00  0.00     0.685 C 
HETATM    8  N2  UNL     1     -31.508  84.927  32.996  1.00  0.00    -0.141 N 
HETATM    9  C6  UNL     1     -32.111  84.152  32.052  1.00  0.00     0.341 C 
ATOM     10  H2  UNL     1     -30.953  84.424  33.688  1.00  0.00     0.189 HD
HETATM   11  O1  UNL     1     -32.260  82.952  32.350  1.00  0.00    -0.246 OA
HETATM   12  N3  UNL     1     -32.573  84.491  30.836  1.00  0.00    -0.270 N 
HETATM   13  C7  UNL     1     -32.528  85.712  30.272  1.00  0.00     0.318 C 
ATOM     14  H3  UNL     1     -33.002  83.747  30.284  1.00  0.00     0.174 HD
HETATM   15  O2  UNL     1     -32.893  85.838  29.089  1.00  0.00    -0.262 OA
HETATM   16  C8  UNL     1     -32.113  86.905  30.850  1.00  0.00     0.328 C 
HETATM   17  O3  UNL     1     -31.958  87.894  30.086  1.00  0.00    -0.261 OA
HETATM   18  N4  UNL     1     -31.843  87.157  32.164  1.00  0.00    -0.151 N 
ATOM     19  H4  UNL     1     -31.869  88.137  32.445  1.00  0.00     0.188 HD
ENDBRANCH   5   7
ENDBRANCH   4   5
ENDBRANCH   3   4
TORSDOF 3
ENDMDL
MODEL 5
REMARK VINA RESULT: -7.353668058      2.791      5.237
REMARK  3 active torsions:
REMARK  status: ('A' for Active; 'I' for Inactive)
REMARK    1  A    between atoms: C3_3  and  C4_4 
REMARK    2  A    between atoms: C4_4  and  N1_5 
REMARK    3  A    between atoms: N1_5  and  C5_7 
ROOT
HETATM    1  C1  UNL     1     -29.710  86.395  29.938  1.00  0.00     0.012 C 
HETATM    2  C2  UNL     1     -30.882  86.098  29.949  1.00  0.00    -0.116 C 
HETATM    3  C3  UNL     1     -32.308  85.722  29.981  1.00  0.00     0.113 C 
ENDROOT
BRANCH   3   4
HETATM    4  C4  UNL     1     -32.597  85.193  31.370  1.00  0.00     0.150 C 
BRANCH   4   5
HETATM    5  N1  UNL     1     -32.156  86.122  32.368  1.00  0.00    -0.225 N 
ATOM      6  H1  UNL     1     -32.286  87.114  32.175  1.00  0.00     0.177 HD
BRANCH   5   7
HETATM    7  C5  UNL     1     -31.614  85.807  33.480  1.00  0.00     0.685 C 
HETATM    8  N2  UNL     1     -31.416  84.493  33.685  1.00  0.00    -0.141 N 
HETATM    9  C6  UNL     1     -30.544  83.881  34.533  1.00  0.00     0.341 C 
ATOM     10  H2  UNL     1     -31.999  83.868  33.128  1.00  0.00     0.189 HD
HETATM   11  O1  UNL     1     -30.265  82.698  34.263  1.00  0.00    -0.246 OA
HETATM   12  N3  UNL     1     -29.933  84.367  35.628  1.00  0.00    -0.270 N 
HETATM   13  C7  UNL     1     -30.068  85.605  36.138  1.00  0.00     0.318 C 
ATOM     14  H3  UNL     1     -29.304  83.734  36.122  1.00  0.00     0.174 HD
HETATM   15  O2  UNL     1     -29.525  85.865  37.228  1.00  0.00    -0.262 OA
HETATM   16  C8  UNL     1     -30.758  86.682  35.598  1.00  0.00     0.328 C 
HETATM   17  O3  UNL     1     -30.929  87.688  36.334  1.00  0.00    -0.261 OA
HETATM   18  N4  UNL     1     -31.291  86.800  34.346  1.00  0.00    -0.151 N 
ATOM     19  H4  UNL     1     -31.468  87.752  34.024  1.00  0.00     0.188 HD
ENDBRANCH   5   7
ENDBRANCH   4   5
ENDBRANCH   3   4
TORSDOF 3
ENDMDL
