MODEL 1
REMARK VINA RESULT: -7.486907365      0.000      0.000
REMARK  3 active torsions:
REMARK  status: ('A' for Active; 'I' for Inactive)
REMARK    1  A    between atoms: N4_12  and  C4_13 
REMARK    2  A    between atoms: C4_13  and  C5_14 
REMARK    3  A    between atoms: N6_20  and  O2_21 
ROOT
HETATM    1  N1  UNL     1     -33.648  84.976  31.546  1.00  0.00    -0.234 N 
ATOM      2  H11 UNL     1     -33.447  84.204  32.181  1.00  0.00     0.174 HD
ATOM      3  H12 UNL     1     -34.599  85.170  31.234  1.00  0.00     0.174 HD
HETATM    4  C1  UNL     1     -32.596  85.624  31.203  1.00  0.00     0.683 A 
HETATM    5  N2  UNL     1     -32.867  86.666  30.348  1.00  0.00    -0.141 N 
ATOM      6  H2  UNL     1     -33.829  86.835  30.052  1.00  0.00     0.189 HD
HETATM    7  C2  UNL     1     -31.903  87.452  29.903  1.00  0.00     0.339 A 
HETATM    8  O1  UNL     1     -32.168  88.411  29.114  1.00  0.00    -0.246 OA
HETATM    9  N3  UNL     1     -30.651  87.202  30.312  1.00  0.00    -0.303 N 
ATOM     10  H3  UNL     1     -29.890  87.796  29.983  1.00  0.00     0.171 HD
HETATM   11  C3  UNL     1     -30.382  86.195  31.140  1.00  0.00     0.205 A 
HETATM   12  N4  UNL     1     -31.353  85.371  31.611  1.00  0.00    -0.174 N 
ENDROOT
BRANCH  12  13
HETATM   13  C4  UNL     1     -31.082  84.285  32.488  1.00  0.00     0.209 C 
BRANCH  13  14
HETATM   14  C5  UNL     1     -30.996  84.593  33.922  1.00  0.00     0.073 A 
HETATM   15  C6  UNL     1     -31.362  85.846  34.368  1.00  0.00     0.117 A 
HETATM   16  N5  UNL     1     -31.331  86.188  35.691  1.00  0.00    -0.372 N 
HETATM   17  C7  UNL     1     -30.937  85.305  36.603  1.00  0.00     0.107 A 
ATOM     18  H5  UNL     1     -31.610  87.126  35.981  1.00  0.00     0.164 HD
HETATM   19  C8  UNL     1     -30.570  84.054  36.176  1.00  0.00     0.140 A 
HETATM   20  N6  UNL     1     -30.608  83.728  34.852  1.00  0.00    -0.236 N 
BRANCH  20  21
HETATM   21  O2  UNL     1     -30.257  82.451  34.507  1.00  0.00    -0.283 OA
ATOM     22  H2  UNL     1     -30.759  81.711  34.827  1.00  0.00     0.245 HD
ENDBRANCH  20  21
ENDBRANCH  13  14
ENDBRANCH  12  13
TORSDOF 3
ENDMDL
MODEL 2
REMARK VINA RESULT: -7.155908293      2.240      5.380
REMARK  3 active torsions:
REMARK  status: ('A' for Active; 'I' for Inactive)
REMARK    1  A    between atoms: N4_12  and  C4_13 
REMARK    2  A    between atoms: C4_13  and  C5_14 
REMARK    3  A    between atoms: N6_20  and  O2_21 
ROOT
HETATM    1  N1  UNL     1     -30.061  83.657  35.441  1.00  0.00    -0.234 N 
ATOM      2  H11 UNL     1     -30.491  83.114  34.693  1.00  0.00     0.174 HD
ATOM      3  H12 UNL     1     -29.487  83.210  36.155  1.00  0.00     0.174 HD
HETATM    4  C1  UNL     1     -30.339  84.906  35.371  1.00  0.00     0.683 A 
HETATM    5  N2  UNL     1     -29.759  85.639  36.379  1.00  0.00    -0.141 N 
ATOM      6  H2  UNL     1     -29.191  85.164  37.081  1.00  0.00     0.189 HD
HETATM    7  C2  UNL     1     -29.926  86.948  36.455  1.00  0.00     0.339 A 
HETATM    8  O1  UNL     1     -29.384  87.612  37.392  1.00  0.00    -0.246 OA
HETATM    9  N3  UNL     1     -30.679  87.539  35.517  1.00  0.00    -0.303 N 
ATOM     10  H3  UNL     1     -30.822  88.548  35.554  1.00  0.00     0.171 HD
HETATM   11  C3  UNL     1     -31.243  86.835  34.538  1.00  0.00     0.205 A 
HETATM   12  N4  UNL     1     -31.089  85.490  34.437  1.00  0.00    -0.174 N 
ENDROOT
BRANCH  12  13
HETATM   13  C4  UNL     1     -31.693  84.722  33.403  1.00  0.00     0.209 C 
BRANCH  13  14
HETATM   14  C5  UNL     1     -31.581  85.244  32.035  1.00  0.00     0.073 A 
HETATM   15  C6  UNL     1     -30.343  85.613  31.551  1.00  0.00     0.117 A 
HETATM   16  N5  UNL     1     -30.167  86.080  30.278  1.00  0.00    -0.372 N 
HETATM   17  C7  UNL     1     -31.204  86.195  29.456  1.00  0.00     0.107 A 
ATOM     18  H5  UNL     1     -29.234  86.343  29.957  1.00  0.00     0.164 HD
HETATM   19  C8  UNL     1     -32.442  85.831  29.922  1.00  0.00     0.140 A 
HETATM   20  N6  UNL     1     -32.602  85.366  31.194  1.00  0.00    -0.236 N 
BRANCH  20  21
HETATM   21  O2  UNL     1     -33.862  84.993  31.575  1.00  0.00    -0.283 OA
ATOM     22  H2  UNL     1     -34.580  85.613  31.534  1.00  0.00     0.245 HD
ENDBRANCH  20  21
ENDBRANCH  13  14
ENDBRANCH  12  13
TORSDOF 3
ENDMDL
MODEL 3
REMARK VINA RESULT: -7.149806427      1.845      5.516
REMARK  3 active torsions:
REMARK  status: ('A' for Active; 'I' for Inactive)
REMARK    1  A    between atoms: N4_12  and  C4_13 
REMARK    2  A    between atoms: C4_13  and  C5_14 
REMARK    3  A    between atoms: N6_20  and  O2_21 
ROOT
HETATM    1  N1  UNL     1     -29.498  82.648  34.133  1.00  0.00    -0.234 N 
ATOM      2  H11 UNL     1     -29.829  82.368  33.210  1.00  0.00     0.174 HD
ATOM      3  H12 UNL     1     -28.796  82.101  34.631  1.00  0.00     0.174 HD
HETATM    4  C1  UNL     1     -30.066  83.714  34.563  1.00  0.00     0.683 A 
HETATM    5  N2  UNL     1     -29.620  84.091  35.807  1.00  0.00    -0.141 N 
ATOM      6  H2  UNL     1     -28.917  83.523  36.282  1.00  0.00     0.189 HD
HETATM    7  C2  UNL     1     -30.085  85.177  36.399  1.00  0.00     0.339 A 
HETATM    8  O1  UNL     1     -29.664  85.514  37.549  1.00  0.00    -0.246 OA
HETATM    9  N3  UNL     1     -31.007  85.900  35.747  1.00  0.00    -0.303 N 
ATOM     10  H3  UNL     1     -31.381  86.743  36.183  1.00  0.00     0.171 HD
HETATM   11  C3  UNL     1     -31.442  85.540  34.542  1.00  0.00     0.205 A 
HETATM   12  N4  UNL     1     -30.983  84.429  33.912  1.00  0.00    -0.174 N 
ENDROOT
BRANCH  12  13
HETATM   13  C4  UNL     1     -31.445  84.024  32.629  1.00  0.00     0.209 C 
BRANCH  13  14
HETATM   14  C5  UNL     1     -31.461  85.048  31.575  1.00  0.00     0.073 A 
HETATM   15  C6  UNL     1     -30.266  85.534  31.086  1.00  0.00     0.117 A 
HETATM   16  N5  UNL     1     -30.211  86.466  30.087  1.00  0.00    -0.372 N 
HETATM   17  C7  UNL     1     -31.330  86.939  29.550  1.00  0.00     0.107 A 
ATOM     18  H5  UNL     1     -29.307  86.800  29.753  1.00  0.00     0.164 HD
HETATM   19  C8  UNL     1     -32.527  86.466  30.024  1.00  0.00     0.140 A 
HETATM   20  N6  UNL     1     -32.565  85.535  31.021  1.00  0.00    -0.236 N 
BRANCH  20  21
HETATM   21  O2  UNL     1     -33.796  85.087  31.419  1.00  0.00    -0.283 OA
ATOM     22  H2  UNL     1     -34.256  84.430  30.911  1.00  0.00     0.245 HD
ENDBRANCH  20  21
ENDBRANCH  13  14
ENDBRANCH  12  13
TORSDOF 3
ENDMDL
MODEL 4
REMARK VINA RESULT: -6.936830414      1.670      1.817
REMARK  3 active torsions:
REMARK  status: ('A' for Active; 'I' for Inactive)
REMARK    1  A    between atoms: N4_12  and  C4_13 
REMARK    2  A    between atoms: C4_13  and  C5_14 
REMARK    3  A    between atoms: N6_20  and  O2_21 
ROOT
HETATM    1  N1  UNL     1     -33.232  83.420  32.545  1.00  0.00    -0.234 N 
ATOM      2  H11 UNL     1     -32.902  83.163  33.475  1.00  0.00     0.174 HD
ATOM      3  H12 UNL     1     -34.122  83.073  32.186  1.00  0.00     0.174 HD
HETATM    4  C1  UNL     1     -32.414  84.183  31.920  1.00  0.00     0.683 A 
HETATM    5  N2  UNL     1     -32.860  84.530  30.667  1.00  0.00    -0.141 N 
ATOM      6  H2  UNL     1     -33.754  84.167  30.334  1.00  0.00     0.189 HD
HETATM    7  C2  UNL     1     -32.150  85.325  29.886  1.00  0.00     0.339 A 
HETATM    8  O1  UNL     1     -32.575  85.638  28.730  1.00  0.00    -0.246 OA
HETATM    9  N3  UNL     1     -30.981  85.784  30.354  1.00  0.00    -0.303 N 
ATOM     10  H3  UNL     1     -30.416  86.400  29.770  1.00  0.00     0.171 HD
HETATM   11  C3  UNL     1     -30.544  85.452  31.567  1.00  0.00     0.205 A 
HETATM   12  N4  UNL     1     -31.252  84.635  32.390  1.00  0.00    -0.174 N 
ENDROOT
BRANCH  12  13
HETATM   13  C4  UNL     1     -30.795  84.263  33.684  1.00  0.00     0.209 C 
BRANCH  13  14
HETATM   14  C5  UNL     1     -30.686  85.333  34.684  1.00  0.00     0.073 A 
HETATM   15  C6  UNL     1     -31.446  86.474  34.539  1.00  0.00     0.117 A 
HETATM   16  N5  UNL     1     -31.412  87.495  35.449  1.00  0.00    -0.372 N 
HETATM   17  C7  UNL     1     -30.627  87.413  36.518  1.00  0.00     0.107 A 
ATOM     18  H5  UNL     1     -31.990  88.323  35.306  1.00  0.00     0.164 HD
HETATM   19  C8  UNL     1     -29.865  86.284  36.677  1.00  0.00     0.140 A 
HETATM   20  N6  UNL     1     -29.911  85.274  35.761  1.00  0.00    -0.236 N 
BRANCH  20  21
HETATM   21  O2  UNL     1     -29.146  84.166  36.006  1.00  0.00    -0.283 OA
ATOM     22  H2  UNL     1     -28.220  84.165  35.793  1.00  0.00     0.245 HD
ENDBRANCH  20  21
ENDBRANCH  13  14
ENDBRANCH  12  13
TORSDOF 3
ENDMDL
MODEL 5
REMARK VINA RESULT: -6.756115317      0.602      1.627
REMARK  3 active torsions:
REMARK  status: ('A' for Active; 'I' for Inactive)
REMARK    1  A    between atoms: N4_12  and  C4_13 
REMARK    2  A    between atoms: C4_13  and  C5_14 
REMARK    3  A    between atoms: N6_20  and  O2_21 
ROOT
HETATM    1  N1  UNL     1     -29.143  85.814  30.661  1.00  0.00    -0.234 N 
ATOM      2  H11 UNL     1     -28.852  85.049  31.269  1.00  0.00     0.174 HD
ATOM      3  H12 UNL     1     -28.475  86.295  30.060  1.00  0.00     0.174 HD
HETATM    4  C1  UNL     1     -30.393  86.080  30.762  1.00  0.00     0.683 A 
HETATM    5  N2  UNL     1     -30.786  87.110  29.942  1.00  0.00    -0.141 N 
ATOM      6  H2  UNL     1     -30.095  87.575  29.352  1.00  0.00     0.189 HD
HETATM    7  C2  UNL     1     -32.045  87.511  29.903  1.00  0.00     0.339 A 
HETATM    8  O1  UNL     1     -32.395  88.464  29.140  1.00  0.00    -0.246 OA
HETATM    9  N3  UNL     1     -32.928  86.879  30.690  1.00  0.00    -0.303 N 
ATOM     10  H3  UNL     1     -33.906  87.169  30.678  1.00  0.00     0.171 HD
HETATM   11  C3  UNL     1     -32.553  85.880  31.486  1.00  0.00     0.205 A 
HETATM   12  N4  UNL     1     -31.266  85.450  31.547  1.00  0.00    -0.174 N 
ENDROOT
BRANCH  12  13
HETATM   13  C4  UNL     1     -30.848  84.391  32.399  1.00  0.00     0.209 C 
BRANCH  13  14
HETATM   14  C5  UNL     1     -30.901  84.641  33.845  1.00  0.00     0.073 A 
HETATM   15  C6  UNL     1     -31.275  85.887  34.303  1.00  0.00     0.117 A 
HETATM   16  N5  UNL     1     -31.371  86.177  35.636  1.00  0.00    -0.372 N 
HETATM   17  C7  UNL     1     -31.099  85.247  36.545  1.00  0.00     0.107 A 
ATOM     18  H5  UNL     1     -31.652  87.111  35.934  1.00  0.00     0.164 HD
HETATM   19  C8  UNL     1     -30.725  84.002  36.107  1.00  0.00     0.140 A 
HETATM   20  N6  UNL     1     -30.636  83.729  34.773  1.00  0.00    -0.236 N 
BRANCH  20  21
HETATM   21  O2  UNL     1     -30.288  82.455  34.413  1.00  0.00    -0.283 OA
ATOM     22  H2  UNL     1     -29.510  82.048  34.776  1.00  0.00     0.245 HD
ENDBRANCH  20  21
ENDBRANCH  13  14
ENDBRANCH  12  13
TORSDOF 3
ENDMDL
