MODEL 1
REMARK VINA RESULT: -7.523567041      0.000      0.000
REMARK  10 active torsions:
REMARK  status: ('A' for Active; 'I' for Inactive)
REMARK    1  A    between atoms: C2_2  and  C4_4 
REMARK    2  A    between atoms: C7_7  and  O1_8 
REMARK    3  A    between atoms: C9_11  and  C10_12 
REMARK    4  A    between atoms: C13_15  and  O2_16 
REMARK    5  A    between atoms: O2_16  and  C14_17 
REMARK    6  A    between atoms: C14_17  and  C15_18 
REMARK    7  A    between atoms: C15_18  and  C18_21 
REMARK    8  A    between atoms: C18_21  and  O3_23 
REMARK    9  A    between atoms: C22_28  and  O4_29 
REMARK   10  A    between atoms: C23_31  and  O5_32 
ROOT
HETATM    1  C4  UNL     1     -94.362 -17.459  48.660  1.00  0.00     0.029 C 
HETATM    2  C5  UNL     1     -93.623 -16.644  47.618  1.00  0.00     0.011 C 
HETATM    3  C6  UNL     1     -94.396 -16.840  46.299  1.00  0.00     0.041 C 
HETATM    4  C7  UNL     1     -95.181 -18.013  46.604  1.00  0.00     0.092 C 
HETATM    5  C8  UNL     1     -96.461 -18.330  45.979  1.00  0.00     0.053 C 
HETATM    6  C9  UNL     1     -96.969 -19.364  47.004  1.00  0.00     0.053 C 
HETATM    7  C22 UNL     1     -96.426 -18.903  48.341  1.00  0.00     0.164 C 
HETATM    8  C23 UNL     1     -95.676 -17.668  48.030  1.00  0.00     0.119 C 
ENDROOT
BRANCH   6   9
HETATM    9  C10 UNL     1     -98.402 -19.580  46.950  1.00  0.00    -0.050 A 
HETATM   10  C11 UNL     1     -99.028 -20.118  48.054  1.00  0.00     0.010 A 
HETATM   11  C12 UNL     1    -100.351 -20.368  48.146  1.00  0.00     0.039 A 
HETATM   12  C13 UNL     1    -101.176 -20.066  47.047  1.00  0.00     0.086 A 
HETATM   13  C20 UNL     1    -100.548 -19.518  45.917  1.00  0.00     0.044 A 
HETATM   14 BR1  UNL     1    -101.655 -19.094  44.399  1.00  0.00    -0.048 Br
HETATM   15  C21 UNL     1     -99.207 -19.286  45.881  1.00  0.00     0.029 A 
BRANCH  12  16
HETATM   16  O2  UNL     1    -102.452 -20.268  47.041  1.00  0.00    -0.349 OA
BRANCH  16  17
HETATM   17  C14 UNL     1    -103.726 -20.469  47.035  1.00  0.00     0.187 C 
BRANCH  17  18
HETATM   18  C15 UNL     1    -104.551 -20.378  48.304  1.00  0.00    -0.000 C 
HETATM   19  C16 UNL     1    -105.944 -19.949  47.880  1.00  0.00     0.020 C 
HETATM   20  C17 UNL     1    -103.944 -19.314  49.230  1.00  0.00     0.020 C 
BRANCH  18  21
HETATM   21  C18 UNL     1    -104.658 -21.635  49.090  1.00  0.00     0.124 C 
HETATM   22  C19 UNL     1    -104.878 -22.876  48.244  1.00  0.00     0.040 C 
BRANCH  21  23
HETATM   23  O3  UNL     1    -105.496 -21.601  50.177  1.00  0.00    -0.395 OA
ATOM     24  H3  UNL     1    -105.266 -20.987  50.865  1.00  0.00     0.210 HD
ENDBRANCH  21  23
ENDBRANCH  18  21
ENDBRANCH  17  18
ENDBRANCH  16  17
ENDBRANCH  12  16
ENDBRANCH   6   9
BRANCH   7  25
HETATM   25  O4  UNL     1     -95.661 -19.889  48.954  1.00  0.00    -0.392 OA
ATOM     26  H4  UNL     1     -95.987 -20.100  49.821  1.00  0.00     0.210 HD
ENDBRANCH   7  25
BRANCH   4  27
HETATM   27  O1  UNL     1     -94.399 -19.150  46.693  1.00  0.00    -0.387 OA
ATOM     28  H1  UNL     1     -93.963 -19.347  45.873  1.00  0.00     0.210 HD
ENDBRANCH   4  27
BRANCH   8  29
HETATM   29  O5  UNL     1     -96.407 -16.512  48.036  1.00  0.00    -0.384 OA
ATOM     30  H5  UNL     1     -97.335 -16.699  47.953  1.00  0.00     0.210 HD
ENDBRANCH   8  29
BRANCH   1  31
HETATM   31  C2  UNL     1     -94.449 -16.779  49.987  1.00  0.00    -0.016 C 
HETATM   32  C1  UNL     1     -93.603 -15.575  50.164  1.00  0.00     0.010 C 
HETATM   33  C3  UNL     1     -94.225 -17.725  51.143  1.00  0.00     0.010 C 
ENDBRANCH   1  31
TORSDOF 10
ENDMDL
MODEL 2
REMARK VINA RESULT: -7.436008705      2.686      8.808
REMARK  10 active torsions:
REMARK  status: ('A' for Active; 'I' for Inactive)
REMARK    1  A    between atoms: C2_2  and  C4_4 
REMARK    2  A    between atoms: C7_7  and  O1_8 
REMARK    3  A    between atoms: C9_11  and  C10_12 
REMARK    4  A    between atoms: C13_15  and  O2_16 
REMARK    5  A    between atoms: O2_16  and  C14_17 
REMARK    6  A    between atoms: C14_17  and  C15_18 
REMARK    7  A    between atoms: C15_18  and  C18_21 
REMARK    8  A    between atoms: C18_21  and  O3_23 
REMARK    9  A    between atoms: C22_28  and  O4_29 
REMARK   10  A    between atoms: C23_31  and  O5_32 
ROOT
HETATM    1  C4  UNL     1    -104.052 -20.520  50.082  1.00  0.00     0.029 C 
HETATM    2  C5  UNL     1    -104.097 -19.774  51.400  1.00  0.00     0.011 C 
HETATM    3  C6  UNL     1    -102.691 -19.174  51.596  1.00  0.00     0.041 C 
HETATM    4  C7  UNL     1    -101.919 -19.953  50.658  1.00  0.00     0.092 C 
HETATM    5  C8  UNL     1    -100.693 -19.488  50.016  1.00  0.00     0.053 C 
HETATM    6  C9  UNL     1    -100.634 -20.509  48.861  1.00  0.00     0.053 C 
HETATM    7  C22 UNL     1    -102.079 -20.797  48.508  1.00  0.00     0.164 C 
HETATM    8  C23 UNL     1    -102.863 -19.948  49.430  1.00  0.00     0.119 C 
ENDROOT
BRANCH   6   9
HETATM    9  C10 UNL     1     -99.791 -20.091  47.758  1.00  0.00    -0.050 A 
HETATM   10  C11 UNL     1     -98.425 -20.077  47.942  1.00  0.00     0.010 A 
HETATM   11  C12 UNL     1     -97.523 -19.716  47.006  1.00  0.00     0.039 A 
HETATM   12  C13 UNL     1     -97.985 -19.319  45.738  1.00  0.00     0.086 A 
HETATM   13  C20 UNL     1     -99.374 -19.329  45.539  1.00  0.00     0.044 A 
HETATM   14 BR1  UNL     1    -100.033 -18.791  43.811  1.00  0.00    -0.048 Br
HETATM   15  C21 UNL     1    -100.239 -19.705  46.523  1.00  0.00     0.029 A 
BRANCH  12  16
HETATM   16  O2  UNL     1     -97.199 -18.959  44.778  1.00  0.00    -0.349 OA
BRANCH  16  17
HETATM   17  C14 UNL     1     -96.416 -18.600  43.818  1.00  0.00     0.187 C 
BRANCH  17  18
HETATM   18  C15 UNL     1     -94.986 -18.167  44.078  1.00  0.00    -0.000 C 
HETATM   19  C16 UNL     1     -94.172 -19.440  44.229  1.00  0.00     0.020 C 
HETATM   20  C17 UNL     1     -94.929 -17.362  45.385  1.00  0.00     0.020 C 
BRANCH  18  21
HETATM   21  C18 UNL     1     -94.367 -17.328  43.019  1.00  0.00     0.124 C 
HETATM   22  C19 UNL     1     -93.476 -16.220  43.550  1.00  0.00     0.040 C 
BRANCH  21  23
HETATM   23  O3  UNL     1     -95.209 -16.880  42.032  1.00  0.00    -0.395 OA
ATOM     24  H3  UNL     1     -95.397 -15.949  42.031  1.00  0.00     0.210 HD
ENDBRANCH  21  23
ENDBRANCH  18  21
ENDBRANCH  17  18
ENDBRANCH  16  17
ENDBRANCH  12  16
ENDBRANCH   6   9
BRANCH   7  25
HETATM   25  O4  UNL     1    -102.373 -22.152  48.601  1.00  0.00    -0.392 OA
ATOM     26  H4  UNL     1    -103.310 -22.309  48.622  1.00  0.00     0.210 HD
ENDBRANCH   7  25
BRANCH   4  27
HETATM   27  O1  UNL     1    -101.772 -21.265  51.071  1.00  0.00    -0.387 OA
ATOM     28  H1  UNL     1    -102.195 -21.874  50.478  1.00  0.00     0.210 HD
ENDBRANCH   4  27
BRANCH   8  29
HETATM   29  O5  UNL     1    -103.111 -18.674  49.000  1.00  0.00    -0.384 OA
ATOM     30  H5  UNL     1    -103.054 -18.058  49.721  1.00  0.00     0.210 HD
ENDBRANCH   8  29
BRANCH   1  31
HETATM   31  C2  UNL     1    -105.297 -20.363  49.273  1.00  0.00    -0.016 C 
HETATM   32  C1  UNL     1    -106.218 -19.278  49.688  1.00  0.00     0.010 C 
HETATM   33  C3  UNL     1    -106.072 -21.653  49.137  1.00  0.00     0.010 C 
ENDBRANCH   1  31
TORSDOF 10
ENDMDL
MODEL 3
REMARK VINA RESULT: -7.318483570      1.248      1.525
REMARK  10 active torsions:
REMARK  status: ('A' for Active; 'I' for Inactive)
REMARK    1  A    between atoms: C2_2  and  C4_4 
REMARK    2  A    between atoms: C7_7  and  O1_8 
REMARK    3  A    between atoms: C9_11  and  C10_12 
REMARK    4  A    between atoms: C13_15  and  O2_16 
REMARK    5  A    between atoms: O2_16  and  C14_17 
REMARK    6  A    between atoms: C14_17  and  C15_18 
REMARK    7  A    between atoms: C15_18  and  C18_21 
REMARK    8  A    between atoms: C18_21  and  O3_23 
REMARK    9  A    between atoms: C22_28  and  O4_29 
REMARK   10  A    between atoms: C23_31  and  O5_32 
ROOT
HETATM    1  C4  UNL     1     -94.448 -17.414  48.658  1.00  0.00     0.029 C 
HETATM    2  C5  UNL     1     -93.864 -16.564  47.547  1.00  0.00     0.011 C 
HETATM    3  C6  UNL     1     -94.746 -16.820  46.310  1.00  0.00     0.041 C 
HETATM    4  C7  UNL     1     -95.422 -18.038  46.692  1.00  0.00     0.092 C 
HETATM    5  C8  UNL     1     -96.733 -18.441  46.193  1.00  0.00     0.053 C 
HETATM    6  C9  UNL     1     -97.074 -19.496  47.265  1.00  0.00     0.053 C 
HETATM    7  C22 UNL     1     -96.436 -18.989  48.543  1.00  0.00     0.164 C 
HETATM    8  C23 UNL     1     -95.800 -17.712  48.158  1.00  0.00     0.119 C 
ENDROOT
BRANCH   6   9
HETATM    9  C10 UNL     1     -98.489 -19.802  47.350  1.00  0.00    -0.050 A 
HETATM   10  C11 UNL     1     -99.278 -19.582  46.242  1.00  0.00     0.010 A 
HETATM   11  C12 UNL     1    -100.604 -19.823  46.178  1.00  0.00     0.039 A 
HETATM   12  C13 UNL     1    -101.255 -20.339  47.313  1.00  0.00     0.086 A 
HETATM   13  C20 UNL     1    -100.460 -20.567  48.448  1.00  0.00     0.044 A 
HETATM   14 BR1  UNL     1    -101.327 -21.274  50.016  1.00  0.00    -0.048 Br
HETATM   15  C21 UNL     1     -99.124 -20.304  48.455  1.00  0.00     0.029 A 
BRANCH  12  16
HETATM   16  O2  UNL     1    -102.518 -20.605  47.347  1.00  0.00    -0.349 OA
BRANCH  16  17
HETATM   17  C14 UNL     1    -103.780 -20.871  47.380  1.00  0.00     0.187 C 
BRANCH  17  18
HETATM   18  C15 UNL     1    -104.680 -20.323  48.471  1.00  0.00    -0.000 C 
HETATM   19  C16 UNL     1    -106.009 -20.005  47.810  1.00  0.00     0.020 C 
HETATM   20  C17 UNL     1    -104.065 -19.035  49.038  1.00  0.00     0.020 C 
BRANCH  18  21
HETATM   21  C18 UNL     1    -104.925 -21.235  49.618  1.00  0.00     0.124 C 
HETATM   22  C19 UNL     1    -106.186 -22.070  49.486  1.00  0.00     0.040 C 
BRANCH  21  23
HETATM   23  O3  UNL     1    -104.805 -20.683  50.868  1.00  0.00    -0.395 OA
ATOM     24  H3  UNL     1    -103.983 -20.244  51.057  1.00  0.00     0.210 HD
ENDBRANCH  21  23
ENDBRANCH  18  21
ENDBRANCH  17  18
ENDBRANCH  16  17
ENDBRANCH  12  16
ENDBRANCH   6   9
BRANCH   7  25
HETATM   25  O4  UNL     1     -95.554 -19.919  49.083  1.00  0.00    -0.392 OA
ATOM     26  H4  UNL     1     -94.658 -19.752  48.814  1.00  0.00     0.210 HD
ENDBRANCH   7  25
BRANCH   4  27
HETATM   27  O1  UNL     1     -94.564 -19.123  46.709  1.00  0.00    -0.387 OA
ATOM     28  H1  UNL     1     -93.663 -18.866  46.554  1.00  0.00     0.210 HD
ENDBRANCH   4  27
BRANCH   8  29
HETATM   29  O5  UNL     1     -96.598 -16.605  48.230  1.00  0.00    -0.384 OA
ATOM     30  H5  UNL     1     -96.342 -16.051  48.959  1.00  0.00     0.210 HD
ENDBRANCH   8  29
BRANCH   1  31
HETATM   31  C2  UNL     1     -94.451 -16.729  49.985  1.00  0.00    -0.016 C 
HETATM   32  C1  UNL     1     -93.623 -15.504  50.093  1.00  0.00     0.010 C 
HETATM   33  C3  UNL     1     -94.117 -17.663  51.125  1.00  0.00     0.010 C 
ENDBRANCH   1  31
TORSDOF 10
ENDMDL
MODEL 4
REMARK VINA RESULT: -7.246707197      2.354      8.676
REMARK  10 active torsions:
REMARK  status: ('A' for Active; 'I' for Inactive)
REMARK    1  A    between atoms: C2_2  and  C4_4 
REMARK    2  A    between atoms: C7_7  and  O1_8 
REMARK    3  A    between atoms: C9_11  and  C10_12 
REMARK    4  A    between atoms: C13_15  and  O2_16 
REMARK    5  A    between atoms: O2_16  and  C14_17 
REMARK    6  A    between atoms: C14_17  and  C15_18 
REMARK    7  A    between atoms: C15_18  and  C18_21 
REMARK    8  A    between atoms: C18_21  and  O3_23 
REMARK    9  A    between atoms: C22_28  and  O4_29 
REMARK   10  A    between atoms: C23_31  and  O5_32 
ROOT
HETATM    1  C4  UNL     1    -104.103 -20.424  50.073  1.00  0.00     0.029 C 
HETATM    2  C5  UNL     1    -104.131 -19.715  51.412  1.00  0.00     0.011 C 
HETATM    3  C6  UNL     1    -102.701 -19.189  51.643  1.00  0.00     0.041 C 
HETATM    4  C7  UNL     1    -101.954 -19.976  50.691  1.00  0.00     0.092 C 
HETATM    5  C8  UNL     1    -100.699 -19.552  50.079  1.00  0.00     0.053 C 
HETATM    6  C9  UNL     1    -100.673 -20.540  48.894  1.00  0.00     0.053 C 
HETATM    7  C22 UNL     1    -102.125 -20.748  48.515  1.00  0.00     0.164 C 
HETATM    8  C23 UNL     1    -102.880 -19.891  49.452  1.00  0.00     0.119 C 
ENDROOT
BRANCH   6   9
HETATM    9  C10 UNL     1     -99.796 -20.131  47.815  1.00  0.00    -0.050 A 
HETATM   10  C11 UNL     1     -98.434 -20.155  48.028  1.00  0.00     0.010 A 
HETATM   11  C12 UNL     1     -97.503 -19.806  47.116  1.00  0.00     0.039 A 
HETATM   12  C13 UNL     1     -97.927 -19.382  45.843  1.00  0.00     0.086 A 
HETATM   13  C20 UNL     1     -99.312 -19.355  45.615  1.00  0.00     0.044 A 
HETATM   14 BR1  UNL     1     -99.920 -18.780  43.880  1.00  0.00    -0.048 Br
HETATM   15  C21 UNL     1    -100.207 -19.719  46.575  1.00  0.00     0.029 A 
BRANCH  12  16
HETATM   16  O2  UNL     1     -97.113 -19.031  44.904  1.00  0.00    -0.349 OA
BRANCH  16  17
HETATM   17  C14 UNL     1     -96.298 -18.681  43.967  1.00  0.00     0.187 C 
BRANCH  17  18
HETATM   18  C15 UNL     1     -94.871 -18.265  44.267  1.00  0.00    -0.000 C 
HETATM   19  C16 UNL     1     -94.520 -17.181  43.264  1.00  0.00     0.020 C 
HETATM   20  C17 UNL     1     -93.939 -19.470  44.069  1.00  0.00     0.020 C 
BRANCH  18  21
HETATM   21  C18 UNL     1     -94.630 -17.743  45.637  1.00  0.00     0.124 C 
HETATM   22  C19 UNL     1     -93.646 -16.589  45.694  1.00  0.00     0.040 C 
BRANCH  21  23
HETATM   23  O3  UNL     1     -94.378 -18.680  46.607  1.00  0.00    -0.395 OA
ATOM     24  H3  UNL     1     -93.926 -19.467  46.324  1.00  0.00     0.210 HD
ENDBRANCH  21  23
ENDBRANCH  18  21
ENDBRANCH  17  18
ENDBRANCH  16  17
ENDBRANCH  12  16
ENDBRANCH   6   9
BRANCH   7  25
HETATM   25  O4  UNL     1    -102.484 -22.091  48.564  1.00  0.00    -0.392 OA
ATOM     26  H4  UNL     1    -102.478 -22.489  47.701  1.00  0.00     0.210 HD
ENDBRANCH   7  25
BRANCH   4  27
HETATM   27  O1  UNL     1    -101.875 -21.306  51.067  1.00  0.00    -0.387 OA
ATOM     28  H1  UNL     1    -101.057 -21.704  50.796  1.00  0.00     0.210 HD
ENDBRANCH   4  27
BRANCH   8  29
HETATM   29  O5  UNL     1    -103.061 -18.595  49.057  1.00  0.00    -0.384 OA
ATOM     30  H5  UNL     1    -103.124 -18.018  49.810  1.00  0.00     0.210 HD
ENDBRANCH   8  29
BRANCH   1  31
HETATM   31  C2  UNL     1    -105.329 -20.185  49.253  1.00  0.00    -0.016 C 
HETATM   32  C1  UNL     1    -106.248 -19.128  49.740  1.00  0.00     0.010 C 
HETATM   33  C3  UNL     1    -106.112 -21.449  48.991  1.00  0.00     0.010 C 
ENDBRANCH   1  31
TORSDOF 10
ENDMDL
MODEL 5
REMARK VINA RESULT: -7.221787731      1.746      2.657
REMARK  10 active torsions:
REMARK  status: ('A' for Active; 'I' for Inactive)
REMARK    1  A    between atoms: C2_2  and  C4_4 
REMARK    2  A    between atoms: C7_7  and  O1_8 
REMARK    3  A    between atoms: C9_11  and  C10_12 
REMARK    4  A    between atoms: C13_15  and  O2_16 
REMARK    5  A    between atoms: O2_16  and  C14_17 
REMARK    6  A    between atoms: C14_17  and  C15_18 
REMARK    7  A    between atoms: C15_18  and  C18_21 
REMARK    8  A    between atoms: C18_21  and  O3_23 
REMARK    9  A    between atoms: C22_28  and  O4_29 
REMARK   10  A    between atoms: C23_31  and  O5_32 
ROOT
HETATM    1  C4  UNL     1     -93.102 -18.175  47.436  1.00  0.00     0.029 C 
HETATM    2  C5  UNL     1     -92.734 -17.422  48.698  1.00  0.00     0.011 C 
HETATM    3  C6  UNL     1     -94.060 -16.892  49.278  1.00  0.00     0.041 C 
HETATM    4  C7  UNL     1     -94.934 -17.011  48.135  1.00  0.00     0.092 C 
HETATM    5  C8  UNL     1     -96.381 -17.184  48.222  1.00  0.00     0.053 C 
HETATM    6  C9  UNL     1     -96.640 -17.691  46.788  1.00  0.00     0.053 C 
HETATM    7  C22 UNL     1     -95.406 -18.488  46.416  1.00  0.00     0.164 C 
HETATM    8  C23 UNL     1     -94.543 -18.416  47.614  1.00  0.00     0.119 C 
ENDROOT
BRANCH   6   9
HETATM    9  C10 UNL     1     -97.903 -18.385  46.635  1.00  0.00    -0.050 A 
HETATM   10  C11 UNL     1     -98.419 -19.059  47.721  1.00  0.00     0.010 A 
HETATM   11  C12 UNL     1     -99.582 -19.743  47.724  1.00  0.00     0.039 A 
HETATM   12  C13 UNL     1    -100.347 -19.786  46.544  1.00  0.00     0.086 A 
HETATM   13  C20 UNL     1     -99.831 -19.102  45.431  1.00  0.00     0.044 A 
HETATM   14 BR1  UNL     1    -100.858 -19.144  43.803  1.00  0.00    -0.048 Br
HETATM   15  C21 UNL     1     -98.649 -18.427  45.487  1.00  0.00     0.029 A 
BRANCH  12  16
HETATM   16  O2  UNL     1    -101.473 -20.411  46.450  1.00  0.00    -0.349 OA
BRANCH  16  17
HETATM   17  C14 UNL     1    -102.598 -21.035  46.356  1.00  0.00     0.187 C 
BRANCH  17  18
HETATM   18  C15 UNL     1    -103.481 -21.272  47.566  1.00  0.00    -0.000 C 
HETATM   19  C16 UNL     1    -104.033 -19.916  47.966  1.00  0.00     0.020 C 
HETATM   20  C17 UNL     1    -102.630 -21.841  48.711  1.00  0.00     0.020 C 
BRANCH  18  21
HETATM   21  C18 UNL     1    -104.617 -22.207  47.357  1.00  0.00     0.124 C 
HETATM   22  C19 UNL     1    -105.106 -22.878  48.627  1.00  0.00     0.040 C 
BRANCH  21  23
HETATM   23  O3  UNL     1    -104.485 -23.100  46.323  1.00  0.00    -0.395 OA
ATOM     24  H3  UNL     1    -103.827 -22.893  45.670  1.00  0.00     0.210 HD
ENDBRANCH  21  23
ENDBRANCH  18  21
ENDBRANCH  17  18
ENDBRANCH  16  17
ENDBRANCH  12  16
ENDBRANCH   6   9
BRANCH   7  25
HETATM   25  O4  UNL     1     -94.807 -18.003  45.259  1.00  0.00    -0.392 OA
ATOM     26  H4  UNL     1     -95.425 -17.528  44.716  1.00  0.00     0.210 HD
ENDBRANCH   7  25
BRANCH   4  27
HETATM   27  O1  UNL     1     -94.622 -16.093  47.147  1.00  0.00    -0.387 OA
ATOM     28  H1  UNL     1     -95.400 -15.712  46.758  1.00  0.00     0.210 HD
ENDBRANCH   4  27
BRANCH   8  29
HETATM   29  O5  UNL     1     -94.761 -19.375  48.563  1.00  0.00    -0.384 OA
ATOM     30  H5  UNL     1     -94.997 -20.202  48.158  1.00  0.00     0.210 HD
ENDBRANCH   8  29
BRANCH   1  31
HETATM   31  C2  UNL     1     -92.316 -19.432  47.249  1.00  0.00    -0.016 C 
HETATM   32  C1  UNL     1     -91.195 -19.651  48.193  1.00  0.00     0.010 C 
HETATM   33  C3  UNL     1     -91.820 -19.605  45.832  1.00  0.00     0.010 C 
ENDBRANCH   1  31
TORSDOF 10
ENDMDL
