MODEL 1
REMARK VINA RESULT: -7.165234197      0.000      0.000
REMARK  10 active torsions:
REMARK  status: ('A' for Active; 'I' for Inactive)
REMARK    1  A    between atoms: O1_2  and  C2_3 
REMARK       I    between atoms: C2_3  and  N1_5 
REMARK    2  A    between atoms: N1_5  and  C3_7 
REMARK    3  A    between atoms: C3_7  and  C4_8 
REMARK    4  A    between atoms: C4_8  and  C5_9 
REMARK    5  A    between atoms: C5_9  and  C6_10 
REMARK    6  A    between atoms: C6_10  and  C7_11 
REMARK    7  A    between atoms: C8_12  and  C9_13 
REMARK    8  A    between atoms: C9_13  and  O3_14 
REMARK    9  A    between atoms: C11_17  and  O4_18 
REMARK   10  A    between atoms: C16_25  and  O5_26 
ROOT
HETATM    1  C9  UNL     1    -103.253 -19.652  50.321  1.00  0.00     0.082 C 
HETATM    2  C10 UNL     1    -104.547 -20.380  50.592  1.00  0.00     0.074 C 
HETATM    3  C11 UNL     1    -105.718 -19.841  49.825  1.00  0.00     0.122 C 
HETATM    4  C12 UNL     1    -105.361 -19.382  48.462  1.00  0.00     0.048 C 
HETATM    5  C13 UNL     1    -104.737 -20.569  47.742  1.00  0.00     0.075 C 
HETATM    6 BR1  UNL     1    -105.661 -22.217  48.194  1.00  0.00    -0.090 Br
HETATM    7  C14 UNL     1    -103.262 -20.648  47.947  1.00  0.00     0.025 C 
HETATM    8  C15 UNL     1    -102.873 -22.102  48.088  1.00  0.00     0.024 C 
HETATM    9  C16 UNL     1    -102.628 -20.228  46.660  1.00  0.00     0.055 C 
HETATM   10  C17 UNL     1    -101.376 -19.846  46.578  1.00  0.00    -0.054 C 
HETATM   11  C18 UNL     1    -100.792 -19.430  45.241  1.00  0.00     0.046 C 
HETATM   12  C19 UNL     1    -100.499 -19.803  47.744  1.00  0.00     0.037 C 
HETATM   13  C20 UNL     1    -101.194 -20.112  49.036  1.00  0.00     0.013 C 
HETATM   14  C21 UNL     1    -102.692 -19.756  48.979  1.00  0.00     0.040 C 
ENDROOT
BRANCH   1  15
HETATM   15  C8  UNL     1    -102.331 -20.036  51.418  1.00  0.00     0.007 C 
HETATM   16  C7  UNL     1    -102.656 -20.000  52.690  1.00  0.00    -0.028 C 
BRANCH  16  17
HETATM   17  C6  UNL     1    -101.747 -20.379  53.797  1.00  0.00     0.027 C 
BRANCH  17  18
HETATM   18  C5  UNL     1    -100.341 -20.344  53.283  1.00  0.00     0.005 C 
BRANCH  18  19
HETATM   19  C4  UNL     1     -99.464 -19.353  54.019  1.00  0.00     0.020 C 
BRANCH  19  20
HETATM   20  C3  UNL     1     -99.855 -17.930  53.716  1.00  0.00     0.125 C 
BRANCH  20  21
HETATM   21  N1  UNL     1     -99.489 -17.617  52.365  1.00  0.00    -0.337 N 
HETATM   22  C2  UNL     1    -100.470 -16.938  51.562  1.00  0.00     0.360 C 
HETATM   23  O2  UNL     1    -101.592 -16.625  51.991  1.00  0.00    -0.239 OA
ATOM     24  H1  UNL     1     -98.574 -17.865  51.990  1.00  0.00     0.164 HD
BRANCH  22  25
HETATM   25  O1  UNL     1    -100.145 -16.624  50.259  1.00  0.00    -0.309 OA
HETATM   26  C1  UNL     1     -98.834 -16.826  49.740  1.00  0.00     0.215 C 
ENDBRANCH  22  25
ENDBRANCH  20  21
ENDBRANCH  19  20
ENDBRANCH  18  19
ENDBRANCH  17  18
ENDBRANCH  16  17
ENDBRANCH   1  15
BRANCH   1  27
HETATM   27  O3  UNL     1    -103.577 -18.296  50.629  1.00  0.00    -0.385 OA
ATOM     28  H3  UNL     1    -103.780 -17.924  49.779  1.00  0.00     0.211 HD
ENDBRANCH   1  27
BRANCH   3  29
HETATM   29  O4  UNL     1    -106.345 -18.768  50.491  1.00  0.00    -0.395 OA
ATOM     30  H4  UNL     1    -106.527 -18.040  49.908  1.00  0.00     0.210 HD
ENDBRANCH   3  29
BRANCH   9  31
HETATM   31  O5  UNL     1    -103.353 -20.221  45.458  1.00  0.00    -0.364 OA
ATOM     32  H5  UNL     1    -103.215 -20.887  44.794  1.00  0.00     0.217 HD
ENDBRANCH   9  31
TORSDOF 10
ENDMDL
MODEL 2
REMARK VINA RESULT: -7.107252382      0.900      1.040
REMARK  10 active torsions:
REMARK  status: ('A' for Active; 'I' for Inactive)
REMARK    1  A    between atoms: O1_2  and  C2_3 
REMARK       I    between atoms: C2_3  and  N1_5 
REMARK    2  A    between atoms: N1_5  and  C3_7 
REMARK    3  A    between atoms: C3_7  and  C4_8 
REMARK    4  A    between atoms: C4_8  and  C5_9 
REMARK    5  A    between atoms: C5_9  and  C6_10 
REMARK    6  A    between atoms: C6_10  and  C7_11 
REMARK    7  A    between atoms: C8_12  and  C9_13 
REMARK    8  A    between atoms: C9_13  and  O3_14 
REMARK    9  A    between atoms: C11_17  and  O4_18 
REMARK   10  A    between atoms: C16_25  and  O5_26 
ROOT
HETATM    1  C9  UNL     1    -102.442 -19.722  49.614  1.00  0.00     0.082 C 
HETATM    2  C10 UNL     1    -103.640 -20.504  50.095  1.00  0.00     0.074 C 
HETATM    3  C11 UNL     1    -104.955 -19.912  49.681  1.00  0.00     0.122 C 
HETATM    4  C12 UNL     1    -104.922 -19.302  48.331  1.00  0.00     0.048 C 
HETATM    5  C13 UNL     1    -104.485 -20.391  47.362  1.00  0.00     0.075 C 
HETATM    6 BR1  UNL     1    -105.285 -22.098  47.832  1.00  0.00    -0.090 Br
HETATM    7  C14 UNL     1    -103.003 -20.458  47.211  1.00  0.00     0.025 C 
HETATM    8  C15 UNL     1    -102.596 -21.910  47.099  1.00  0.00     0.024 C 
HETATM    9  C16 UNL     1    -102.683 -19.889  45.867  1.00  0.00     0.055 C 
HETATM   10  C17 UNL     1    -101.482 -19.472  45.541  1.00  0.00    -0.054 C 
HETATM   11  C18 UNL     1    -101.222 -18.903  44.159  1.00  0.00     0.046 C 
HETATM   12  C19 UNL     1    -100.360 -19.536  46.472  1.00  0.00     0.037 C 
HETATM   13  C20 UNL     1    -100.738 -19.996  47.847  1.00  0.00     0.013 C 
HETATM   14  C21 UNL     1    -102.207 -19.669  48.176  1.00  0.00     0.040 C 
ENDROOT
BRANCH   1  15
HETATM   15  C8  UNL     1    -101.292 -20.201  50.421  1.00  0.00     0.007 C 
HETATM   16  C7  UNL     1    -101.413 -20.969  51.479  1.00  0.00    -0.028 C 
BRANCH  16  17
HETATM   17  C6  UNL     1    -100.275 -21.455  52.295  1.00  0.00     0.027 C 
BRANCH  17  18
HETATM   18  C5  UNL     1     -99.645 -20.277  52.970  1.00  0.00     0.005 C 
BRANCH  18  19
HETATM   19  C4  UNL     1    -100.583 -19.567  53.923  1.00  0.00     0.020 C 
BRANCH  19  20
HETATM   20  C3  UNL     1    -100.426 -18.071  53.851  1.00  0.00     0.125 C 
BRANCH  20  21
HETATM   21  N1  UNL     1     -99.851 -17.717  52.585  1.00  0.00    -0.337 N 
HETATM   22  C2  UNL     1    -100.634 -16.873  51.724  1.00  0.00     0.360 C 
HETATM   23  O2  UNL     1    -101.761 -16.455  52.033  1.00  0.00    -0.239 OA
ATOM     24  H1  UNL     1     -98.928 -18.049  52.308  1.00  0.00     0.164 HD
BRANCH  22  25
HETATM   25  O1  UNL     1    -100.106 -16.516  50.500  1.00  0.00    -0.309 OA
HETATM   26  C1  UNL     1     -99.036 -17.241  49.902  1.00  0.00     0.215 C 
ENDBRANCH  22  25
ENDBRANCH  20  21
ENDBRANCH  19  20
ENDBRANCH  18  19
ENDBRANCH  17  18
ENDBRANCH  16  17
ENDBRANCH   1  15
BRANCH   1  27
HETATM   27  O3  UNL     1    -102.682 -18.415  50.135  1.00  0.00    -0.385 OA
ATOM     28  H3  UNL     1    -102.264 -17.848  49.497  1.00  0.00     0.211 HD
ENDBRANCH   1  27
BRANCH   3  29
HETATM   29  O4  UNL     1    -105.408 -18.931  50.586  1.00  0.00    -0.395 OA
ATOM     30  H4  UNL     1    -104.694 -18.429  50.961  1.00  0.00     0.210 HD
ENDBRANCH   3  29
BRANCH   9  31
HETATM   31  O5  UNL     1    -103.666 -19.770  44.872  1.00  0.00    -0.364 OA
ATOM     32  H5  UNL     1    -103.452 -19.868  43.952  1.00  0.00     0.217 HD
ENDBRANCH   9  31
TORSDOF 10
ENDMDL
MODEL 3
REMARK VINA RESULT: -7.087889400      3.011      5.840
REMARK  10 active torsions:
REMARK  status: ('A' for Active; 'I' for Inactive)
REMARK    1  A    between atoms: O1_2  and  C2_3 
REMARK       I    between atoms: C2_3  and  N1_5 
REMARK    2  A    between atoms: N1_5  and  C3_7 
REMARK    3  A    between atoms: C3_7  and  C4_8 
REMARK    4  A    between atoms: C4_8  and  C5_9 
REMARK    5  A    between atoms: C5_9  and  C6_10 
REMARK    6  A    between atoms: C6_10  and  C7_11 
REMARK    7  A    between atoms: C8_12  and  C9_13 
REMARK    8  A    between atoms: C9_13  and  O3_14 
REMARK    9  A    between atoms: C11_17  and  O4_18 
REMARK   10  A    between atoms: C16_25  and  O5_26 
ROOT
HETATM    1  C9  UNL     1    -101.734 -20.432  46.825  1.00  0.00     0.082 C 
HETATM    2  C10 UNL     1    -103.212 -20.131  46.768  1.00  0.00     0.074 C 
HETATM    3  C11 UNL     1    -104.073 -21.216  47.344  1.00  0.00     0.122 C 
HETATM    4  C12 UNL     1    -103.465 -21.882  48.520  1.00  0.00     0.048 C 
HETATM    5  C13 UNL     1    -103.191 -20.797  49.552  1.00  0.00     0.075 C 
HETATM    6 BR1  UNL     1    -104.632 -19.494  49.586  1.00  0.00    -0.090 Br
HETATM    7  C14 UNL     1    -101.845 -20.179  49.385  1.00  0.00     0.025 C 
HETATM    8  C15 UNL     1    -101.957 -18.698  49.668  1.00  0.00     0.024 C 
HETATM    9  C16 UNL     1    -100.995 -20.696  50.501  1.00  0.00     0.055 C 
HETATM   10  C17 UNL     1     -99.684 -20.646  50.476  1.00  0.00    -0.054 C 
HETATM   11  C18 UNL     1     -98.878 -21.190  51.641  1.00  0.00     0.046 C 
HETATM   12  C19 UNL     1     -98.951 -20.076  49.350  1.00  0.00     0.037 C 
HETATM   13  C20 UNL     1     -99.823 -19.679  48.197  1.00  0.00     0.013 C 
HETATM   14  C21 UNL     1    -101.115 -20.515  48.143  1.00  0.00     0.040 C 
ENDROOT
BRANCH   1  15
HETATM   15  C8  UNL     1    -101.087 -19.480  45.888  1.00  0.00     0.007 C 
HETATM   16  C7  UNL     1    -100.596 -19.827  44.721  1.00  0.00    -0.028 C 
BRANCH  16  17
HETATM   17  C6  UNL     1     -99.947 -18.890  43.774  1.00  0.00     0.027 C 
BRANCH  17  18
HETATM   18  C5  UNL     1     -98.912 -18.108  44.522  1.00  0.00     0.005 C 
BRANCH  18  19
HETATM   19  C4  UNL     1     -97.531 -18.725  44.443  1.00  0.00     0.020 C 
BRANCH  19  20
HETATM   20  C3  UNL     1     -97.023 -19.131  45.800  1.00  0.00     0.125 C 
BRANCH  20  21
HETATM   21  N1  UNL     1     -95.860 -18.354  46.121  1.00  0.00    -0.337 N 
HETATM   22  C2  UNL     1     -96.030 -17.277  47.059  1.00  0.00     0.360 C 
HETATM   23  O2  UNL     1     -97.122 -17.006  47.583  1.00  0.00    -0.239 OA
ATOM     24  H1  UNL     1     -94.953 -18.556  45.703  1.00  0.00     0.164 HD
BRANCH  22  25
HETATM   25  O1  UNL     1     -94.929 -16.514  47.386  1.00  0.00    -0.309 OA
HETATM   26  C1  UNL     1     -93.888 -16.254  46.449  1.00  0.00     0.215 C 
ENDBRANCH  22  25
ENDBRANCH  20  21
ENDBRANCH  19  20
ENDBRANCH  18  19
ENDBRANCH  17  18
ENDBRANCH  16  17
ENDBRANCH   1  15
BRANCH   1  27
HETATM   27  O3  UNL     1    -101.633 -21.681  46.141  1.00  0.00    -0.385 OA
ATOM     28  H3  UNL     1    -102.401 -21.683  45.582  1.00  0.00     0.211 HD
ENDBRANCH   1  27
BRANCH   3  29
HETATM   29  O4  UNL     1    -104.381 -22.214  46.396  1.00  0.00    -0.395 OA
ATOM     30  H4  UNL     1    -104.409 -23.081  46.782  1.00  0.00     0.210 HD
ENDBRANCH   3  29
BRANCH   9  31
HETATM   31  O5  UNL     1    -101.567 -21.269  51.648  1.00  0.00    -0.364 OA
ATOM     32  H5  UNL     1    -101.393 -22.172  51.888  1.00  0.00     0.217 HD
ENDBRANCH   9  31
TORSDOF 10
ENDMDL
MODEL 4
REMARK VINA RESULT: -7.007257255      2.811      5.752
REMARK  10 active torsions:
REMARK  status: ('A' for Active; 'I' for Inactive)
REMARK    1  A    between atoms: O1_2  and  C2_3 
REMARK       I    between atoms: C2_3  and  N1_5 
REMARK    2  A    between atoms: N1_5  and  C3_7 
REMARK    3  A    between atoms: C3_7  and  C4_8 
REMARK    4  A    between atoms: C4_8  and  C5_9 
REMARK    5  A    between atoms: C5_9  and  C6_10 
REMARK    6  A    between atoms: C6_10  and  C7_11 
REMARK    7  A    between atoms: C8_12  and  C9_13 
REMARK    8  A    between atoms: C9_13  and  O3_14 
REMARK    9  A    between atoms: C11_17  and  O4_18 
REMARK   10  A    between atoms: C16_25  and  O5_26 
ROOT
HETATM    1  C9  UNL     1    -101.737 -20.442  46.912  1.00  0.00     0.082 C 
HETATM    2  C10 UNL     1    -103.207 -20.122  46.801  1.00  0.00     0.074 C 
HETATM    3  C11 UNL     1    -104.103 -21.191  47.354  1.00  0.00     0.122 C 
HETATM    4  C12 UNL     1    -103.546 -21.857  48.555  1.00  0.00     0.048 C 
HETATM    5  C13 UNL     1    -103.293 -20.768  49.588  1.00  0.00     0.075 C 
HETATM    6 BR1  UNL     1    -104.715 -19.445  49.563  1.00  0.00    -0.090 Br
HETATM    7  C14 UNL     1    -101.933 -20.170  49.465  1.00  0.00     0.025 C 
HETATM    8  C15 UNL     1    -102.034 -18.686  49.733  1.00  0.00     0.024 C 
HETATM    9  C16 UNL     1    -101.130 -20.692  50.613  1.00  0.00     0.055 C 
HETATM   10  C17 UNL     1     -99.819 -20.660  50.633  1.00  0.00    -0.054 C 
HETATM   11  C18 UNL     1     -99.062 -21.207  51.829  1.00  0.00     0.046 C 
HETATM   12  C19 UNL     1     -99.038 -20.108  49.530  1.00  0.00     0.037 C 
HETATM   13  C20 UNL     1     -99.864 -19.707  48.345  1.00  0.00     0.013 C 
HETATM   14  C21 UNL     1    -101.165 -20.525  48.251  1.00  0.00     0.040 C 
ENDROOT
BRANCH   1  15
HETATM   15  C8  UNL     1    -101.044 -19.506  45.991  1.00  0.00     0.007 C 
HETATM   16  C7  UNL     1    -100.755 -19.792  44.743  1.00  0.00    -0.028 C 
BRANCH  16  17
HETATM   17  C6  UNL     1    -100.064 -18.870  43.812  1.00  0.00     0.027 C 
BRANCH  17  18
HETATM   18  C5  UNL     1     -98.912 -18.246  44.537  1.00  0.00     0.005 C 
BRANCH  18  19
HETATM   19  C4  UNL     1     -97.566 -18.720  44.031  1.00  0.00     0.020 C 
BRANCH  19  20
HETATM   20  C3  UNL     1     -96.525 -18.706  45.119  1.00  0.00     0.125 C 
BRANCH  20  21
HETATM   21  N1  UNL     1     -97.163 -18.467  46.381  1.00  0.00    -0.337 N 
HETATM   22  C2  UNL     1     -96.577 -17.468  47.233  1.00  0.00     0.360 C 
HETATM   23  O2  UNL     1     -95.562 -16.826  46.919  1.00  0.00    -0.239 OA
ATOM     24  H1  UNL     1     -97.997 -18.982  46.663  1.00  0.00     0.164 HD
BRANCH  22  25
HETATM   25  O1  UNL     1     -97.171 -17.217  48.453  1.00  0.00    -0.309 OA
HETATM   26  C1  UNL     1     -96.497 -17.465  49.683  1.00  0.00     0.215 C 
ENDBRANCH  22  25
ENDBRANCH  20  21
ENDBRANCH  19  20
ENDBRANCH  18  19
ENDBRANCH  17  18
ENDBRANCH  16  17
ENDBRANCH   1  15
BRANCH   1  27
HETATM   27  O3  UNL     1    -101.630 -21.697  46.239  1.00  0.00    -0.385 OA
ATOM     28  H3  UNL     1    -102.230 -21.603  45.509  1.00  0.00     0.211 HD
ENDBRANCH   1  27
BRANCH   3  29
HETATM   29  O4  UNL     1    -104.392 -22.190  46.402  1.00  0.00    -0.395 OA
ATOM     30  H4  UNL     1    -104.062 -23.042  46.663  1.00  0.00     0.210 HD
ENDBRANCH   3  29
BRANCH   9  31
HETATM   31  O5  UNL     1    -101.749 -21.249  51.742  1.00  0.00    -0.364 OA
ATOM     32  H5  UNL     1    -101.489 -21.000  52.622  1.00  0.00     0.217 HD
ENDBRANCH   9  31
TORSDOF 10
ENDMDL
MODEL 5
REMARK VINA RESULT: -6.912232106      1.658      2.190
REMARK  10 active torsions:
REMARK  status: ('A' for Active; 'I' for Inactive)
REMARK    1  A    between atoms: O1_2  and  C2_3 
REMARK       I    between atoms: C2_3  and  N1_5 
REMARK    2  A    between atoms: N1_5  and  C3_7 
REMARK    3  A    between atoms: C3_7  and  C4_8 
REMARK    4  A    between atoms: C4_8  and  C5_9 
REMARK    5  A    between atoms: C5_9  and  C6_10 
REMARK    6  A    between atoms: C6_10  and  C7_11 
REMARK    7  A    between atoms: C8_12  and  C9_13 
REMARK    8  A    between atoms: C9_13  and  O3_14 
REMARK    9  A    between atoms: C11_17  and  O4_18 
REMARK   10  A    between atoms: C16_25  and  O5_26 
ROOT
HETATM    1  C9  UNL     1    -102.535 -19.669  49.704  1.00  0.00     0.082 C 
HETATM    2  C10 UNL     1    -103.718 -20.483  50.170  1.00  0.00     0.074 C 
HETATM    3  C11 UNL     1    -105.041 -19.947  49.708  1.00  0.00     0.122 C 
HETATM    4  C12 UNL     1    -104.993 -19.365  48.346  1.00  0.00     0.048 C 
HETATM    5  C13 UNL     1    -104.490 -20.459  47.413  1.00  0.00     0.075 C 
HETATM    6 BR1  UNL     1    -105.242 -22.183  47.900  1.00  0.00    -0.090 Br
HETATM    7  C14 UNL     1    -103.004 -20.476  47.304  1.00  0.00     0.025 C 
HETATM    8  C15 UNL     1    -102.543 -21.914  47.235  1.00  0.00     0.024 C 
HETATM    9  C16 UNL     1    -102.667 -19.924  45.956  1.00  0.00     0.055 C 
HETATM   10  C17 UNL     1    -101.473 -19.471  45.653  1.00  0.00    -0.054 C 
HETATM   11  C18 UNL     1    -101.196 -18.922  44.266  1.00  0.00     0.046 C 
HETATM   12  C19 UNL     1    -100.375 -19.474  46.615  1.00  0.00     0.037 C 
HETATM   13  C20 UNL     1    -100.774 -19.918  47.989  1.00  0.00     0.013 C 
HETATM   14  C21 UNL     1    -102.262 -19.638  48.271  1.00  0.00     0.040 C 
ENDROOT
BRANCH   1  15
HETATM   15  C8  UNL     1    -101.391 -20.088  50.551  1.00  0.00     0.007 C 
HETATM   16  C7  UNL     1    -101.239 -21.306  51.019  1.00  0.00    -0.028 C 
BRANCH  16  17
HETATM   17  C6  UNL     1    -100.103 -21.740  51.866  1.00  0.00     0.027 C 
BRANCH  17  18
HETATM   18  C5  UNL     1     -98.958 -20.804  51.633  1.00  0.00     0.005 C 
BRANCH  18  19
HETATM   19  C4  UNL     1     -98.023 -21.271  50.538  1.00  0.00     0.020 C 
BRANCH  19  20
HETATM   20  C3  UNL     1     -97.458 -20.116  49.755  1.00  0.00     0.125 C 
BRANCH  20  21
HETATM   21  N1  UNL     1     -98.042 -18.894  50.228  1.00  0.00    -0.337 N 
HETATM   22  C2  UNL     1     -98.027 -17.771  49.331  1.00  0.00     0.360 C 
HETATM   23  O2  UNL     1     -97.536 -17.824  48.192  1.00  0.00    -0.239 OA
ATOM     24  H1  UNL     1     -98.451 -18.825  51.160  1.00  0.00     0.164 HD
BRANCH  22  25
HETATM   25  O1  UNL     1     -98.584 -16.583  49.759  1.00  0.00    -0.309 OA
HETATM   26  C1  UNL     1     -99.882 -16.528  50.343  1.00  0.00     0.215 C 
ENDBRANCH  22  25
ENDBRANCH  20  21
ENDBRANCH  19  20
ENDBRANCH  18  19
ENDBRANCH  17  18
ENDBRANCH  16  17
ENDBRANCH   1  15
BRANCH   1  27
HETATM   27  O3  UNL     1    -102.836 -18.360  50.188  1.00  0.00    -0.385 OA
ATOM     28  H3  UNL     1    -102.236 -17.807  49.702  1.00  0.00     0.211 HD
ENDBRANCH   1  27
BRANCH   3  29
HETATM   29  O4  UNL     1    -105.553 -18.964  50.579  1.00  0.00    -0.395 OA
ATOM     30  H4  UNL     1    -106.499 -18.893  50.525  1.00  0.00     0.210 HD
ENDBRANCH   3  29
BRANCH   9  31
HETATM   31  O5  UNL     1    -103.626 -19.861  44.933  1.00  0.00    -0.364 OA
ATOM     32  H5  UNL     1    -103.523 -19.272  44.195  1.00  0.00     0.217 HD
ENDBRANCH   9  31
TORSDOF 10
ENDMDL
