MODEL 1
REMARK VINA RESULT: -8.249762834      0.000      0.000
REMARK  10 active torsions:
REMARK  status: ('A' for Active; 'I' for Inactive)
REMARK    1  A    between atoms: C2_2  and  N1_4 
REMARK    2  A    between atoms: C2_2  and  N2_8 
REMARK    3  A    between atoms: N2_8  and  C4_9 
REMARK    4  A    between atoms: N2_8  and  C6_12 
REMARK    5  A    between atoms: C4_9  and  C5_10 
REMARK    6  A    between atoms: C6_12  and  C7_13 
REMARK    7  A    between atoms: C7_13  and  C8_14 
REMARK    8  A    between atoms: C8_14  and  C9_15 
REMARK    9  A    between atoms: C9_15  and  C10_16 
REMARK   10  A    between atoms: C12_18  and  C13_19 
ROOT
HETATM    1  C13 UNL     1     -97.129 -18.788  45.838  1.00  0.00     0.059 A 
HETATM    2  N3  UNL     1     -96.201 -19.049  44.862  1.00  0.00    -0.351 N 
ATOM      3  H3  UNL     1     -96.533 -19.285  43.927  1.00  0.00     0.166 HD
HETATM    4  C14 UNL     1     -94.897 -19.012  45.074  1.00  0.00     0.182 A 
HETATM    5  N4  UNL     1     -94.380 -18.712  46.269  1.00  0.00    -0.338 N 
ATOM      6  H4  UNL     1     -93.371 -18.685  46.415  1.00  0.00     0.168 HD
HETATM    7  C15 UNL     1     -95.232 -18.449  47.265  1.00  0.00     0.120 A 
HETATM    8  N5  UNL     1     -95.034 -18.140  48.565  1.00  0.00    -0.341 N 
ATOM      9  H5  UNL     1     -94.120 -18.039  49.005  1.00  0.00     0.167 HD
HETATM   10  C16 UNL     1     -96.203 -17.985  49.198  1.00  0.00     0.046 A 
HETATM   11  C17 UNL     1     -96.521 -17.696  50.509  1.00  0.00     0.053 A 
HETATM   12  C18 UNL     1     -97.834 -17.621  50.913  1.00  0.00     0.046 A 
HETATM   13  C19 UNL     1     -98.104 -17.312  52.293  1.00  0.00     0.099 C 
HETATM   14  N6  UNL     1     -98.331 -17.048  53.391  1.00  0.00    -0.191 NA
HETATM   15  C20 UNL     1     -98.844 -17.838  50.004  1.00  0.00     0.024 A 
HETATM   16  C21 UNL     1     -98.547 -18.132  48.667  1.00  0.00     0.016 A 
HETATM   17  C22 UNL     1     -97.229 -18.197  48.289  1.00  0.00     0.007 A 
HETATM   18  C23 UNL     1     -96.620 -18.480  47.085  1.00  0.00     0.048 A 
ENDROOT
BRANCH   1  19
HETATM   19  C12 UNL     1     -98.526 -18.819  45.492  1.00  0.00     0.009 A 
HETATM   20  C11 UNL     1     -99.416 -19.633  46.124  1.00  0.00     0.039 A 
HETATM   21  C10 UNL     1    -100.747 -19.743  45.699  1.00  0.00     0.062 A 
HETATM   22  C25 UNL     1    -101.141 -19.003  44.617  1.00  0.00     0.117 A 
HETATM   23  N7  UNL     1    -100.254 -18.193  43.991  1.00  0.00    -0.351 N 
HETATM   24  N8  UNL     1    -102.367 -19.105  44.226  1.00  0.00    -0.384 N 
HETATM   25  C24 UNL     1     -98.976 -18.089  44.400  1.00  0.00     0.103 A 
ATOM     26  H7  UNL     1    -100.563 -17.648  43.186  1.00  0.00     0.166 HD
ATOM     27  H82 UNL     1    -103.035 -19.714  44.697  1.00  0.00     0.157 HD
ATOM     28  H81 UNL     1    -102.661 -18.553  43.420  1.00  0.00     0.157 HD
BRANCH  21  29
HETATM   29  C9  UNL     1    -101.697 -20.597  46.347  1.00  0.00    -0.063 C 
BRANCH  29  30
HETATM   30  C8  UNL     1    -102.490 -21.332  46.912  1.00  0.00    -0.099 C 
BRANCH  30  31
HETATM   31  C7  UNL     1    -103.428 -22.228  47.616  1.00  0.00     0.124 C 
BRANCH  31  32
HETATM   32  C6  UNL     1    -103.600 -21.753  49.003  1.00  0.00     0.287 C 
BRANCH  32  33
HETATM   33  N2  UNL     1    -103.799 -20.375  49.249  1.00  0.00     0.126 N 
BRANCH  33  34
HETATM   34  C2  UNL     1    -103.071 -19.877  50.422  1.00  0.00     0.311 C 
HETATM   35  C1  UNL     1    -101.929 -20.843  50.701  1.00  0.00     0.081 C 
HETATM   36  C3  UNL     1    -102.475 -18.516  50.223  1.00  0.00     0.081 C 
BRANCH  34  37
HETATM   37  N1  UNL     1    -103.885 -19.868  51.607  1.00  0.00    -0.043 N 
ATOM     38  H13 UNL     1    -104.232 -20.791  51.869  1.00  0.00     0.277 HD
ATOM     39  H12 UNL     1    -103.358 -19.686  52.460  1.00  0.00     0.277 HD
ATOM     40  H11 UNL     1    -104.627 -19.189  51.436  1.00  0.00     0.277 HD
ENDBRANCH  34  37
ENDBRANCH  33  34
BRANCH  33  41
HETATM   41  C4  UNL     1    -105.215 -20.227  49.637  1.00  0.00     0.290 C 
BRANCH  41  42
HETATM   42  C5  UNL     1    -106.015 -19.405  48.672  1.00  0.00     0.145 C 
HETATM   43 CL1  UNL     1    -104.958 -18.775  47.378  1.00  0.00    -0.129 Cl
ENDBRANCH  41  42
ENDBRANCH  33  41
ENDBRANCH  32  33
ENDBRANCH  31  32
ENDBRANCH  30  31
ENDBRANCH  29  30
ENDBRANCH  21  29
ENDBRANCH   1  19
TORSDOF 10
ENDMDL
MODEL 2
REMARK VINA RESULT: -8.181002446      1.070      1.100
REMARK  10 active torsions:
REMARK  status: ('A' for Active; 'I' for Inactive)
REMARK    1  A    between atoms: C2_2  and  N1_4 
REMARK    2  A    between atoms: C2_2  and  N2_8 
REMARK    3  A    between atoms: N2_8  and  C4_9 
REMARK    4  A    between atoms: N2_8  and  C6_12 
REMARK    5  A    between atoms: C4_9  and  C5_10 
REMARK    6  A    between atoms: C6_12  and  C7_13 
REMARK    7  A    between atoms: C7_13  and  C8_14 
REMARK    8  A    between atoms: C8_14  and  C9_15 
REMARK    9  A    between atoms: C9_15  and  C10_16 
REMARK   10  A    between atoms: C12_18  and  C13_19 
ROOT
HETATM    1  C13 UNL     1     -97.105 -18.745  45.917  1.00  0.00     0.059 A 
HETATM    2  N3  UNL     1     -96.135 -19.001  44.982  1.00  0.00    -0.351 N 
ATOM      3  H3  UNL     1     -96.426 -19.221  44.029  1.00  0.00     0.166 HD
HETATM    4  C14 UNL     1     -94.842 -18.979  45.254  1.00  0.00     0.182 A 
HETATM    5  N4  UNL     1     -94.379 -18.701  46.476  1.00  0.00    -0.338 N 
ATOM      6  H4  UNL     1     -93.377 -18.686  46.669  1.00  0.00     0.168 HD
HETATM    7  C15 UNL     1     -95.273 -18.444  47.435  1.00  0.00     0.120 A 
HETATM    8  N5  UNL     1     -95.133 -18.155  48.748  1.00  0.00    -0.341 N 
ATOM      9  H5  UNL     1     -94.239 -18.069  49.231  1.00  0.00     0.167 HD
HETATM   10  C16 UNL     1     -96.329 -17.997  49.328  1.00  0.00     0.046 A 
HETATM   11  C17 UNL     1     -96.705 -17.723  50.627  1.00  0.00     0.053 A 
HETATM   12  C18 UNL     1     -98.035 -17.642  50.971  1.00  0.00     0.046 A 
HETATM   13  C19 UNL     1     -98.365 -17.350  52.340  1.00  0.00     0.099 C 
HETATM   14  N6  UNL     1     -98.640 -17.098  53.431  1.00  0.00    -0.191 NA
HETATM   15  C20 UNL     1     -99.003 -17.836  50.012  1.00  0.00     0.024 A 
HETATM   16  C21 UNL     1     -98.647 -18.114  48.687  1.00  0.00     0.016 A 
HETATM   17  C22 UNL     1     -97.313 -18.187  48.369  1.00  0.00     0.007 A 
HETATM   18  C23 UNL     1     -96.652 -18.459  47.191  1.00  0.00     0.048 A 
ENDROOT
BRANCH   1  19
HETATM   19  C12 UNL     1     -98.485 -18.757  45.506  1.00  0.00     0.009 A 
HETATM   20  C11 UNL     1     -99.404 -19.592  46.066  1.00  0.00     0.039 A 
HETATM   21  C10 UNL     1    -100.714 -19.680  45.576  1.00  0.00     0.062 A 
HETATM   22  C25 UNL     1    -101.057 -18.898  44.506  1.00  0.00     0.117 A 
HETATM   23  N7  UNL     1    -100.141 -18.069  43.953  1.00  0.00    -0.351 N 
HETATM   24  N8  UNL     1    -102.264 -18.981  44.055  1.00  0.00    -0.384 N 
HETATM   25  C24 UNL     1     -98.883 -17.985  44.424  1.00  0.00     0.103 A 
ATOM     26  H7  UNL     1    -100.411 -17.492  43.156  1.00  0.00     0.166 HD
ATOM     27  H82 UNL     1    -102.954 -19.605  44.472  1.00  0.00     0.157 HD
ATOM     28  H81 UNL     1    -102.519 -18.398  43.258  1.00  0.00     0.157 HD
BRANCH  21  29
HETATM   29  C9  UNL     1    -101.695 -20.555  46.147  1.00  0.00    -0.063 C 
BRANCH  29  30
HETATM   30  C8  UNL     1    -102.515 -21.315  46.634  1.00  0.00    -0.099 C 
BRANCH  30  31
HETATM   31  C7  UNL     1    -103.487 -22.260  47.218  1.00  0.00     0.124 C 
BRANCH  31  32
HETATM   32  C6  UNL     1    -103.635 -21.972  48.658  1.00  0.00     0.287 C 
BRANCH  32  33
HETATM   33  N2  UNL     1    -104.150 -20.721  49.070  1.00  0.00     0.126 N 
BRANCH  33  34
HETATM   34  C2  UNL     1    -103.328 -20.055  50.087  1.00  0.00     0.311 C 
HETATM   35  C1  UNL     1    -102.120 -20.941  50.358  1.00  0.00     0.081 C 
HETATM   36  C3  UNL     1    -102.817 -18.712  49.659  1.00  0.00     0.081 C 
BRANCH  34  37
HETATM   37  N1  UNL     1    -104.015 -19.920  51.343  1.00  0.00    -0.043 N 
ATOM     38  H13 UNL     1    -104.430 -20.792  51.674  1.00  0.00     0.277 HD
ATOM     39  H12 UNL     1    -103.389 -19.772  52.134  1.00  0.00     0.277 HD
ATOM     40  H11 UNL     1    -104.694 -19.170  51.216  1.00  0.00     0.277 HD
ENDBRANCH  34  37
ENDBRANCH  33  34
BRANCH  33  41
HETATM   41  C4  UNL     1    -105.409 -21.009  49.783  1.00  0.00     0.290 C 
BRANCH  41  42
HETATM   42  C5  UNL     1    -106.301 -21.968  49.054  1.00  0.00     0.145 C 
HETATM   43 CL1  UNL     1    -106.538 -23.447  50.026  1.00  0.00    -0.129 Cl
ENDBRANCH  41  42
ENDBRANCH  33  41
ENDBRANCH  32  33
ENDBRANCH  31  32
ENDBRANCH  30  31
ENDBRANCH  29  30
ENDBRANCH  21  29
ENDBRANCH   1  19
TORSDOF 10
ENDMDL
MODEL 3
REMARK VINA RESULT: -7.740139463      1.372      1.664
REMARK  10 active torsions:
REMARK  status: ('A' for Active; 'I' for Inactive)
REMARK    1  A    between atoms: C2_2  and  N1_4 
REMARK    2  A    between atoms: C2_2  and  N2_8 
REMARK    3  A    between atoms: N2_8  and  C4_9 
REMARK    4  A    between atoms: N2_8  and  C6_12 
REMARK    5  A    between atoms: C4_9  and  C5_10 
REMARK    6  A    between atoms: C6_12  and  C7_13 
REMARK    7  A    between atoms: C7_13  and  C8_14 
REMARK    8  A    between atoms: C8_14  and  C9_15 
REMARK    9  A    between atoms: C9_15  and  C10_16 
REMARK   10  A    between atoms: C12_18  and  C13_19 
ROOT
HETATM    1  C13 UNL     1     -96.865 -18.741  45.886  1.00  0.00     0.059 A 
HETATM    2  N3  UNL     1     -95.912 -19.011  44.938  1.00  0.00    -0.351 N 
ATOM      3  H3  UNL     1     -96.219 -19.239  43.993  1.00  0.00     0.166 HD
HETATM    4  C14 UNL     1     -94.614 -18.990  45.189  1.00  0.00     0.182 A 
HETATM    5  N4  UNL     1     -94.130 -18.701  46.400  1.00  0.00    -0.338 N 
ATOM      6  H4  UNL     1     -93.125 -18.687  46.576  1.00  0.00     0.168 HD
HETATM    7  C15 UNL     1     -95.007 -18.430  47.371  1.00  0.00     0.120 A 
HETATM    8  N5  UNL     1     -94.845 -18.128  48.678  1.00  0.00    -0.341 N 
ATOM      9  H5  UNL     1     -93.943 -18.040  49.145  1.00  0.00     0.167 HD
HETATM   10  C16 UNL     1     -96.031 -17.960  49.275  1.00  0.00     0.046 A 
HETATM   11  C17 UNL     1     -96.384 -17.671  50.577  1.00  0.00     0.053 A 
HETATM   12  C18 UNL     1     -97.708 -17.581  50.942  1.00  0.00     0.046 A 
HETATM   13  C19 UNL     1     -98.014 -17.273  52.314  1.00  0.00     0.099 C 
HETATM   14  N6  UNL     1     -98.271 -17.009  53.406  1.00  0.00    -0.191 NA
HETATM   15  C20 UNL     1     -98.693 -17.782  50.002  1.00  0.00     0.024 A 
HETATM   16  C21 UNL     1     -98.359 -18.076  48.674  1.00  0.00     0.016 A 
HETATM   17  C22 UNL     1     -97.031 -18.157  48.335  1.00  0.00     0.007 A 
HETATM   18  C23 UNL     1     -96.390 -18.444  47.149  1.00  0.00     0.048 A 
ENDROOT
BRANCH   1  19
HETATM   19  C12 UNL     1     -98.252 -18.753  45.499  1.00  0.00     0.009 A 
HETATM   20  C11 UNL     1     -99.170 -19.559  46.101  1.00  0.00     0.039 A 
HETATM   21  C10 UNL     1    -100.489 -19.650  45.635  1.00  0.00     0.062 A 
HETATM   22  C25 UNL     1    -100.841 -18.901  44.545  1.00  0.00     0.117 A 
HETATM   23  N7  UNL     1     -99.926 -18.101  43.949  1.00  0.00    -0.351 N 
HETATM   24  N8  UNL     1    -102.056 -18.987  44.117  1.00  0.00    -0.384 N 
HETATM   25  C24 UNL     1     -98.660 -18.014  44.397  1.00  0.00     0.103 A 
ATOM     26  H7  UNL     1    -100.204 -17.548  43.137  1.00  0.00     0.166 HD
ATOM     27  H82 UNL     1    -102.745 -19.590  44.565  1.00  0.00     0.157 HD
ATOM     28  H81 UNL     1    -102.319 -18.429  43.305  1.00  0.00     0.157 HD
BRANCH  21  29
HETATM   29  C9  UNL     1    -101.468 -20.495  46.251  1.00  0.00    -0.063 C 
BRANCH  29  30
HETATM   30  C8  UNL     1    -102.287 -21.230  46.776  1.00  0.00    -0.099 C 
BRANCH  30  31
HETATM   31  C7  UNL     1    -103.257 -22.142  47.415  1.00  0.00     0.124 C 
BRANCH  31  32
HETATM   32  C6  UNL     1    -103.773 -21.513  48.647  1.00  0.00     0.287 C 
BRANCH  32  33
HETATM   33  N2  UNL     1    -105.030 -20.868  48.626  1.00  0.00     0.126 N 
BRANCH  33  34
HETATM   34  C2  UNL     1    -104.956 -19.428  48.903  1.00  0.00     0.311 C 
HETATM   35  C1  UNL     1    -104.725 -18.714  47.579  1.00  0.00     0.081 C 
HETATM   36  C3  UNL     1    -106.210 -18.870  49.506  1.00  0.00     0.081 C 
BRANCH  34  37
HETATM   37  N1  UNL     1    -103.838 -19.090  49.741  1.00  0.00    -0.043 N 
ATOM     38  H13 UNL     1    -103.105 -18.574  49.252  1.00  0.00     0.277 HD
ATOM     39  H12 UNL     1    -104.052 -18.374  50.434  1.00  0.00     0.277 HD
ATOM     40  H11 UNL     1    -103.513 -19.966  50.149  1.00  0.00     0.277 HD
ENDBRANCH  34  37
ENDBRANCH  33  34
BRANCH  33  41
HETATM   41  C4  UNL     1    -105.784 -21.398  49.778  1.00  0.00     0.290 C 
BRANCH  41  42
HETATM   42  C5  UNL     1    -106.750 -22.484  49.409  1.00  0.00     0.145 C 
HETATM   43 CL1  UNL     1    -105.872 -24.004  49.082  1.00  0.00    -0.129 Cl
ENDBRANCH  41  42
ENDBRANCH  33  41
ENDBRANCH  32  33
ENDBRANCH  31  32
ENDBRANCH  30  31
ENDBRANCH  29  30
ENDBRANCH  21  29
ENDBRANCH   1  19
TORSDOF 10
ENDMDL
MODEL 4
REMARK VINA RESULT: -7.652577646      2.003      4.649
REMARK  10 active torsions:
REMARK  status: ('A' for Active; 'I' for Inactive)
REMARK    1  A    between atoms: C2_2  and  N1_4 
REMARK    2  A    between atoms: C2_2  and  N2_8 
REMARK    3  A    between atoms: N2_8  and  C4_9 
REMARK    4  A    between atoms: N2_8  and  C6_12 
REMARK    5  A    between atoms: C4_9  and  C5_10 
REMARK    6  A    between atoms: C6_12  and  C7_13 
REMARK    7  A    between atoms: C7_13  and  C8_14 
REMARK    8  A    between atoms: C8_14  and  C9_15 
REMARK    9  A    between atoms: C9_15  and  C10_16 
REMARK   10  A    between atoms: C12_18  and  C13_19 
ROOT
HETATM    1  C13 UNL     1     -96.992 -18.105  46.616  1.00  0.00     0.059 A 
HETATM    2  N3  UNL     1     -96.978 -17.647  47.909  1.00  0.00    -0.351 N 
ATOM      3  H3  UNL     1     -97.869 -17.436  48.358  1.00  0.00     0.166 HD
HETATM    4  C14 UNL     1     -95.866 -17.468  48.602  1.00  0.00     0.182 A 
HETATM    5  N4  UNL     1     -94.660 -17.722  48.088  1.00  0.00    -0.338 N 
ATOM      6  H4  UNL     1     -93.812 -17.580  48.637  1.00  0.00     0.168 HD
HETATM    7  C15 UNL     1     -94.603 -18.168  46.829  1.00  0.00     0.120 A 
HETATM    8  N5  UNL     1     -93.563 -18.491  46.030  1.00  0.00    -0.341 N 
ATOM      9  H5  UNL     1     -92.583 -18.450  46.310  1.00  0.00     0.167 HD
HETATM   10  C16 UNL     1     -93.994 -18.871  44.822  1.00  0.00     0.046 A 
HETATM   11  C17 UNL     1     -93.330 -19.264  43.678  1.00  0.00     0.053 A 
HETATM   12  C18 UNL     1     -94.028 -19.581  42.535  1.00  0.00     0.046 A 
HETATM   13  C19 UNL     1     -93.281 -19.987  41.374  1.00  0.00     0.099 C 
HETATM   14  N6  UNL     1     -92.693 -20.331  40.445  1.00  0.00    -0.191 NA
HETATM   15  C20 UNL     1     -95.402 -19.505  42.528  1.00  0.00     0.024 A 
HETATM   16  C21 UNL     1     -96.099 -19.110  43.677  1.00  0.00     0.016 A 
HETATM   17  C22 UNL     1     -95.379 -18.803  44.805  1.00  0.00     0.007 A 
HETATM   18  C23 UNL     1     -95.755 -18.370  46.059  1.00  0.00     0.048 A 
ENDROOT
BRANCH   1  19
HETATM   19  C12 UNL     1     -98.260 -18.302  45.964  1.00  0.00     0.009 A 
HETATM   20  C11 UNL     1     -99.200 -19.163  46.443  1.00  0.00     0.039 A 
HETATM   21  C10 UNL     1    -100.378 -19.437  45.736  1.00  0.00     0.062 A 
HETATM   22  C25 UNL     1    -100.569 -18.810  44.533  1.00  0.00     0.117 A 
HETATM   23  N7  UNL     1     -99.633 -17.954  44.060  1.00  0.00    -0.351 N 
HETATM   24  N8  UNL     1    -101.654 -19.064  43.882  1.00  0.00    -0.384 N 
HETATM   25  C24 UNL     1     -98.501 -17.692  44.741  1.00  0.00     0.103 A 
ATOM     26  H7  UNL     1     -99.789 -17.495  43.163  1.00  0.00     0.166 HD
ATOM     27  H82 UNL     1    -102.359 -19.708  44.238  1.00  0.00     0.157 HD
ATOM     28  H81 UNL     1    -101.797 -18.597  42.987  1.00  0.00     0.157 HD
BRANCH  21  29
HETATM   29  C9  UNL     1    -101.377 -20.343  46.219  1.00  0.00    -0.063 C 
BRANCH  29  30
HETATM   30  C8  UNL     1    -102.228 -21.124  46.611  1.00  0.00    -0.099 C 
BRANCH  30  31
HETATM   31  C7  UNL     1    -103.280 -22.046  47.082  1.00  0.00     0.124 C 
BRANCH  31  32
HETATM   32  C6  UNL     1    -103.459 -21.873  48.537  1.00  0.00     0.287 C 
BRANCH  32  33
HETATM   33  N2  UNL     1    -103.910 -20.631  49.041  1.00  0.00     0.126 N 
BRANCH  33  34
HETATM   34  C2  UNL     1    -103.001 -20.032  50.025  1.00  0.00     0.311 C 
HETATM   35  C1  UNL     1    -101.884 -21.031  50.290  1.00  0.00     0.081 C 
HETATM   36  C3  UNL     1    -102.368 -18.757  49.556  1.00  0.00     0.081 C 
BRANCH  34  37
HETATM   37  N1  UNL     1    -103.642 -19.803  51.292  1.00  0.00    -0.043 N 
ATOM     38  H13 UNL     1    -103.236 -19.029  51.818  1.00  0.00     0.277 HD
ATOM     39  H12 UNL     1    -104.582 -19.417  51.207  1.00  0.00     0.277 HD
ATOM     40  H11 UNL     1    -103.612 -20.692  51.790  1.00  0.00     0.277 HD
ENDBRANCH  34  37
ENDBRANCH  33  34
BRANCH  33  41
HETATM   41  C4  UNL     1    -105.122 -20.924  49.830  1.00  0.00     0.290 C 
BRANCH  41  42
HETATM   42  C5  UNL     1    -106.152 -21.706  49.071  1.00  0.00     0.145 C 
HETATM   43 CL1  UNL     1    -106.460 -23.267  49.882  1.00  0.00    -0.129 Cl
ENDBRANCH  41  42
ENDBRANCH  33  41
ENDBRANCH  32  33
ENDBRANCH  31  32
ENDBRANCH  30  31
ENDBRANCH  29  30
ENDBRANCH  21  29
ENDBRANCH   1  19
TORSDOF 10
ENDMDL
MODEL 5
REMARK VINA RESULT: -7.598324856      1.140      1.779
REMARK  10 active torsions:
REMARK  status: ('A' for Active; 'I' for Inactive)
REMARK    1  A    between atoms: C2_2  and  N1_4 
REMARK    2  A    between atoms: C2_2  and  N2_8 
REMARK    3  A    between atoms: N2_8  and  C4_9 
REMARK    4  A    between atoms: N2_8  and  C6_12 
REMARK    5  A    between atoms: C4_9  and  C5_10 
REMARK    6  A    between atoms: C6_12  and  C7_13 
REMARK    7  A    between atoms: C7_13  and  C8_14 
REMARK    8  A    between atoms: C8_14  and  C9_15 
REMARK    9  A    between atoms: C9_15  and  C10_16 
REMARK   10  A    between atoms: C12_18  and  C13_19 
ROOT
HETATM    1  C13 UNL     1     -96.560 -18.676  46.004  1.00  0.00     0.059 A 
HETATM    2  N3  UNL     1     -95.558 -18.949  45.108  1.00  0.00    -0.351 N 
ATOM      3  H3  UNL     1     -95.813 -19.146  44.140  1.00  0.00     0.166 HD
HETATM    4  C14 UNL     1     -94.277 -18.968  45.436  1.00  0.00     0.182 A 
HETATM    5  N4  UNL     1     -93.860 -18.721  46.680  1.00  0.00    -0.338 N 
ATOM      6  H4  UNL     1     -92.868 -18.738  46.917  1.00  0.00     0.168 HD
HETATM    7  C15 UNL     1     -94.787 -18.450  47.604  1.00  0.00     0.120 A 
HETATM    8  N5  UNL     1     -94.696 -18.183  48.925  1.00  0.00    -0.341 N 
ATOM      9  H5  UNL     1     -93.822 -18.131  49.448  1.00  0.00     0.167 HD
HETATM   10  C16 UNL     1     -95.911 -17.998  49.456  1.00  0.00     0.046 A 
HETATM   11  C17 UNL     1     -96.334 -17.731  50.741  1.00  0.00     0.053 A 
HETATM   12  C18 UNL     1     -97.675 -17.614  51.029  1.00  0.00     0.046 A 
HETATM   13  C19 UNL     1     -98.056 -17.331  52.387  1.00  0.00     0.099 C 
HETATM   14  N6  UNL     1     -98.371 -17.086  53.468  1.00  0.00    -0.191 NA
HETATM   15  C20 UNL     1     -98.606 -17.767  50.027  1.00  0.00     0.024 A 
HETATM   16  C21 UNL     1     -98.201 -18.038  48.714  1.00  0.00     0.016 A 
HETATM   17  C22 UNL     1     -96.858 -18.146  48.453  1.00  0.00     0.007 A 
HETATM   18  C23 UNL     1     -96.154 -18.421  47.300  1.00  0.00     0.048 A 
ENDROOT
BRANCH   1  19
HETATM   19  C12 UNL     1     -97.920 -18.642  45.535  1.00  0.00     0.009 A 
HETATM   20  C11 UNL     1     -98.885 -19.462  46.035  1.00  0.00     0.039 A 
HETATM   21  C10 UNL     1    -100.174 -19.505  45.488  1.00  0.00     0.062 A 
HETATM   22  C25 UNL     1    -100.449 -18.691  44.422  1.00  0.00     0.117 A 
HETATM   23  N7  UNL     1     -99.488 -17.875  43.927  1.00  0.00    -0.351 N 
HETATM   24  N8  UNL     1    -101.637 -18.731  43.918  1.00  0.00    -0.384 N 
HETATM   25  C24 UNL     1     -98.250 -17.836  44.454  1.00  0.00     0.103 A 
ATOM     26  H7  UNL     1     -99.708 -17.274  43.133  1.00  0.00     0.166 HD
ATOM     27  H82 UNL     1    -102.361 -19.345  44.290  1.00  0.00     0.157 HD
ATOM     28  H81 UNL     1    -101.842 -18.124  43.124  1.00  0.00     0.157 HD
BRANCH  21  29
HETATM   29  C9  UNL     1    -101.201 -20.364  45.996  1.00  0.00    -0.063 C 
BRANCH  29  30
HETATM   30  C8  UNL     1    -102.089 -21.078  46.431  1.00  0.00    -0.099 C 
BRANCH  30  31
HETATM   31  C7  UNL     1    -103.158 -21.931  46.988  1.00  0.00     0.124 C 
BRANCH  31  32
HETATM   32  C6  UNL     1    -104.202 -21.073  47.580  1.00  0.00     0.287 C 
BRANCH  32  33
HETATM   33  N2  UNL     1    -104.034 -20.575  48.893  1.00  0.00     0.126 N 
BRANCH  33  34
HETATM   34  C2  UNL     1    -105.297 -20.392  49.618  1.00  0.00     0.311 C 
HETATM   35  C1  UNL     1    -106.121 -19.365  48.856  1.00  0.00     0.081 C 
HETATM   36  C3  UNL     1    -106.114 -21.644  49.720  1.00  0.00     0.081 C 
BRANCH  34  37
HETATM   37  N1  UNL     1    -105.098 -19.849  50.933  1.00  0.00    -0.043 N 
ATOM     38  H13 UNL     1    -105.642 -19.004  51.111  1.00  0.00     0.277 HD
ATOM     39  H12 UNL     1    -105.508 -20.418  51.674  1.00  0.00     0.277 HD
ATOM     40  H11 UNL     1    -104.093 -19.713  51.036  1.00  0.00     0.277 HD
ENDBRANCH  34  37
ENDBRANCH  33  34
BRANCH  33  41
HETATM   41  C4  UNL     1    -103.521 -19.199  48.748  1.00  0.00     0.290 C 
BRANCH  41  42
HETATM   42  C5  UNL     1    -102.171 -18.997  49.368  1.00  0.00     0.145 C 
HETATM   43 CL1  UNL     1    -101.541 -20.549  49.988  1.00  0.00    -0.129 Cl
ENDBRANCH  41  42
ENDBRANCH  33  41
ENDBRANCH  32  33
ENDBRANCH  31  32
ENDBRANCH  30  31
ENDBRANCH  29  30
ENDBRANCH  21  29
ENDBRANCH   1  19
TORSDOF 10
ENDMDL
