MODEL 1
REMARK VINA RESULT: -8.825655591      0.000      0.000
REMARK  8 active torsions:
REMARK  status: ('A' for Active; 'I' for Inactive)
REMARK    1  A    between atoms: C2_2  and  C3_3 
REMARK    2  A    between atoms: C5_5  and  C6_6 
REMARK    3  A    between atoms: C8_10  and  C9_11 
REMARK    4  A    between atoms: C12_14  and  C13_15 
REMARK    5  A    between atoms: C13_15  and  N2_16 
REMARK    6  A    between atoms: C16_19  and  C17_20 
REMARK       I    between atoms: C17_20  and  N3_22 
REMARK    7  A    between atoms: C20_26  and  C21_27 
REMARK    8  A    between atoms: C25_37  and  N6_38 
ROOT
HETATM    1  C9  UNL     1     -99.062 -18.638  45.143  1.00  0.00     0.053 C 
HETATM    2  C10 UNL     1     -98.215 -18.893  46.364  1.00  0.00     0.013 C 
HETATM    3  C11 UNL     1     -96.773 -19.148  46.022  1.00  0.00     0.007 C 
HETATM    4  C12 UNL     1     -96.258 -18.365  44.878  1.00  0.00     0.003 C 
HETATM    5  C23 UNL     1     -97.162 -18.250  43.693  1.00  0.00     0.007 C 
HETATM    6  C24 UNL     1     -98.336 -19.184  43.906  1.00  0.00     0.013 C 
ENDROOT
BRANCH   1   7
HETATM    7  C8  UNL     1    -100.442 -19.114  45.244  1.00  0.00     0.085 A 
HETATM    8  N1  UNL     1    -101.406 -18.863  44.331  1.00  0.00    -0.353 N 
HETATM    9  C7  UNL     1    -102.549 -19.444  44.739  1.00  0.00     0.121 A 
ATOM     10  H1  UNL     1    -101.287 -18.322  43.474  1.00  0.00     0.166 HD
HETATM   11  C6  UNL     1    -102.319 -20.081  45.937  1.00  0.00     0.076 A 
HETATM   12  N4  UNL     1    -101.034 -19.857  46.206  1.00  0.00    -0.343 N 
ATOM     13  H4  UNL     1    -100.554 -20.205  47.037  1.00  0.00     0.167 HD
BRANCH  11  14
HETATM   14  C5  UNL     1    -103.334 -20.820  46.683  1.00  0.00     0.079 A 
HETATM   15  C4  UNL     1    -104.027 -20.244  47.715  1.00  0.00     0.058 A 
HETATM   16  C3  UNL     1    -104.995 -20.897  48.451  1.00  0.00     0.028 A 
HETATM   17  N7  UNL     1    -105.251 -22.171  48.114  1.00  0.00    -0.196 N 
HETATM   18  C25 UNL     1    -104.587 -22.775  47.101  1.00  0.00     0.676 A 
ATOM     19  H7  UNL     1    -105.959 -22.694  48.631  1.00  0.00     0.184 HD
HETATM   20  N5  UNL     1    -103.636 -22.098  46.394  1.00  0.00    -0.190 N 
ATOM     21  H5  UNL     1    -103.146 -22.569  45.633  1.00  0.00     0.184 HD
BRANCH  16  22
HETATM   22  C2  UNL     1    -105.717 -20.217  49.563  1.00  0.00     0.053 C 
HETATM   23  C1  UNL     1    -106.329 -18.911  49.081  1.00  0.00     0.011 C 
ENDBRANCH  16  22
BRANCH  18  24
HETATM   24  N6  UNL     1    -104.876 -23.998  46.823  1.00  0.00    -0.234 N 
ATOM     25  H62 UNL     1    -104.503 -24.733  47.425  1.00  0.00     0.174 HD
ATOM     26  H61 UNL     1    -105.464 -24.232  46.023  1.00  0.00     0.174 HD
ENDBRANCH  18  24
ENDBRANCH  11  14
ENDBRANCH   1   7
BRANCH   4  27
HETATM   27  C13 UNL     1     -94.954 -19.012  44.379  1.00  0.00     0.127 C 
BRANCH  27  28
HETATM   28  N2  UNL     1     -93.962 -18.076  44.051  1.00  0.00    -0.383 N 
HETATM   29  C14 UNL     1     -93.714 -17.126  45.053  1.00  0.00     0.059 C 
HETATM   30  C15 UNL     1     -92.861 -15.962  44.749  1.00  0.00     0.058 C 
HETATM   31  C16 UNL     1     -93.018 -15.631  43.286  1.00  0.00     0.085 C 
HETATM   32  C19 UNL     1     -92.469 -16.838  42.551  1.00  0.00     0.045 C 
HETATM   33  C20 UNL     1     -93.234 -18.105  42.884  1.00  0.00     0.156 C 
BRANCH  31  34
HETATM   34  C17 UNL     1     -92.205 -14.457  42.891  1.00  0.00     0.221 C 
HETATM   35  O1  UNL     1     -91.035 -14.606  42.485  1.00  0.00    -0.273 OA
HETATM   36  N3  UNL     1     -92.768 -13.159  42.976  1.00  0.00    -0.365 N 
HETATM   37  C18 UNL     1     -91.982 -12.005  42.594  1.00  0.00     0.149 C 
ATOM     38  H3  UNL     1     -93.725 -13.037  43.307  1.00  0.00     0.161 HD
ENDBRANCH  31  34
BRANCH  33  39
HETATM   39  C21 UNL     1     -93.921 -18.507  41.601  1.00  0.00     0.260 C 
HETATM   40  C22 UNL     1     -93.001 -18.492  40.415  1.00  0.00     0.092 C 
HETATM   41  F1  UNL     1     -94.288 -19.861  41.808  1.00  0.00    -0.204 F 
HETATM   42  F2  UNL     1     -95.080 -17.872  41.322  1.00  0.00    -0.204 F 
ENDBRANCH  33  39
ENDBRANCH  27  28
ENDBRANCH   4  27
TORSDOF 8
ENDMDL
MODEL 2
REMARK VINA RESULT: -8.637340638      3.141      4.564
REMARK  8 active torsions:
REMARK  status: ('A' for Active; 'I' for Inactive)
REMARK    1  A    between atoms: C2_2  and  C3_3 
REMARK    2  A    between atoms: C5_5  and  C6_6 
REMARK    3  A    between atoms: C8_10  and  C9_11 
REMARK    4  A    between atoms: C12_14  and  C13_15 
REMARK    5  A    between atoms: C13_15  and  N2_16 
REMARK    6  A    between atoms: C16_19  and  C17_20 
REMARK       I    between atoms: C17_20  and  N3_22 
REMARK    7  A    between atoms: C20_26  and  C21_27 
REMARK    8  A    between atoms: C25_37  and  N6_38 
ROOT
HETATM    1  C9  UNL     1     -99.351 -19.597  45.203  1.00  0.00     0.053 C 
HETATM    2  C10 UNL     1     -98.919 -18.993  43.891  1.00  0.00     0.013 C 
HETATM    3  C11 UNL     1     -97.597 -18.283  43.990  1.00  0.00     0.007 C 
HETATM    4  C12 UNL     1     -96.621 -18.913  44.906  1.00  0.00     0.003 C 
HETATM    5  C23 UNL     1     -97.160 -19.402  46.213  1.00  0.00     0.007 C 
HETATM    6  C24 UNL     1     -98.587 -18.913  46.346  1.00  0.00     0.013 C 
ENDROOT
BRANCH   1   7
HETATM    7  C8  UNL     1    -100.798 -19.614  45.422  1.00  0.00     0.085 A 
HETATM    8  N1  UNL     1    -101.712 -19.172  44.530  1.00  0.00    -0.353 N 
HETATM    9  C7  UNL     1    -102.941 -19.330  45.055  1.00  0.00     0.121 A 
ATOM     10  H1  UNL     1    -101.504 -18.782  43.610  1.00  0.00     0.166 HD
HETATM   11  C6  UNL     1    -102.817 -19.884  46.309  1.00  0.00     0.076 A 
HETATM   12  N4  UNL     1    -101.507 -20.040  46.492  1.00  0.00    -0.343 N 
ATOM     13  H4  UNL     1    -101.089 -20.433  47.335  1.00  0.00     0.167 HD
BRANCH  11  14
HETATM   14  C5  UNL     1    -103.945 -20.198  47.184  1.00  0.00     0.079 A 
HETATM   15  C4  UNL     1    -104.251 -21.488  47.525  1.00  0.00     0.058 A 
HETATM   16  C3  UNL     1    -105.303 -21.839  48.345  1.00  0.00     0.028 A 
HETATM   17  N7  UNL     1    -106.055 -20.835  48.822  1.00  0.00    -0.196 N 
HETATM   18  C25 UNL     1    -105.786 -19.546  48.508  1.00  0.00     0.676 A 
ATOM     19  H7  UNL     1    -106.845 -21.047  49.433  1.00  0.00     0.184 HD
HETATM   20  N5  UNL     1    -104.735 -19.237  47.693  1.00  0.00    -0.190 N 
ATOM     21  H5  UNL     1    -104.547 -18.260  47.467  1.00  0.00     0.184 HD
BRANCH  16  22
HETATM   22  C2  UNL     1    -105.586 -23.263  48.683  1.00  0.00     0.053 C 
HETATM   23  C1  UNL     1    -106.574 -23.351  49.837  1.00  0.00     0.011 C 
ENDBRANCH  16  22
BRANCH  18  24
HETATM   24  N6  UNL     1    -106.542 -18.626  48.996  1.00  0.00    -0.234 N 
ATOM     25  H62 UNL     1    -107.368 -18.347  48.467  1.00  0.00     0.174 HD
ATOM     26  H61 UNL     1    -106.324 -18.184  49.889  1.00  0.00     0.174 HD
ENDBRANCH  18  24
ENDBRANCH  11  14
ENDBRANCH   1   7
BRANCH   4  27
HETATM   27  C13 UNL     1     -95.518 -17.893  45.237  1.00  0.00     0.127 C 
BRANCH  27  28
HETATM   28  N2  UNL     1     -94.226 -18.433  45.167  1.00  0.00    -0.383 N 
HETATM   29  C14 UNL     1     -94.024 -19.305  44.086  1.00  0.00     0.059 C 
HETATM   30  C15 UNL     1     -92.788 -20.107  44.028  1.00  0.00     0.058 C 
HETATM   31  C16 UNL     1     -92.340 -20.390  45.440  1.00  0.00     0.085 C 
HETATM   32  C19 UNL     1     -92.007 -19.030  46.023  1.00  0.00     0.045 C 
HETATM   33  C20 UNL     1     -93.208 -18.103  46.032  1.00  0.00     0.156 C 
BRANCH  31  34
HETATM   34  C17 UNL     1     -91.107 -21.210  45.479  1.00  0.00     0.221 C 
HETATM   35  O1  UNL     1     -90.184 -20.926  46.269  1.00  0.00    -0.273 OA
HETATM   36  N3  UNL     1     -90.982 -22.323  44.611  1.00  0.00    -0.365 N 
HETATM   37  C18 UNL     1     -89.781 -23.130  44.640  1.00  0.00     0.149 C 
ATOM     38  H3  UNL     1     -91.737 -22.555  43.965  1.00  0.00     0.161 HD
ENDBRANCH  31  34
BRANCH  33  39
HETATM   39  C21 UNL     1     -93.528 -17.877  47.490  1.00  0.00     0.260 C 
HETATM   40  C22 UNL     1     -92.316 -17.947  48.372  1.00  0.00     0.092 C 
HETATM   41  F1  UNL     1     -93.988 -16.537  47.544  1.00  0.00    -0.204 F 
HETATM   42  F2  UNL     1     -94.540 -18.613  47.998  1.00  0.00    -0.204 F 
ENDBRANCH  33  39
ENDBRANCH  27  28
ENDBRANCH   4  27
TORSDOF 8
ENDMDL
MODEL 3
REMARK VINA RESULT: -8.624136696      1.300      1.804
REMARK  8 active torsions:
REMARK  status: ('A' for Active; 'I' for Inactive)
REMARK    1  A    between atoms: C2_2  and  C3_3 
REMARK    2  A    between atoms: C5_5  and  C6_6 
REMARK    3  A    between atoms: C8_10  and  C9_11 
REMARK    4  A    between atoms: C12_14  and  C13_15 
REMARK    5  A    between atoms: C13_15  and  N2_16 
REMARK    6  A    between atoms: C16_19  and  C17_20 
REMARK       I    between atoms: C17_20  and  N3_22 
REMARK    7  A    between atoms: C20_26  and  C21_27 
REMARK    8  A    between atoms: C25_37  and  N6_38 
ROOT
HETATM    1  C9  UNL     1     -99.379 -18.742  45.622  1.00  0.00     0.053 C 
HETATM    2  C10 UNL     1     -98.505 -19.188  46.765  1.00  0.00     0.013 C 
HETATM    3  C11 UNL     1     -97.086 -19.448  46.339  1.00  0.00     0.007 C 
HETATM    4  C12 UNL     1     -96.577 -18.538  45.289  1.00  0.00     0.003 C 
HETATM    5  C23 UNL     1     -97.514 -18.235  44.165  1.00  0.00     0.007 C 
HETATM    6  C24 UNL     1     -98.717 -19.145  44.296  1.00  0.00     0.013 C 
ENDROOT
BRANCH   1   7
HETATM    7  C8  UNL     1    -100.774 -19.177  45.711  1.00  0.00     0.085 A 
HETATM    8  N1  UNL     1    -101.572 -19.409  44.645  1.00  0.00    -0.353 N 
HETATM    9  C7  UNL     1    -102.785 -19.789  45.088  1.00  0.00     0.121 A 
ATOM     10  H1  UNL     1    -101.300 -19.313  43.667  1.00  0.00     0.166 HD
HETATM   11  C6  UNL     1    -102.769 -19.800  46.465  1.00  0.00     0.076 A 
HETATM   12  N4  UNL     1    -101.536 -19.426  46.800  1.00  0.00    -0.343 N 
ATOM     13  H4  UNL     1    -101.206 -19.337  47.761  1.00  0.00     0.167 HD
BRANCH  11  14
HETATM   14  C5  UNL     1    -103.915 -20.161  47.297  1.00  0.00     0.079 A 
HETATM   15  C4  UNL     1    -104.200 -21.467  47.598  1.00  0.00     0.058 A 
HETATM   16  C3  UNL     1    -105.268 -21.862  48.377  1.00  0.00     0.028 A 
HETATM   17  N7  UNL     1    -106.057 -20.887  48.855  1.00  0.00    -0.196 N 
HETATM   18  C25 UNL     1    -105.809 -19.585  48.579  1.00  0.00     0.676 A 
ATOM     19  H7  UNL     1    -106.860 -21.131  49.436  1.00  0.00     0.184 HD
HETATM   20  N5  UNL     1    -104.742 -19.231  47.804  1.00  0.00    -0.190 N 
ATOM     21  H5  UNL     1    -104.571 -18.245  47.607  1.00  0.00     0.184 HD
BRANCH  16  22
HETATM   22  C2  UNL     1    -105.527 -23.299  48.673  1.00  0.00     0.053 C 
HETATM   23  C1  UNL     1    -106.505 -23.438  49.829  1.00  0.00     0.011 C 
ENDBRANCH  16  22
BRANCH  18  24
HETATM   24  N6  UNL     1    -106.601 -18.695  49.065  1.00  0.00    -0.234 N 
ATOM     25  H62 UNL     1    -106.642 -17.782  48.611  1.00  0.00     0.174 HD
ATOM     26  H61 UNL     1    -107.176 -18.892  49.884  1.00  0.00     0.174 HD
ENDBRANCH  18  24
ENDBRANCH  11  14
ENDBRANCH   1   7
BRANCH   4  27
HETATM   27  C13 UNL     1     -95.317 -19.160  44.660  1.00  0.00     0.127 C 
BRANCH  27  28
HETATM   28  N2  UNL     1     -94.282 -18.235  44.466  1.00  0.00    -0.383 N 
HETATM   29  C14 UNL     1     -93.980 -17.464  45.599  1.00  0.00     0.059 C 
HETATM   30  C15 UNL     1     -93.070 -16.311  45.465  1.00  0.00     0.058 C 
HETATM   31  C16 UNL     1     -93.220 -15.750  44.072  1.00  0.00     0.085 C 
HETATM   32  C19 UNL     1     -92.737 -16.855  43.153  1.00  0.00     0.045 C 
HETATM   33  C20 UNL     1     -93.563 -18.119  43.299  1.00  0.00     0.156 C 
BRANCH  31  34
HETATM   34  C17 UNL     1     -92.351 -14.571  43.851  1.00  0.00     0.221 C 
HETATM   35  O1  UNL     1     -91.312 -14.416  44.524  1.00  0.00    -0.273 OA
HETATM   36  N3  UNL     1     -92.708 -13.616  42.866  1.00  0.00    -0.365 N 
HETATM   37  C18 UNL     1     -91.866 -12.460  42.643  1.00  0.00     0.149 C 
ATOM     38  H3  UNL     1     -93.557 -13.743  42.315  1.00  0.00     0.161 HD
ENDBRANCH  31  34
BRANCH  33  39
HETATM   39  C21 UNL     1     -94.278 -18.284  41.979  1.00  0.00     0.260 C 
HETATM   40  C22 UNL     1     -93.390 -18.023  40.797  1.00  0.00     0.092 C 
HETATM   41  F1  UNL     1     -94.615 -19.661  41.932  1.00  0.00    -0.204 F 
HETATM   42  F2  UNL     1     -95.455 -17.635  41.854  1.00  0.00    -0.204 F 
ENDBRANCH  33  39
ENDBRANCH  27  28
ENDBRANCH   4  27
TORSDOF 8
ENDMDL
MODEL 4
REMARK VINA RESULT: -8.456211156      4.296     12.078
REMARK  8 active torsions:
REMARK  status: ('A' for Active; 'I' for Inactive)
REMARK    1  A    between atoms: C2_2  and  C3_3 
REMARK    2  A    between atoms: C5_5  and  C6_6 
REMARK    3  A    between atoms: C8_10  and  C9_11 
REMARK    4  A    between atoms: C12_14  and  C13_15 
REMARK    5  A    between atoms: C13_15  and  N2_16 
REMARK    6  A    between atoms: C16_19  and  C17_20 
REMARK       I    between atoms: C17_20  and  N3_22 
REMARK    7  A    between atoms: C20_26  and  C21_27 
REMARK    8  A    between atoms: C25_37  and  N6_38 
ROOT
HETATM    1  C9  UNL     1     -97.158 -18.943  44.524  1.00  0.00     0.053 C 
HETATM    2  C10 UNL     1     -96.810 -19.312  45.944  1.00  0.00     0.013 C 
HETATM    3  C11 UNL     1     -98.007 -19.297  46.854  1.00  0.00     0.007 C 
HETATM    4  C12 UNL     1     -99.268 -19.752  46.228  1.00  0.00     0.003 C 
HETATM    5  C23 UNL     1     -99.537 -19.253  44.844  1.00  0.00     0.007 C 
HETATM    6  C24 UNL     1     -98.501 -18.199  44.514  1.00  0.00     0.013 C 
ENDROOT
BRANCH   1   7
HETATM    7  C8  UNL     1     -96.108 -18.223  43.803  1.00  0.00     0.085 A 
HETATM    8  N1  UNL     1     -95.998 -18.179  42.456  1.00  0.00    -0.353 N 
HETATM    9  C7  UNL     1     -94.922 -17.437  42.135  1.00  0.00     0.121 A 
ATOM     10  H1  UNL     1     -96.626 -18.634  41.794  1.00  0.00     0.166 HD
HETATM   11  C6  UNL     1     -94.328 -16.994  43.295  1.00  0.00     0.076 A 
HETATM   12  N4  UNL     1     -95.076 -17.491  44.279  1.00  0.00    -0.343 N 
ATOM     13  H4  UNL     1     -94.893 -17.338  45.270  1.00  0.00     0.167 HD
BRANCH  11  14
HETATM   14  C5  UNL     1     -93.129 -16.160  43.338  1.00  0.00     0.079 A 
HETATM   15  C4  UNL     1     -91.931 -16.600  42.839  1.00  0.00     0.058 A 
HETATM   16  C3  UNL     1     -90.771 -15.853  42.854  1.00  0.00     0.028 A 
HETATM   17  N7  UNL     1     -90.850 -14.628  43.396  1.00  0.00    -0.196 N 
HETATM   18  C25 UNL     1     -92.015 -14.157  43.899  1.00  0.00     0.676 A 
ATOM     19  H7  UNL     1     -90.017 -14.039  43.429  1.00  0.00     0.184 HD
HETATM   20  N5  UNL     1     -93.144 -14.924  43.867  1.00  0.00    -0.190 N 
ATOM     21  H5  UNL     1     -94.013 -14.553  44.251  1.00  0.00     0.184 HD
BRANCH  16  22
HETATM   22  C2  UNL     1     -89.496 -16.385  42.295  1.00  0.00     0.053 C 
HETATM   23  C1  UNL     1     -88.308 -15.609  42.845  1.00  0.00     0.011 C 
ENDBRANCH  16  22
BRANCH  18  24
HETATM   24  N6  UNL     1     -92.030 -12.974  44.406  1.00  0.00    -0.234 N 
ATOM     25  H62 UNL     1     -92.878 -12.660  44.878  1.00  0.00     0.174 HD
ATOM     26  H61 UNL     1     -91.217 -12.363  44.340  1.00  0.00     0.174 HD
ENDBRANCH  18  24
ENDBRANCH  11  14
ENDBRANCH   1   7
BRANCH   4  27
HETATM   27  C13 UNL     1    -100.450 -19.295  47.101  1.00  0.00     0.127 C 
BRANCH  27  28
HETATM   28  N2  UNL     1    -101.316 -20.341  47.450  1.00  0.00    -0.383 N 
HETATM   29  C14 UNL     1    -102.130 -20.789  46.399  1.00  0.00     0.059 C 
HETATM   30  C15 UNL     1    -103.233 -21.724  46.689  1.00  0.00     0.058 C 
HETATM   31  C16 UNL     1    -103.727 -21.454  48.088  1.00  0.00     0.085 C 
HETATM   32  C19 UNL     1    -102.555 -21.794  48.988  1.00  0.00     0.045 C 
HETATM   33  C20 UNL     1    -101.339 -20.938  48.689  1.00  0.00     0.156 C 
BRANCH  31  34
HETATM   34  C17 UNL     1    -104.853 -22.341  48.462  1.00  0.00     0.221 C 
HETATM   35  O1  UNL     1    -105.030 -23.423  47.866  1.00  0.00    -0.273 OA
HETATM   36  N3  UNL     1    -105.731 -21.952  49.504  1.00  0.00    -0.365 N 
HETATM   37  C18 UNL     1    -106.834 -22.811  49.876  1.00  0.00     0.149 C 
ATOM     38  H3  UNL     1    -105.586 -21.068  49.991  1.00  0.00     0.161 HD
ENDBRANCH  31  34
BRANCH  33  39
HETATM   39  C21 UNL     1    -101.138 -20.085  49.918  1.00  0.00     0.260 C 
HETATM   40  C22 UNL     1    -101.612 -20.752  51.177  1.00  0.00     0.092 C 
HETATM   41  F1  UNL     1     -99.730 -19.963  50.035  1.00  0.00    -0.204 F 
HETATM   42  F2  UNL     1    -101.592 -18.816  49.843  1.00  0.00    -0.204 F 
ENDBRANCH  33  39
ENDBRANCH  27  28
ENDBRANCH   4  27
TORSDOF 8
ENDMDL
MODEL 5
REMARK VINA RESULT: -8.428942113      1.947      2.635
REMARK  8 active torsions:
REMARK  status: ('A' for Active; 'I' for Inactive)
REMARK    1  A    between atoms: C2_2  and  C3_3 
REMARK    2  A    between atoms: C5_5  and  C6_6 
REMARK    3  A    between atoms: C8_10  and  C9_11 
REMARK    4  A    between atoms: C12_14  and  C13_15 
REMARK    5  A    between atoms: C13_15  and  N2_16 
REMARK    6  A    between atoms: C16_19  and  C17_20 
REMARK       I    between atoms: C17_20  and  N3_22 
REMARK    7  A    between atoms: C20_26  and  C21_27 
REMARK    8  A    between atoms: C25_37  and  N6_38 
ROOT
HETATM    1  C9  UNL     1     -98.425 -18.482  46.742  1.00  0.00     0.053 C 
HETATM    2  C10 UNL     1     -97.880 -18.099  48.095  1.00  0.00     0.013 C 
HETATM    3  C11 UNL     1     -96.377 -18.056  48.120  1.00  0.00     0.007 C 
HETATM    4  C12 UNL     1     -95.749 -17.571  46.871  1.00  0.00     0.003 C 
HETATM    5  C23 UNL     1     -96.331 -18.085  45.594  1.00  0.00     0.007 C 
HETATM    6  C24 UNL     1     -97.321 -19.180  45.935  1.00  0.00     0.013 C 
ENDROOT
BRANCH   1   7
HETATM    7  C8  UNL     1     -99.670 -19.251  46.778  1.00  0.00     0.085 A 
HETATM    8  N1  UNL     1    -100.167 -19.949  45.733  1.00  0.00    -0.353 N 
HETATM    9  C7  UNL     1    -101.322 -20.529  46.111  1.00  0.00     0.121 A 
ATOM     10  H1  UNL     1     -99.740 -20.023  44.810  1.00  0.00     0.166 HD
HETATM   11  C6  UNL     1    -101.573 -20.198  47.424  1.00  0.00     0.076 A 
HETATM   12  N4  UNL     1    -100.551 -19.426  47.789  1.00  0.00    -0.343 N 
ATOM     13  H4  UNL     1    -100.445 -19.017  48.717  1.00  0.00     0.167 HD
BRANCH  11  14
HETATM   14  C5  UNL     1    -102.744 -20.647  48.175  1.00  0.00     0.079 A 
HETATM   15  C4  UNL     1    -103.454 -21.757  47.799  1.00  0.00     0.058 A 
HETATM   16  C3  UNL     1    -104.565 -22.223  48.471  1.00  0.00     0.028 A 
HETATM   17  N7  UNL     1    -104.950 -21.529  49.554  1.00  0.00    -0.196 N 
HETATM   18  C25 UNL     1    -104.274 -20.427  49.956  1.00  0.00     0.676 A 
ATOM     19  H7  UNL     1    -105.766 -21.836  50.083  1.00  0.00     0.184 HD
HETATM   20  N5  UNL     1    -103.178 -19.995  49.266  1.00  0.00    -0.190 N 
ATOM     21  H5  UNL     1    -102.681 -19.162  49.585  1.00  0.00     0.184 HD
BRANCH  16  22
HETATM   22  C2  UNL     1    -105.297 -23.438  48.016  1.00  0.00     0.053 C 
HETATM   23  C1  UNL     1    -104.803 -23.876  46.645  1.00  0.00     0.011 C 
ENDBRANCH  16  22
BRANCH  18  24
HETATM   24  N6  UNL     1    -104.689 -19.802  51.002  1.00  0.00    -0.234 N 
ATOM     25  H62 UNL     1    -104.447 -18.817  51.106  1.00  0.00     0.174 HD
ATOM     26  H61 UNL     1    -105.249 -20.276  51.711  1.00  0.00     0.174 HD
ENDBRANCH  18  24
ENDBRANCH  11  14
ENDBRANCH   1   7
BRANCH   4  27
HETATM   27  C13 UNL     1     -94.263 -17.971  46.873  1.00  0.00     0.127 C 
BRANCH  27  28
HETATM   28  N2  UNL     1     -93.451 -17.084  46.153  1.00  0.00    -0.383 N 
HETATM   29  C14 UNL     1     -93.740 -15.729  46.375  1.00  0.00     0.059 C 
HETATM   30  C15 UNL     1     -93.113 -14.708  45.516  1.00  0.00     0.058 C 
HETATM   31  C16 UNL     1     -92.879 -15.313  44.154  1.00  0.00     0.085 C 
HETATM   32  C19 UNL     1     -91.878 -16.428  44.390  1.00  0.00     0.045 C 
HETATM   33  C20 UNL     1     -92.410 -17.479  45.345  1.00  0.00     0.156 C 
BRANCH  31  34
HETATM   34  C17 UNL     1     -92.263 -14.348  43.214  1.00  0.00     0.221 C 
HETATM   35  O1  UNL     1     -91.455 -14.737  42.347  1.00  0.00    -0.273 OA
HETATM   36  N3  UNL     1     -92.599 -12.974  43.306  1.00  0.00    -0.365 N 
HETATM   37  C18 UNL     1     -92.003 -12.023  42.393  1.00  0.00     0.149 C 
ATOM     38  H3  UNL     1     -93.260 -12.656  44.015  1.00  0.00     0.161 HD
ENDBRANCH  31  34
BRANCH  33  39
HETATM   39  C21 UNL     1     -92.560 -18.732  44.517  1.00  0.00     0.260 C 
HETATM   40  C22 UNL     1     -91.432 -18.930  43.545  1.00  0.00     0.092 C 
HETATM   41  F1  UNL     1     -92.468 -19.789  45.458  1.00  0.00    -0.204 F 
HETATM   42  F2  UNL     1     -93.755 -18.908  43.913  1.00  0.00    -0.204 F 
ENDBRANCH  33  39
ENDBRANCH  27  28
ENDBRANCH   4  27
TORSDOF 8
ENDMDL
