MODEL 1
REMARK VINA RESULT: -8.415830392      0.000      0.000
REMARK  9 active torsions:
REMARK  status: ('A' for Active; 'I' for Inactive)
REMARK    1  A    between atoms: C2_2  and  C3_3 
REMARK    2  A    between atoms: C3_3  and  C4_4 
REMARK    3  A    between atoms: C4_4  and  C5_5 
REMARK    4  A    between atoms: C5_5  and  C6_6 
REMARK    5  A    between atoms: C7_10  and  C8_11 
REMARK    6  A    between atoms: C9_13  and  O1_14 
REMARK    7  A    between atoms: C10_16  and  O2_17 
REMARK    8  A    between atoms: C11_19  and  O3_20 
REMARK    9  A    between atoms: N2_29  and  C19_30 
ROOT
HETATM    1  C4  UNL     1    -100.535 -19.086  49.331  1.00  0.00    -0.005 C 
HETATM    2  C12 UNL     1    -100.622 -17.618  49.889  1.00  0.00     0.015 C 
HETATM    3  C13 UNL     1    -100.165 -17.799  51.308  1.00  0.00     0.002 C 
HETATM    4  C14 UNL     1     -99.481 -19.139  51.413  1.00  0.00     0.020 C 
HETATM    5  C15 UNL     1     -99.192 -19.449  49.946  1.00  0.00     0.052 C 
HETATM    6  C16 UNL     1     -98.727 -20.831  49.683  1.00  0.00     0.022 C 
HETATM    7  C17 UNL     1     -97.770 -21.198  50.819  1.00  0.00     0.022 C 
HETATM    8  C18 UNL     1     -96.574 -20.290  50.839  1.00  0.00     0.132 C 
HETATM    9  N2  UNL     1     -96.810 -18.987  50.263  1.00  0.00    -0.317 N 
HETATM   10  C27 UNL     1     -98.050 -18.608  49.602  1.00  0.00     0.234 C 
HETATM   11  O4  UNL     1     -97.924 -17.631  48.857  1.00  0.00    -0.272 OA
ENDROOT
BRANCH   1  12
HETATM   12  C3  UNL     1    -100.478 -19.055  47.872  1.00  0.00    -0.020 C 
BRANCH  12  13
HETATM   13  C2  UNL     1    -100.763 -20.182  47.000  1.00  0.00    -0.034 C 
HETATM   14  C1  UNL     1    -101.807 -20.180  45.956  1.00  0.00     0.036 C 
ENDBRANCH  12  13
ENDBRANCH   1  12
BRANCH   1  15
HETATM   15  C5  UNL     1    -101.672 -19.679  50.023  1.00  0.00     0.050 C 
BRANCH  15  16
HETATM   16  C6  UNL     1    -103.066 -19.696  49.653  1.00  0.00     0.218 C 
HETATM   17  N1  UNL     1    -103.384 -21.122  49.250  1.00  0.00    -0.059 N 
HETATM   18  C7  UNL     1    -104.451 -21.086  48.315  1.00  0.00     0.245 C 
ATOM     19  H12 UNL     1    -102.568 -21.623  48.898  1.00  0.00     0.278 HD
ATOM     20  H11 UNL     1    -103.580 -21.723  50.051  1.00  0.00     0.278 HD
HETATM   21  C9  UNL     1    -105.691 -20.551  48.944  1.00  0.00     0.182 C 
HETATM   22  C10 UNL     1    -105.452 -19.247  49.667  1.00  0.00     0.179 C 
HETATM   23  C11 UNL     1    -104.187 -19.395  50.566  1.00  0.00     0.180 C 
BRANCH  18  24
HETATM   24  C8  UNL     1    -104.682 -22.471  47.763  1.00  0.00     0.257 C 
HETATM   25  F1  UNL     1    -103.998 -22.700  46.593  1.00  0.00    -0.253 F 
ENDBRANCH  18  24
BRANCH  21  26
HETATM   26  O1  UNL     1    -106.248 -21.515  49.773  1.00  0.00    -0.391 OA
ATOM     27  H1  UNL     1    -106.664 -21.096  50.517  1.00  0.00     0.210 HD
ENDBRANCH  21  26
BRANCH  22  28
HETATM   28  O2  UNL     1    -106.543 -19.004  50.490  1.00  0.00    -0.390 OA
ATOM     29  H2  UNL     1    -106.475 -18.113  50.814  1.00  0.00     0.210 HD
ENDBRANCH  22  28
BRANCH  23  30
HETATM   30  O3  UNL     1    -104.481 -20.556  51.320  1.00  0.00    -0.391 OA
ATOM     31  H3  UNL     1    -104.861 -20.291  52.150  1.00  0.00     0.210 HD
ENDBRANCH  23  30
ENDBRANCH  15  16
ENDBRANCH   1  15
BRANCH   9  32
HETATM   32  C19 UNL     1     -95.754 -18.053  50.356  1.00  0.00     0.038 A 
HETATM   33  C20 UNL     1     -94.644 -18.221  49.565  1.00  0.00     0.036 A 
HETATM   34  C21 UNL     1     -93.570 -17.359  49.591  1.00  0.00    -0.059 A 
HETATM   35  C22 UNL     1     -92.372 -17.555  48.726  1.00  0.00     0.048 C 
HETATM   36  C23 UNL     1     -93.593 -16.279  50.437  1.00  0.00     0.013 A 
HETATM   37  C24 UNL     1     -94.685 -16.081  51.241  1.00  0.00    -0.059 A 
HETATM   38  C25 UNL     1     -94.740 -14.931  52.160  1.00  0.00     0.048 C 
HETATM   39  C26 UNL     1     -95.753 -16.953  51.204  1.00  0.00     0.036 A 
ENDBRANCH   9  32
TORSDOF 9
ENDMDL
MODEL 2
REMARK VINA RESULT: -8.344049263      0.238      1.462
REMARK  9 active torsions:
REMARK  status: ('A' for Active; 'I' for Inactive)
REMARK    1  A    between atoms: C2_2  and  C3_3 
REMARK    2  A    between atoms: C3_3  and  C4_4 
REMARK    3  A    between atoms: C4_4  and  C5_5 
REMARK    4  A    between atoms: C5_5  and  C6_6 
REMARK    5  A    between atoms: C7_10  and  C8_11 
REMARK    6  A    between atoms: C9_13  and  O1_14 
REMARK    7  A    between atoms: C10_16  and  O2_17 
REMARK    8  A    between atoms: C11_19  and  O3_20 
REMARK    9  A    between atoms: N2_29  and  C19_30 
ROOT
HETATM    1  C4  UNL     1    -100.580 -19.080  49.333  1.00  0.00    -0.005 C 
HETATM    2  C12 UNL     1    -100.608 -17.602  49.871  1.00  0.00     0.015 C 
HETATM    3  C13 UNL     1    -100.125 -17.777  51.282  1.00  0.00     0.002 C 
HETATM    4  C14 UNL     1     -99.481 -19.137  51.392  1.00  0.00     0.020 C 
HETATM    5  C15 UNL     1     -99.236 -19.476  49.923  1.00  0.00     0.052 C 
HETATM    6  C16 UNL     1     -98.821 -20.876  49.671  1.00  0.00     0.022 C 
HETATM    7  C17 UNL     1     -97.850 -21.257  50.790  1.00  0.00     0.022 C 
HETATM    8  C18 UNL     1     -96.626 -20.387  50.770  1.00  0.00     0.132 C 
HETATM    9  N2  UNL     1     -96.833 -19.087  50.180  1.00  0.00    -0.317 N 
HETATM   10  C27 UNL     1     -98.075 -18.677  49.541  1.00  0.00     0.234 C 
HETATM   11  O4  UNL     1     -97.936 -17.716  48.778  1.00  0.00    -0.272 OA
ENDROOT
BRANCH   1  12
HETATM   12  C3  UNL     1    -100.556 -19.072  47.873  1.00  0.00    -0.020 C 
BRANCH  12  13
HETATM   13  C2  UNL     1    -100.823 -20.222  47.026  1.00  0.00    -0.034 C 
HETATM   14  C1  UNL     1    -100.630 -20.237  45.562  1.00  0.00     0.036 C 
ENDBRANCH  12  13
ENDBRANCH   1  12
BRANCH   1  15
HETATM   15  C5  UNL     1    -101.719 -19.626  50.059  1.00  0.00     0.050 C 
BRANCH  15  16
HETATM   16  C6  UNL     1    -103.114 -19.652  49.696  1.00  0.00     0.218 C 
HETATM   17  N1  UNL     1    -103.424 -21.076  49.284  1.00  0.00    -0.059 N 
HETATM   18  C7  UNL     1    -104.496 -21.042  48.354  1.00  0.00     0.245 C 
ATOM     19  H12 UNL     1    -102.606 -21.569  48.924  1.00  0.00     0.278 HD
ATOM     20  H11 UNL     1    -103.611 -21.685  50.081  1.00  0.00     0.278 HD
HETATM   21  C9  UNL     1    -105.736 -20.521  48.993  1.00  0.00     0.182 C 
HETATM   22  C10 UNL     1    -105.504 -19.220  49.725  1.00  0.00     0.179 C 
HETATM   23  C11 UNL     1    -104.234 -19.366  50.617  1.00  0.00     0.180 C 
BRANCH  18  24
HETATM   24  C8  UNL     1    -104.719 -22.424  47.792  1.00  0.00     0.257 C 
HETATM   25  F1  UNL     1    -103.849 -22.734  46.775  1.00  0.00    -0.253 F 
ENDBRANCH  18  24
BRANCH  21  26
HETATM   26  O1  UNL     1    -106.282 -21.495  49.818  1.00  0.00    -0.391 OA
ATOM     27  H1  UNL     1    -106.456 -22.280  49.313  1.00  0.00     0.210 HD
ENDBRANCH  21  26
BRANCH  22  28
HETATM   28  O2  UNL     1    -106.592 -18.992  50.555  1.00  0.00    -0.390 OA
ATOM     29  H2  UNL     1    -107.344 -18.795  50.008  1.00  0.00     0.210 HD
ENDBRANCH  22  28
BRANCH  23  30
HETATM   30  O3  UNL     1    -104.515 -20.534  51.363  1.00  0.00    -0.391 OA
ATOM     31  H3  UNL     1    -103.747 -21.094  51.353  1.00  0.00     0.210 HD
ENDBRANCH  23  30
ENDBRANCH  15  16
ENDBRANCH   1  15
BRANCH   9  32
HETATM   32  C19 UNL     1     -95.747 -18.185  50.236  1.00  0.00     0.038 A 
HETATM   33  C20 UNL     1     -95.819 -17.107  51.084  1.00  0.00     0.036 A 
HETATM   34  C21 UNL     1     -94.807 -16.179  51.202  1.00  0.00    -0.059 A 
HETATM   35  C22 UNL     1     -94.900 -15.015  52.127  1.00  0.00     0.048 C 
HETATM   36  C23 UNL     1     -93.669 -16.324  50.448  1.00  0.00     0.013 A 
HETATM   37  C24 UNL     1     -93.564 -17.388  49.591  1.00  0.00    -0.059 A 
HETATM   38  C25 UNL     1     -92.356 -17.570  48.768  1.00  0.00     0.048 C 
HETATM   39  C26 UNL     1     -94.586 -18.308  49.484  1.00  0.00     0.036 A 
ENDBRANCH   9  32
TORSDOF 9
ENDMDL
MODEL 3
REMARK VINA RESULT: -8.328672832      2.786      8.825
REMARK  9 active torsions:
REMARK  status: ('A' for Active; 'I' for Inactive)
REMARK    1  A    between atoms: C2_2  and  C3_3 
REMARK    2  A    between atoms: C3_3  and  C4_4 
REMARK    3  A    between atoms: C4_4  and  C5_5 
REMARK    4  A    between atoms: C5_5  and  C6_6 
REMARK    5  A    between atoms: C7_10  and  C8_11 
REMARK    6  A    between atoms: C9_13  and  O1_14 
REMARK    7  A    between atoms: C10_16  and  O2_17 
REMARK    8  A    between atoms: C11_19  and  O3_20 
REMARK    9  A    between atoms: N2_29  and  C19_30 
ROOT
HETATM    1  C4  UNL     1     -98.488 -19.692  49.158  1.00  0.00    -0.005 C 
HETATM    2  C12 UNL     1     -99.280 -18.981  50.317  1.00  0.00     0.015 C 
HETATM    3  C13 UNL     1    -100.082 -17.960  49.561  1.00  0.00     0.002 C 
HETATM    4  C14 UNL     1    -100.074 -18.344  48.102  1.00  0.00     0.020 C 
HETATM    5  C15 UNL     1     -99.642 -19.807  48.175  1.00  0.00     0.052 C 
HETATM    6  C16 UNL     1     -99.303 -20.420  46.869  1.00  0.00     0.022 C 
HETATM    7  C17 UNL     1    -100.328 -19.900  45.859  1.00  0.00     0.022 C 
HETATM    8  C18 UNL     1    -101.722 -20.316  46.232  1.00  0.00     0.132 C 
HETATM    9  N2  UNL     1    -101.910 -20.558  47.643  1.00  0.00    -0.317 N 
HETATM   10  C27 UNL     1    -100.831 -20.529  48.619  1.00  0.00     0.234 C 
HETATM   11  O4  UNL     1    -101.105 -21.123  49.666  1.00  0.00    -0.272 OA
ENDROOT
BRANCH   1  12
HETATM   12  C3  UNL     1     -98.023 -21.000  49.611  1.00  0.00    -0.020 C 
BRANCH  12  13
HETATM   13  C2  UNL     1     -97.479 -21.284  50.928  1.00  0.00    -0.034 C 
HETATM   14  C1  UNL     1     -98.019 -22.307  51.846  1.00  0.00     0.036 C 
ENDBRANCH  12  13
ENDBRANCH   1  12
BRANCH   1  15
HETATM   15  C5  UNL     1     -97.541 -18.636  48.825  1.00  0.00     0.050 C 
BRANCH  15  16
HETATM   16  C6  UNL     1     -96.337 -18.697  48.032  1.00  0.00     0.218 C 
HETATM   17  N1  UNL     1     -96.729 -18.290  46.627  1.00  0.00    -0.059 N 
HETATM   18  C7  UNL     1     -95.833 -18.917  45.722  1.00  0.00     0.245 C 
ATOM     19  H12 UNL     1     -97.707 -18.490  46.416  1.00  0.00     0.278 HD
ATOM     20  H11 UNL     1     -96.768 -17.277  46.506  1.00  0.00     0.278 HD
HETATM   21  C9  UNL     1     -94.443 -18.420  45.921  1.00  0.00     0.182 C 
HETATM   22  C10 UNL     1     -94.012 -18.481  47.367  1.00  0.00     0.179 C 
HETATM   23  C11 UNL     1     -95.137 -17.864  48.253  1.00  0.00     0.180 C 
BRANCH  18  24
HETATM   24  C8  UNL     1     -96.295 -18.673  44.307  1.00  0.00     0.257 C 
HETATM   25  F1  UNL     1     -97.616 -18.998  44.113  1.00  0.00    -0.253 F 
ENDBRANCH  18  24
BRANCH  21  26
HETATM   26  O1  UNL     1     -94.322 -17.143  45.392  1.00  0.00    -0.391 OA
ATOM     27  H1  UNL     1     -93.701 -17.151  44.674  1.00  0.00     0.210 HD
ENDBRANCH  21  26
BRANCH  22  28
HETATM   28  O2  UNL     1     -92.872 -17.703  47.511  1.00  0.00    -0.390 OA
ATOM     29  H2  UNL     1     -92.350 -18.071  48.214  1.00  0.00     0.210 HD
ENDBRANCH  22  28
BRANCH  23  30
HETATM   30  O3  UNL     1     -95.345 -16.602  47.650  1.00  0.00    -0.391 OA
ATOM     31  H3  UNL     1     -96.280 -16.446  47.584  1.00  0.00     0.210 HD
ENDBRANCH  23  30
ENDBRANCH  15  16
ENDBRANCH   1  15
BRANCH   9  32
HETATM   32  C19 UNL     1    -103.227 -20.843  48.067  1.00  0.00     0.038 A 
HETATM   33  C20 UNL     1    -104.052 -19.804  48.423  1.00  0.00     0.036 A 
HETATM   34  C21 UNL     1    -105.349 -19.990  48.847  1.00  0.00    -0.059 A 
HETATM   35  C22 UNL     1    -106.231 -18.851  49.231  1.00  0.00     0.048 C 
HETATM   36  C23 UNL     1    -105.857 -21.262  48.923  1.00  0.00     0.013 A 
HETATM   37  C24 UNL     1    -105.062 -22.322  48.575  1.00  0.00    -0.059 A 
HETATM   38  C25 UNL     1    -105.578 -23.701  48.645  1.00  0.00     0.048 C 
HETATM   39  C26 UNL     1    -103.764 -22.120  48.152  1.00  0.00     0.036 A 
ENDBRANCH   9  32
TORSDOF 9
ENDMDL
MODEL 4
REMARK VINA RESULT: -8.308283429      1.727      2.866
REMARK  9 active torsions:
REMARK  status: ('A' for Active; 'I' for Inactive)
REMARK    1  A    between atoms: C2_2  and  C3_3 
REMARK    2  A    between atoms: C3_3  and  C4_4 
REMARK    3  A    between atoms: C4_4  and  C5_5 
REMARK    4  A    between atoms: C5_5  and  C6_6 
REMARK    5  A    between atoms: C7_10  and  C8_11 
REMARK    6  A    between atoms: C9_13  and  O1_14 
REMARK    7  A    between atoms: C10_16  and  O2_17 
REMARK    8  A    between atoms: C11_19  and  O3_20 
REMARK    9  A    between atoms: N2_29  and  C19_30 
ROOT
HETATM    1  C4  UNL     1    -100.281 -18.893  49.669  1.00  0.00    -0.005 C 
HETATM    2  C12 UNL     1     -99.319 -19.239  50.864  1.00  0.00     0.015 C 
HETATM    3  C13 UNL     1     -98.603 -20.453  50.343  1.00  0.00     0.002 C 
HETATM    4  C14 UNL     1     -98.822 -20.523  48.853  1.00  0.00     0.020 C 
HETATM    5  C15 UNL     1     -99.277 -19.097  48.545  1.00  0.00     0.052 C 
HETATM    6  C16 UNL     1     -99.809 -18.897  47.177  1.00  0.00     0.022 C 
HETATM    7  C17 UNL     1     -98.920 -19.712  46.234  1.00  0.00     0.022 C 
HETATM    8  C18 UNL     1     -97.499 -19.227  46.269  1.00  0.00     0.132 C 
HETATM    9  N2  UNL     1     -97.125 -18.579  47.503  1.00  0.00    -0.317 N 
HETATM   10  C27 UNL     1     -98.058 -18.296  48.584  1.00  0.00     0.234 C 
HETATM   11  O4  UNL     1     -97.656 -17.421  49.357  1.00  0.00    -0.272 OA
ENDROOT
BRANCH   1  12
HETATM   12  C3  UNL     1    -100.713 -17.502  49.771  1.00  0.00    -0.020 C 
BRANCH  12  13
HETATM   13  C2  UNL     1    -100.663 -16.698  50.980  1.00  0.00    -0.034 C 
HETATM   14  C1  UNL     1    -101.559 -16.885  52.139  1.00  0.00     0.036 C 
ENDBRANCH  12  13
ENDBRANCH   1  12
BRANCH   1  15
HETATM   15  C5  UNL     1    -101.238 -19.984  49.801  1.00  0.00     0.050 C 
BRANCH  15  16
HETATM   16  C6  UNL     1    -102.659 -19.997  49.551  1.00  0.00     0.218 C 
HETATM   17  N1  UNL     1    -103.044 -21.448  49.348  1.00  0.00    -0.059 N 
HETATM   18  C7  UNL     1    -104.186 -21.485  48.505  1.00  0.00     0.245 C 
ATOM     19  H12 UNL     1    -102.274 -22.015  48.993  1.00  0.00     0.278 HD
ATOM     20  H11 UNL     1    -103.186 -21.945  50.227  1.00  0.00     0.278 HD
HETATM   21  C9  UNL     1    -105.354 -20.837  49.166  1.00  0.00     0.182 C 
HETATM   22  C10 UNL     1    -105.023 -19.467  49.707  1.00  0.00     0.179 C 
HETATM   23  C11 UNL     1    -103.690 -19.553  50.511  1.00  0.00     0.180 C 
BRANCH  18  24
HETATM   24  C8  UNL     1    -104.498 -22.915  48.143  1.00  0.00     0.257 C 
HETATM   25  F1  UNL     1    -103.472 -23.529  47.465  1.00  0.00    -0.253 F 
ENDBRANCH  18  24
BRANCH  21  26
HETATM   26  O1  UNL     1    -105.862 -21.678  50.147  1.00  0.00    -0.391 OA
ATOM     27  H1  UNL     1    -106.722 -21.989  49.889  1.00  0.00     0.210 HD
ENDBRANCH  21  26
BRANCH  22  28
HETATM   28  O2  UNL     1    -106.033 -19.092  50.582  1.00  0.00    -0.390 OA
ATOM     29  H2  UNL     1    -105.780 -19.362  51.457  1.00  0.00     0.210 HD
ENDBRANCH  22  28
BRANCH  23  30
HETATM   30  O3  UNL     1    -103.947 -20.607  51.419  1.00  0.00    -0.391 OA
ATOM     31  H3  UNL     1    -103.252 -21.251  51.342  1.00  0.00     0.210 HD
ENDBRANCH  23  30
ENDBRANCH  15  16
ENDBRANCH   1  15
BRANCH   9  32
HETATM   32  C19 UNL     1     -95.769 -18.203  47.635  1.00  0.00     0.038 A 
HETATM   33  C20 UNL     1     -95.271 -17.212  46.825  1.00  0.00     0.036 A 
HETATM   34  C21 UNL     1     -93.963 -16.782  46.886  1.00  0.00    -0.059 A 
HETATM   35  C22 UNL     1     -93.438 -15.705  46.000  1.00  0.00     0.048 C 
HETATM   36  C23 UNL     1     -93.107 -17.358  47.791  1.00  0.00     0.013 A 
HETATM   37  C24 UNL     1     -93.571 -18.350  48.614  1.00  0.00    -0.059 A 
HETATM   38  C25 UNL     1     -92.675 -18.988  49.596  1.00  0.00     0.048 C 
HETATM   39  C26 UNL     1     -94.883 -18.769  48.541  1.00  0.00     0.036 A 
ENDBRANCH   9  32
TORSDOF 9
ENDMDL
MODEL 5
REMARK VINA RESULT: -8.209675907      1.748      2.923
REMARK  9 active torsions:
REMARK  status: ('A' for Active; 'I' for Inactive)
REMARK    1  A    between atoms: C2_2  and  C3_3 
REMARK    2  A    between atoms: C3_3  and  C4_4 
REMARK    3  A    between atoms: C4_4  and  C5_5 
REMARK    4  A    between atoms: C5_5  and  C6_6 
REMARK    5  A    between atoms: C7_10  and  C8_11 
REMARK    6  A    between atoms: C9_13  and  O1_14 
REMARK    7  A    between atoms: C10_16  and  O2_17 
REMARK    8  A    between atoms: C11_19  and  O3_20 
REMARK    9  A    between atoms: N2_29  and  C19_30 
ROOT
HETATM    1  C4  UNL     1    -100.323 -18.879  49.647  1.00  0.00    -0.005 C 
HETATM    2  C12 UNL     1     -99.334 -19.226  50.821  1.00  0.00     0.015 C 
HETATM    3  C13 UNL     1     -98.625 -20.435  50.280  1.00  0.00     0.002 C 
HETATM    4  C14 UNL     1     -98.875 -20.499  48.794  1.00  0.00     0.020 C 
HETATM    5  C15 UNL     1     -99.342 -19.074  48.502  1.00  0.00     0.052 C 
HETATM    6  C16 UNL     1     -99.902 -18.870  47.146  1.00  0.00     0.022 C 
HETATM    7  C17 UNL     1     -99.031 -19.678  46.182  1.00  0.00     0.022 C 
HETATM    8  C18 UNL     1     -97.611 -19.188  46.189  1.00  0.00     0.132 C 
HETATM    9  N2  UNL     1     -97.213 -18.543  47.417  1.00  0.00    -0.317 N 
HETATM   10  C27 UNL     1     -98.124 -18.269  48.519  1.00  0.00     0.234 C 
HETATM   11  O4  UNL     1     -97.710 -17.395  49.287  1.00  0.00    -0.272 OA
ENDROOT
BRANCH   1  12
HETATM   12  C3  UNL     1    -100.757 -17.490  49.765  1.00  0.00    -0.020 C 
BRANCH  12  13
HETATM   13  C2  UNL     1    -100.691 -16.693  50.978  1.00  0.00    -0.034 C 
HETATM   14  C1  UNL     1    -101.556 -16.901  52.156  1.00  0.00     0.036 C 
ENDBRANCH  12  13
ENDBRANCH   1  12
BRANCH   1  15
HETATM   15  C5  UNL     1    -101.272 -19.974  49.795  1.00  0.00     0.050 C 
BRANCH  15  16
HETATM   16  C6  UNL     1    -102.692 -20.000  49.541  1.00  0.00     0.218 C 
HETATM   17  N1  UNL     1    -103.065 -21.455  49.346  1.00  0.00    -0.059 N 
HETATM   18  C7  UNL     1    -104.205 -21.508  48.502  1.00  0.00     0.245 C 
ATOM     19  H12 UNL     1    -102.289 -22.018  48.997  1.00  0.00     0.278 HD
ATOM     20  H11 UNL     1    -103.205 -21.948  50.229  1.00  0.00     0.278 HD
HETATM   21  C9  UNL     1    -105.379 -20.866  49.155  1.00  0.00     0.182 C 
HETATM   22  C10 UNL     1    -105.061 -19.489  49.688  1.00  0.00     0.179 C 
HETATM   23  C11 UNL     1    -103.730 -19.559  50.496  1.00  0.00     0.180 C 
BRANCH  18  24
HETATM   24  C8  UNL     1    -104.503 -22.943  48.147  1.00  0.00     0.257 C 
HETATM   25  F1  UNL     1    -103.504 -23.528  47.407  1.00  0.00    -0.253 F 
ENDBRANCH  18  24
BRANCH  21  26
HETATM   26  O1  UNL     1    -105.883 -21.705  50.140  1.00  0.00    -0.391 OA
ATOM     27  H1  UNL     1    -106.198 -21.188  50.871  1.00  0.00     0.210 HD
ENDBRANCH  21  26
BRANCH  22  28
HETATM   28  O2  UNL     1    -106.077 -19.118  50.558  1.00  0.00    -0.390 OA
ATOM     29  H2  UNL     1    -106.042 -19.692  51.314  1.00  0.00     0.210 HD
ENDBRANCH  22  28
BRANCH  23  30
HETATM   30  O3  UNL     1    -103.980 -20.609  51.410  1.00  0.00    -0.391 OA
ATOM     31  H3  UNL     1    -103.947 -20.259  52.293  1.00  0.00     0.210 HD
ENDBRANCH  23  30
ENDBRANCH  15  16
ENDBRANCH   1  15
BRANCH   9  32
HETATM   32  C19 UNL     1     -95.857 -18.163  47.523  1.00  0.00     0.038 A 
HETATM   33  C20 UNL     1     -95.059 -18.790  48.448  1.00  0.00     0.036 A 
HETATM   34  C21 UNL     1     -93.726 -18.483  48.618  1.00  0.00    -0.059 A 
HETATM   35  C22 UNL     1     -92.874 -19.174  49.626  1.00  0.00     0.048 C 
HETATM   36  C23 UNL     1     -93.154 -17.511  47.836  1.00  0.00     0.013 A 
HETATM   37  C24 UNL     1     -93.922 -16.864  46.903  1.00  0.00    -0.059 A 
HETATM   38  C25 UNL     1     -93.337 -15.815  46.049  1.00  0.00     0.048 C 
HETATM   39  C26 UNL     1     -95.254 -17.183  46.745  1.00  0.00     0.036 A 
ENDBRANCH   9  32
TORSDOF 9
ENDMDL
