MODEL 1
REMARK VINA RESULT: -8.575791204      0.000      0.000
REMARK  8 active torsions:
REMARK  status: ('A' for Active; 'I' for Inactive)
REMARK    1  A    between atoms: O1_2  and  C2_3 
REMARK    2  A    between atoms: C5_6  and  O2_7 
REMARK    3  A    between atoms: O2_7  and  C6_8 
REMARK    4  A    between atoms: C6_8  and  C7_9 
REMARK    5  A    between atoms: C7_9  and  C8_10 
REMARK    6  A    between atoms: C8_10  and  N1_11 
REMARK    7  A    between atoms: C20_26  and  N3_27 
REMARK    8  A    between atoms: C21_32  and  N5_33 
ROOT
HETATM    1  C2  UNL     1     -96.908 -18.709  45.860  1.00  0.00     0.095 A 
HETATM    2  C3  UNL     1     -98.281 -18.976  45.884  1.00  0.00     0.011 A 
HETATM    3  C4  UNL     1     -98.938 -19.276  47.072  1.00  0.00     0.053 A 
HETATM    4  C5  UNL     1    -100.286 -19.546  47.116  1.00  0.00     0.087 A 
HETATM    5  C15 UNL     1    -100.971 -19.507  45.923  1.00  0.00     0.045 A 
HETATM    6 BR1  UNL     1    -102.854 -19.863  45.836  1.00  0.00    -0.048 Br
HETATM    7  C16 UNL     1    -100.347 -19.214  44.728  1.00  0.00     0.034 A 
HETATM    8  C17 UNL     1     -98.994 -18.950  44.732  1.00  0.00    -0.019 A 
HETATM    9  C18 UNL     1     -98.403 -18.663  43.513  1.00  0.00     0.043 A 
HETATM   10  C19 UNL     1     -97.048 -18.403  43.494  1.00  0.00     0.066 A 
HETATM   11  N2  UNL     1     -96.523 -18.151  42.289  1.00  0.00    -0.191 N 
ATOM     12  H2  UNL     1     -97.100 -18.137  41.448  1.00  0.00     0.184 HD
HETATM   13  C20 UNL     1     -95.197 -17.917  42.238  1.00  0.00     0.677 A 
HETATM   14  N4  UNL     1     -94.443 -17.934  43.329  1.00  0.00    -0.176 N 
ATOM     15  H4  UNL     1     -93.445 -17.750  43.224  1.00  0.00     0.186 HD
HETATM   16  C21 UNL     1     -94.920 -18.184  44.589  1.00  0.00     0.130 A 
HETATM   17  C22 UNL     1     -96.291 -18.426  44.673  1.00  0.00     0.070 A 
ENDROOT
BRANCH   4  18
HETATM   18  O2  UNL     1    -100.898 -19.835  48.289  1.00  0.00    -0.350 OA
BRANCH  18  19
HETATM   19  C6  UNL     1    -101.194 -18.916  49.310  1.00  0.00     0.177 C 
BRANCH  19  20
HETATM   20  C7  UNL     1    -102.676 -18.978  49.646  1.00  0.00     0.057 C 
BRANCH  20  21
HETATM   21  C8  UNL     1    -102.934 -20.258  50.356  1.00  0.00     0.274 C 
BRANCH  21  22
HETATM   22  N1  UNL     1    -103.893 -21.118  49.742  1.00  0.00     0.088 N 
HETATM   23  C9  UNL     1    -104.991 -20.262  49.291  1.00  0.00     0.272 C 
HETATM   24  C10 UNL     1    -105.845 -20.905  48.256  1.00  0.00     0.034 C 
HETATM   25  C11 UNL     1    -105.829 -22.402  48.406  1.00  0.00    -0.015 C 
HETATM   26  C12 UNL     1    -106.373 -22.768  49.747  1.00  0.00     0.010 C 
HETATM   27  C13 UNL     1    -104.420 -22.875  48.183  1.00  0.00     0.034 C 
HETATM   28  C14 UNL     1    -103.381 -21.903  48.667  1.00  0.00     0.272 C 
ENDBRANCH  21  22
ENDBRANCH  20  21
ENDBRANCH  19  20
ENDBRANCH  18  19
ENDBRANCH   4  18
BRANCH   1  29
HETATM   29  O1  UNL     1     -96.256 -18.745  47.076  1.00  0.00    -0.354 OA
HETATM   30  C1  UNL     1     -96.386 -17.560  47.902  1.00  0.00     0.210 C 
ENDBRANCH   1  29
BRANCH  16  31
HETATM   31  N5  UNL     1     -94.179 -18.241  45.549  1.00  0.00    -0.384 N 
ATOM     32  H52 UNL     1     -94.117 -19.059  46.155  1.00  0.00     0.157 HD
ATOM     33  H51 UNL     1     -93.538 -17.480  45.773  1.00  0.00     0.157 HD
ENDBRANCH  16  31
BRANCH  13  34
HETATM   34  N3  UNL     1     -94.694 -17.672  41.053  1.00  0.00    -0.234 N 
ATOM     35  H32 UNL     1     -94.522 -18.415  40.376  1.00  0.00     0.174 HD
ATOM     36  H31 UNL     1     -94.485 -16.696  40.844  1.00  0.00     0.174 HD
ENDBRANCH  13  34
TORSDOF 8
ENDMDL
MODEL 2
REMARK VINA RESULT: -8.389014899      2.263      4.277
REMARK  8 active torsions:
REMARK  status: ('A' for Active; 'I' for Inactive)
REMARK    1  A    between atoms: O1_2  and  C2_3 
REMARK    2  A    between atoms: C5_6  and  O2_7 
REMARK    3  A    between atoms: O2_7  and  C6_8 
REMARK    4  A    between atoms: C6_8  and  C7_9 
REMARK    5  A    between atoms: C7_9  and  C8_10 
REMARK    6  A    between atoms: C8_10  and  N1_11 
REMARK    7  A    between atoms: C20_26  and  N3_27 
REMARK    8  A    between atoms: C21_32  and  N5_33 
ROOT
HETATM    1  C2  UNL     1     -98.702 -19.597  47.103  1.00  0.00     0.095 A 
HETATM    2  C3  UNL     1    -100.077 -19.846  47.186  1.00  0.00     0.011 A 
HETATM    3  C4  UNL     1    -100.664 -20.271  48.372  1.00  0.00     0.053 A 
HETATM    4  C5  UNL     1    -102.013 -20.524  48.472  1.00  0.00     0.087 A 
HETATM    5  C15 UNL     1    -102.769 -20.339  47.338  1.00  0.00     0.045 A 
HETATM    6 BR1  UNL     1    -104.662 -20.655  47.334  1.00  0.00    -0.048 Br
HETATM    7  C16 UNL     1    -102.216 -19.919  46.146  1.00  0.00     0.034 A 
HETATM    8  C17 UNL     1    -100.859 -19.677  46.093  1.00  0.00    -0.019 A 
HETATM    9  C18 UNL     1    -100.340 -19.261  44.879  1.00  0.00     0.043 A 
HETATM   10  C19 UNL     1     -98.983 -19.020  44.802  1.00  0.00     0.066 A 
HETATM   11  N2  UNL     1     -98.530 -18.639  43.601  1.00  0.00    -0.191 N 
ATOM     12  H2  UNL     1     -99.158 -18.521  42.807  1.00  0.00     0.184 HD
HETATM   13  C20 UNL     1     -97.204 -18.420  43.491  1.00  0.00     0.677 A 
HETATM   14  N4  UNL     1     -96.384 -18.573  44.522  1.00  0.00    -0.176 N 
ATOM     15  H4  UNL     1     -95.391 -18.393  44.374  1.00  0.00     0.186 HD
HETATM   16  C21 UNL     1     -96.787 -18.959  45.775  1.00  0.00     0.130 A 
HETATM   17  C22 UNL     1     -98.155 -19.189  45.919  1.00  0.00     0.070 A 
ENDROOT
BRANCH   4  18
HETATM   18  O2  UNL     1    -102.556 -20.937  49.642  1.00  0.00    -0.350 OA
BRANCH  18  19
HETATM   19  C6  UNL     1    -103.383 -20.171  50.480  1.00  0.00     0.177 C 
BRANCH  19  20
HETATM   20  C7  UNL     1    -102.964 -18.710  50.423  1.00  0.00     0.057 C 
BRANCH  20  21
HETATM   21  C8  UNL     1    -102.352 -18.356  51.731  1.00  0.00     0.274 C 
BRANCH  21  22
HETATM   22  N1  UNL     1    -100.969 -18.011  51.687  1.00  0.00     0.088 N 
HETATM   23  C9  UNL     1    -100.225 -19.230  52.009  1.00  0.00     0.272 C 
HETATM   24  C10 UNL     1     -98.802 -19.176  51.578  1.00  0.00     0.034 C 
HETATM   25  C11 UNL     1     -98.304 -17.755  51.559  1.00  0.00    -0.015 C 
HETATM   26  C12 UNL     1     -98.393 -17.184  52.935  1.00  0.00     0.010 C 
HETATM   27  C13 UNL     1     -99.109 -16.996  50.543  1.00  0.00     0.034 C 
HETATM   28  C14 UNL     1    -100.535 -17.460  50.445  1.00  0.00     0.272 C 
ENDBRANCH  21  22
ENDBRANCH  20  21
ENDBRANCH  19  20
ENDBRANCH  18  19
ENDBRANCH   4  18
BRANCH   1  29
HETATM   29  O1  UNL     1     -97.976 -19.783  48.263  1.00  0.00    -0.354 OA
HETATM   30  C1  UNL     1     -97.776 -21.160  48.673  1.00  0.00     0.210 C 
ENDBRANCH   1  29
BRANCH  16  31
HETATM   31  N5  UNL     1     -95.989 -19.137  46.671  1.00  0.00    -0.384 N 
ATOM     32  H52 UNL     1     -95.351 -19.932  46.698  1.00  0.00     0.157 HD
ATOM     33  H51 UNL     1     -95.882 -18.465  47.431  1.00  0.00     0.157 HD
ENDBRANCH  16  31
BRANCH  13  34
HETATM   34  N3  UNL     1     -96.772 -18.048  42.312  1.00  0.00    -0.234 N 
ATOM     35  H32 UNL     1     -97.409 -17.879  41.533  1.00  0.00     0.174 HD
ATOM     36  H31 UNL     1     -95.763 -17.934  42.215  1.00  0.00     0.174 HD
ENDBRANCH  13  34
TORSDOF 8
ENDMDL
MODEL 3
REMARK VINA RESULT: -8.341920602      1.038      1.411
REMARK  8 active torsions:
REMARK  status: ('A' for Active; 'I' for Inactive)
REMARK    1  A    between atoms: O1_2  and  C2_3 
REMARK    2  A    between atoms: C5_6  and  O2_7 
REMARK    3  A    between atoms: O2_7  and  C6_8 
REMARK    4  A    between atoms: C6_8  and  C7_9 
REMARK    5  A    between atoms: C7_9  and  C8_10 
REMARK    6  A    between atoms: C8_10  and  N1_11 
REMARK    7  A    between atoms: C20_26  and  N3_27 
REMARK    8  A    between atoms: C21_32  and  N5_33 
ROOT
HETATM    1  C2  UNL     1     -97.221 -19.017  46.180  1.00  0.00     0.095 A 
HETATM    2  C3  UNL     1     -98.566 -19.398  46.232  1.00  0.00     0.011 A 
HETATM    3  C4  UNL     1     -99.150 -19.823  47.420  1.00  0.00     0.053 A 
HETATM    4  C5  UNL     1    -100.470 -20.206  47.492  1.00  0.00     0.087 A 
HETATM    5  C15 UNL     1    -101.200 -20.152  46.328  1.00  0.00     0.045 A 
HETATM    6 BR1  UNL     1    -103.051 -20.656  46.282  1.00  0.00    -0.048 Br
HETATM    7  C16 UNL     1    -100.649 -19.735  45.133  1.00  0.00     0.034 A 
HETATM    8  C17 UNL     1     -99.322 -19.361  45.109  1.00  0.00    -0.019 A 
HETATM    9  C18 UNL     1     -98.803 -18.953  43.892  1.00  0.00     0.043 A 
HETATM   10  C19 UNL     1     -97.475 -18.581  43.844  1.00  0.00     0.066 A 
HETATM   11  N2  UNL     1     -97.020 -18.215  42.640  1.00  0.00    -0.191 N 
ATOM     12  H2  UNL     1     -97.628 -18.198  41.822  1.00  0.00     0.184 HD
HETATM   13  C20 UNL     1     -95.719 -17.869  42.560  1.00  0.00     0.677 A 
HETATM   14  N4  UNL     1     -94.925 -17.889  43.622  1.00  0.00    -0.176 N 
ATOM     15  H4  UNL     1     -93.950 -17.617  43.495  1.00  0.00     0.186 HD
HETATM   16  C21 UNL     1     -95.332 -18.253  44.879  1.00  0.00     0.130 A 
HETATM   17  C22 UNL     1     -96.675 -18.613  44.993  1.00  0.00     0.070 A 
ENDROOT
BRANCH   4  18
HETATM   18  O2  UNL     1    -101.010 -20.615  48.665  1.00  0.00    -0.350 OA
BRANCH  18  19
HETATM   19  C6  UNL     1    -100.679 -20.124  49.938  1.00  0.00     0.177 C 
BRANCH  19  20
HETATM   20  C7  UNL     1    -101.713 -19.101  50.383  1.00  0.00     0.057 C 
BRANCH  20  21
HETATM   21  C8  UNL     1    -102.839 -19.833  51.021  1.00  0.00     0.274 C 
BRANCH  21  22
HETATM   22  N1  UNL     1    -104.082 -19.773  50.324  1.00  0.00     0.088 N 
HETATM   23  C9  UNL     1    -103.940 -18.730  49.307  1.00  0.00     0.272 C 
HETATM   24  C10 UNL     1    -104.949 -18.835  48.219  1.00  0.00     0.034 C 
HETATM   25  C11 UNL     1    -106.211 -19.483  48.722  1.00  0.00    -0.015 C 
HETATM   26  C12 UNL     1    -106.792 -18.645  49.813  1.00  0.00     0.010 C 
HETATM   27  C13 UNL     1    -105.873 -20.880  49.157  1.00  0.00     0.034 C 
HETATM   28  C14 UNL     1    -104.493 -21.007  49.739  1.00  0.00     0.272 C 
ENDBRANCH  21  22
ENDBRANCH  20  21
ENDBRANCH  19  20
ENDBRANCH  18  19
ENDBRANCH   4  18
BRANCH   1  29
HETATM   29  O1  UNL     1     -96.521 -19.073  47.369  1.00  0.00    -0.354 OA
HETATM   30  C1  UNL     1     -96.691 -17.940  48.259  1.00  0.00     0.210 C 
ENDBRANCH   1  29
BRANCH  16  31
HETATM   31  N5  UNL     1     -94.552 -18.307  45.807  1.00  0.00    -0.384 N 
ATOM     32  H52 UNL     1     -94.827 -18.134  46.774  1.00  0.00     0.157 HD
ATOM     33  H51 UNL     1     -93.578 -18.575  45.670  1.00  0.00     0.157 HD
ENDBRANCH  16  31
BRANCH  13  34
HETATM   34  N3  UNL     1     -95.285 -17.511  41.377  1.00  0.00    -0.234 N 
ATOM     35  H32 UNL     1     -95.923 -17.272  40.618  1.00  0.00     0.174 HD
ATOM     36  H31 UNL     1     -94.272 -17.485  41.256  1.00  0.00     0.174 HD
ENDBRANCH  13  34
TORSDOF 8
ENDMDL
MODEL 4
REMARK VINA RESULT: -8.316637305      2.532      4.046
REMARK  8 active torsions:
REMARK  status: ('A' for Active; 'I' for Inactive)
REMARK    1  A    between atoms: O1_2  and  C2_3 
REMARK    2  A    between atoms: C5_6  and  O2_7 
REMARK    3  A    between atoms: O2_7  and  C6_8 
REMARK    4  A    between atoms: C6_8  and  C7_9 
REMARK    5  A    between atoms: C7_9  and  C8_10 
REMARK    6  A    between atoms: C8_10  and  N1_11 
REMARK    7  A    between atoms: C20_26  and  N3_27 
REMARK    8  A    between atoms: C21_32  and  N5_33 
ROOT
HETATM    1  C2  UNL     1    -100.392 -19.734  46.612  1.00  0.00     0.095 A 
HETATM    2  C3  UNL     1     -99.830 -20.154  47.822  1.00  0.00     0.011 A 
HETATM    3  C4  UNL     1    -100.628 -20.553  48.889  1.00  0.00     0.053 A 
HETATM    4  C5  UNL     1    -100.094 -20.966  50.088  1.00  0.00     0.087 A 
HETATM    5  C15 UNL     1     -98.723 -20.970  50.194  1.00  0.00     0.045 A 
HETATM    6 BR1  UNL     1     -97.844 -21.522  51.807  1.00  0.00    -0.048 Br
HETATM    7  C16 UNL     1     -97.904 -20.580  49.153  1.00  0.00     0.034 A 
HETATM    8  C17 UNL     1     -98.483 -20.174  47.969  1.00  0.00    -0.019 A 
HETATM    9  C18 UNL     1     -97.631 -19.786  46.950  1.00  0.00     0.043 A 
HETATM   10  C19 UNL     1     -98.190 -19.369  45.759  1.00  0.00     0.066 A 
HETATM   11  N2  UNL     1     -97.322 -18.986  44.814  1.00  0.00    -0.191 N 
ATOM     12  H2  UNL     1     -96.315 -19.023  44.969  1.00  0.00     0.184 HD
HETATM   13  C20 UNL     1     -97.842 -18.552  43.649  1.00  0.00     0.677 A 
HETATM   14  N4  UNL     1     -99.152 -18.504  43.444  1.00  0.00    -0.176 N 
ATOM     15  H4  UNL     1     -99.482 -18.164  42.541  1.00  0.00     0.186 HD
HETATM   16  C21 UNL     1    -100.089 -18.882  44.370  1.00  0.00     0.130 A 
HETATM   17  C22 UNL     1     -99.580 -19.340  45.585  1.00  0.00     0.070 A 
ENDROOT
BRANCH   4  18
HETATM   18  O2  UNL     1    -100.898 -21.348  51.109  1.00  0.00    -0.350 OA
BRANCH  18  19
HETATM   19  C6  UNL     1    -101.232 -20.568  52.229  1.00  0.00     0.177 C 
BRANCH  19  20
HETATM   20  C7  UNL     1    -102.140 -19.424  51.808  1.00  0.00     0.057 C 
BRANCH  20  21
HETATM   21  C8  UNL     1    -103.549 -19.871  51.968  1.00  0.00     0.274 C 
BRANCH  21  22
HETATM   22  N1  UNL     1    -104.351 -19.804  50.791  1.00  0.00     0.088 N 
HETATM   23  C9  UNL     1    -103.772 -18.754  49.951  1.00  0.00     0.272 C 
HETATM   24  C10 UNL     1    -104.190 -18.850  48.526  1.00  0.00     0.034 C 
HETATM   25  C11 UNL     1    -105.542 -19.499  48.409  1.00  0.00    -0.015 C 
HETATM   26  C12 UNL     1    -106.551 -18.669  49.133  1.00  0.00     0.010 C 
HETATM   27  C13 UNL     1    -105.431 -20.901  48.940  1.00  0.00     0.034 C 
HETATM   28  C14 UNL     1    -104.455 -21.033  50.075  1.00  0.00     0.272 C 
ENDBRANCH  21  22
ENDBRANCH  20  21
ENDBRANCH  19  20
ENDBRANCH  18  19
ENDBRANCH   4  18
BRANCH   1  29
HETATM   29  O1  UNL     1    -101.771 -19.753  46.538  1.00  0.00    -0.354 OA
HETATM   30  C1  UNL     1    -102.383 -21.064  46.442  1.00  0.00     0.210 C 
ENDBRANCH   1  29
BRANCH  16  31
HETATM   31  N5  UNL     1    -101.278 -18.768  44.153  1.00  0.00    -0.384 N 
ATOM     32  H52 UNL     1    -101.686 -18.884  43.226  1.00  0.00     0.157 HD
ATOM     33  H51 UNL     1    -101.943 -18.592  44.906  1.00  0.00     0.157 HD
ENDBRANCH  16  31
BRANCH  13  34
HETATM   34  N3  UNL     1     -96.984 -18.181  42.732  1.00  0.00    -0.234 N 
ATOM     35  H32 UNL     1     -95.977 -18.245  42.879  1.00  0.00     0.174 HD
ATOM     36  H31 UNL     1     -97.378 -17.824  41.862  1.00  0.00     0.174 HD
ENDBRANCH  13  34
TORSDOF 8
ENDMDL
MODEL 5
REMARK VINA RESULT: -8.226706761      0.800      1.476
REMARK  8 active torsions:
REMARK  status: ('A' for Active; 'I' for Inactive)
REMARK    1  A    between atoms: O1_2  and  C2_3 
REMARK    2  A    between atoms: C5_6  and  O2_7 
REMARK    3  A    between atoms: O2_7  and  C6_8 
REMARK    4  A    between atoms: C6_8  and  C7_9 
REMARK    5  A    between atoms: C7_9  and  C8_10 
REMARK    6  A    between atoms: C8_10  and  N1_11 
REMARK    7  A    between atoms: C20_26  and  N3_27 
REMARK    8  A    between atoms: C21_32  and  N5_33 
ROOT
HETATM    1  C2  UNL     1     -96.770 -18.665  45.804  1.00  0.00     0.095 A 
HETATM    2  C3  UNL     1     -98.138 -18.958  45.847  1.00  0.00     0.011 A 
HETATM    3  C4  UNL     1     -98.773 -19.262  47.045  1.00  0.00     0.053 A 
HETATM    4  C5  UNL     1    -100.116 -19.557  47.109  1.00  0.00     0.087 A 
HETATM    5  C15 UNL     1    -100.816 -19.538  45.925  1.00  0.00     0.045 A 
HETATM    6 BR1  UNL     1    -102.694 -19.928  45.864  1.00  0.00    -0.048 Br
HETATM    7  C16 UNL     1    -100.214 -19.240  44.719  1.00  0.00     0.034 A 
HETATM    8  C17 UNL     1     -98.865 -18.951  44.704  1.00  0.00    -0.019 A 
HETATM    9  C18 UNL     1     -98.295 -18.661  43.476  1.00  0.00     0.043 A 
HETATM   10  C19 UNL     1     -96.946 -18.376  43.438  1.00  0.00     0.066 A 
HETATM   11  N2  UNL     1     -96.441 -18.123  42.224  1.00  0.00    -0.191 N 
ATOM     12  H2  UNL     1     -97.030 -18.125  41.391  1.00  0.00     0.184 HD
HETATM   13  C20 UNL     1     -95.120 -17.865  42.155  1.00  0.00     0.677 A 
HETATM   14  N4  UNL     1     -94.352 -17.861  43.236  1.00  0.00    -0.176 N 
ATOM     15  H4  UNL     1     -93.359 -17.660  43.117  1.00  0.00     0.186 HD
HETATM   16  C21 UNL     1     -94.809 -18.112  44.504  1.00  0.00     0.130 A 
HETATM   17  C22 UNL     1     -96.174 -18.379  44.607  1.00  0.00     0.070 A 
ENDROOT
BRANCH   4  18
HETATM   18  O2  UNL     1    -100.707 -19.849  48.291  1.00  0.00    -0.350 OA
BRANCH  18  19
HETATM   19  C6  UNL     1    -100.158 -20.645  49.310  1.00  0.00     0.177 C 
BRANCH  19  20
HETATM   20  C7  UNL     1    -101.273 -21.292  50.117  1.00  0.00     0.057 C 
BRANCH  20  21
HETATM   21  C8  UNL     1    -102.331 -21.732  49.170  1.00  0.00     0.274 C 
BRANCH  21  22
HETATM   22  N1  UNL     1    -103.546 -20.987  49.217  1.00  0.00     0.088 N 
HETATM   23  C9  UNL     1    -104.631 -21.944  48.993  1.00  0.00     0.272 C 
HETATM   24  C10 UNL     1    -105.955 -21.440  49.447  1.00  0.00     0.034 C 
HETATM   25  C11 UNL     1    -106.006 -19.937  49.379  1.00  0.00    -0.015 C 
HETATM   26  C12 UNL     1    -105.804 -19.501  47.965  1.00  0.00     0.010 C 
HETATM   27  C13 UNL     1    -104.972 -19.395  50.324  1.00  0.00     0.034 C 
HETATM   28  C14 UNL     1    -103.746 -20.258  50.427  1.00  0.00     0.272 C 
ENDBRANCH  21  22
ENDBRANCH  20  21
ENDBRANCH  19  20
ENDBRANCH  18  19
ENDBRANCH   4  18
BRANCH   1  29
HETATM   29  O1  UNL     1     -96.102 -18.682  47.012  1.00  0.00    -0.354 OA
HETATM   30  C1  UNL     1     -96.219 -17.483  47.819  1.00  0.00     0.210 C 
ENDBRANCH   1  29
BRANCH  16  31
HETATM   31  N5  UNL     1     -94.055 -18.150  45.454  1.00  0.00    -0.384 N 
ATOM     32  H52 UNL     1     -93.120 -17.741  45.438  1.00  0.00     0.157 HD
ATOM     33  H51 UNL     1     -94.338 -18.559  46.345  1.00  0.00     0.157 HD
ENDBRANCH  16  31
BRANCH  13  34
HETATM   34  N3  UNL     1     -94.638 -17.618  40.962  1.00  0.00    -0.234 N 
ATOM     35  H32 UNL     1     -94.759 -18.269  40.187  1.00  0.00     0.174 HD
ATOM     36  H31 UNL     1     -94.134 -16.738  40.851  1.00  0.00     0.174 HD
ENDBRANCH  13  34
TORSDOF 8
ENDMDL
