MODEL 1
REMARK VINA RESULT: -7.278696433      0.000      0.000
REMARK  9 active torsions:
REMARK  status: ('A' for Active; 'I' for Inactive)
REMARK    1  A    between atoms: N1_2  and  C3_4 
REMARK    2  A    between atoms: C3_4  and  C4_5 
REMARK    3  A    between atoms: C4_5  and  C5_6 
REMARK    4  A    between atoms: C5_6  and  N2_7 
REMARK    5  A    between atoms: N2_7  and  C6_9 
REMARK    6  A    between atoms: C9_20  and  N7_21 
REMARK    7  A    between atoms: N7_21  and  C10_22 
REMARK    8  A    between atoms: C11_23  and  C12_24 
REMARK    9  A    between atoms: C18_31  and  N8_32 
ROOT
HETATM    1  C6  UNL     1     -91.400 -16.787  12.653  1.00  0.00     0.135 A 
HETATM    2  N3  UNL     1     -92.760 -16.682  12.561  1.00  0.00    -0.283 N 
ATOM      3  H3  UNL     1     -93.359 -16.112  13.159  1.00  0.00     0.188 HD
HETATM    4  N4  UNL     1     -93.159 -17.443  11.567  1.00  0.00    -0.283 N 
ATOM      5  H4  UNL     1     -94.128 -17.557  11.270  1.00  0.00     0.188 HD
HETATM    6  C7  UNL     1     -92.090 -18.056  10.993  1.00  0.00     0.140 A 
HETATM    7  N5  UNL     1     -91.975 -18.904   9.976  1.00  0.00    -0.337 N 
ATOM      8  H5  UNL     1     -92.814 -19.200   9.477  1.00  0.00     0.168 HD
HETATM    9  C8  UNL     1     -90.790 -19.378   9.592  1.00  0.00     0.184 A 
HETATM   10  N6  UNL     1     -89.715 -18.973  10.260  1.00  0.00    -0.326 N 
ATOM     11  H6  UNL     1     -88.815 -19.344   9.953  1.00  0.00     0.169 HD
HETATM   12  C9  UNL     1     -89.698 -18.120  11.303  1.00  0.00     0.198 A 
HETATM   13  C21 UNL     1     -90.941 -17.645  11.680  1.00  0.00     0.113 A 
ENDROOT
BRANCH  12  14
HETATM   14  N7  UNL     1     -88.689 -17.816  11.821  1.00  0.00    -0.384 NA
BRANCH  14  15
HETATM   15  C10 UNL     1     -87.591 -17.559  12.510  1.00  0.00     0.140 A 
HETATM   16  C11 UNL     1     -86.781 -16.474  12.199  1.00  0.00    -0.006 A 
HETATM   17  C16 UNL     1     -85.647 -16.275  12.957  1.00  0.00     0.037 A 
HETATM   18  C17 UNL     1     -85.255 -17.078  14.007  1.00  0.00     0.063 A 
HETATM   19 CL1  UNL     1     -83.744 -16.741  14.849  1.00  0.00    -0.082 Cl
HETATM   20  C18 UNL     1     -86.067 -18.151  14.309  1.00  0.00     0.081 A 
HETATM   21  C20 UNL     1     -87.206 -18.365  13.561  1.00  0.00     0.103 A 
HETATM   22 CL2  UNL     1     -88.190 -19.757  14.021  1.00  0.00    -0.078 Cl
BRANCH  16  23
HETATM   23  C12 UNL     1     -87.121 -15.524  11.083  1.00  0.00    -0.021 C 
HETATM   24  C13 UNL     1     -87.163 -16.157   9.738  1.00  0.00     0.019 C 
HETATM   25  C14 UNL     1     -88.344 -14.696  11.409  1.00  0.00     0.019 C 
HETATM   26  C15 UNL     1     -85.983 -14.509  11.035  1.00  0.00     0.019 C 
ENDBRANCH  16  23
BRANCH  20  27
HETATM   27  N8  UNL     1     -85.747 -18.982  15.398  1.00  0.00    -0.330 N 
HETATM   28  C19 UNL     1     -85.226 -20.126  15.422  1.00  0.00     0.201 C 
HETATM   29  N9  UNL     1     -84.847 -20.799  14.233  1.00  0.00    -0.066 NA
HETATM   30  N10 UNL     1     -84.994 -20.792  16.683  1.00  0.00    -0.066 NA
ATOM     31  H8  UNL     1     -85.973 -18.595  16.315  1.00  0.00     0.168 HD
ENDBRANCH  20  27
ENDBRANCH  14  15
ENDBRANCH  12  14
BRANCH   1  32
HETATM   32  N2  UNL     1     -90.642 -16.198  13.491  1.00  0.00    -0.374 N 
ATOM     33  H2  UNL     1     -90.222 -15.312  13.211  1.00  0.00     0.161 HD
BRANCH  32  34
HETATM   34  C5  UNL     1     -90.334 -16.702  14.816  1.00  0.00     0.123 C 
BRANCH  34  35
HETATM   35  C4  UNL     1     -89.145 -15.965  15.413  1.00  0.00     0.050 C 
BRANCH  35  36
HETATM   36  C3  UNL     1     -88.654 -16.749  16.602  1.00  0.00     0.273 C 
BRANCH  36  37
HETATM   37  N1  UNL     1     -87.986 -15.827  17.511  1.00  0.00     0.080 N 
HETATM   38  C1  UNL     1     -88.301 -16.134  18.893  1.00  0.00     0.309 C 
HETATM   39  C2  UNL     1     -86.576 -15.796  17.256  1.00  0.00     0.309 C 
ENDBRANCH  36  37
ENDBRANCH  35  36
ENDBRANCH  34  35
ENDBRANCH  32  34
ENDBRANCH   1  32
TORSDOF 9
ENDMDL
MODEL 2
REMARK VINA RESULT: -7.246701809      2.485      6.305
REMARK  9 active torsions:
REMARK  status: ('A' for Active; 'I' for Inactive)
REMARK    1  A    between atoms: N1_2  and  C3_4 
REMARK    2  A    between atoms: C3_4  and  C4_5 
REMARK    3  A    between atoms: C4_5  and  C5_6 
REMARK    4  A    between atoms: C5_6  and  N2_7 
REMARK    5  A    between atoms: N2_7  and  C6_9 
REMARK    6  A    between atoms: C9_20  and  N7_21 
REMARK    7  A    between atoms: N7_21  and  C10_22 
REMARK    8  A    between atoms: C11_23  and  C12_24 
REMARK    9  A    between atoms: C18_31  and  N8_32 
ROOT
HETATM    1  C6  UNL     1     -88.582 -16.465  16.975  1.00  0.00     0.135 A 
HETATM    2  N3  UNL     1     -88.907 -16.481  18.302  1.00  0.00    -0.283 N 
ATOM      3  H3  UNL     1     -89.577 -17.108  18.748  1.00  0.00     0.188 HD
HETATM    4  N4  UNL     1     -88.204 -15.547  18.903  1.00  0.00    -0.283 N 
ATOM      5  H4  UNL     1     -88.245 -15.334  19.901  1.00  0.00     0.188 HD
HETATM    6  C7  UNL     1     -87.416 -14.905  18.001  1.00  0.00     0.140 A 
HETATM    7  N5  UNL     1     -86.543 -13.909  18.112  1.00  0.00    -0.337 N 
ATOM      8  H5  UNL     1     -86.379 -13.492  19.028  1.00  0.00     0.168 HD
HETATM    9  C8  UNL     1     -85.877 -13.443  17.057  1.00  0.00     0.184 A 
HETATM   10  N6  UNL     1     -86.111 -14.008  15.876  1.00  0.00    -0.326 N 
ATOM     11  H6  UNL     1     -85.592 -13.640  15.078  1.00  0.00     0.169 HD
HETATM   12  C9  UNL     1     -86.966 -15.020  15.633  1.00  0.00     0.198 A 
HETATM   13  C21 UNL     1     -87.644 -15.484  16.746  1.00  0.00     0.113 A 
ENDROOT
BRANCH  12  14
HETATM   14  N7  UNL     1     -87.094 -15.458  14.551  1.00  0.00    -0.384 NA
BRANCH  14  15
HETATM   15  C10 UNL     1     -87.362 -15.883  13.329  1.00  0.00     0.140 A 
HETATM   16  C11 UNL     1     -86.394 -16.511  12.555  1.00  0.00    -0.006 A 
HETATM   17  C16 UNL     1     -86.745 -16.919  11.286  1.00  0.00     0.037 A 
HETATM   18  C17 UNL     1     -87.993 -16.747  10.724  1.00  0.00     0.063 A 
HETATM   19 CL1  UNL     1     -88.282 -17.261   9.063  1.00  0.00    -0.082 Cl
HETATM   20  C18 UNL     1     -88.946 -16.124  11.501  1.00  0.00     0.081 A 
HETATM   21  C20 UNL     1     -88.612 -15.709  12.773  1.00  0.00     0.103 A 
HETATM   22 CL2  UNL     1     -89.896 -14.927  13.700  1.00  0.00    -0.078 Cl
BRANCH  16  23
HETATM   23  C12 UNL     1     -85.004 -16.764  13.073  1.00  0.00    -0.021 C 
HETATM   24  C13 UNL     1     -84.208 -15.529  13.303  1.00  0.00     0.019 C 
HETATM   25  C14 UNL     1     -85.012 -17.716  14.248  1.00  0.00     0.019 C 
HETATM   26  C15 UNL     1     -84.280 -17.532  11.973  1.00  0.00     0.019 C 
ENDBRANCH  16  23
BRANCH  20  27
HETATM   27  N8  UNL     1     -90.252 -15.960  11.003  1.00  0.00    -0.330 N 
HETATM   28  C19 UNL     1     -91.247 -16.725  11.065  1.00  0.00     0.201 C 
HETATM   29  N9  UNL     1     -91.184 -17.983  11.716  1.00  0.00    -0.066 NA
HETATM   30  N10 UNL     1     -92.502 -16.333  10.465  1.00  0.00    -0.066 NA
ATOM     31  H8  UNL     1     -90.418 -15.080  10.513  1.00  0.00     0.168 HD
ENDBRANCH  20  27
ENDBRANCH  14  15
ENDBRANCH  12  14
BRANCH   1  32
HETATM   32  N2  UNL     1     -89.049 -17.222  16.063  1.00  0.00    -0.374 N 
ATOM     33  H2  UNL     1     -89.920 -16.942  15.613  1.00  0.00     0.161 HD
BRANCH  32  34
HETATM   34  C5  UNL     1     -88.428 -18.457  15.621  1.00  0.00     0.123 C 
BRANCH  34  35
HETATM   35  C4  UNL     1     -87.901 -19.251  16.806  1.00  0.00     0.050 C 
BRANCH  35  36
HETATM   36  C3  UNL     1     -87.306 -20.533  16.284  1.00  0.00     0.273 C 
BRANCH  36  37
HETATM   37  N1  UNL     1     -88.355 -21.275  15.597  1.00  0.00     0.080 N 
HETATM   38  C1  UNL     1     -87.795 -22.223  14.653  1.00  0.00     0.309 C 
HETATM   39  C2  UNL     1     -89.243 -21.890  16.541  1.00  0.00     0.309 C 
ENDBRANCH  36  37
ENDBRANCH  35  36
ENDBRANCH  34  35
ENDBRANCH  32  34
ENDBRANCH   1  32
TORSDOF 9
ENDMDL
MODEL 3
REMARK VINA RESULT: -7.016085533      1.040      1.360
REMARK  9 active torsions:
REMARK  status: ('A' for Active; 'I' for Inactive)
REMARK    1  A    between atoms: N1_2  and  C3_4 
REMARK    2  A    between atoms: C3_4  and  C4_5 
REMARK    3  A    between atoms: C4_5  and  C5_6 
REMARK    4  A    between atoms: C5_6  and  N2_7 
REMARK    5  A    between atoms: N2_7  and  C6_9 
REMARK    6  A    between atoms: C9_20  and  N7_21 
REMARK    7  A    between atoms: N7_21  and  C10_22 
REMARK    8  A    between atoms: C11_23  and  C12_24 
REMARK    9  A    between atoms: C18_31  and  N8_32 
ROOT
HETATM    1  C6  UNL     1     -91.357 -16.902  12.691  1.00  0.00     0.135 A 
HETATM    2  N3  UNL     1     -92.699 -16.658  12.622  1.00  0.00    -0.283 N 
ATOM      3  H3  UNL     1     -93.233 -16.059  13.252  1.00  0.00     0.188 HD
HETATM    4  N4  UNL     1     -93.182 -17.331  11.601  1.00  0.00    -0.283 N 
ATOM      5  H4  UNL     1     -94.161 -17.334  11.312  1.00  0.00     0.188 HD
HETATM    6  C7  UNL     1     -92.186 -18.021  10.987  1.00  0.00     0.140 A 
HETATM    7  N5  UNL     1     -92.166 -18.830   9.932  1.00  0.00    -0.337 N 
ATOM      8  H5  UNL     1     -93.035 -19.018   9.432  1.00  0.00     0.168 HD
HETATM    9  C8  UNL     1     -91.038 -19.402   9.512  1.00  0.00     0.184 A 
HETATM   10  N6  UNL     1     -89.921 -19.137  10.182  1.00  0.00    -0.326 N 
ATOM     11  H6  UNL     1     -89.066 -19.582   9.847  1.00  0.00     0.169 HD
HETATM   12  C9  UNL     1     -89.809 -18.337  11.261  1.00  0.00     0.198 A 
HETATM   13  C21 UNL     1     -90.995 -17.757  11.675  1.00  0.00     0.113 A 
ENDROOT
BRANCH  12  14
HETATM   14  N7  UNL     1     -88.770 -18.159  11.778  1.00  0.00    -0.384 NA
BRANCH  14  15
HETATM   15  C10 UNL     1     -87.548 -18.055  12.270  1.00  0.00     0.140 A 
HETATM   16  C11 UNL     1     -86.591 -17.252  11.661  1.00  0.00    -0.006 A 
HETATM   17  C16 UNL     1     -85.335 -17.201  12.227  1.00  0.00     0.037 A 
HETATM   18  C17 UNL     1     -84.956 -17.892  13.359  1.00  0.00     0.063 A 
HETATM   19 CL1  UNL     1     -83.295 -17.782  13.935  1.00  0.00    -0.082 Cl
HETATM   20  C18 UNL     1     -85.915 -18.684  13.956  1.00  0.00     0.081 A 
HETATM   21  C20 UNL     1     -87.176 -18.747  13.403  1.00  0.00     0.103 A 
HETATM   22 CL2  UNL     1     -88.342 -19.780  14.236  1.00  0.00    -0.078 Cl
BRANCH  16  23
HETATM   23  C12 UNL     1     -86.899 -16.443  10.431  1.00  0.00    -0.021 C 
HETATM   24  C13 UNL     1     -87.040 -17.252   9.191  1.00  0.00     0.019 C 
HETATM   25  C14 UNL     1     -88.043 -15.482  10.668  1.00  0.00     0.019 C 
HETATM   26  C15 UNL     1     -85.691 -15.540  10.209  1.00  0.00     0.019 C 
ENDBRANCH  16  23
BRANCH  20  27
HETATM   27  N8  UNL     1     -85.605 -19.379  15.140  1.00  0.00    -0.330 N 
HETATM   28  C19 UNL     1     -85.329 -20.592  15.321  1.00  0.00     0.201 C 
HETATM   29  N9  UNL     1     -85.283 -21.517  14.247  1.00  0.00    -0.066 NA
HETATM   30  N10 UNL     1     -85.044 -21.080  16.651  1.00  0.00    -0.066 NA
ATOM     31  H8  UNL     1     -85.603 -18.808  15.985  1.00  0.00     0.168 HD
ENDBRANCH  20  27
ENDBRANCH  14  15
ENDBRANCH  12  14
BRANCH   1  32
HETATM   32  N2  UNL     1     -90.535 -16.430  13.543  1.00  0.00    -0.374 N 
ATOM     33  H2  UNL     1     -89.933 -15.662  13.247  1.00  0.00     0.161 HD
BRANCH  32  34
HETATM   34  C5  UNL     1     -90.398 -16.909  14.906  1.00  0.00     0.123 C 
BRANCH  34  35
HETATM   35  C4  UNL     1     -89.125 -16.375  15.542  1.00  0.00     0.050 C 
BRANCH  35  36
HETATM   36  C3  UNL     1     -88.555 -15.316  14.634  1.00  0.00     0.273 C 
BRANCH  36  37
HETATM   37  N1  UNL     1     -87.103 -15.348  14.752  1.00  0.00     0.080 N 
HETATM   38  C1  UNL     1     -86.495 -14.241  14.039  1.00  0.00     0.309 C 
HETATM   39  C2  UNL     1     -86.708 -15.407  16.129  1.00  0.00     0.309 C 
ENDBRANCH  36  37
ENDBRANCH  35  36
ENDBRANCH  34  35
ENDBRANCH  32  34
ENDBRANCH   1  32
TORSDOF 9
ENDMDL
MODEL 4
REMARK VINA RESULT: -7.014213497      3.352      5.668
REMARK  9 active torsions:
REMARK  status: ('A' for Active; 'I' for Inactive)
REMARK    1  A    between atoms: N1_2  and  C3_4 
REMARK    2  A    between atoms: C3_4  and  C4_5 
REMARK    3  A    between atoms: C4_5  and  C5_6 
REMARK    4  A    between atoms: C5_6  and  N2_7 
REMARK    5  A    between atoms: N2_7  and  C6_9 
REMARK    6  A    between atoms: C9_20  and  N7_21 
REMARK    7  A    between atoms: N7_21  and  C10_22 
REMARK    8  A    between atoms: C11_23  and  C12_24 
REMARK    9  A    between atoms: C18_31  and  N8_32 
ROOT
HETATM    1  C6  UNL     1     -88.701 -15.513  13.645  1.00  0.00     0.135 A 
HETATM    2  N3  UNL     1     -88.981 -15.056  14.903  1.00  0.00    -0.283 N 
ATOM      3  H3  UNL     1     -89.190 -14.091  15.157  1.00  0.00     0.188 HD
HETATM    4  N4  UNL     1     -88.932 -16.079  15.727  1.00  0.00    -0.283 N 
ATOM      5  H4  UNL     1     -89.101 -16.030  16.732  1.00  0.00     0.188 HD
HETATM    6  C7  UNL     1     -88.624 -17.212  15.042  1.00  0.00     0.140 A 
HETATM    7  N5  UNL     1     -88.463 -18.477  15.417  1.00  0.00    -0.337 N 
ATOM      8  H5  UNL     1     -88.577 -18.723  16.400  1.00  0.00     0.168 HD
HETATM    9  C8  UNL     1     -88.155 -19.432  14.540  1.00  0.00     0.184 A 
HETATM   10  N6  UNL     1     -88.015 -19.082  13.266  1.00  0.00    -0.326 N 
ATOM     11  H6  UNL     1     -87.780 -19.825  12.607  1.00  0.00     0.169 HD
HETATM   12  C9  UNL     1     -88.153 -17.840  12.760  1.00  0.00     0.198 A 
HETATM   13  C21 UNL     1     -88.472 -16.869  13.693  1.00  0.00     0.113 A 
ENDROOT
BRANCH  12  14
HETATM   14  N7  UNL     1     -88.017 -17.635  11.612  1.00  0.00    -0.384 NA
BRANCH  14  15
HETATM   15  C10 UNL     1     -87.774 -17.302  10.357  1.00  0.00     0.140 A 
HETATM   16  C11 UNL     1     -88.805 -17.163   9.435  1.00  0.00    -0.006 A 
HETATM   17  C16 UNL     1     -88.472 -16.823   8.141  1.00  0.00     0.037 A 
HETATM   18  C17 UNL     1     -87.186 -16.609   7.691  1.00  0.00     0.063 A 
HETATM   19 CL1  UNL     1     -86.903 -16.242   5.991  1.00  0.00    -0.082 Cl
HETATM   20  C18 UNL     1     -86.172 -16.748   8.615  1.00  0.00     0.081 A 
HETATM   21  C20 UNL     1     -86.486 -17.088   9.914  1.00  0.00     0.103 A 
HETATM   22 CL2  UNL     1     -85.126 -17.238  11.031  1.00  0.00    -0.078 Cl
BRANCH  16  23
HETATM   23  C12 UNL     1     -90.246 -17.358   9.819  1.00  0.00    -0.021 C 
HETATM   24  C13 UNL     1     -90.554 -18.710  10.355  1.00  0.00     0.019 C 
HETATM   25  C14 UNL     1     -90.749 -16.225  10.687  1.00  0.00     0.019 C 
HETATM   26  C15 UNL     1     -91.046 -17.224   8.528  1.00  0.00     0.019 C 
ENDBRANCH  16  23
BRANCH  20  27
HETATM   27  N8  UNL     1     -84.841 -16.499   8.231  1.00  0.00    -0.330 N 
HETATM   28  C19 UNL     1     -84.171 -15.436   8.264  1.00  0.00     0.201 C 
HETATM   29  N9  UNL     1     -84.720 -14.222   8.748  1.00  0.00    -0.066 NA
HETATM   30  N10 UNL     1     -82.801 -15.427   7.805  1.00  0.00    -0.066 NA
ATOM     31  H8  UNL     1     -84.340 -17.310   7.867  1.00  0.00     0.168 HD
ENDBRANCH  20  27
ENDBRANCH  14  15
ENDBRANCH  12  14
BRANCH   1  32
HETATM   32  N2  UNL     1     -88.654 -14.825  12.574  1.00  0.00    -0.374 N 
ATOM     33  H2  UNL     1     -89.235 -15.125  11.791  1.00  0.00     0.161 HD
BRANCH  32  34
HETATM   34  C5  UNL     1     -87.831 -13.645  12.390  1.00  0.00     0.123 C 
BRANCH  34  35
HETATM   35  C4  UNL     1     -86.430 -14.028  11.938  1.00  0.00     0.050 C 
BRANCH  35  36
HETATM   36  C3  UNL     1     -85.594 -14.280  13.166  1.00  0.00     0.273 C 
BRANCH  36  37
HETATM   37  N1  UNL     1     -84.335 -13.563  13.014  1.00  0.00     0.080 N 
HETATM   38  C1  UNL     1     -83.763 -13.229  14.305  1.00  0.00     0.309 C 
HETATM   39  C2  UNL     1     -83.429 -14.297  12.179  1.00  0.00     0.309 C 
ENDBRANCH  36  37
ENDBRANCH  35  36
ENDBRANCH  34  35
ENDBRANCH  32  34
ENDBRANCH   1  32
TORSDOF 9
ENDMDL
MODEL 5
REMARK VINA RESULT: -6.911284728      2.484      6.334
REMARK  9 active torsions:
REMARK  status: ('A' for Active; 'I' for Inactive)
REMARK    1  A    between atoms: N1_2  and  C3_4 
REMARK    2  A    between atoms: C3_4  and  C4_5 
REMARK    3  A    between atoms: C4_5  and  C5_6 
REMARK    4  A    between atoms: C5_6  and  N2_7 
REMARK    5  A    between atoms: N2_7  and  C6_9 
REMARK    6  A    between atoms: C9_20  and  N7_21 
REMARK    7  A    between atoms: N7_21  and  C10_22 
REMARK    8  A    between atoms: C11_23  and  C12_24 
REMARK    9  A    between atoms: C18_31  and  N8_32 
ROOT
HETATM    1  C6  UNL     1     -88.094 -17.255  15.970  1.00  0.00     0.135 A 
HETATM    2  N3  UNL     1     -87.969 -17.354  17.327  1.00  0.00    -0.283 N 
ATOM      3  H3  UNL     1     -88.405 -18.060  17.920  1.00  0.00     0.188 HD
HETATM    4  N4  UNL     1     -87.189 -16.378  17.735  1.00  0.00    -0.283 N 
ATOM      5  H4  UNL     1     -86.922 -16.209  18.706  1.00  0.00     0.188 HD
HETATM    6  C7  UNL     1     -86.790 -15.628  16.675  1.00  0.00     0.140 A 
HETATM    7  N5  UNL     1     -86.012 -14.555  16.570  1.00  0.00    -0.337 N 
ATOM      8  H5  UNL     1     -85.594 -14.159  17.412  1.00  0.00     0.168 HD
HETATM    9  C8  UNL     1     -85.764 -13.985  15.391  1.00  0.00     0.184 A 
HETATM   10  N6  UNL     1     -86.319 -14.525  14.311  1.00  0.00    -0.326 N 
ATOM     11  H6  UNL     1     -86.118 -14.077  13.417  1.00  0.00     0.169 HD
HETATM   12  C9  UNL     1     -87.122 -15.607  14.284  1.00  0.00     0.198 A 
HETATM   13  C21 UNL     1     -87.363 -16.178  15.521  1.00  0.00     0.113 A 
ENDROOT
BRANCH  12  14
HETATM   14  N7  UNL     1     -87.557 -16.014  13.272  1.00  0.00    -0.384 NA
BRANCH  14  15
HETATM   15  C10 UNL     1     -88.159 -16.390  12.158  1.00  0.00     0.140 A 
HETATM   16  C11 UNL     1     -87.457 -17.012  11.133  1.00  0.00    -0.006 A 
HETATM   17  C16 UNL     1     -88.152 -17.367   9.997  1.00  0.00     0.037 A 
HETATM   18  C17 UNL     1     -89.500 -17.150   9.801  1.00  0.00     0.063 A 
HETATM   19 CL1  UNL     1     -90.245 -17.599   8.268  1.00  0.00    -0.082 Cl
HETATM   20  C18 UNL     1     -90.187 -16.535  10.826  1.00  0.00     0.081 A 
HETATM   21  C20 UNL     1     -89.508 -16.172  11.970  1.00  0.00     0.103 A 
HETATM   22 CL2  UNL     1     -90.468 -15.396  13.233  1.00  0.00    -0.078 Cl
BRANCH  16  23
HETATM   23  C12 UNL     1     -85.987 -17.311  11.245  1.00  0.00    -0.021 C 
HETATM   24  C13 UNL     1     -85.125 -16.101  11.320  1.00  0.00     0.019 C 
HETATM   25  C14 UNL     1     -85.706 -18.331  12.326  1.00  0.00     0.019 C 
HETATM   26  C15 UNL     1     -85.603 -18.021   9.951  1.00  0.00     0.019 C 
ENDBRANCH  16  23
BRANCH  20  27
HETATM   27  N8  UNL     1     -91.574 -16.326  10.707  1.00  0.00    -0.330 N 
HETATM   28  C19 UNL     1     -92.537 -17.048  11.067  1.00  0.00     0.201 C 
HETATM   29  N9  UNL     1     -92.337 -18.294  11.713  1.00  0.00    -0.066 NA
HETATM   30  N10 UNL     1     -93.896 -16.615  10.831  1.00  0.00    -0.066 NA
ATOM     31  H8  UNL     1     -91.839 -15.450  10.257  1.00  0.00     0.168 HD
ENDBRANCH  20  27
ENDBRANCH  14  15
ENDBRANCH  12  14
BRANCH   1  32
HETATM   32  N2  UNL     1     -88.767 -18.020  15.205  1.00  0.00    -0.374 N 
ATOM     33  H2  UNL     1     -89.732 -17.759  15.004  1.00  0.00     0.161 HD
BRANCH  32  34
HETATM   34  C5  UNL     1     -88.256 -19.236  14.601  1.00  0.00     0.123 C 
BRANCH  34  35
HETATM   35  C4  UNL     1     -88.230 -20.372  15.612  1.00  0.00     0.050 C 
BRANCH  35  36
HETATM   36  C3  UNL     1     -87.928 -21.650  14.874  1.00  0.00     0.273 C 
BRANCH  36  37
HETATM   37  N1  UNL     1     -86.482 -21.770  14.745  1.00  0.00     0.080 N 
HETATM   38  C1  UNL     1     -85.834 -21.729  16.042  1.00  0.00     0.309 C 
HETATM   39  C2  UNL     1     -86.135 -22.937  13.988  1.00  0.00     0.309 C 
ENDBRANCH  36  37
ENDBRANCH  35  36
ENDBRANCH  34  35
ENDBRANCH  32  34
ENDBRANCH   1  32
TORSDOF 9
ENDMDL
