MODEL 1
REMARK VINA RESULT: -8.360813041      0.000      0.000
REMARK  7 active torsions:
REMARK  status: ('A' for Active; 'I' for Inactive)
REMARK    1  A    between atoms: O1_2  and  C2_3 
REMARK    2  A    between atoms: C2_3  and  C3_4 
REMARK    3  A    between atoms: C3_4  and  N1_5 
REMARK    4  A    between atoms: C5_10  and  C6_11 
REMARK    5  A    between atoms: C10_15  and  C11_16 
REMARK    6  A    between atoms: C21_34  and  N7_35 
REMARK    7  A    between atoms: N7_35  and  C22_37 
ROOT
HETATM    1  C6  UNL     1     126.464  37.261 -25.166  1.00  0.00     0.037 A 
HETATM    2  C7  UNL     1     127.220  38.363 -25.619  1.00  0.00     0.018 A 
HETATM    3  C8  UNL     1     128.555  38.030 -25.645  1.00  0.00     0.016 A 
HETATM    4  C9  UNL     1     128.704  36.746 -25.224  1.00  0.00     0.006 A 
HETATM    5  C10 UNL     1     129.853  35.944 -25.064  1.00  0.00     0.026 A 
HETATM    6  C16 UNL     1     129.659  34.676 -24.601  1.00  0.00     0.080 A 
HETATM    7  C17 UNL     1     130.800  33.841 -24.294  1.00  0.00     0.102 C 
HETATM    8  N4  UNL     1     131.709  33.157 -24.000  1.00  0.00    -0.191 NA
HETATM    9  C18 UNL     1     128.386  34.225 -24.315  1.00  0.00     0.027 A 
HETATM   10  C19 UNL     1     128.263  32.828 -23.819  1.00  0.00     0.070 C 
HETATM   11  N5  UNL     1     127.292  34.993 -24.471  1.00  0.00    -0.357 N 
ATOM     12  H5  UNL     1     126.378  34.603 -24.243  1.00  0.00     0.166 HD
HETATM   13  C20 UNL     1     127.370  36.261 -24.921  1.00  0.00     0.058 A 
ENDROOT
BRANCH   5  14
HETATM   14  C11 UNL     1     131.126  36.588 -25.331  1.00  0.00     0.054 A 
HETATM   15  N3  UNL     1     131.783  37.448 -24.500  1.00  0.00    -0.362 N 
HETATM   16  C12 UNL     1     132.863  37.965 -25.088  1.00  0.00     0.131 A 
ATOM     17  H3  UNL     1     131.486  37.667 -23.550  1.00  0.00     0.165 HD
HETATM   18  C13 UNL     1     132.963  37.459 -26.351  1.00  0.00     0.139 A 
HETATM   19  F1  UNL     1     133.914  37.728 -27.270  1.00  0.00    -0.204 F 
HETATM   20  C14 UNL     1     131.857  36.596 -26.483  1.00  0.00     0.006 A 
HETATM   21  C15 UNL     1     131.624  35.933 -27.803  1.00  0.00     0.054 C 
ENDBRANCH   5  14
BRANCH   1  22
HETATM   22  C5  UNL     1     125.019  37.285 -24.986  1.00  0.00     0.149 A 
HETATM   23  N2  UNL     1     124.213  38.329 -25.058  1.00  0.00    -0.175 N 
HETATM   24  C4  UNL     1     122.854  38.249 -24.927  1.00  0.00     0.694 A 
ATOM     25  H2  UNL     1     124.627  39.246 -25.220  1.00  0.00     0.186 HD
HETATM   26  N1  UNL     1     122.135  39.313 -25.012  1.00  0.00    -0.223 N 
HETATM   27  N8  UNL     1     122.293  37.047 -24.712  1.00  0.00    -0.022 N 
ATOM     28  H1  UNL     1     121.124  39.219 -24.910  1.00  0.00     0.177 HD
HETATM   29  C21 UNL     1     123.070  35.945 -24.629  1.00  0.00     0.694 A 
ATOM     30  H8  UNL     1     121.281  36.967 -24.612  1.00  0.00     0.203 HD
HETATM   31  N6  UNL     1     124.378  36.084 -24.763  1.00  0.00    -0.175 N 
ATOM     32  H6  UNL     1     124.953  35.244 -24.697  1.00  0.00     0.186 HD
BRANCH  26  33
HETATM   33  C3  UNL     1     122.674  40.625 -25.240  1.00  0.00     0.164 C 
BRANCH  33  34
HETATM   34  C2  UNL     1     122.680  41.011 -26.689  1.00  0.00     0.187 C 
BRANCH  34  35
HETATM   35  O1  UNL     1     123.781  40.550 -27.371  1.00  0.00    -0.394 OA
HETATM   36  C1  UNL     1     124.780  41.493 -27.511  1.00  0.00     0.201 C 
ENDBRANCH  34  35
ENDBRANCH  33  34
ENDBRANCH  26  33
BRANCH  29  37
HETATM   37  N7  UNL     1     122.513  34.792 -24.420  1.00  0.00    -0.222 N 
ATOM     38  H7  UNL     1     121.762  34.490 -25.040  1.00  0.00     0.178 HD
BRANCH  37  39
HETATM   39  C22 UNL     1     122.915  33.924 -23.346  1.00  0.00     0.091 C 
HETATM   40  C23 UNL     1     121.691  33.535 -22.554  1.00  0.00     0.032 C 
HETATM   41  C24 UNL     1     123.607  32.683 -23.850  1.00  0.00     0.032 C 
ENDBRANCH  37  39
ENDBRANCH  29  37
ENDBRANCH   1  22
TORSDOF 7
ENDMDL
MODEL 2
REMARK VINA RESULT: -8.327155697      2.349      4.224
REMARK  7 active torsions:
REMARK  status: ('A' for Active; 'I' for Inactive)
REMARK    1  A    between atoms: O1_2  and  C2_3 
REMARK    2  A    between atoms: C2_3  and  C3_4 
REMARK    3  A    between atoms: C3_4  and  N1_5 
REMARK    4  A    between atoms: C5_10  and  C6_11 
REMARK    5  A    between atoms: C10_15  and  C11_16 
REMARK    6  A    between atoms: C21_34  and  N7_35 
REMARK    7  A    between atoms: N7_35  and  C22_37 
ROOT
HETATM    1  C6  UNL     1     126.520  34.601 -23.824  1.00  0.00     0.037 A 
HETATM    2  C7  UNL     1     127.701  33.831 -23.878  1.00  0.00     0.018 A 
HETATM    3  C8  UNL     1     128.730  34.595 -24.380  1.00  0.00     0.016 A 
HETATM    4  C9  UNL     1     128.265  35.842 -24.660  1.00  0.00     0.006 A 
HETATM    5  C10 UNL     1     128.909  36.979 -25.191  1.00  0.00     0.026 A 
HETATM    6  C16 UNL     1     128.144  38.094 -25.364  1.00  0.00     0.080 A 
HETATM    7  C17 UNL     1     128.705  39.255 -26.020  1.00  0.00     0.102 C 
HETATM    8  N4  UNL     1     129.124  40.198 -26.583  1.00  0.00    -0.191 NA
HETATM    9  C18 UNL     1     126.807  38.082 -25.023  1.00  0.00     0.027 A 
HETATM   10  C19 UNL     1     126.046  39.342 -25.240  1.00  0.00     0.070 C 
HETATM   11  N5  UNL     1     126.197  36.996 -24.514  1.00  0.00    -0.357 N 
ATOM     12  H5  UNL     1     125.205  37.048 -24.282  1.00  0.00     0.166 HD
HETATM   13  C20 UNL     1     126.859  35.841 -24.303  1.00  0.00     0.058 A 
ENDROOT
BRANCH   5  14
HETATM   14  C11 UNL     1     130.299  36.809 -25.573  1.00  0.00     0.054 A 
HETATM   15  N3  UNL     1     130.759  36.076 -26.628  1.00  0.00    -0.362 N 
HETATM   16  C12 UNL     1     132.093  36.015 -26.634  1.00  0.00     0.131 A 
ATOM     17  H3  UNL     1     130.160  35.632 -27.323  1.00  0.00     0.165 HD
HETATM   18  C13 UNL     1     132.571  36.716 -25.567  1.00  0.00     0.139 A 
HETATM   19  F1  UNL     1     133.863  36.899 -25.218  1.00  0.00    -0.204 F 
HETATM   20  C14 UNL     1     131.424  37.206 -24.911  1.00  0.00     0.006 A 
HETATM   21  C15 UNL     1     131.601  37.960 -23.633  1.00  0.00     0.054 C 
ENDBRANCH   5  14
BRANCH   1  22
HETATM   22  C5  UNL     1     125.233  34.087 -23.375  1.00  0.00     0.149 A 
HETATM   23  N2  UNL     1     124.304  34.725 -22.686  1.00  0.00    -0.175 N 
HETATM   24  C4  UNL     1     123.096  34.177 -22.353  1.00  0.00     0.694 A 
ATOM     25  H2  UNL     1     124.498  35.680 -22.387  1.00  0.00     0.186 HD
HETATM   26  N1  UNL     1     122.240  34.864 -21.681  1.00  0.00    -0.223 N 
HETATM   27  N8  UNL     1     122.826  32.918 -22.739  1.00  0.00    -0.022 N 
ATOM     28  H1  UNL     1     121.348  34.427 -21.448  1.00  0.00     0.177 HD
HETATM   29  C21 UNL     1     123.742  32.219 -23.445  1.00  0.00     0.694 A 
ATOM     30  H8  UNL     1     121.931  32.492 -22.500  1.00  0.00     0.203 HD
HETATM   31  N6  UNL     1     124.892  32.801 -23.738  1.00  0.00    -0.175 N 
ATOM     32  H6  UNL     1     125.574  32.261 -24.271  1.00  0.00     0.186 HD
BRANCH  26  33
HETATM   33  C3  UNL     1     122.468  36.213 -21.240  1.00  0.00     0.164 C 
BRANCH  33  34
HETATM   34  C2  UNL     1     122.115  37.235 -22.277  1.00  0.00     0.187 C 
BRANCH  34  35
HETATM   35  O1  UNL     1     123.125  37.470 -23.179  1.00  0.00    -0.394 OA
HETATM   36  C1  UNL     1     122.693  37.540 -24.488  1.00  0.00     0.201 C 
ENDBRANCH  34  35
ENDBRANCH  33  34
ENDBRANCH  26  33
BRANCH  29  37
HETATM   37  N7  UNL     1     123.466  31.004 -23.809  1.00  0.00    -0.222 N 
ATOM     38  H7  UNL     1     124.192  30.451 -24.265  1.00  0.00     0.178 HD
BRANCH  37  39
HETATM   39  C22 UNL     1     122.175  30.409 -23.594  1.00  0.00     0.091 C 
HETATM   40  C23 UNL     1     121.759  29.686 -24.852  1.00  0.00     0.032 C 
HETATM   41  C24 UNL     1     122.183  29.444 -22.436  1.00  0.00     0.032 C 
ENDBRANCH  37  39
ENDBRANCH  29  37
ENDBRANCH   1  22
TORSDOF 7
ENDMDL
MODEL 3
REMARK VINA RESULT: -8.262863650      3.759      8.154
REMARK  7 active torsions:
REMARK  status: ('A' for Active; 'I' for Inactive)
REMARK    1  A    between atoms: O1_2  and  C2_3 
REMARK    2  A    between atoms: C2_3  and  C3_4 
REMARK    3  A    between atoms: C3_4  and  N1_5 
REMARK    4  A    between atoms: C5_10  and  C6_11 
REMARK    5  A    between atoms: C10_15  and  C11_16 
REMARK    6  A    between atoms: C21_34  and  N7_35 
REMARK    7  A    between atoms: N7_35  and  C22_37 
ROOT
HETATM    1  C6  UNL     1     128.149  35.953 -24.323  1.00  0.00     0.037 A 
HETATM    2  C7  UNL     1     128.259  34.581 -24.634  1.00  0.00     0.018 A 
HETATM    3  C8  UNL     1     127.114  33.924 -24.242  1.00  0.00     0.016 A 
HETATM    4  C9  UNL     1     126.256  34.818 -23.681  1.00  0.00     0.006 A 
HETATM    5  C10 UNL     1     124.972  34.652 -23.123  1.00  0.00     0.026 A 
HETATM    6  C16 UNL     1     124.369  35.768 -22.623  1.00  0.00     0.080 A 
HETATM    7  C17 UNL     1     123.108  35.652 -21.924  1.00  0.00     0.102 C 
HETATM    8  N4  UNL     1     122.103  35.581 -21.318  1.00  0.00    -0.191 NA
HETATM    9  C18 UNL     1     125.009  36.990 -22.680  1.00  0.00     0.027 A 
HETATM   10  C19 UNL     1     124.280  38.158 -22.116  1.00  0.00     0.070 C 
HETATM   11  N5  UNL     1     126.234  37.144 -23.215  1.00  0.00    -0.357 N 
ATOM     12  H5  UNL     1     126.655  38.073 -23.227  1.00  0.00     0.166 HD
HETATM   13  C20 UNL     1     126.919  36.107 -23.736  1.00  0.00     0.058 A 
ENDROOT
BRANCH   5  14
HETATM   14  C11 UNL     1     124.468  33.292 -23.066  1.00  0.00     0.054 A 
HETATM   15  N3  UNL     1     125.110  32.218 -22.521  1.00  0.00    -0.362 N 
HETATM   16  C12 UNL     1     124.439  31.085 -22.742  1.00  0.00     0.131 A 
ATOM     17  H3  UNL     1     125.990  32.274 -22.011  1.00  0.00     0.165 HD
HETATM   18  C13 UNL     1     123.310  31.372 -23.451  1.00  0.00     0.139 A 
HETATM   19  F1  UNL     1     122.364  30.507 -23.873  1.00  0.00    -0.204 F 
HETATM   20  C14 UNL     1     123.350  32.768 -23.647  1.00  0.00     0.006 A 
HETATM   21  C15 UNL     1     122.280  33.402 -24.476  1.00  0.00     0.054 C 
ENDBRANCH   5  14
BRANCH   1  22
HETATM   22  C5  UNL     1     129.200  36.930 -24.573  1.00  0.00     0.149 A 
HETATM   23  N2  UNL     1     129.636  37.874 -23.758  1.00  0.00    -0.175 N 
HETATM   24  C4  UNL     1     130.671  38.717 -24.057  1.00  0.00     0.694 A 
ATOM     25  H2  UNL     1     129.175  37.980 -22.855  1.00  0.00     0.186 HD
HETATM   26  N1  UNL     1     131.039  39.612 -23.209  1.00  0.00    -0.223 N 
HETATM   27  N8  UNL     1     131.287  38.591 -25.245  1.00  0.00    -0.022 N 
ATOM     28  H1  UNL     1     131.814  40.225 -23.463  1.00  0.00     0.177 HD
HETATM   29  C21 UNL     1     130.881  37.642 -26.118  1.00  0.00     0.694 A 
ATOM     30  H8  UNL     1     132.060  39.209 -25.487  1.00  0.00     0.203 HD
HETATM   31  N6  UNL     1     129.876  36.856 -25.773  1.00  0.00    -0.175 N 
ATOM     32  H6  UNL     1     129.579  36.145 -26.442  1.00  0.00     0.186 HD
BRANCH  26  33
HETATM   33  C3  UNL     1     130.422  39.797 -21.925  1.00  0.00     0.164 C 
BRANCH  33  34
HETATM   34  C2  UNL     1     129.260  40.743 -21.966  1.00  0.00     0.187 C 
BRANCH  34  35
HETATM   35  O1  UNL     1     128.049  40.114 -22.127  1.00  0.00    -0.394 OA
HETATM   36  C1  UNL     1     127.283  40.639 -23.149  1.00  0.00     0.201 C 
ENDBRANCH  34  35
ENDBRANCH  33  34
ENDBRANCH  26  33
BRANCH  29  37
HETATM   37  N7  UNL     1     131.487  37.533 -27.261  1.00  0.00    -0.222 N 
ATOM     38  H7  UNL     1     131.111  38.035 -28.065  1.00  0.00     0.178 HD
BRANCH  37  39
HETATM   39  C22 UNL     1     132.668  36.733 -27.435  1.00  0.00     0.091 C 
HETATM   40  C23 UNL     1     132.347  35.591 -28.367  1.00  0.00     0.032 C 
HETATM   41  C24 UNL     1     133.818  37.534 -27.992  1.00  0.00     0.032 C 
ENDBRANCH  37  39
ENDBRANCH  29  37
ENDBRANCH   1  22
TORSDOF 7
ENDMDL
MODEL 4
REMARK VINA RESULT: -8.251588628      1.935      4.340
REMARK  7 active torsions:
REMARK  status: ('A' for Active; 'I' for Inactive)
REMARK    1  A    between atoms: O1_2  and  C2_3 
REMARK    2  A    between atoms: C2_3  and  C3_4 
REMARK    3  A    between atoms: C3_4  and  N1_5 
REMARK    4  A    between atoms: C5_10  and  C6_11 
REMARK    5  A    between atoms: C10_15  and  C11_16 
REMARK    6  A    between atoms: C21_34  and  N7_35 
REMARK    7  A    between atoms: N7_35  and  C22_37 
ROOT
HETATM    1  C6  UNL     1     126.955  38.583 -25.822  1.00  0.00     0.037 A 
HETATM    2  C7  UNL     1     127.866  39.589 -26.209  1.00  0.00     0.018 A 
HETATM    3  C8  UNL     1     129.151  39.098 -26.148  1.00  0.00     0.016 A 
HETATM    4  C9  UNL     1     129.116  37.804 -25.734  1.00  0.00     0.006 A 
HETATM    5  C10 UNL     1     130.148  36.870 -25.506  1.00  0.00     0.026 A 
HETATM    6  C16 UNL     1     129.773  35.633 -25.073  1.00  0.00     0.080 A 
HETATM    7  C17 UNL     1     130.783  34.666 -24.699  1.00  0.00     0.102 C 
HETATM    8  N4  UNL     1     131.581  33.876 -24.353  1.00  0.00    -0.191 NA
HETATM    9  C18 UNL     1     128.439  35.336 -24.880  1.00  0.00     0.027 A 
HETATM   10  C19 UNL     1     128.117  33.961 -24.410  1.00  0.00     0.070 C 
HETATM   11  N5  UNL     1     127.457  36.229 -25.100  1.00  0.00    -0.357 N 
ATOM     12  H5  UNL     1     126.489  35.951 -24.939  1.00  0.00     0.166 HD
HETATM   13  C20 UNL     1     127.716  37.481 -25.528  1.00  0.00     0.058 A 
ENDROOT
BRANCH   5  14
HETATM   14  C11 UNL     1     131.504  37.358 -25.678  1.00  0.00     0.054 A 
HETATM   15  N3  UNL     1     132.173  38.190 -24.829  1.00  0.00    -0.362 N 
HETATM   16  C12 UNL     1     133.354  38.554 -25.333  1.00  0.00     0.131 A 
ATOM     17  H3  UNL     1     131.817  38.494 -23.924  1.00  0.00     0.165 HD
HETATM   18  C13 UNL     1     133.512  37.968 -26.554  1.00  0.00     0.139 A 
HETATM   19  F1  UNL     1     134.568  38.080 -27.389  1.00  0.00    -0.204 F 
HETATM   20  C14 UNL     1     132.333  37.221 -26.752  1.00  0.00     0.006 A 
HETATM   21  C15 UNL     1     132.150  36.512 -28.055  1.00  0.00     0.054 C 
ENDBRANCH   5  14
BRANCH   1  22
HETATM   22  C5  UNL     1     125.514  38.779 -25.740  1.00  0.00     0.149 A 
HETATM   23  N2  UNL     1     124.632  38.032 -25.102  1.00  0.00    -0.175 N 
HETATM   24  C4  UNL     1     123.297  38.323 -25.033  1.00  0.00     0.694 A 
ATOM     25  H2  UNL     1     124.965  37.189 -24.634  1.00  0.00     0.186 HD
HETATM   26  N1  UNL     1     122.500  37.545 -24.389  1.00  0.00    -0.223 N 
HETATM   27  N8  UNL     1     122.843  39.430 -25.647  1.00  0.00    -0.022 N 
ATOM     28  H1  UNL     1     121.510  37.791 -24.357  1.00  0.00     0.177 HD
HETATM   29  C21 UNL     1     123.702  40.231 -26.315  1.00  0.00     0.694 A 
ATOM     30  H8  UNL     1     121.852  39.665 -25.607  1.00  0.00     0.203 HD
HETATM   31  N6  UNL     1     124.981  39.898 -26.347  1.00  0.00    -0.175 N 
ATOM     32  H6  UNL     1     125.618  40.511 -26.856  1.00  0.00     0.186 HD
BRANCH  26  33
HETATM   33  C3  UNL     1     122.923  36.350 -23.714  1.00  0.00     0.164 C 
BRANCH  33  34
HETATM   34  C2  UNL     1     123.049  36.529 -22.231  1.00  0.00     0.187 C 
BRANCH  34  35
HETATM   35  O1  UNL     1     124.042  35.763 -21.670  1.00  0.00    -0.394 OA
HETATM   36  C1  UNL     1     125.195  35.709 -22.428  1.00  0.00     0.201 C 
ENDBRANCH  34  35
ENDBRANCH  33  34
ENDBRANCH  26  33
BRANCH  29  37
HETATM   37  N7  UNL     1     123.247  41.295 -26.902  1.00  0.00    -0.222 N 
ATOM     38  H7  UNL     1     122.560  41.189 -27.648  1.00  0.00     0.178 HD
BRANCH  37  39
HETATM   39  C22 UNL     1     123.677  42.619 -26.541  1.00  0.00     0.091 C 
HETATM   40  C23 UNL     1     124.726  43.073 -27.526  1.00  0.00     0.032 C 
HETATM   41  C24 UNL     1     122.534  43.602 -26.530  1.00  0.00     0.032 C 
ENDBRANCH  37  39
ENDBRANCH  29  37
ENDBRANCH   1  22
TORSDOF 7
ENDMDL
MODEL 5
REMARK VINA RESULT: -8.248618509      2.607      4.524
REMARK  7 active torsions:
REMARK  status: ('A' for Active; 'I' for Inactive)
REMARK    1  A    between atoms: O1_2  and  C2_3 
REMARK    2  A    between atoms: C2_3  and  C3_4 
REMARK    3  A    between atoms: C3_4  and  N1_5 
REMARK    4  A    between atoms: C5_10  and  C6_11 
REMARK    5  A    between atoms: C10_15  and  C11_16 
REMARK    6  A    between atoms: C21_34  and  N7_35 
REMARK    7  A    between atoms: N7_35  and  C22_37 
ROOT
HETATM    1  C6  UNL     1     125.457  36.187 -24.944  1.00  0.00     0.037 A 
HETATM    2  C7  UNL     1     125.828  37.419 -25.523  1.00  0.00     0.018 A 
HETATM    3  C8  UNL     1     127.195  37.464 -25.681  1.00  0.00     0.016 A 
HETATM    4  C9  UNL     1     127.736  36.305 -25.223  1.00  0.00     0.006 A 
HETATM    5  C10 UNL     1     129.074  35.863 -25.155  1.00  0.00     0.026 A 
HETATM    6  C16 UNL     1     129.288  34.628 -24.620  1.00  0.00     0.080 A 
HETATM    7  C17 UNL     1     130.641  34.163 -24.403  1.00  0.00     0.102 C 
HETATM    8  N4  UNL     1     131.729  33.778 -24.181  1.00  0.00    -0.191 NA
HETATM    9  C18 UNL     1     128.226  33.866 -24.177  1.00  0.00     0.027 A 
HETATM   10  C19 UNL     1     128.547  32.529 -23.611  1.00  0.00     0.070 C 
HETATM   11  N5  UNL     1     126.950  34.290 -24.246  1.00  0.00    -0.357 N 
ATOM     12  H5  UNL     1     126.207  33.682 -23.902  1.00  0.00     0.166 HD
HETATM   13  C20 UNL     1     126.626  35.495 -24.756  1.00  0.00     0.058 A 
ENDROOT
BRANCH   5  14
HETATM   14  C11 UNL     1     130.084  36.811 -25.588  1.00  0.00     0.054 A 
HETATM   15  N3  UNL     1     130.759  36.784 -26.774  1.00  0.00    -0.362 N 
HETATM   16  C12 UNL     1     131.711  37.718 -26.816  1.00  0.00     0.131 A 
ATOM     17  H3  UNL     1     130.560  36.132 -27.532  1.00  0.00     0.165 HD
HETATM   18  C13 UNL     1     131.701  38.410 -25.640  1.00  0.00     0.139 A 
HETATM   19  F1  UNL     1     132.505  39.435 -25.285  1.00  0.00    -0.204 F 
HETATM   20  C14 UNL     1     130.671  37.820 -24.881  1.00  0.00     0.006 A 
HETATM   21  C15 UNL     1     130.451  38.302 -23.483  1.00  0.00     0.054 C 
ENDBRANCH   5  14
BRANCH   1  22
HETATM   22  C5  UNL     1     124.087  35.826 -24.607  1.00  0.00     0.149 A 
HETATM   23  N2  UNL     1     123.593  34.615 -24.419  1.00  0.00    -0.175 N 
HETATM   24  C4  UNL     1     122.299  34.372 -24.050  1.00  0.00     0.694 A 
ATOM     25  H2  UNL     1     124.213  33.817 -24.555  1.00  0.00     0.186 HD
HETATM   26  N1  UNL     1     121.893  33.163 -23.884  1.00  0.00    -0.223 N 
HETATM   27  N8  UNL     1     121.470  35.414 -23.868  1.00  0.00    -0.022 N 
ATOM     28  H1  UNL     1     120.921  33.015 -23.609  1.00  0.00     0.177 HD
HETATM   29  C21 UNL     1     121.922  36.675 -24.048  1.00  0.00     0.694 A 
ATOM     30  H8  UNL     1     120.501  35.254 -23.594  1.00  0.00     0.203 HD
HETATM   31  N6  UNL     1     123.184  36.849 -24.404  1.00  0.00    -0.175 N 
ATOM     32  H6  UNL     1     123.511  37.805 -24.537  1.00  0.00     0.186 HD
BRANCH  26  33
HETATM   33  C3  UNL     1     122.729  32.008 -24.063  1.00  0.00     0.164 C 
BRANCH  33  34
HETATM   34  C2  UNL     1     122.731  31.097 -22.873  1.00  0.00     0.187 C 
BRANCH  34  35
HETATM   35  O1  UNL     1     123.982  30.634 -22.541  1.00  0.00    -0.394 OA
HETATM   36  C1  UNL     1     125.006  31.463 -22.954  1.00  0.00     0.201 C 
ENDBRANCH  34  35
ENDBRANCH  33  34
ENDBRANCH  26  33
BRANCH  29  37
HETATM   37  N7  UNL     1     121.109  37.670 -23.869  1.00  0.00    -0.222 N 
ATOM     38  H7  UNL     1     120.211  37.665 -24.353  1.00  0.00     0.178 HD
BRANCH  37  39
HETATM   39  C22 UNL     1     121.426  38.780 -23.012  1.00  0.00     0.091 C 
HETATM   40  C23 UNL     1     120.199  39.647 -22.869  1.00  0.00     0.032 C 
HETATM   41  C24 UNL     1     121.889  38.330 -21.650  1.00  0.00     0.032 C 
ENDBRANCH  37  39
ENDBRANCH  29  37
ENDBRANCH   1  22
TORSDOF 7
ENDMDL
