MODEL 1
REMARK VINA RESULT: -8.257809012      0.000      0.000
REMARK  8 active torsions:
REMARK  status: ('A' for Active; 'I' for Inactive)
REMARK    1  A    between atoms: C2_2  and  C3_3 
REMARK    2  A    between atoms: C2_2  and  C4_6 
REMARK    3  A    between atoms: C3_3  and  O1_4 
REMARK    4  A    between atoms: C15_18  and  C16_19 
REMARK    5  A    between atoms: C16_19  and  O2_20 
REMARK    6  A    between atoms: C19_26  and  N2_27 
REMARK       I    between atoms: N2_27  and  C20_29 
REMARK       I    between atoms: C20_29  and  N3_31 
REMARK    7  A    between atoms: N3_31  and  O4_33 
REMARK    8  A    between atoms: O4_33  and  C21_34 
ROOT
HETATM    1  C4  UNL     1     130.637  38.840 -23.095  1.00  0.00     0.022 C 
HETATM    2  C5  UNL     1     131.400  39.711 -24.229  1.00  0.00     0.010 C 
HETATM    3  C6  UNL     1     131.571  38.798 -25.375  1.00  0.00     0.010 C 
HETATM    4  C7  UNL     1     131.236  37.459 -24.800  1.00  0.00    -0.038 C 
HETATM    5  C8  UNL     1     132.444  37.089 -23.937  1.00  0.00     0.015 C 
HETATM    6  C9  UNL     1     131.100  36.387 -25.782  1.00  0.00     0.013 C 
HETATM    7  C10 UNL     1     129.715  36.200 -26.262  1.00  0.00     0.046 C 
HETATM    8  C11 UNL     1     128.945  36.037 -24.965  1.00  0.00     0.126 C 
HETATM    9  F1  UNL     1     129.757  35.274 -24.124  1.00  0.00    -0.241 F 
HETATM   10  C12 UNL     1     127.732  35.224 -25.203  1.00  0.00     0.037 C 
HETATM   11  C13 UNL     1     127.400  34.281 -24.056  1.00  0.00     0.011 C 
HETATM   12  C14 UNL     1     125.906  34.449 -23.836  1.00  0.00     0.034 C 
HETATM   13  C15 UNL     1     125.781  35.920 -24.134  1.00  0.00     0.058 C 
HETATM   14  N1  UNL     1     126.616  36.568 -23.133  1.00  0.00    -0.389 N 
ATOM     15  H1  UNL     1     126.240  36.562 -22.185  1.00  0.00     0.159 HD
HETATM   16  C17 UNL     1     127.756  37.149 -23.266  1.00  0.00     0.076 C 
HETATM   17  C18 UNL     1     128.740  37.441 -24.330  1.00  0.00     0.075 C 
HETATM   18  C19 UNL     1     127.879  38.151 -25.253  1.00  0.00     0.028 C 
HETATM   19  C23 UNL     1     126.837  37.407 -25.772  1.00  0.00     0.007 C 
HETATM   20  C24 UNL     1     126.537  36.013 -25.470  1.00  0.00     0.047 C 
HETATM   21  C25 UNL     1     130.058  37.806 -23.906  1.00  0.00     0.025 C 
ENDROOT
BRANCH  18  22
HETATM   22  N2  UNL     1     127.617  39.461 -25.592  1.00  0.00    -0.310 N 
HETATM   23  C20 UNL     1     128.002  40.639 -26.168  1.00  0.00     0.344 C 
HETATM   24  O3  UNL     1     128.990  41.079 -26.680  1.00  0.00    -0.245 OA
HETATM   25  N3  UNL     1     126.833  41.608 -26.123  1.00  0.00    -0.216 N 
ATOM     26  H3  UNL     1     125.937  41.368 -25.699  1.00  0.00     0.199 HD
ATOM     27  H2  UNL     1     126.676  39.639 -25.240  1.00  0.00     0.170 HD
BRANCH  25  28
HETATM   28  O4  UNL     1     127.081  42.869 -26.713  1.00  0.00    -0.277 OA
BRANCH  28  29
HETATM   29  C21 UNL     1     125.694  43.374 -26.738  1.00  0.00     0.197 C 
HETATM   30  C22 UNL     1     124.956  42.380 -27.568  1.00  0.00     0.036 C 
ENDBRANCH  28  29
ENDBRANCH  25  28
ENDBRANCH  18  22
BRANCH   1  31
HETATM   31  C2  UNL     1     130.064  39.830 -22.249  1.00  0.00    -0.061 C 
HETATM   32  C1  UNL     1     129.460  40.929 -22.756  1.00  0.00     0.017 C 
BRANCH  31  33
HETATM   33  C3  UNL     1     129.836  39.671 -20.803  1.00  0.00     0.198 C 
BRANCH  33  34
HETATM   34  O1  UNL     1     128.515  39.341 -20.467  1.00  0.00    -0.397 OA
ATOM     35  H1  UNL     1     128.356  38.407 -20.396  1.00  0.00     0.209 HD
ENDBRANCH  33  34
ENDBRANCH  31  33
ENDBRANCH   1  31
BRANCH  13  36
HETATM   36  C16 UNL     1     124.435  36.457 -24.170  1.00  0.00     0.195 C 
BRANCH  36  37
HETATM   37  O2  UNL     1     123.665  35.821 -25.127  1.00  0.00    -0.398 OA
ATOM     38  H2  UNL     1     122.874  36.313 -25.316  1.00  0.00     0.209 HD
ENDBRANCH  36  37
ENDBRANCH  13  36
TORSDOF 8
ENDMDL
MODEL 2
REMARK VINA RESULT: -8.161378975      0.859      1.148
REMARK  8 active torsions:
REMARK  status: ('A' for Active; 'I' for Inactive)
REMARK    1  A    between atoms: C2_2  and  C3_3 
REMARK    2  A    between atoms: C2_2  and  C4_6 
REMARK    3  A    between atoms: C3_3  and  O1_4 
REMARK    4  A    between atoms: C15_18  and  C16_19 
REMARK    5  A    between atoms: C16_19  and  O2_20 
REMARK    6  A    between atoms: C19_26  and  N2_27 
REMARK       I    between atoms: N2_27  and  C20_29 
REMARK       I    between atoms: C20_29  and  N3_31 
REMARK    7  A    between atoms: N3_31  and  O4_33 
REMARK    8  A    between atoms: O4_33  and  C21_34 
ROOT
HETATM    1  C4  UNL     1     130.493  38.967 -23.031  1.00  0.00     0.022 C 
HETATM    2  C5  UNL     1     131.256  39.841 -24.161  1.00  0.00     0.010 C 
HETATM    3  C6  UNL     1     131.480  38.915 -25.288  1.00  0.00     0.010 C 
HETATM    4  C7  UNL     1     131.172  37.577 -24.698  1.00  0.00    -0.038 C 
HETATM    5  C8  UNL     1     132.369  37.256 -23.801  1.00  0.00     0.015 C 
HETATM    6  C9  UNL     1     131.090  36.485 -25.665  1.00  0.00     0.013 C 
HETATM    7  C10 UNL     1     129.723  36.250 -26.173  1.00  0.00     0.046 C 
HETATM    8  C11 UNL     1     128.928  36.085 -24.892  1.00  0.00     0.126 C 
HETATM    9  F1  UNL     1     129.742  35.360 -24.020  1.00  0.00    -0.241 F 
HETATM   10  C12 UNL     1     127.745  35.233 -25.143  1.00  0.00     0.037 C 
HETATM   11  C13 UNL     1     127.414  34.298 -23.989  1.00  0.00     0.011 C 
HETATM   12  C14 UNL     1     125.911  34.426 -23.806  1.00  0.00     0.034 C 
HETATM   13  C15 UNL     1     125.750  35.887 -24.130  1.00  0.00     0.058 C 
HETATM   14  N1  UNL     1     126.542  36.576 -23.122  1.00  0.00    -0.389 N 
ATOM     15  H1  UNL     1     126.145  36.574 -22.183  1.00  0.00     0.159 HD
HETATM   16  C17 UNL     1     127.668  37.188 -23.239  1.00  0.00     0.076 C 
HETATM   17  C18 UNL     1     128.668  37.493 -24.285  1.00  0.00     0.075 C 
HETATM   18  C19 UNL     1     127.807  38.162 -25.239  1.00  0.00     0.028 C 
HETATM   19  C23 UNL     1     126.800  37.379 -25.769  1.00  0.00     0.007 C 
HETATM   20  C24 UNL     1     126.534  35.981 -25.450  1.00  0.00     0.047 C 
HETATM   21  C25 UNL     1     129.964  37.903 -23.837  1.00  0.00     0.025 C 
ENDROOT
BRANCH  18  22
HETATM   22  N2  UNL     1     127.515  39.458 -25.605  1.00  0.00    -0.310 N 
HETATM   23  C20 UNL     1     127.751  40.554 -26.387  1.00  0.00     0.344 C 
HETATM   24  O3  UNL     1     128.542  40.874 -27.226  1.00  0.00    -0.245 OA
HETATM   25  N3  UNL     1     126.708  41.612 -26.070  1.00  0.00    -0.216 N 
ATOM     26  H3  UNL     1     125.986  41.476 -25.363  1.00  0.00     0.199 HD
ATOM     27  H2  UNL     1     126.747  39.736 -24.993  1.00  0.00     0.170 HD
BRANCH  25  28
HETATM   28  O4  UNL     1     126.814  42.799 -26.830  1.00  0.00    -0.277 OA
BRANCH  28  29
HETATM   29  C21 UNL     1     127.120  43.735 -25.730  1.00  0.00     0.197 C 
HETATM   30  C22 UNL     1     128.470  44.270 -26.068  1.00  0.00     0.036 C 
ENDBRANCH  28  29
ENDBRANCH  25  28
ENDBRANCH  18  22
BRANCH   1  31
HETATM   31  C2  UNL     1     129.873  39.952 -22.214  1.00  0.00    -0.061 C 
HETATM   32  C1  UNL     1     130.028  39.955 -20.870  1.00  0.00     0.017 C 
BRANCH  31  33
HETATM   33  C3  UNL     1     129.231  41.179 -22.714  1.00  0.00     0.198 C 
BRANCH  33  34
HETATM   34  O1  UNL     1     127.876  41.023 -23.038  1.00  0.00    -0.397 OA
ATOM     35  H1  UNL     1     127.382  41.835 -23.034  1.00  0.00     0.209 HD
ENDBRANCH  33  34
ENDBRANCH  31  33
ENDBRANCH   1  31
BRANCH  13  36
HETATM   36  C16 UNL     1     124.390  36.384 -24.206  1.00  0.00     0.195 C 
BRANCH  36  37
HETATM   37  O2  UNL     1     123.624  35.622 -25.068  1.00  0.00    -0.398 OA
ATOM     38  H2  UNL     1     122.995  35.090 -24.594  1.00  0.00     0.209 HD
ENDBRANCH  36  37
ENDBRANCH  13  36
TORSDOF 8
ENDMDL
MODEL 3
REMARK VINA RESULT: -7.761720327      2.359      5.449
REMARK  8 active torsions:
REMARK  status: ('A' for Active; 'I' for Inactive)
REMARK    1  A    between atoms: C2_2  and  C3_3 
REMARK    2  A    between atoms: C2_2  and  C4_6 
REMARK    3  A    between atoms: C3_3  and  O1_4 
REMARK    4  A    between atoms: C15_18  and  C16_19 
REMARK    5  A    between atoms: C16_19  and  O2_20 
REMARK    6  A    between atoms: C19_26  and  N2_27 
REMARK       I    between atoms: N2_27  and  C20_29 
REMARK       I    between atoms: C20_29  and  N3_31 
REMARK    7  A    between atoms: N3_31  and  O4_33 
REMARK    8  A    between atoms: O4_33  and  C21_34 
ROOT
HETATM    1  C4  UNL     1     125.772  39.192 -26.242  1.00  0.00     0.022 C 
HETATM    2  C5  UNL     1     124.606  39.200 -25.118  1.00  0.00     0.010 C 
HETATM    3  C6  UNL     1     124.885  38.037 -24.255  1.00  0.00     0.010 C 
HETATM    4  C7  UNL     1     125.908  37.271 -25.031  1.00  0.00    -0.038 C 
HETATM    5  C8  UNL     1     125.128  36.619 -26.174  1.00  0.00     0.015 C 
HETATM    6  C9  UNL     1     126.540  36.177 -24.299  1.00  0.00     0.013 C 
HETATM    7  C10 UNL     1     127.786  36.572 -23.610  1.00  0.00     0.046 C 
HETATM    8  C11 UNL     1     128.592  37.194 -24.734  1.00  0.00     0.126 C 
HETATM    9  F1  UNL     1     128.354  36.409 -25.863  1.00  0.00    -0.241 F 
HETATM   10  C12 UNL     1     130.037  37.060 -24.447  1.00  0.00     0.037 C 
HETATM   11  C13 UNL     1     130.879  36.782 -25.684  1.00  0.00     0.011 C 
HETATM   12  C14 UNL     1     132.065  37.724 -25.565  1.00  0.00     0.034 C 
HETATM   13  C15 UNL     1     131.375  38.905 -24.935  1.00  0.00     0.058 C 
HETATM   14  N1  UNL     1     130.378  39.311 -25.914  1.00  0.00    -0.389 N 
ATOM     15  H1  UNL     1     130.749  39.765 -26.748  1.00  0.00     0.159 HD
HETATM   16  C17 UNL     1     129.098  39.184 -25.883  1.00  0.00     0.076 C 
HETATM   17  C18 UNL     1     128.054  38.629 -24.995  1.00  0.00     0.075 C 
HETATM   18  C19 UNL     1     128.359  39.371 -23.789  1.00  0.00     0.028 C 
HETATM   19  C23 UNL     1     129.608  39.128 -23.251  1.00  0.00     0.007 C 
HETATM   20  C24 UNL     1     130.616  38.221 -23.786  1.00  0.00     0.047 C 
HETATM   21  C25 UNL     1     126.768  38.397 -25.580  1.00  0.00     0.025 C 
ENDROOT
BRANCH  18  22
HETATM   22  N2  UNL     1     127.868  40.477 -23.129  1.00  0.00    -0.310 N 
HETATM   23  C20 UNL     1     126.862  41.107 -22.452  1.00  0.00     0.344 C 
HETATM   24  O3  UNL     1     125.727  40.870 -22.155  1.00  0.00    -0.245 OA
HETATM   25  N3  UNL     1     127.369  42.455 -21.970  1.00  0.00    -0.216 N 
ATOM     26  H3  UNL     1     128.311  42.789 -22.168  1.00  0.00     0.199 HD
ATOM     27  H2  UNL     1     128.627  41.158 -23.160  1.00  0.00     0.170 HD
BRANCH  25  28
HETATM   28  O4  UNL     1     126.435  43.212 -21.225  1.00  0.00    -0.277 OA
BRANCH  28  29
HETATM   29  C21 UNL     1     126.314  44.366 -22.136  1.00  0.00     0.197 C 
HETATM   30  C22 UNL     1     124.869  44.726 -22.084  1.00  0.00     0.036 C 
ENDBRANCH  28  29
ENDBRANCH  25  28
ENDBRANCH  18  22
BRANCH   1  31
HETATM   31  C2  UNL     1     125.777  40.530 -26.724  1.00  0.00    -0.061 C 
HETATM   32  C1  UNL     1     125.437  40.822 -28.001  1.00  0.00     0.017 C 
BRANCH  31  33
HETATM   33  C3  UNL     1     125.891  41.729 -25.877  1.00  0.00     0.198 C 
BRANCH  33  34
HETATM   34  O1  UNL     1     127.206  42.183 -25.705  1.00  0.00    -0.397 OA
ATOM     35  H1  UNL     1     127.646  42.411 -26.516  1.00  0.00     0.209 HD
ENDBRANCH  33  34
ENDBRANCH  31  33
ENDBRANCH   1  31
BRANCH  13  36
HETATM   36  C16 UNL     1     132.228  40.001 -24.520  1.00  0.00     0.195 C 
BRANCH  36  37
HETATM   37  O2  UNL     1     131.984  41.139 -25.266  1.00  0.00    -0.398 OA
ATOM     38  H2  UNL     1     131.616  40.924 -26.116  1.00  0.00     0.209 HD
ENDBRANCH  36  37
ENDBRANCH  13  36
TORSDOF 8
ENDMDL
MODEL 4
REMARK VINA RESULT: -7.620036739      2.325      5.348
REMARK  8 active torsions:
REMARK  status: ('A' for Active; 'I' for Inactive)
REMARK    1  A    between atoms: C2_2  and  C3_3 
REMARK    2  A    between atoms: C2_2  and  C4_6 
REMARK    3  A    between atoms: C3_3  and  O1_4 
REMARK    4  A    between atoms: C15_18  and  C16_19 
REMARK    5  A    between atoms: C16_19  and  O2_20 
REMARK    6  A    between atoms: C19_26  and  N2_27 
REMARK       I    between atoms: N2_27  and  C20_29 
REMARK       I    between atoms: C20_29  and  N3_31 
REMARK    7  A    between atoms: N3_31  and  O4_33 
REMARK    8  A    between atoms: O4_33  and  C21_34 
ROOT
HETATM    1  C4  UNL     1     125.885  38.997 -26.459  1.00  0.00     0.022 C 
HETATM    2  C5  UNL     1     124.896  39.476 -25.269  1.00  0.00     0.010 C 
HETATM    3  C6  UNL     1     125.068  38.481 -24.193  1.00  0.00     0.010 C 
HETATM    4  C7  UNL     1     125.825  37.379 -24.862  1.00  0.00    -0.038 C 
HETATM    5  C8  UNL     1     124.797  36.682 -25.756  1.00  0.00     0.015 C 
HETATM    6  C9  UNL     1     126.337  36.351 -23.960  1.00  0.00     0.013 C 
HETATM    7  C10 UNL     1     127.712  36.613 -23.489  1.00  0.00     0.046 C 
HETATM    8  C11 UNL     1     128.465  36.812 -24.791  1.00  0.00     0.126 C 
HETATM    9  F1  UNL     1     127.943  35.879 -25.688  1.00  0.00    -0.241 F 
HETATM   10  C12 UNL     1     129.886  36.444 -24.608  1.00  0.00     0.037 C 
HETATM   11  C13 UNL     1     130.495  35.752 -25.819  1.00  0.00     0.011 C 
HETATM   12  C14 UNL     1     131.839  36.432 -26.019  1.00  0.00     0.034 C 
HETATM   13  C15 UNL     1     131.464  37.833 -25.615  1.00  0.00     0.058 C 
HETATM   14  N1  UNL     1     130.438  38.229 -26.569  1.00  0.00    -0.389 N 
ATOM     15  H1  UNL     1     130.774  38.416 -27.514  1.00  0.00     0.159 HD
HETATM   16  C17 UNL     1     129.172  38.377 -26.399  1.00  0.00     0.076 C 
HETATM   17  C18 UNL     1     128.169  38.242 -25.321  1.00  0.00     0.075 C 
HETATM   18  C19 UNL     1     128.758  39.136 -24.345  1.00  0.00     0.028 C 
HETATM   19  C23 UNL     1     130.000  38.756 -23.878  1.00  0.00     0.007 C 
HETATM   20  C24 UNL     1     130.749  37.571 -24.279  1.00  0.00     0.047 C 
HETATM   21  C25 UNL     1     126.797  38.167 -25.724  1.00  0.00     0.025 C 
ENDROOT
BRANCH  18  22
HETATM   22  N2  UNL     1     128.567  40.431 -23.912  1.00  0.00    -0.310 N 
HETATM   23  C20 UNL     1     128.684  41.388 -22.944  1.00  0.00     0.344 C 
HETATM   24  O3  UNL     1     129.051  41.440 -21.806  1.00  0.00    -0.245 OA
HETATM   25  N3  UNL     1     128.213  42.716 -23.513  1.00  0.00    -0.216 N 
ATOM     26  H3  UNL     1     127.858  42.810 -24.465  1.00  0.00     0.199 HD
ATOM     27  H2  UNL     1     128.121  40.906 -24.696  1.00  0.00     0.170 HD
BRANCH  25  28
HETATM   28  O4  UNL     1     128.303  43.811 -22.624  1.00  0.00    -0.277 OA
BRANCH  28  29
HETATM   29  C21 UNL     1     126.920  44.308 -22.750  1.00  0.00     0.197 C 
HETATM   30  C22 UNL     1     126.228  43.782 -21.539  1.00  0.00     0.036 C 
ENDBRANCH  28  29
ENDBRANCH  25  28
ENDBRANCH  18  22
BRANCH   1  31
HETATM   31  C2  UNL     1     126.071  40.179 -27.229  1.00  0.00    -0.061 C 
HETATM   32  C1  UNL     1     125.675  40.249 -28.521  1.00  0.00     0.017 C 
BRANCH  31  33
HETATM   33  C3  UNL     1     126.457  41.489 -26.681  1.00  0.00     0.198 C 
BRANCH  33  34
HETATM   34  O1  UNL     1     127.841  41.667 -26.547  1.00  0.00    -0.397 OA
ATOM     35  H1  UNL     1     128.125  41.834 -25.656  1.00  0.00     0.209 HD
ENDBRANCH  33  34
ENDBRANCH  31  33
ENDBRANCH   1  31
BRANCH  13  36
HETATM   36  C16 UNL     1     132.549  38.792 -25.534  1.00  0.00     0.195 C 
BRANCH  36  37
HETATM   37  O2  UNL     1     133.514  38.384 -24.633  1.00  0.00    -0.398 OA
ATOM     38  H2  UNL     1     133.234  38.529 -23.736  1.00  0.00     0.209 HD
ENDBRANCH  36  37
ENDBRANCH  13  36
TORSDOF 8
ENDMDL
MODEL 5
REMARK VINA RESULT: -7.566393814      2.083      4.590
REMARK  8 active torsions:
REMARK  status: ('A' for Active; 'I' for Inactive)
REMARK    1  A    between atoms: C2_2  and  C3_3 
REMARK    2  A    between atoms: C2_2  and  C4_6 
REMARK    3  A    between atoms: C3_3  and  O1_4 
REMARK    4  A    between atoms: C15_18  and  C16_19 
REMARK    5  A    between atoms: C16_19  and  O2_20 
REMARK    6  A    between atoms: C19_26  and  N2_27 
REMARK       I    between atoms: N2_27  and  C20_29 
REMARK       I    between atoms: C20_29  and  N3_31 
REMARK    7  A    between atoms: N3_31  and  O4_33 
REMARK    8  A    between atoms: O4_33  and  C21_34 
ROOT
HETATM    1  C4  UNL     1     127.112  38.177 -22.458  1.00  0.00     0.022 C 
HETATM    2  C5  UNL     1     126.488  39.668 -22.339  1.00  0.00     0.010 C 
HETATM    3  C6  UNL     1     127.649  40.569 -22.211  1.00  0.00     0.010 C 
HETATM    4  C7  UNL     1     128.783  39.633 -21.945  1.00  0.00    -0.038 C 
HETATM    5  C8  UNL     1     128.590  39.181 -20.496  1.00  0.00     0.015 C 
HETATM    6  C9  UNL     1     130.109  40.243 -22.004  1.00  0.00     0.013 C 
HETATM    7  C10 UNL     1     130.737  40.159 -23.338  1.00  0.00     0.046 C 
HETATM    8  C11 UNL     1     130.658  38.674 -23.638  1.00  0.00     0.126 C 
HETATM    9  F1  UNL     1     130.923  38.020 -22.434  1.00  0.00    -0.241 F 
HETATM   10  C12 UNL     1     131.753  38.291 -24.556  1.00  0.00     0.037 C 
HETATM   11  C13 UNL     1     132.344  36.921 -24.256  1.00  0.00     0.011 C 
HETATM   12  C14 UNL     1     132.453  36.240 -25.610  1.00  0.00     0.034 C 
HETATM   13  C15 UNL     1     131.213  36.795 -26.260  1.00  0.00     0.058 C 
HETATM   14  N1  UNL     1     130.118  36.315 -25.429  1.00  0.00    -0.389 N 
ATOM     15  H1  UNL     1     129.914  35.320 -25.512  1.00  0.00     0.159 HD
HETATM   16  C17 UNL     1     129.369  36.960 -24.606  1.00  0.00     0.076 C 
HETATM   17  C18 UNL     1     129.209  38.336 -24.087  1.00  0.00     0.075 C 
HETATM   18  C19 UNL     1     129.030  39.036 -25.342  1.00  0.00     0.028 C 
HETATM   19  C23 UNL     1     130.110  38.983 -26.202  1.00  0.00     0.007 C 
HETATM   20  C24 UNL     1     131.372  38.295 -25.962  1.00  0.00     0.047 C 
HETATM   21  C25 UNL     1     128.448  38.486 -22.884  1.00  0.00     0.025 C 
ENDROOT
BRANCH  18  22
HETATM   22  N2  UNL     1     127.981  39.545 -26.079  1.00  0.00    -0.310 N 
HETATM   23  C20 UNL     1     127.348  40.600 -26.672  1.00  0.00     0.344 C 
HETATM   24  O3  UNL     1     127.500  41.785 -26.738  1.00  0.00    -0.245 OA
HETATM   25  N3  UNL     1     126.143  40.079 -27.436  1.00  0.00    -0.216 N 
ATOM     26  H3  UNL     1     125.888  39.092 -27.450  1.00  0.00     0.199 HD
ATOM     27  H2  UNL     1     127.388  38.739 -26.279  1.00  0.00     0.170 HD
BRANCH  25  28
HETATM   28  O4  UNL     1     125.402  41.065 -28.127  1.00  0.00    -0.277 OA
BRANCH  28  29
HETATM   29  C21 UNL     1     124.208  41.087 -27.261  1.00  0.00     0.197 C 
HETATM   30  C22 UNL     1     124.055  42.521 -26.882  1.00  0.00     0.036 C 
ENDBRANCH  28  29
ENDBRANCH  25  28
ENDBRANCH  18  22
BRANCH   1  31
HETATM   31  C2  UNL     1     126.063  37.427 -23.056  1.00  0.00    -0.061 C 
HETATM   32  C1  UNL     1     125.562  36.317 -22.466  1.00  0.00     0.017 C 
BRANCH  31  33
HETATM   33  C3  UNL     1     125.253  37.876 -24.201  1.00  0.00     0.198 C 
BRANCH  33  34
HETATM   34  O1  UNL     1     125.828  37.603 -25.450  1.00  0.00    -0.397 OA
ATOM     35  H1  UNL     1     125.205  37.317 -26.108  1.00  0.00     0.209 HD
ENDBRANCH  33  34
ENDBRANCH  31  33
ENDBRANCH   1  31
BRANCH  13  36
HETATM   36  C16 UNL     1     131.026  36.480 -27.663  1.00  0.00     0.195 C 
BRANCH  36  37
HETATM   37  O2  UNL     1     131.701  35.326 -28.014  1.00  0.00    -0.398 OA
ATOM     38  H2  UNL     1     132.494  35.523 -28.501  1.00  0.00     0.209 HD
ENDBRANCH  36  37
ENDBRANCH  13  36
TORSDOF 8
ENDMDL
