MODEL 1
REMARK VINA RESULT: -8.731279956      0.000      0.000
REMARK  8 active torsions:
REMARK  status: ('A' for Active; 'I' for Inactive)
REMARK    1  A    between atoms: C2_2  and  C3_3 
REMARK    2  A    between atoms: C4_4  and  C5_5 
REMARK    3  A    between atoms: C5_5  and  C6_6 
REMARK    4  A    between atoms: C6_6  and  C7_7 
REMARK    5  A    between atoms: C13_17  and  C14_18 
REMARK    6  A    between atoms: C14_18  and  C15_19 
REMARK    7  A    between atoms: C15_19  and  N3_20 
REMARK    8  A    between atoms: C19_24  and  N4_25 
ROOT
HETATM    1  C14 UNL     1     126.620  39.074 -25.276  1.00  0.00     0.035 C 
ENDROOT
BRANCH   1   2
HETATM    2  C13 UNL     1     125.487  38.360 -24.525  1.00  0.00    -0.012 C 
HETATM    3  C12 UNL     1     125.492  38.712 -23.111  1.00  0.00     0.005 C 
HETATM    4  C11 UNL     1     125.565  37.627 -22.089  1.00  0.00     0.002 C 
HETATM    5  C10 UNL     1     125.000  36.301 -22.426  1.00  0.00     0.017 C 
HETATM    6  C6  UNL     1     124.552  36.193 -23.866  1.00  0.00     0.014 C 
HETATM    7  C25 UNL     1     125.531  36.886 -24.776  1.00  0.00     0.021 C 
BRANCH   6   8
HETATM    8  C5  UNL     1     124.472  34.710 -24.190  1.00  0.00     0.109 C 
BRANCH   8   9
HETATM    9  C4  UNL     1     125.740  34.139 -23.724  1.00  0.00    -0.105 C 
HETATM   10  C3  UNL     1     126.797  33.688 -23.348  1.00  0.00    -0.107 C 
BRANCH  10  11
HETATM   11  C2  UNL     1     128.106  33.164 -22.877  1.00  0.00     0.089 C 
HETATM   12  C1  UNL     1     128.741  32.293 -23.964  1.00  0.00     0.018 C 
ENDBRANCH  10  11
ENDBRANCH   8   9
ENDBRANCH   6   8
BRANCH   6  13
HETATM   13  C7  UNL     1     123.190  36.734 -24.047  1.00  0.00     0.036 A 
HETATM   14  C8  UNL     1     122.233  36.880 -23.054  1.00  0.00     0.046 A 
HETATM   15  C9  UNL     1     121.084  37.424 -23.645  1.00  0.00     0.109 A 
HETATM   16  N1  UNL     1     121.372  37.587 -24.935  1.00  0.00    -0.312 N 
HETATM   17  N2  UNL     1     122.606  37.182 -25.166  1.00  0.00    -0.304 N 
ATOM     18  H1  UNL     1     120.737  37.968 -25.637  1.00  0.00     0.186 HD
ATOM     19  H2  UNL     1     123.058  37.205 -26.081  1.00  0.00     0.186 HD
ENDBRANCH   6  13
ENDBRANCH   1   2
BRANCH   1  20
HETATM   20  C15 UNL     1     127.517  39.848 -24.392  1.00  0.00     0.273 C 
BRANCH  20  21
HETATM   21  N3  UNL     1     128.818  39.395 -24.155  1.00  0.00     0.090 N 
HETATM   22  C16 UNL     1     129.345  39.153 -22.882  1.00  0.00     0.272 C 
HETATM   23  C17 UNL     1     130.844  39.509 -22.988  1.00  0.00     0.032 C 
HETATM   24  C18 UNL     1     131.409  38.827 -24.188  1.00  0.00     0.029 C 
HETATM   25  C19 UNL     1     130.511  37.793 -24.814  1.00  0.00     0.122 C 
HETATM   26  C24 UNL     1     129.150  38.246 -25.075  1.00  0.00     0.298 C 
BRANCH  25  27
HETATM   27  N4  UNL     1     131.149  37.078 -25.857  1.00  0.00    -0.300 N 
HETATM   28  C20 UNL     1     132.062  37.689 -26.682  1.00  0.00     0.142 A 
HETATM   29  C21 UNL     1     132.748  37.035 -27.673  1.00  0.00     0.175 A 
HETATM   30  F1  UNL     1     133.636  37.760 -28.438  1.00  0.00    -0.201 F 
HETATM   31  C22 UNL     1     132.597  35.744 -27.931  1.00  0.00     0.143 A 
HETATM   32  N5  UNL     1     133.166  34.956 -28.756  1.00  0.00    -0.383 N 
HETATM   33  N6  UNL     1     131.666  35.115 -27.094  1.00  0.00    -0.292 N 
ATOM     34  H52 UNL     1     133.844  35.415 -29.366  1.00  0.00     0.157 HD
ATOM     35  H51 UNL     1     133.050  33.963 -28.955  1.00  0.00     0.157 HD
HETATM   36  C23 UNL     1     131.007  35.743 -26.142  1.00  0.00     0.328 A 
ATOM     37  H6  UNL     1     131.490  34.119 -27.229  1.00  0.00     0.172 HD
HETATM   38  O1  UNL     1     130.212  35.059 -25.473  1.00  0.00    -0.246 OA
ENDBRANCH  25  27
ENDBRANCH  20  21
ENDBRANCH   1  20
TORSDOF 8
ENDMDL
MODEL 2
REMARK VINA RESULT: -8.724719741      3.242      5.650
REMARK  8 active torsions:
REMARK  status: ('A' for Active; 'I' for Inactive)
REMARK    1  A    between atoms: C2_2  and  C3_3 
REMARK    2  A    between atoms: C4_4  and  C5_5 
REMARK    3  A    between atoms: C5_5  and  C6_6 
REMARK    4  A    between atoms: C6_6  and  C7_7 
REMARK    5  A    between atoms: C13_17  and  C14_18 
REMARK    6  A    between atoms: C14_18  and  C15_19 
REMARK    7  A    between atoms: C15_19  and  N3_20 
REMARK    8  A    between atoms: C19_24  and  N4_25 
ROOT
HETATM    1  C14 UNL     1     131.125  39.737 -23.449  1.00  0.00     0.035 C 
ENDROOT
BRANCH   1   2
HETATM    2  C13 UNL     1     129.784  40.418 -23.141  1.00  0.00    -0.012 C 
HETATM    3  C12 UNL     1     129.201  39.896 -21.912  1.00  0.00     0.005 C 
HETATM    4  C11 UNL     1     127.819  39.333 -21.941  1.00  0.00     0.002 C 
HETATM    5  C10 UNL     1     126.863  39.859 -22.941  1.00  0.00     0.017 C 
HETATM    6  C6  UNL     1     127.496  40.820 -23.922  1.00  0.00     0.014 C 
HETATM    7  C25 UNL     1     128.867  40.340 -24.320  1.00  0.00     0.021 C 
BRANCH   6   8
HETATM    8  C5  UNL     1     126.576  40.884 -25.129  1.00  0.00     0.109 C 
BRANCH   8   9
HETATM    9  C4  UNL     1     126.298  39.487 -25.483  1.00  0.00    -0.105 C 
HETATM   10  C3  UNL     1     126.046  38.341 -25.770  1.00  0.00    -0.107 C 
BRANCH  10  11
HETATM   11  C2  UNL     1     125.708  36.940 -26.136  1.00  0.00     0.089 C 
HETATM   12  C1  UNL     1     124.394  36.527 -25.466  1.00  0.00     0.018 C 
ENDBRANCH  10  11
ENDBRANCH   8   9
ENDBRANCH   6   8
BRANCH   6  13
HETATM   13  C7  UNL     1     127.557  42.189 -23.371  1.00  0.00     0.036 A 
HETATM   14  C8  UNL     1     126.671  42.739 -22.457  1.00  0.00     0.046 A 
HETATM   15  C9  UNL     1     127.082  44.055 -22.201  1.00  0.00     0.109 A 
HETATM   16  N1  UNL     1     128.171  44.253 -22.943  1.00  0.00    -0.312 N 
HETATM   17  N2  UNL     1     128.444  43.159 -23.626  1.00  0.00    -0.304 N 
ATOM     18  H1  UNL     1     128.710  45.119 -22.977  1.00  0.00     0.186 HD
ATOM     19  H2  UNL     1     129.231  43.063 -24.268  1.00  0.00     0.186 HD
ENDBRANCH   6  13
ENDBRANCH   1   2
BRANCH   1  20
HETATM   20  C15 UNL     1     131.428  39.659 -24.894  1.00  0.00     0.273 C 
BRANCH  20  21
HETATM   21  N3  UNL     1     131.473  38.413 -25.527  1.00  0.00     0.090 N 
HETATM   22  C16 UNL     1     132.558  37.956 -26.284  1.00  0.00     0.272 C 
HETATM   23  C17 UNL     1     131.938  37.082 -27.396  1.00  0.00     0.032 C 
HETATM   24  C18 UNL     1     130.988  36.119 -26.768  1.00  0.00     0.029 C 
HETATM   25  C19 UNL     1     131.063  36.040 -25.266  1.00  0.00     0.122 C 
HETATM   26  C24 UNL     1     131.012  37.328 -24.584  1.00  0.00     0.298 C 
BRANCH  25  27
HETATM   27  N4  UNL     1     130.246  35.012 -24.734  1.00  0.00    -0.300 N 
HETATM   28  C20 UNL     1     128.876  35.101 -24.774  1.00  0.00     0.142 A 
HETATM   29  C21 UNL     1     128.036  34.115 -24.323  1.00  0.00     0.175 A 
HETATM   30  F1  UNL     1     126.677  34.324 -24.415  1.00  0.00    -0.201 F 
HETATM   31  C22 UNL     1     128.468  32.976 -23.802  1.00  0.00     0.143 A 
HETATM   32  N5  UNL     1     127.863  31.935 -23.381  1.00  0.00    -0.383 N 
HETATM   33  N6  UNL     1     129.866  32.879 -23.756  1.00  0.00    -0.292 N 
ATOM     34  H52 UNL     1     126.847  32.005 -23.415  1.00  0.00     0.157 HD
ATOM     35  H51 UNL     1     128.196  31.058 -22.981  1.00  0.00     0.157 HD
HETATM   36  C23 UNL     1     130.672  33.826 -24.190  1.00  0.00     0.328 A 
ATOM     37  H6  UNL     1     130.279  32.032 -23.367  1.00  0.00     0.172 HD
HETATM   38  O1  UNL     1     131.892  33.606 -24.089  1.00  0.00    -0.246 OA
ENDBRANCH  25  27
ENDBRANCH  20  21
ENDBRANCH   1  20
TORSDOF 8
ENDMDL
MODEL 3
REMARK VINA RESULT: -8.567787173      2.991      5.594
REMARK  8 active torsions:
REMARK  status: ('A' for Active; 'I' for Inactive)
REMARK    1  A    between atoms: C2_2  and  C3_3 
REMARK    2  A    between atoms: C4_4  and  C5_5 
REMARK    3  A    between atoms: C5_5  and  C6_6 
REMARK    4  A    between atoms: C6_6  and  C7_7 
REMARK    5  A    between atoms: C13_17  and  C14_18 
REMARK    6  A    between atoms: C14_18  and  C15_19 
REMARK    7  A    between atoms: C15_19  and  N3_20 
REMARK    8  A    between atoms: C19_24  and  N4_25 
ROOT
HETATM    1  C14 UNL     1     131.998  40.380 -24.750  1.00  0.00     0.035 C 
ENDROOT
BRANCH   1   2
HETATM    2  C13 UNL     1     130.664  40.424 -23.991  1.00  0.00    -0.012 C 
HETATM    3  C12 UNL     1     130.767  39.737 -22.709  1.00  0.00     0.005 C 
HETATM    4  C11 UNL     1     129.816  38.632 -22.394  1.00  0.00     0.002 C 
HETATM    5  C10 UNL     1     128.469  38.663 -23.007  1.00  0.00     0.017 C 
HETATM    6  C6  UNL     1     128.301  39.774 -24.020  1.00  0.00     0.014 C 
HETATM    7  C25 UNL     1     129.548  39.922 -24.851  1.00  0.00     0.021 C 
BRANCH   6   8
HETATM    8  C5  UNL     1     127.114  39.397 -24.890  1.00  0.00     0.109 C 
BRANCH   8   9
HETATM    9  C4  UNL     1     126.161  38.741 -23.989  1.00  0.00    -0.105 C 
HETATM   10  C3  UNL     1     125.361  38.195 -23.265  1.00  0.00    -0.107 C 
BRANCH  10  11
HETATM   11  C2  UNL     1     124.374  37.500 -22.398  1.00  0.00     0.089 C 
HETATM   12  C1  UNL     1     124.653  35.994 -22.392  1.00  0.00     0.018 C 
ENDBRANCH  10  11
ENDBRANCH   8   9
ENDBRANCH   6   8
BRANCH   6  13
HETATM   13  C7  UNL     1     127.950  41.050 -23.365  1.00  0.00     0.036 A 
HETATM   14  C8  UNL     1     127.811  42.278 -23.995  1.00  0.00     0.046 A 
HETATM   15  C9  UNL     1     127.477  43.224 -23.015  1.00  0.00     0.109 A 
HETATM   16  N1  UNL     1     127.425  42.562 -21.861  1.00  0.00    -0.312 N 
HETATM   17  N2  UNL     1     127.703  41.289 -22.071  1.00  0.00    -0.304 N 
ATOM     18  H1  UNL     1     127.204  42.975 -20.955  1.00  0.00     0.186 HD
ATOM     19  H2  UNL     1     127.728  40.578 -21.339  1.00  0.00     0.186 HD
ENDBRANCH   6  13
ENDBRANCH   1   2
BRANCH   1  20
HETATM   20  C15 UNL     1     132.670  39.065 -24.685  1.00  0.00     0.273 C 
BRANCH  20  21
HETATM   21  N3  UNL     1     132.209  38.011 -25.480  1.00  0.00     0.090 N 
HETATM   22  C16 UNL     1     132.899  37.500 -26.585  1.00  0.00     0.272 C 
HETATM   23  C17 UNL     1     131.804  37.054 -27.578  1.00  0.00     0.032 C 
HETATM   24  C18 UNL     1     130.814  36.213 -26.844  1.00  0.00     0.029 C 
HETATM   25  C19 UNL     1     131.239  35.792 -25.462  1.00  0.00     0.122 C 
HETATM   26  C24 UNL     1     131.718  36.876 -24.613  1.00  0.00     0.298 C 
BRANCH  25  27
HETATM   27  N4  UNL     1     130.330  34.880 -24.868  1.00  0.00    -0.300 N 
HETATM   28  C20 UNL     1     128.973  35.078 -24.947  1.00  0.00     0.142 A 
HETATM   29  C21 UNL     1     128.047  34.203 -24.438  1.00  0.00     0.175 A 
HETATM   30  F1  UNL     1     126.712  34.515 -24.577  1.00  0.00    -0.201 F 
HETATM   31  C22 UNL     1     128.374  33.079 -23.818  1.00  0.00     0.143 A 
HETATM   32  N5  UNL     1     127.677  32.129 -23.330  1.00  0.00    -0.383 N 
HETATM   33  N6  UNL     1     129.757  32.873 -23.733  1.00  0.00    -0.292 N 
ATOM     34  H52 UNL     1     126.670  32.280 -23.392  1.00  0.00     0.157 HD
ATOM     35  H51 UNL     1     127.929  31.263 -22.853  1.00  0.00     0.157 HD
HETATM   36  C23 UNL     1     130.646  33.712 -24.222  1.00  0.00     0.328 A 
ATOM     37  H6  UNL     1     130.092  32.028 -23.267  1.00  0.00     0.172 HD
HETATM   38  O1  UNL     1     131.842  33.401 -24.076  1.00  0.00    -0.246 OA
ENDBRANCH  25  27
ENDBRANCH  20  21
ENDBRANCH   1  20
TORSDOF 8
ENDMDL
MODEL 4
REMARK VINA RESULT: -8.480129828      3.714      6.677
REMARK  8 active torsions:
REMARK  status: ('A' for Active; 'I' for Inactive)
REMARK    1  A    between atoms: C2_2  and  C3_3 
REMARK    2  A    between atoms: C4_4  and  C5_5 
REMARK    3  A    between atoms: C5_5  and  C6_6 
REMARK    4  A    between atoms: C6_6  and  C7_7 
REMARK    5  A    between atoms: C13_17  and  C14_18 
REMARK    6  A    between atoms: C14_18  and  C15_19 
REMARK    7  A    between atoms: C15_19  and  N3_20 
REMARK    8  A    between atoms: C19_24  and  N4_25 
ROOT
HETATM    1  C14 UNL     1     131.257  39.769 -23.527  1.00  0.00     0.035 C 
ENDROOT
BRANCH   1   2
HETATM    2  C13 UNL     1     129.830  40.337 -23.525  1.00  0.00    -0.012 C 
HETATM    3  C12 UNL     1     128.889  39.388 -22.942  1.00  0.00     0.005 C 
HETATM    4  C11 UNL     1     127.697  38.964 -23.731  1.00  0.00     0.002 C 
HETATM    5  C10 UNL     1     127.136  39.908 -24.725  1.00  0.00     0.017 C 
HETATM    6  C6  UNL     1     127.978  41.150 -24.908  1.00  0.00     0.014 C 
HETATM    7  C25 UNL     1     129.443  40.801 -24.893  1.00  0.00     0.021 C 
BRANCH   6   8
HETATM    8  C5  UNL     1     127.582  41.756 -26.244  1.00  0.00     0.109 C 
BRANCH   8   9
HETATM    9  C4  UNL     1     128.582  42.794 -26.515  1.00  0.00    -0.105 C 
HETATM   10  C3  UNL     1     129.397  43.652 -26.761  1.00  0.00    -0.107 C 
BRANCH  10  11
HETATM   11  C2  UNL     1     130.377  44.725 -27.079  1.00  0.00     0.089 C 
HETATM   12  C1  UNL     1     130.896  44.549 -28.509  1.00  0.00     0.018 C 
ENDBRANCH  10  11
ENDBRANCH   8   9
ENDBRANCH   6   8
BRANCH   6  13
HETATM   13  C7  UNL     1     127.668  42.166 -23.882  1.00  0.00     0.036 A 
HETATM   14  C8  UNL     1     126.415  42.430 -23.350  1.00  0.00     0.046 A 
HETATM   15  C9  UNL     1     126.558  43.464 -22.413  1.00  0.00     0.109 A 
HETATM   16  N1  UNL     1     127.851  43.782 -22.407  1.00  0.00    -0.312 N 
HETATM   17  N2  UNL     1     128.497  43.020 -23.268  1.00  0.00    -0.304 N 
ATOM     18  H1  UNL     1     128.276  44.504 -21.825  1.00  0.00     0.186 HD
ATOM     19  H2  UNL     1     129.500  43.075 -23.445  1.00  0.00     0.186 HD
ENDBRANCH   6  13
ENDBRANCH   1   2
BRANCH   1  20
HETATM   20  C15 UNL     1     131.837  39.640 -24.881  1.00  0.00     0.273 C 
BRANCH  20  21
HETATM   21  N3  UNL     1     131.787  38.409 -25.543  1.00  0.00     0.090 N 
HETATM   22  C16 UNL     1     132.827  37.895 -26.325  1.00  0.00     0.272 C 
HETATM   23  C17 UNL     1     132.132  37.093 -27.448  1.00  0.00     0.032 C 
HETATM   24  C18 UNL     1     131.126  36.185 -26.828  1.00  0.00     0.029 C 
HETATM   25  C19 UNL     1     131.214  36.065 -25.330  1.00  0.00     0.122 C 
HETATM   26  C24 UNL     1     131.263  37.337 -24.618  1.00  0.00     0.298 C 
BRANCH  25  27
HETATM   27  N4  UNL     1     130.334  35.084 -24.809  1.00  0.00    -0.300 N 
HETATM   28  C20 UNL     1     128.971  35.238 -24.890  1.00  0.00     0.142 A 
HETATM   29  C21 UNL     1     128.073  34.299 -24.451  1.00  0.00     0.175 A 
HETATM   30  F1  UNL     1     126.729  34.572 -24.584  1.00  0.00    -0.201 F 
HETATM   31  C22 UNL     1     128.435  33.147 -23.905  1.00  0.00     0.143 A 
HETATM   32  N5  UNL     1     127.769  32.142 -23.490  1.00  0.00    -0.383 N 
HETATM   33  N6  UNL     1     129.824  32.985 -23.818  1.00  0.00    -0.292 N 
ATOM     34  H52 UNL     1     126.758  32.261 -23.553  1.00  0.00     0.157 HD
ATOM     35  H51 UNL     1     128.048  31.256 -23.069  1.00  0.00     0.157 HD
HETATM   36  C23 UNL     1     130.687  33.886 -24.239  1.00  0.00     0.328 A 
ATOM     37  H6  UNL     1     130.185  32.123 -23.407  1.00  0.00     0.172 HD
HETATM   38  O1  UNL     1     131.892  33.609 -24.102  1.00  0.00    -0.246 OA
ENDBRANCH  25  27
ENDBRANCH  20  21
ENDBRANCH   1  20
TORSDOF 8
ENDMDL
MODEL 5
REMARK VINA RESULT: -8.440971166      2.615      5.920
REMARK  8 active torsions:
REMARK  status: ('A' for Active; 'I' for Inactive)
REMARK    1  A    between atoms: C2_2  and  C3_3 
REMARK    2  A    between atoms: C4_4  and  C5_5 
REMARK    3  A    between atoms: C5_5  and  C6_6 
REMARK    4  A    between atoms: C6_6  and  C7_7 
REMARK    5  A    between atoms: C13_17  and  C14_18 
REMARK    6  A    between atoms: C14_18  and  C15_19 
REMARK    7  A    between atoms: C15_19  and  N3_20 
REMARK    8  A    between atoms: C19_24  and  N4_25 
ROOT
HETATM    1  C14 UNL     1     125.219  38.238 -26.439  1.00  0.00     0.035 C 
ENDROOT
BRANCH   1   2
HETATM    2  C13 UNL     1     126.153  39.250 -25.761  1.00  0.00    -0.012 C 
HETATM    3  C12 UNL     1     126.305  40.450 -26.575  1.00  0.00     0.005 C 
HETATM    4  C11 UNL     1     127.673  40.895 -26.971  1.00  0.00     0.002 C 
HETATM    5  C10 UNL     1     128.808  40.568 -26.079  1.00  0.00     0.017 C 
HETATM    6  C6  UNL     1     128.421  39.664 -24.929  1.00  0.00     0.014 C 
HETATM    7  C25 UNL     1     127.452  38.608 -25.392  1.00  0.00     0.021 C 
BRANCH   6   8
HETATM    8  C5  UNL     1     129.704  39.032 -24.417  1.00  0.00     0.109 C 
BRANCH   8   9
HETATM    9  C4  UNL     1     130.246  38.275 -25.551  1.00  0.00    -0.105 C 
HETATM   10  C3  UNL     1     130.711  37.667 -26.486  1.00  0.00    -0.107 C 
BRANCH  10  11
HETATM   11  C2  UNL     1     131.314  36.924 -27.625  1.00  0.00     0.089 C 
HETATM   12  C1  UNL     1     132.834  37.112 -27.625  1.00  0.00     0.018 C 
ENDBRANCH  10  11
ENDBRANCH   8   9
ENDBRANCH   6   8
BRANCH   6  13
HETATM   13  C7  UNL     1     127.858  40.438 -23.804  1.00  0.00     0.036 A 
HETATM   14  C8  UNL     1     128.043  41.793 -23.575  1.00  0.00     0.046 A 
HETATM   15  C9  UNL     1     127.345  42.127 -22.405  1.00  0.00     0.109 A 
HETATM   16  N1  UNL     1     126.778  41.000 -21.977  1.00  0.00    -0.312 N 
HETATM   17  N2  UNL     1     127.081  40.014 -22.799  1.00  0.00    -0.304 N 
ATOM     18  H1  UNL     1     126.198  40.914 -21.143  1.00  0.00     0.186 HD
ATOM     19  H2  UNL     1     126.765  39.051 -22.684  1.00  0.00     0.186 HD
ENDBRANCH   6  13
ENDBRANCH   1   2
BRANCH   1  20
HETATM   20  C15 UNL     1     124.106  37.792 -25.574  1.00  0.00     0.273 C 
BRANCH  20  21
HETATM   21  N3  UNL     1     124.358  36.911 -24.518  1.00  0.00     0.090 N 
HETATM   22  C16 UNL     1     123.362  36.324 -23.730  1.00  0.00     0.272 C 
HETATM   23  C17 UNL     1     123.985  36.185 -22.324  1.00  0.00     0.032 C 
HETATM   24  C18 UNL     1     125.324  35.542 -22.461  1.00  0.00     0.029 C 
HETATM   25  C19 UNL     1     125.614  34.961 -23.820  1.00  0.00     0.122 C 
HETATM   26  C24 UNL     1     125.363  35.865 -24.936  1.00  0.00     0.298 C 
BRANCH  25  27
HETATM   27  N4  UNL     1     126.833  34.239 -23.854  1.00  0.00    -0.300 N 
HETATM   28  C20 UNL     1     127.993  34.825 -24.300  1.00  0.00     0.142 A 
HETATM   29  C21 UNL     1     129.210  34.194 -24.306  1.00  0.00     0.175 A 
HETATM   30  F1  UNL     1     130.301  34.887 -24.783  1.00  0.00    -0.201 F 
HETATM   31  C22 UNL     1     129.385  32.951 -23.880  1.00  0.00     0.143 A 
HETATM   32  N5  UNL     1     130.422  32.219 -23.759  1.00  0.00    -0.383 N 
HETATM   33  N6  UNL     1     128.206  32.347 -23.426  1.00  0.00    -0.292 N 
ATOM     34  H52 UNL     1     131.281  32.659 -24.090  1.00  0.00     0.157 HD
ATOM     35  H51 UNL     1     130.557  31.262 -23.431  1.00  0.00     0.157 HD
HETATM   36  C23 UNL     1     127.037  32.954 -23.420  1.00  0.00     0.328 A 
ATOM     37  H6  UNL     1     128.255  31.387 -23.082  1.00  0.00     0.172 HD
HETATM   38  O1  UNL     1     126.073  32.298 -22.986  1.00  0.00    -0.246 OA
ENDBRANCH  25  27
ENDBRANCH  20  21
ENDBRANCH   1  20
TORSDOF 8
ENDMDL
