MODEL 1
REMARK VINA RESULT: -7.330832480      0.000      0.000
REMARK  9 active torsions:
REMARK  status: ('A' for Active; 'I' for Inactive)
REMARK    1  A    between atoms: N1_2  and  C3_4 
REMARK    2  A    between atoms: C4_5  and  C5_6 
REMARK    3  A    between atoms: C5_6  and  C6_7 
REMARK    4  A    between atoms: C6_7  and  C7_8 
REMARK    5  A    between atoms: C9_12  and  O3_13 
REMARK    6  A    between atoms: C10_15  and  C11_16 
REMARK    7  A    between atoms: C11_16  and  O4_17 
REMARK    8  A    between atoms: C11_16  and  C12_19 
REMARK    9  A    between atoms: C17_26  and  O5_27 
ROOT
HETATM    1  C3  UNL     1     -91.044 -14.002  11.218  1.00  0.00     0.075 A 
HETATM    2  C4  UNL     1     -90.717 -12.872  10.466  1.00  0.00    -0.025 A 
HETATM    3  C8  UNL     1     -90.326 -11.773  11.186  1.00  0.00     0.046 A 
HETATM    4  C9  UNL     1     -90.231 -11.696  12.547  1.00  0.00     0.078 A 
HETATM    5  C10 UNL     1     -90.566 -12.847  13.270  1.00  0.00     0.049 A 
HETATM    6  C18 UNL     1     -90.964 -13.974  12.595  1.00  0.00     0.155 A 
HETATM    7  F1  UNL     1     -91.284 -15.087  13.288  1.00  0.00    -0.203 F 
ENDROOT
BRANCH   5   8
HETATM    8  C11 UNL     1     -90.446 -12.787  14.751  1.00  0.00     0.193 C 
BRANCH   8   9
HETATM    9  O4  UNL     1     -91.471 -13.513  15.349  1.00  0.00    -0.386 OA
ATOM     10  H4  UNL     1     -92.201 -12.942  15.561  1.00  0.00     0.210 HD
ENDBRANCH   8   9
BRANCH   8  11
HETATM   11  C12 UNL     1     -89.118 -13.204  15.232  1.00  0.00     0.011 A 
HETATM   12  C13 UNL     1     -88.746 -14.517  15.168  1.00  0.00     0.032 A 
HETATM   13  C14 UNL     1     -87.523 -14.951  15.612  1.00  0.00     0.013 A 
HETATM   14 BR1  UNL     1     -86.999 -16.800  15.532  1.00  0.00    -0.051 Br
HETATM   15  C15 UNL     1     -86.602 -14.061  16.149  1.00  0.00     0.041 A 
HETATM   16  C16 UNL     1     -86.966 -12.731  16.219  1.00  0.00     0.046 A 
HETATM   17 BR2  UNL     1     -85.730 -11.460  16.957  1.00  0.00    -0.048 Br
HETATM   18  C17 UNL     1     -88.205 -12.293  15.769  1.00  0.00     0.092 A 
BRANCH  18  19
HETATM   19  O5  UNL     1     -88.597 -10.967  15.824  1.00  0.00    -0.359 OA
ATOM     20  H5  UNL     1     -88.043 -10.372  16.315  1.00  0.00     0.217 HD
ENDBRANCH  18  19
ENDBRANCH   8  11
ENDBRANCH   5   8
BRANCH   4  21
HETATM   21  O3  UNL     1     -89.826 -10.547  13.221  1.00  0.00    -0.360 OA
ATOM     22  H3  UNL     1     -90.232  -9.698  13.094  1.00  0.00     0.217 HD
ENDBRANCH   4  21
BRANCH   1  23
HETATM   23  N1  UNL     1     -91.444 -15.201  10.576  1.00  0.00    -0.387 N 
HETATM   24  C1  UNL     1     -92.853 -15.468  10.436  1.00  0.00     0.149 C 
HETATM   25  C2  UNL     1     -90.471 -16.129  10.073  1.00  0.00     0.149 C 
ENDBRANCH   1  23
BRANCH   2  26
HETATM   26  C5  UNL     1     -90.806 -12.961   9.004  1.00  0.00     0.051 C 
BRANCH  26  27
HETATM   27  C6  UNL     1     -89.510 -13.038   8.274  1.00  0.00     0.118 C 
BRANCH  27  28
HETATM   28  C7  UNL     1     -89.684 -12.506   6.899  1.00  0.00     0.172 C 
HETATM   29  O1  UNL     1     -90.810 -12.343   6.432  1.00  0.00    -0.648 OA
HETATM   30  O2  UNL     1     -88.551 -12.191   6.141  1.00  0.00    -0.648 OA
ENDBRANCH  27  28
ENDBRANCH  26  27
ENDBRANCH   2  26
TORSDOF 9
ENDMDL
MODEL 2
REMARK VINA RESULT: -7.172783675      2.289      2.948
REMARK  9 active torsions:
REMARK  status: ('A' for Active; 'I' for Inactive)
REMARK    1  A    between atoms: N1_2  and  C3_4 
REMARK    2  A    between atoms: C4_5  and  C5_6 
REMARK    3  A    between atoms: C5_6  and  C6_7 
REMARK    4  A    between atoms: C6_7  and  C7_8 
REMARK    5  A    between atoms: C9_12  and  O3_13 
REMARK    6  A    between atoms: C10_15  and  C11_16 
REMARK    7  A    between atoms: C11_16  and  O4_17 
REMARK    8  A    between atoms: C11_16  and  C12_19 
REMARK    9  A    between atoms: C17_26  and  O5_27 
ROOT
HETATM    1  C3  UNL     1     -90.370 -12.415  11.045  1.00  0.00     0.075 A 
HETATM    2  C4  UNL     1     -89.547 -12.675   9.948  1.00  0.00    -0.025 A 
HETATM    3  C8  UNL     1     -88.284 -12.147  10.015  1.00  0.00     0.046 A 
HETATM    4  C9  UNL     1     -87.777 -11.404  11.045  1.00  0.00     0.078 A 
HETATM    5  C10 UNL     1     -88.630 -11.163  12.129  1.00  0.00     0.049 A 
HETATM    6  C18 UNL     1     -89.904 -11.671  12.109  1.00  0.00     0.155 A 
HETATM    7  F1  UNL     1     -90.729 -11.443  13.154  1.00  0.00    -0.203 F 
ENDROOT
BRANCH   5   8
HETATM    8  C11 UNL     1     -88.086 -10.376  13.267  1.00  0.00     0.193 C 
BRANCH   8   9
HETATM    9  O4  UNL     1     -89.056  -9.510  13.764  1.00  0.00    -0.386 OA
ATOM     10  H4  UNL     1     -89.169  -9.641  14.699  1.00  0.00     0.210 HD
ENDBRANCH   8   9
BRANCH   8  11
HETATM   11  C12 UNL     1     -87.509 -11.225  14.322  1.00  0.00     0.011 A 
HETATM   12  C13 UNL     1     -87.883 -12.535  14.430  1.00  0.00     0.032 A 
HETATM   13  C14 UNL     1     -87.378 -13.361  15.403  1.00  0.00     0.013 A 
HETATM   14 BR1  UNL     1     -87.907 -15.203  15.562  1.00  0.00    -0.051 Br
HETATM   15  C15 UNL     1     -86.454 -12.892  16.327  1.00  0.00     0.041 A 
HETATM   16  C16 UNL     1     -86.068 -11.569  16.229  1.00  0.00     0.046 A 
HETATM   17 BR2  UNL     1     -84.795 -10.870  17.485  1.00  0.00    -0.048 Br
HETATM   18  C17 UNL     1     -86.581 -10.735  15.244  1.00  0.00     0.092 A 
BRANCH  18  19
HETATM   19  O5  UNL     1     -86.212  -9.407  15.119  1.00  0.00    -0.359 OA
ATOM     20  H5  UNL     1     -86.789  -8.760  15.508  1.00  0.00     0.217 HD
ENDBRANCH  18  19
ENDBRANCH   8  11
ENDBRANCH   5   8
BRANCH   4  21
HETATM   21  O3  UNL     1     -86.482 -10.894  11.054  1.00  0.00    -0.360 OA
ATOM     22  H3  UNL     1     -85.883 -11.004  11.784  1.00  0.00     0.217 HD
ENDBRANCH   4  21
BRANCH   1  23
HETATM   23  N1  UNL     1     -91.691 -12.929  11.090  1.00  0.00    -0.387 N 
HETATM   24  C1  UNL     1     -91.928 -14.151  11.816  1.00  0.00     0.149 C 
HETATM   25  C2  UNL     1     -92.769 -12.250  10.429  1.00  0.00     0.149 C 
ENDBRANCH   1  23
BRANCH   2  26
HETATM   26  C5  UNL     1     -90.088 -13.484   8.850  1.00  0.00     0.051 C 
BRANCH  26  27
HETATM   27  C6  UNL     1     -89.730 -14.930   8.866  1.00  0.00     0.118 C 
BRANCH  27  28
HETATM   28  C7  UNL     1     -90.915 -15.738   8.481  1.00  0.00     0.172 C 
HETATM   29  O1  UNL     1     -92.038 -15.238   8.487  1.00  0.00    -0.648 OA
HETATM   30  O2  UNL     1     -90.737 -17.076   8.111  1.00  0.00    -0.648 OA
ENDBRANCH  27  28
ENDBRANCH  26  27
ENDBRANCH   2  26
TORSDOF 9
ENDMDL
MODEL 3
REMARK VINA RESULT: -7.152517783      2.011      2.665
REMARK  9 active torsions:
REMARK  status: ('A' for Active; 'I' for Inactive)
REMARK    1  A    between atoms: N1_2  and  C3_4 
REMARK    2  A    between atoms: C4_5  and  C5_6 
REMARK    3  A    between atoms: C5_6  and  C6_7 
REMARK    4  A    between atoms: C6_7  and  C7_8 
REMARK    5  A    between atoms: C9_12  and  O3_13 
REMARK    6  A    between atoms: C10_15  and  C11_16 
REMARK    7  A    between atoms: C11_16  and  O4_17 
REMARK    8  A    between atoms: C11_16  and  C12_19 
REMARK    9  A    between atoms: C17_26  and  O5_27 
ROOT
HETATM    1  C3  UNL     1     -89.866 -12.329  10.779  1.00  0.00     0.075 A 
HETATM    2  C4  UNL     1     -88.889 -12.502   9.797  1.00  0.00    -0.025 A 
HETATM    3  C8  UNL     1     -87.682 -11.903  10.050  1.00  0.00     0.046 A 
HETATM    4  C9  UNL     1     -87.365 -11.169  11.159  1.00  0.00     0.078 A 
HETATM    5  C10 UNL     1     -88.369 -11.017  12.123  1.00  0.00     0.049 A 
HETATM    6  C18 UNL     1     -89.595 -11.597  11.916  1.00  0.00     0.155 A 
HETATM    7  F1  UNL     1     -90.565 -11.456  12.845  1.00  0.00    -0.203 F 
ENDROOT
BRANCH   5   8
HETATM    8  C11 UNL     1     -88.033 -10.240  13.346  1.00  0.00     0.193 C 
BRANCH   8   9
HETATM    9  O4  UNL     1     -89.147  -9.533  13.791  1.00  0.00    -0.386 OA
ATOM     10  H4  UNL     1     -89.294  -8.771  13.244  1.00  0.00     0.210 HD
ENDBRANCH   8   9
BRANCH   8  11
HETATM   11  C12 UNL     1     -87.447 -11.075  14.407  1.00  0.00     0.011 A 
HETATM   12  C13 UNL     1     -87.847 -12.373  14.559  1.00  0.00     0.032 A 
HETATM   13  C14 UNL     1     -87.333 -13.185  15.539  1.00  0.00     0.013 A 
HETATM   14 BR1  UNL     1     -87.899 -15.010  15.761  1.00  0.00    -0.051 Br
HETATM   15  C15 UNL     1     -86.374 -12.713  16.425  1.00  0.00     0.041 A 
HETATM   16  C16 UNL     1     -85.962 -11.403  16.282  1.00  0.00     0.046 A 
HETATM   17 BR2  UNL     1     -84.639 -10.701  17.485  1.00  0.00    -0.048 Br
HETATM   18  C17 UNL     1     -86.483 -10.583  15.290  1.00  0.00     0.092 A 
BRANCH  18  19
HETATM   19  O5  UNL     1     -86.088  -9.267  15.120  1.00  0.00    -0.359 OA
ATOM     20  H5  UNL     1     -86.142  -8.699  15.880  1.00  0.00     0.217 HD
ENDBRANCH  18  19
ENDBRANCH   8  11
ENDBRANCH   5   8
BRANCH   4  21
HETATM   21  O3  UNL     1     -86.118 -10.584  11.358  1.00  0.00    -0.360 OA
ATOM     22  H3  UNL     1     -85.356 -11.068  11.655  1.00  0.00     0.217 HD
ENDBRANCH   4  21
BRANCH   1  23
HETATM   23  N1  UNL     1     -91.146 -12.921  10.629  1.00  0.00    -0.387 N 
HETATM   24  C1  UNL     1     -91.348 -14.257  11.132  1.00  0.00     0.149 C 
HETATM   25  C2  UNL     1     -92.218 -12.210   9.993  1.00  0.00     0.149 C 
ENDBRANCH   1  23
BRANCH   2  26
HETATM   26  C5  UNL     1     -89.226 -13.302   8.614  1.00  0.00     0.051 C 
BRANCH  26  27
HETATM   27  C6  UNL     1     -88.648 -12.834   7.323  1.00  0.00     0.118 C 
BRANCH  27  28
HETATM   28  C7  UNL     1     -89.743 -12.386   6.424  1.00  0.00     0.172 C 
HETATM   29  O1  UNL     1     -90.918 -12.531   6.755  1.00  0.00    -0.648 OA
HETATM   30  O2  UNL     1     -89.419 -11.797   5.197  1.00  0.00    -0.648 OA
ENDBRANCH  27  28
ENDBRANCH  26  27
ENDBRANCH   2  26
TORSDOF 9
ENDMDL
MODEL 4
REMARK VINA RESULT: -7.107422677      2.995      4.007
REMARK  9 active torsions:
REMARK  status: ('A' for Active; 'I' for Inactive)
REMARK    1  A    between atoms: N1_2  and  C3_4 
REMARK    2  A    between atoms: C4_5  and  C5_6 
REMARK    3  A    between atoms: C5_6  and  C6_7 
REMARK    4  A    between atoms: C6_7  and  C7_8 
REMARK    5  A    between atoms: C9_12  and  O3_13 
REMARK    6  A    between atoms: C10_15  and  C11_16 
REMARK    7  A    between atoms: C11_16  and  O4_17 
REMARK    8  A    between atoms: C11_16  and  C12_19 
REMARK    9  A    between atoms: C17_26  and  O5_27 
ROOT
HETATM    1  C3  UNL     1     -87.914 -12.268  10.099  1.00  0.00     0.075 A 
HETATM    2  C4  UNL     1     -89.179 -12.856  10.143  1.00  0.00    -0.025 A 
HETATM    3  C8  UNL     1     -89.994 -12.434  11.162  1.00  0.00     0.046 A 
HETATM    4  C9  UNL     1     -89.674 -11.508  12.116  1.00  0.00     0.078 A 
HETATM    5  C10 UNL     1     -88.397 -10.940  12.041  1.00  0.00     0.049 A 
HETATM    6  C18 UNL     1     -87.545 -11.329  11.039  1.00  0.00     0.155 A 
HETATM    7  F1  UNL     1     -86.313 -10.780  10.962  1.00  0.00    -0.203 F 
ENDROOT
BRANCH   5   8
HETATM    8  C11 UNL     1     -88.043  -9.914  13.058  1.00  0.00     0.193 C 
BRANCH   8   9
HETATM    9  O4  UNL     1     -89.183  -9.234  13.477  1.00  0.00    -0.386 OA
ATOM     10  H4  UNL     1     -89.824  -9.844  13.821  1.00  0.00     0.210 HD
ENDBRANCH   8   9
BRANCH   8  11
HETATM   11  C12 UNL     1     -87.284 -10.472  14.189  1.00  0.00     0.011 A 
HETATM   12  C13 UNL     1     -87.908 -11.266  15.109  1.00  0.00     0.032 A 
HETATM   13  C14 UNL     1     -87.242 -11.801  16.184  1.00  0.00     0.013 A 
HETATM   14 BR1  UNL     1     -88.119 -12.914  17.485  1.00  0.00    -0.051 Br
HETATM   15  C15 UNL     1     -85.890 -11.553  16.380  1.00  0.00     0.041 A 
HETATM   16  C16 UNL     1     -85.248 -10.751  15.457  1.00  0.00     0.046 A 
HETATM   17 BR2  UNL     1     -83.378 -10.374  15.685  1.00  0.00    -0.048 Br
HETATM   18  C17 UNL     1     -85.924 -10.211  14.370  1.00  0.00     0.092 A 
BRANCH  18  19
HETATM   19  O5  UNL     1     -85.307  -9.406  13.428  1.00  0.00    -0.359 OA
ATOM     20  H5  UNL     1     -85.849  -9.075  12.722  1.00  0.00     0.217 HD
ENDBRANCH  18  19
ENDBRANCH   8  11
ENDBRANCH   5   8
BRANCH   4  21
HETATM   21  O3  UNL     1     -90.547 -11.122  13.129  1.00  0.00    -0.360 OA
ATOM     22  H3  UNL     1     -90.790 -11.688  13.853  1.00  0.00     0.217 HD
ENDBRANCH   4  21
BRANCH   1  23
HETATM   23  N1  UNL     1     -86.996 -12.616   9.076  1.00  0.00    -0.387 N 
HETATM   24  C1  UNL     1     -85.968 -13.581   9.373  1.00  0.00     0.149 C 
HETATM   25  C2  UNL     1     -87.087 -12.024   7.771  1.00  0.00     0.149 C 
ENDBRANCH   1  23
BRANCH   2  26
HETATM   26  C5  UNL     1     -89.525 -13.839   9.111  1.00  0.00     0.051 C 
BRANCH  26  27
HETATM   27  C6  UNL     1     -89.884 -15.200   9.599  1.00  0.00     0.118 C 
BRANCH  27  28
HETATM   28  C7  UNL     1     -90.898 -15.799   8.694  1.00  0.00     0.172 C 
HETATM   29  O1  UNL     1     -91.913 -15.173   8.396  1.00  0.00    -0.648 OA
HETATM   30  O2  UNL     1     -90.683 -17.085   8.186  1.00  0.00    -0.648 OA
ENDBRANCH  27  28
ENDBRANCH  26  27
ENDBRANCH   2  26
TORSDOF 9
ENDMDL
MODEL 5
REMARK VINA RESULT: -7.063337245      2.551      3.216
REMARK  9 active torsions:
REMARK  status: ('A' for Active; 'I' for Inactive)
REMARK    1  A    between atoms: N1_2  and  C3_4 
REMARK    2  A    between atoms: C4_5  and  C5_6 
REMARK    3  A    between atoms: C5_6  and  C6_7 
REMARK    4  A    between atoms: C6_7  and  C7_8 
REMARK    5  A    between atoms: C9_12  and  O3_13 
REMARK    6  A    between atoms: C10_15  and  C11_16 
REMARK    7  A    between atoms: C11_16  and  O4_17 
REMARK    8  A    between atoms: C11_16  and  C12_19 
REMARK    9  A    between atoms: C17_26  and  O5_27 
ROOT
HETATM    1  C3  UNL     1     -90.383 -12.385  11.142  1.00  0.00     0.075 A 
HETATM    2  C4  UNL     1     -89.581 -12.651  10.032  1.00  0.00    -0.025 A 
HETATM    3  C8  UNL     1     -88.349 -12.049  10.031  1.00  0.00     0.046 A 
HETATM    4  C9  UNL     1     -87.855 -11.229  11.007  1.00  0.00     0.078 A 
HETATM    5  C10 UNL     1     -88.686 -10.984  12.106  1.00  0.00     0.049 A 
HETATM    6  C18 UNL     1     -89.929 -11.564  12.153  1.00  0.00     0.155 A 
HETATM    7  F1  UNL     1     -90.732 -11.333  13.214  1.00  0.00    -0.203 F 
ENDROOT
BRANCH   5   8
HETATM    8  C11 UNL     1     -88.154 -10.112  13.187  1.00  0.00     0.193 C 
BRANCH   8   9
HETATM    9  O4  UNL     1     -89.193  -9.429  13.813  1.00  0.00    -0.386 OA
ATOM     10  H4  UNL     1     -89.842 -10.042  14.139  1.00  0.00     0.210 HD
ENDBRANCH   8   9
BRANCH   8  11
HETATM   11  C12 UNL     1     -87.315 -10.846  14.149  1.00  0.00     0.011 A 
HETATM   12  C13 UNL     1     -87.868 -11.805  14.951  1.00  0.00     0.032 A 
HETATM   13  C14 UNL     1     -87.126 -12.507  15.867  1.00  0.00     0.013 A 
HETATM   14 BR1  UNL     1     -87.902 -13.852  17.002  1.00  0.00    -0.051 Br
HETATM   15  C15 UNL     1     -85.766 -12.269  16.015  1.00  0.00     0.041 A 
HETATM   16  C16 UNL     1     -85.195 -11.303  15.211  1.00  0.00     0.046 A 
HETATM   17 BR2  UNL     1     -83.318 -10.934  15.380  1.00  0.00    -0.048 Br
HETATM   18  C17 UNL     1     -85.948 -10.593  14.285  1.00  0.00     0.092 A 
BRANCH  18  19
HETATM   19  O5  UNL     1     -85.404  -9.620  13.463  1.00  0.00    -0.359 OA
ATOM     20  H5  UNL     1     -84.885  -9.919  12.726  1.00  0.00     0.217 HD
ENDBRANCH  18  19
ENDBRANCH   8  11
ENDBRANCH   5   8
BRANCH   4  21
HETATM   21  O3  UNL     1     -86.593 -10.646  10.948  1.00  0.00    -0.360 OA
ATOM     22  H3  UNL     1     -86.182 -10.215  11.689  1.00  0.00     0.217 HD
ENDBRANCH   4  21
BRANCH   1  23
HETATM   23  N1  UNL     1     -91.669 -12.971  11.256  1.00  0.00    -0.387 N 
HETATM   24  C1  UNL     1     -92.776 -12.332  10.590  1.00  0.00     0.149 C 
HETATM   25  C2  UNL     1     -91.867 -14.174  12.015  1.00  0.00     0.149 C 
ENDBRANCH   1  23
BRANCH   2  26
HETATM   26  C5  UNL     1     -90.107 -13.543   8.992  1.00  0.00     0.051 C 
BRANCH  26  27
HETATM   27  C6  UNL     1     -89.729 -14.979   9.110  1.00  0.00     0.118 C 
BRANCH  27  28
HETATM   28  C7  UNL     1     -90.856 -15.827   8.643  1.00  0.00     0.172 C 
HETATM   29  O1  UNL     1     -92.005 -15.390   8.642  1.00  0.00    -0.648 OA
HETATM   30  O2  UNL     1     -90.592 -17.130   8.205  1.00  0.00    -0.648 OA
ENDBRANCH  27  28
ENDBRANCH  26  27
ENDBRANCH   2  26
TORSDOF 9
ENDMDL
