MODEL 1
REMARK VINA RESULT: -8.344913628      0.000      0.000
REMARK  10 active torsions:
REMARK  status: ('A' for Active; 'I' for Inactive)
REMARK    1  A    between atoms: C2_2  and  N1_3 
REMARK       I    between atoms: N1_3  and  C3_5 
REMARK    2  A    between atoms: C3_5  and  C4_7 
REMARK    3  A    between atoms: C13_16  and  O2_17 
REMARK    4  A    between atoms: O2_17  and  C14_18 
REMARK    5  A    between atoms: C14_18  and  C15_19 
REMARK    6  A    between atoms: C15_19  and  N2_20 
REMARK    7  A    between atoms: C15_19  and  C16_24 
REMARK    8  A    between atoms: C16_24  and  O3_25 
REMARK    9  A    between atoms: C16_24  and  O4_27 
REMARK   10  A    between atoms: C17_29  and  C18_30 
ROOT
HETATM    1  C4  UNL     1     -83.264 -10.410  13.524  1.00  0.00     0.086 C 
HETATM    2  C5  UNL     1     -82.368 -11.604  13.420  1.00  0.00     0.015 C 
HETATM    3  C6  UNL     1     -83.379 -12.748  13.291  1.00  0.00     0.007 C 
HETATM    4  C7  UNL     1     -84.701 -12.143  13.127  1.00  0.00    -0.001 C 
HETATM    5  C8  UNL     1     -85.718 -12.775  12.273  1.00  0.00     0.003 C 
HETATM    6  C9  UNL     1     -86.238 -14.087  12.861  1.00  0.00     0.010 C 
HETATM    7  C10 UNL     1     -87.527 -14.408  12.206  1.00  0.00     0.039 C 
HETATM    8  C11 UNL     1     -87.674 -13.880  10.845  1.00  0.00    -0.048 A 
HETATM    9  C12 UNL     1     -88.885 -14.137  10.198  1.00  0.00     0.045 A 
HETATM   10  C13 UNL     1     -89.168 -13.709   8.924  1.00  0.00     0.084 A 
HETATM   11  C17 UNL     1     -88.226 -12.987   8.225  1.00  0.00     0.081 A 
HETATM   12  C19 UNL     1     -87.013 -12.726   8.862  1.00  0.00     0.027 A 
HETATM   13  C20 UNL     1     -86.749 -13.163  10.140  1.00  0.00    -0.042 A 
HETATM   14  C21 UNL     1     -85.443 -12.879  10.818  1.00  0.00    -0.012 C 
HETATM   15  C22 UNL     1     -84.552 -14.051  10.434  1.00  0.00     0.021 C 
HETATM   16  C23 UNL     1     -84.795 -11.655  10.250  1.00  0.00     0.015 C 
HETATM   17  C24 UNL     1     -83.985 -10.810  11.135  1.00  0.00     0.011 C 
HETATM   18  C25 UNL     1     -84.376 -10.772  12.571  1.00  0.00    -0.028 C 
HETATM   19  C26 UNL     1     -85.579  -9.885  12.796  1.00  0.00     0.016 C 
ENDROOT
BRANCH  10  20
HETATM   20  O2  UNL     1     -90.375 -13.973   8.299  1.00  0.00    -0.348 OA
BRANCH  20  21
HETATM   21  C14 UNL     1     -91.600 -14.063   8.993  1.00  0.00     0.213 C 
BRANCH  21  22
HETATM   22  C15 UNL     1     -92.037 -15.494   9.202  1.00  0.00     0.262 C 
BRANCH  22  23
HETATM   23  N2  UNL     1     -91.831 -15.943  10.566  1.00  0.00    -0.068 N 
ATOM     24  H23 UNL     1     -90.860 -16.218  10.719  1.00  0.00     0.275 HD
ATOM     25  H22 UNL     1     -91.886 -15.164  11.221  1.00  0.00     0.275 HD
ATOM     26  H21 UNL     1     -92.470 -16.693  10.831  1.00  0.00     0.275 HD
ENDBRANCH  22  23
BRANCH  22  27
HETATM   27  C16 UNL     1     -91.497 -16.439   8.175  1.00  0.00     0.286 C 
BRANCH  27  28
HETATM   28  O3  UNL     1     -92.399 -17.417   7.817  1.00  0.00    -0.369 OA
ATOM     29  H3  UNL     1     -93.265 -17.074   7.629  1.00  0.00     0.212 HD
ENDBRANCH  27  28
BRANCH  27  30
HETATM   30  O4  UNL     1     -90.313 -16.981   8.701  1.00  0.00    -0.369 OA
ATOM     31  H4  UNL     1     -90.125 -17.769   8.204  1.00  0.00     0.212 HD
ENDBRANCH  27  30
ENDBRANCH  22  27
ENDBRANCH  21  22
ENDBRANCH  20  21
ENDBRANCH  10  20
BRANCH  11  32
HETATM   32  C18 UNL     1     -88.469 -12.493   6.847  1.00  0.00     0.420 C 
HETATM   33  F1  UNL     1     -87.958 -13.346   5.884  1.00  0.00    -0.166 F 
HETATM   34  F2  UNL     1     -89.788 -12.231   6.585  1.00  0.00    -0.166 F 
HETATM   35  F3  UNL     1     -87.796 -11.284   6.690  1.00  0.00    -0.166 F 
ENDBRANCH  11  32
BRANCH   1  36
HETATM   36  C3  UNL     1     -82.652  -9.122  13.344  1.00  0.00     0.222 C 
HETATM   37  N1  UNL     1     -81.436  -8.993  12.634  1.00  0.00    -0.361 N 
ATOM     38  H1  UNL     1     -80.995  -9.828  12.247  1.00  0.00     0.162 HD
HETATM   39  O1  UNL     1     -83.162  -8.076  13.804  1.00  0.00    -0.273 OA
BRANCH  37  40
HETATM   40  C2  UNL     1     -80.791  -7.689  12.438  1.00  0.00     0.118 C 
HETATM   41  C1  UNL     1     -79.649  -7.472  13.381  1.00  0.00     0.026 C 
ENDBRANCH  37  40
ENDBRANCH   1  36
TORSDOF 10
ENDMDL
MODEL 2
REMARK VINA RESULT: -8.289333873      4.552      8.764
REMARK  10 active torsions:
REMARK  status: ('A' for Active; 'I' for Inactive)
REMARK    1  A    between atoms: C2_2  and  N1_3 
REMARK       I    between atoms: N1_3  and  C3_5 
REMARK    2  A    between atoms: C3_5  and  C4_7 
REMARK    3  A    between atoms: C13_16  and  O2_17 
REMARK    4  A    between atoms: O2_17  and  C14_18 
REMARK    5  A    between atoms: C14_18  and  C15_19 
REMARK    6  A    between atoms: C15_19  and  N2_20 
REMARK    7  A    between atoms: C15_19  and  C16_24 
REMARK    8  A    between atoms: C16_24  and  O3_25 
REMARK    9  A    between atoms: C16_24  and  O4_27 
REMARK   10  A    between atoms: C17_29  and  C18_30 
ROOT
HETATM    1  C4  UNL     1     -89.445 -12.723  11.518  1.00  0.00     0.086 C 
HETATM    2  C5  UNL     1     -89.233 -14.122  11.030  1.00  0.00     0.015 C 
HETATM    3  C6  UNL     1     -88.399 -13.892   9.765  1.00  0.00     0.007 C 
HETATM    4  C7  UNL     1     -88.034 -12.476   9.736  1.00  0.00    -0.001 C 
HETATM    5  C8  UNL     1     -86.735 -12.043   9.199  1.00  0.00     0.003 C 
HETATM    6  C9  UNL     1     -86.635 -12.243   7.687  1.00  0.00     0.010 C 
HETATM    7  C10 UNL     1     -85.530 -11.396   7.182  1.00  0.00     0.039 C 
HETATM    8  C11 UNL     1     -84.464 -11.131   8.153  1.00  0.00    -0.048 A 
HETATM    9  C12 UNL     1     -83.414 -10.315   7.728  1.00  0.00     0.045 A 
HETATM   10  C13 UNL     1     -82.345  -9.978   8.523  1.00  0.00     0.084 A 
HETATM   11  C17 UNL     1     -82.282 -10.459   9.813  1.00  0.00     0.081 A 
HETATM   12  C19 UNL     1     -83.326 -11.275  10.248  1.00  0.00     0.027 A 
HETATM   13  C20 UNL     1     -84.388 -11.600   9.435  1.00  0.00    -0.042 A 
HETATM   14  C21 UNL     1     -85.506 -12.478   9.908  1.00  0.00    -0.012 C 
HETATM   15  C22 UNL     1     -85.054 -13.889   9.564  1.00  0.00     0.021 C 
HETATM   16  C23 UNL     1     -85.635 -12.430  11.399  1.00  0.00     0.015 C 
HETATM   17  C24 UNL     1     -86.968 -12.573  11.997  1.00  0.00     0.011 C 
HETATM   18  C25 UNL     1     -88.120 -12.077  11.195  1.00  0.00    -0.028 C 
HETATM   19  C26 UNL     1     -88.234 -10.571  11.256  1.00  0.00     0.016 C 
ENDROOT
BRANCH  10  20
HETATM   20  O2  UNL     1     -81.313  -9.167   8.084  1.00  0.00    -0.348 OA
BRANCH  20  21
HETATM   21  C14 UNL     1     -80.687  -9.327   6.830  1.00  0.00     0.213 C 
BRANCH  21  22
HETATM   22  C15 UNL     1     -80.752  -8.073   5.991  1.00  0.00     0.262 C 
BRANCH  22  23
HETATM   23  N2  UNL     1     -80.045  -8.211   4.732  1.00  0.00    -0.068 N 
ATOM     24  H23 UNL     1     -79.059  -7.967   4.836  1.00  0.00     0.275 HD
ATOM     25  H22 UNL     1     -79.945  -9.192   4.473  1.00  0.00     0.275 HD
ATOM     26  H21 UNL     1     -80.479  -7.675   3.980  1.00  0.00     0.275 HD
ENDBRANCH  22  23
BRANCH  22  27
HETATM   27  C16 UNL     1     -80.391  -6.831   6.744  1.00  0.00     0.286 C 
BRANCH  27  28
HETATM   28  O3  UNL     1     -81.489  -6.160   7.235  1.00  0.00    -0.369 OA
ATOM     29  H3  UNL     1     -81.284  -5.284   7.541  1.00  0.00     0.212 HD
ENDBRANCH  27  28
BRANCH  27  30
HETATM   30  O4  UNL     1     -79.630  -6.033   5.875  1.00  0.00    -0.369 OA
ATOM     31  H4  UNL     1     -79.186  -5.386   6.411  1.00  0.00     0.212 HD
ENDBRANCH  27  30
ENDBRANCH  22  27
ENDBRANCH  21  22
ENDBRANCH  20  21
ENDBRANCH  10  20
BRANCH  11  32
HETATM   32  C18 UNL     1     -81.158 -10.132  10.725  1.00  0.00     0.420 C 
HETATM   33  F1  UNL     1     -79.947 -10.621  10.266  1.00  0.00    -0.166 F 
HETATM   34  F2  UNL     1     -81.047  -8.795  11.000  1.00  0.00    -0.166 F 
HETATM   35  F3  UNL     1     -81.389 -10.760  11.948  1.00  0.00    -0.166 F 
ENDBRANCH  11  32
BRANCH   1  36
HETATM   36  C3  UNL     1     -89.927 -12.571  12.864  1.00  0.00     0.222 C 
HETATM   37  N1  UNL     1     -89.434 -13.393  13.904  1.00  0.00    -0.361 N 
ATOM     38  H1  UNL     1     -88.728 -14.097  13.689  1.00  0.00     0.162 HD
HETATM   39  O1  UNL     1     -90.791 -11.720  13.166  1.00  0.00    -0.273 OA
BRANCH  37  40
HETATM   40  C2  UNL     1     -89.911 -13.258  15.286  1.00  0.00     0.118 C 
HETATM   41  C1  UNL     1     -88.855 -12.723  16.202  1.00  0.00     0.026 C 
ENDBRANCH  37  40
ENDBRANCH   1  36
TORSDOF 10
ENDMDL
MODEL 3
REMARK VINA RESULT: -8.110987397      3.760      4.851
REMARK  10 active torsions:
REMARK  status: ('A' for Active; 'I' for Inactive)
REMARK    1  A    between atoms: C2_2  and  N1_3 
REMARK       I    between atoms: N1_3  and  C3_5 
REMARK    2  A    between atoms: C3_5  and  C4_7 
REMARK    3  A    between atoms: C13_16  and  O2_17 
REMARK    4  A    between atoms: O2_17  and  C14_18 
REMARK    5  A    between atoms: C14_18  and  C15_19 
REMARK    6  A    between atoms: C15_19  and  N2_20 
REMARK    7  A    between atoms: C15_19  and  C16_24 
REMARK    8  A    between atoms: C16_24  and  O3_25 
REMARK    9  A    between atoms: C16_24  and  O4_27 
REMARK   10  A    between atoms: C17_29  and  C18_30 
ROOT
HETATM    1  C4  UNL     1     -82.080 -11.019   8.416  1.00  0.00     0.086 C 
HETATM    2  C5  UNL     1     -81.495 -11.579   9.675  1.00  0.00     0.015 C 
HETATM    3  C6  UNL     1     -82.575 -11.233  10.706  1.00  0.00     0.007 C 
HETATM    4  C7  UNL     1     -83.729 -10.718   9.970  1.00  0.00    -0.001 C 
HETATM    5  C8  UNL     1     -85.099 -10.988  10.432  1.00  0.00     0.003 C 
HETATM    6  C9  UNL     1     -85.428 -10.259  11.734  1.00  0.00     0.010 C 
HETATM    7  C10 UNL     1     -86.902 -10.215  11.879  1.00  0.00     0.039 C 
HETATM    8  C11 UNL     1     -87.617 -11.317  11.229  1.00  0.00    -0.048 A 
HETATM    9  C12 UNL     1     -89.011 -11.302  11.317  1.00  0.00     0.045 A 
HETATM   10  C13 UNL     1     -89.816 -12.265  10.760  1.00  0.00     0.084 A 
HETATM   11  C17 UNL     1     -89.245 -13.313  10.072  1.00  0.00     0.081 A 
HETATM   12  C19 UNL     1     -87.853 -13.338   9.978  1.00  0.00     0.027 A 
HETATM   13  C20 UNL     1     -87.064 -12.363  10.543  1.00  0.00    -0.042 A 
HETATM   14  C21 UNL     1     -85.570 -12.396  10.439  1.00  0.00    -0.012 C 
HETATM   15  C22 UNL     1     -85.121 -13.197  11.651  1.00  0.00     0.021 C 
HETATM   16  C23 UNL     1     -85.130 -13.172   9.236  1.00  0.00     0.015 C 
HETATM   17  C24 UNL     1     -83.899 -12.768   8.547  1.00  0.00     0.011 C 
HETATM   18  C25 UNL     1     -83.546 -11.323   8.593  1.00  0.00    -0.028 C 
HETATM   19  C26 UNL     1     -84.377 -10.516   7.621  1.00  0.00     0.016 C 
ENDROOT
BRANCH  10  20
HETATM   20  O2  UNL     1     -91.197 -12.233  10.858  1.00  0.00    -0.348 OA
BRANCH  20  21
HETATM   21  C14 UNL     1     -91.888 -12.407  12.075  1.00  0.00     0.213 C 
BRANCH  21  22
HETATM   22  C15 UNL     1     -91.256 -13.466  12.948  1.00  0.00     0.262 C 
BRANCH  22  23
HETATM   23  N2  UNL     1     -91.946 -14.739  12.861  1.00  0.00    -0.068 N 
ATOM     24  H23 UNL     1     -92.005 -15.060  11.894  1.00  0.00     0.275 HD
ATOM     25  H22 UNL     1     -91.377 -15.491  13.248  1.00  0.00     0.275 HD
ATOM     26  H21 UNL     1     -92.868 -14.715  13.298  1.00  0.00     0.275 HD
ENDBRANCH  22  23
BRANCH  22  27
HETATM   27  C16 UNL     1     -91.015 -13.014  14.355  1.00  0.00     0.286 C 
BRANCH  27  28
HETATM   28  O3  UNL     1     -89.721 -12.595  14.571  1.00  0.00    -0.369 OA
ATOM     29  H3  UNL     1     -89.433 -12.723  15.468  1.00  0.00     0.212 HD
ENDBRANCH  27  28
BRANCH  27  30
HETATM   30  O4  UNL     1     -91.371 -14.082  15.194  1.00  0.00    -0.369 OA
ATOM     31  H4  UNL     1     -91.907 -13.721  15.890  1.00  0.00     0.212 HD
ENDBRANCH  27  30
ENDBRANCH  22  27
ENDBRANCH  21  22
ENDBRANCH  20  21
ENDBRANCH  10  20
BRANCH  11  32
HETATM   32  C18 UNL     1     -90.056 -14.386   9.445  1.00  0.00     0.420 C 
HETATM   33  F1  UNL     1     -90.268 -15.454  10.298  1.00  0.00    -0.166 F 
HETATM   34  F2  UNL     1     -91.252 -13.944   8.944  1.00  0.00    -0.166 F 
HETATM   35  F3  UNL     1     -89.347 -14.893   8.358  1.00  0.00    -0.166 F 
ENDBRANCH  11  32
BRANCH   1  36
HETATM   36  C3  UNL     1     -81.477 -11.437   7.179  1.00  0.00     0.222 C 
HETATM   37  N1  UNL     1     -80.795 -12.672   7.089  1.00  0.00    -0.361 N 
ATOM     38  H1  UNL     1     -80.734 -13.268   7.915  1.00  0.00     0.162 HD
HETATM   39  O1  UNL     1     -81.530 -10.734   6.147  1.00  0.00    -0.273 OA
BRANCH  37  40
HETATM   40  C2  UNL     1     -80.171 -13.120   5.838  1.00  0.00     0.118 C 
HETATM   41  C1  UNL     1     -79.007 -14.030   6.078  1.00  0.00     0.026 C 
ENDBRANCH  37  40
ENDBRANCH   1  36
TORSDOF 10
ENDMDL
MODEL 4
REMARK VINA RESULT: -7.992222855      1.130      1.256
REMARK  10 active torsions:
REMARK  status: ('A' for Active; 'I' for Inactive)
REMARK    1  A    between atoms: C2_2  and  N1_3 
REMARK       I    between atoms: N1_3  and  C3_5 
REMARK    2  A    between atoms: C3_5  and  C4_7 
REMARK    3  A    between atoms: C13_16  and  O2_17 
REMARK    4  A    between atoms: O2_17  and  C14_18 
REMARK    5  A    between atoms: C14_18  and  C15_19 
REMARK    6  A    between atoms: C15_19  and  N2_20 
REMARK    7  A    between atoms: C15_19  and  C16_24 
REMARK    8  A    between atoms: C16_24  and  O3_25 
REMARK    9  A    between atoms: C16_24  and  O4_27 
REMARK   10  A    between atoms: C17_29  and  C18_30 
ROOT
HETATM    1  C4  UNL     1     -84.048 -10.915  15.089  1.00  0.00     0.086 C 
HETATM    2  C5  UNL     1     -83.178 -12.133  15.100  1.00  0.00     0.015 C 
HETATM    3  C6  UNL     1     -84.183 -13.243  14.774  1.00  0.00     0.007 C 
HETATM    4  C7  UNL     1     -85.443 -12.595  14.411  1.00  0.00    -0.001 C 
HETATM    5  C8  UNL     1     -86.321 -13.175  13.384  1.00  0.00     0.003 C 
HETATM    6  C9  UNL     1     -86.965 -14.484  13.842  1.00  0.00     0.010 C 
HETATM    7  C10 UNL     1     -88.135 -14.751  12.974  1.00  0.00     0.039 C 
HETATM    8  C11 UNL     1     -88.042 -14.187  11.624  1.00  0.00    -0.048 A 
HETATM    9  C12 UNL     1     -89.135 -14.392  10.779  1.00  0.00     0.045 A 
HETATM   10  C13 UNL     1     -89.193 -13.926   9.488  1.00  0.00     0.084 A 
HETATM   11  C17 UNL     1     -88.130 -13.216   8.974  1.00  0.00     0.081 A 
HETATM   12  C19 UNL     1     -87.033 -13.006   9.809  1.00  0.00     0.027 A 
HETATM   13  C20 UNL     1     -86.994 -13.481  11.100  1.00  0.00    -0.042 A 
HETATM   14  C21 UNL     1     -85.812 -13.253  11.992  1.00  0.00    -0.012 C 
HETATM   15  C22 UNL     1     -84.900 -14.441  11.727  1.00  0.00     0.021 C 
HETATM   16  C23 UNL     1     -85.048 -12.035  11.573  1.00  0.00     0.015 C 
HETATM   17  C24 UNL     1     -84.374 -11.237  12.603  1.00  0.00     0.011 C 
HETATM   18  C25 UNL     1     -84.996 -11.221  13.956  1.00  0.00    -0.028 C 
HETATM   19  C26 UNL     1     -86.197 -10.304  14.005  1.00  0.00     0.016 C 
ENDROOT
BRANCH  10  20
HETATM   20  O2  UNL     1     -90.286 -14.138   8.665  1.00  0.00    -0.348 OA
BRANCH  20  21
HETATM   21  C14 UNL     1     -91.616 -14.140   9.135  1.00  0.00     0.213 C 
BRANCH  21  22
HETATM   22  C15 UNL     1     -92.222 -15.523   9.139  1.00  0.00     0.262 C 
BRANCH  22  23
HETATM   23  N2  UNL     1     -92.219 -16.126  10.459  1.00  0.00    -0.068 N 
ATOM     24  H23 UNL     1     -92.586 -15.481  11.159  1.00  0.00     0.275 HD
ATOM     25  H22 UNL     1     -92.922 -16.861  10.528  1.00  0.00     0.275 HD
ATOM     26  H21 UNL     1     -91.298 -16.473  10.727  1.00  0.00     0.275 HD
ENDBRANCH  22  23
BRANCH  22  27
HETATM   27  C16 UNL     1     -91.673 -16.419   8.074  1.00  0.00     0.286 C 
BRANCH  27  28
HETATM   28  O3  UNL     1     -92.591 -17.340   7.618  1.00  0.00    -0.369 OA
ATOM     29  H3  UNL     1     -92.189 -18.145   7.312  1.00  0.00     0.212 HD
ENDBRANCH  27  28
BRANCH  27  30
HETATM   30  O4  UNL     1     -90.529 -17.034   8.607  1.00  0.00    -0.369 OA
ATOM     31  H4  UNL     1     -90.114 -17.510   7.897  1.00  0.00     0.212 HD
ENDBRANCH  27  30
ENDBRANCH  22  27
ENDBRANCH  21  22
ENDBRANCH  20  21
ENDBRANCH  10  20
BRANCH  11  32
HETATM   32  C18 UNL     1     -88.129 -12.683   7.589  1.00  0.00     0.420 C 
HETATM   33  F1  UNL     1     -87.877 -13.664   6.647  1.00  0.00    -0.166 F 
HETATM   34  F2  UNL     1     -89.274 -12.005   7.264  1.00  0.00    -0.166 F 
HETATM   35  F3  UNL     1     -87.089 -11.761   7.475  1.00  0.00    -0.166 F 
ENDBRANCH  11  32
BRANCH   1  36
HETATM   36  C3  UNL     1     -83.382  -9.642  15.049  1.00  0.00     0.222 C 
HETATM   37  N1  UNL     1     -82.254  -9.443  14.218  1.00  0.00    -0.361 N 
ATOM     38  H1  UNL     1     -81.917 -10.215  13.644  1.00  0.00     0.162 HD
HETATM   39  O1  UNL     1     -83.765  -8.672  15.738  1.00  0.00    -0.273 OA
BRANCH  37  40
HETATM   40  C2  UNL     1     -81.556  -8.153  14.161  1.00  0.00     0.118 C 
HETATM   41  C1  UNL     1     -80.784  -7.980  12.890  1.00  0.00     0.026 C 
ENDBRANCH  37  40
ENDBRANCH   1  36
TORSDOF 10
ENDMDL
MODEL 5
REMARK VINA RESULT: -7.975753016      3.491      9.354
REMARK  10 active torsions:
REMARK  status: ('A' for Active; 'I' for Inactive)
REMARK    1  A    between atoms: C2_2  and  N1_3 
REMARK       I    between atoms: N1_3  and  C3_5 
REMARK    2  A    between atoms: C3_5  and  C4_7 
REMARK    3  A    between atoms: C13_16  and  O2_17 
REMARK    4  A    between atoms: O2_17  and  C14_18 
REMARK    5  A    between atoms: C14_18  and  C15_19 
REMARK    6  A    between atoms: C15_19  and  N2_20 
REMARK    7  A    between atoms: C15_19  and  C16_24 
REMARK    8  A    between atoms: C16_24  and  O3_25 
REMARK    9  A    between atoms: C16_24  and  O4_27 
REMARK   10  A    between atoms: C17_29  and  C18_30 
ROOT
HETATM    1  C4  UNL     1     -89.942 -13.067   9.629  1.00  0.00     0.086 C 
HETATM    2  C5  UNL     1     -89.452 -14.073   8.635  1.00  0.00     0.015 C 
HETATM    3  C6  UNL     1     -88.122 -13.456   8.191  1.00  0.00     0.007 C 
HETATM    4  C7  UNL     1     -87.859 -12.314   9.067  1.00  0.00    -0.001 C 
HETATM    5  C8  UNL     1     -86.485 -11.971   9.466  1.00  0.00     0.003 C 
HETATM    6  C9  UNL     1     -85.655 -11.443   8.297  1.00  0.00     0.010 C 
HETATM    7  C10 UNL     1     -84.486 -10.720   8.850  1.00  0.00     0.039 C 
HETATM    8  C11 UNL     1     -84.040 -11.187  10.166  1.00  0.00    -0.048 A 
HETATM    9  C12 UNL     1     -82.957 -10.516  10.738  1.00  0.00     0.045 A 
HETATM   10  C13 UNL     1     -82.427 -10.840  11.963  1.00  0.00     0.084 A 
HETATM   11  C17 UNL     1     -82.973 -11.876  12.687  1.00  0.00     0.081 A 
HETATM   12  C19 UNL     1     -84.055 -12.553  12.125  1.00  0.00     0.027 A 
HETATM   13  C20 UNL     1     -84.572 -12.213  10.896  1.00  0.00    -0.042 A 
HETATM   14  C21 UNL     1     -85.735 -12.945  10.298  1.00  0.00    -0.012 C 
HETATM   15  C22 UNL     1     -85.104 -14.082   9.508  1.00  0.00     0.021 C 
HETATM   16  C23 UNL     1     -86.573 -13.586  11.360  1.00  0.00     0.015 C 
HETATM   17  C24 UNL     1     -88.020 -13.703  11.141  1.00  0.00     0.011 C 
HETATM   18  C25 UNL     1     -88.662 -12.650  10.307  1.00  0.00    -0.028 C 
HETATM   19  C26 UNL     1     -88.864 -11.371  11.087  1.00  0.00     0.016 C 
ENDROOT
BRANCH  10  20
HETATM   20  O2  UNL     1     -81.352 -10.163  12.515  1.00  0.00    -0.348 OA
BRANCH  20  21
HETATM   21  C14 UNL     1     -80.875  -8.934  12.013  1.00  0.00     0.213 C 
BRANCH  21  22
HETATM   22  C15 UNL     1     -81.195  -7.776  12.927  1.00  0.00     0.262 C 
BRANCH  22  23
HETATM   23  N2  UNL     1     -80.018  -7.002  13.275  1.00  0.00    -0.068 N 
ATOM     24  H23 UNL     1     -79.171  -7.565  13.195  1.00  0.00     0.275 HD
ATOM     25  H22 UNL     1     -79.817  -6.301  12.562  1.00  0.00     0.275 HD
ATOM     26  H21 UNL     1     -80.091  -6.575  14.199  1.00  0.00     0.275 HD
ENDBRANCH  22  23
BRANCH  22  27
HETATM   27  C16 UNL     1     -82.024  -8.163  14.112  1.00  0.00     0.286 C 
BRANCH  27  28
HETATM   28  O3  UNL     1     -83.378  -8.110  13.862  1.00  0.00    -0.369 OA
ATOM     29  H3  UNL     1     -83.657  -8.725  13.193  1.00  0.00     0.212 HD
ENDBRANCH  27  28
BRANCH  27  30
HETATM   30  O4  UNL     1     -81.650  -7.315  15.167  1.00  0.00    -0.369 OA
ATOM     31  H4  UNL     1     -80.750  -7.054  15.007  1.00  0.00     0.212 HD
ENDBRANCH  27  30
ENDBRANCH  22  27
ENDBRANCH  21  22
ENDBRANCH  20  21
ENDBRANCH  10  20
BRANCH  11  32
HETATM   32  C18 UNL     1     -82.450 -12.276  14.018  1.00  0.00     0.420 C 
HETATM   33  F1  UNL     1     -81.130 -12.685  13.964  1.00  0.00    -0.166 F 
HETATM   34  F2  UNL     1     -82.601 -11.309  14.977  1.00  0.00    -0.166 F 
HETATM   35  F3  UNL     1     -83.179 -13.378  14.462  1.00  0.00    -0.166 F 
ENDBRANCH  11  32
BRANCH   1  36
HETATM   36  C3  UNL     1     -91.024 -13.474  10.485  1.00  0.00     0.222 C 
HETATM   37  N1  UNL     1     -91.123 -14.811  10.938  1.00  0.00    -0.361 N 
ATOM     38  H1  UNL     1     -90.415 -15.486  10.651  1.00  0.00     0.162 HD
HETATM   39  O1  UNL     1     -91.911 -12.675  10.857  1.00  0.00    -0.273 OA
BRANCH  37  40
HETATM   40  C2  UNL     1     -92.217 -15.251  11.811  1.00  0.00     0.118 C 
HETATM   41  C1  UNL     1     -93.284 -15.985  11.059  1.00  0.00     0.026 C 
ENDBRANCH  37  40
ENDBRANCH   1  36
TORSDOF 10
ENDMDL
