MODEL 1
REMARK VINA RESULT: -8.326836947      0.000      0.000
REMARK  12 active torsions:
REMARK  status: ('A' for Active; 'I' for Inactive)
REMARK    1  A    between atoms: N1_2  and  C3_4 
REMARK    2  A    between atoms: C3_4  and  C4_5 
REMARK    3  A    between atoms: C4_5  and  N2_6 
REMARK    4  A    between atoms: N2_6  and  C5_8 
REMARK    5  A    between atoms: C7_12  and  N4_13 
REMARK    6  A    between atoms: N4_13  and  C8_15 
REMARK    7  A    between atoms: C8_15  and  C9_16 
REMARK    8  A    between atoms: C11_18  and  C12_19 
REMARK    9  A    between atoms: C17_24  and  C18_25 
REMARK   10  A    between atoms: C20_30  and  N5_31 
REMARK   11  A    between atoms: N5_31  and  C21_33 
REMARK   12  A    between atoms: C24_36  and  N6_37 
ROOT
HETATM    1  C5  UNL     1     -84.344  -9.811  13.070  1.00  0.00     0.122 A 
HETATM    2  C6  UNL     1     -83.643 -10.380  12.067  1.00  0.00     0.138 A 
HETATM    3  N3  UNL     1     -84.143 -11.449  11.357  1.00  0.00    -0.346 N 
ATOM      4  H3  UNL     1     -83.584 -11.851  10.605  1.00  0.00     0.167 HD
HETATM    5  C7  UNL     1     -85.335 -11.969  11.625  1.00  0.00     0.149 A 
HETATM    6  C20 UNL     1     -86.070 -11.416  12.633  1.00  0.00     0.148 A 
HETATM    7  N7  UNL     1     -85.580 -10.343  13.354  1.00  0.00    -0.325 N 
ATOM      8  H7  UNL     1     -86.141  -9.941  14.105  1.00  0.00     0.169 HD
ENDROOT
BRANCH   5   9
HETATM    9  N4  UNL     1     -85.762 -12.967  11.001  1.00  0.00    -0.348 N 
ATOM     10  H4  UNL     1     -86.167 -13.700  11.583  1.00  0.00     0.167 HD
BRANCH   9  11
HETATM   11  C8  UNL     1     -85.767 -13.227   9.639  1.00  0.00     0.101 C 
BRANCH  11  12
HETATM   12  C9  UNL     1     -87.079 -13.232   8.940  1.00  0.00    -0.019 A 
HETATM   13  C10 UNL     1     -88.074 -13.973   9.545  1.00  0.00     0.020 A 
HETATM   14  C11 UNL     1     -89.336 -14.038   8.990  1.00  0.00    -0.049 A 
HETATM   15  C16 UNL     1     -89.563 -13.353   7.834  1.00  0.00     0.024 A 
HETATM   16  C17 UNL     1     -88.591 -12.589   7.180  1.00  0.00     0.049 A 
HETATM   17  C19 UNL     1     -87.333 -12.553   7.778  1.00  0.00     0.028 A 
BRANCH  14  18
HETATM   18  C12 UNL     1     -90.423 -14.831   9.620  1.00  0.00    -0.024 C 
HETATM   19  C13 UNL     1     -89.963 -15.446  10.926  1.00  0.00     0.019 C 
HETATM   20  C14 UNL     1     -90.741 -15.971   8.660  1.00  0.00     0.019 C 
HETATM   21  C15 UNL     1     -91.648 -13.995   9.877  1.00  0.00     0.019 C 
ENDBRANCH  14  18
BRANCH  16  22
HETATM   22  C18 UNL     1     -88.885 -11.864   5.919  1.00  0.00     0.417 C 
HETATM   23  F1  UNL     1     -88.431 -12.559   4.842  1.00  0.00    -0.166 F 
HETATM   24  F2  UNL     1     -90.217 -11.547   5.876  1.00  0.00    -0.166 F 
HETATM   25  F3  UNL     1     -88.184 -10.658   5.991  1.00  0.00    -0.166 F 
ENDBRANCH  16  22
ENDBRANCH  11  12
ENDBRANCH   9  11
ENDBRANCH   5   9
BRANCH   6  26
HETATM   26  N5  UNL     1     -87.234 -11.761  13.031  1.00  0.00    -0.369 N 
ATOM     27  H5  UNL     1     -87.252 -12.703  13.422  1.00  0.00     0.161 HD
BRANCH  26  28
HETATM   28  C21 UNL     1     -88.487 -11.149  13.054  1.00  0.00     0.083 C 
HETATM   29  C22 UNL     1     -89.502 -11.929  12.193  1.00  0.00     0.027 C 
HETATM   30  C23 UNL     1     -90.874 -11.853  12.854  1.00  0.00     0.035 C 
HETATM   31  C24 UNL     1     -90.918 -12.679  14.128  1.00  0.00     0.183 C 
HETATM   32  C25 UNL     1     -89.496 -12.611  14.698  1.00  0.00     0.035 C 
HETATM   33  C26 UNL     1     -88.984 -11.199  14.504  1.00  0.00     0.027 C 
BRANCH  31  34
HETATM   34  N6  UNL     1     -91.193 -14.070  13.847  1.00  0.00    -0.075 N 
ATOM     35  H63 UNL     1     -92.045 -14.179  13.299  1.00  0.00     0.274 HD
ATOM     36  H62 UNL     1     -90.526 -14.455  13.179  1.00  0.00     0.274 HD
ATOM     37  H61 UNL     1     -91.225 -14.625  14.703  1.00  0.00     0.274 HD
ENDBRANCH  31  34
ENDBRANCH  26  28
ENDBRANCH   6  26
BRANCH   1  38
HETATM   38  N2  UNL     1     -83.919  -8.756  13.846  1.00  0.00    -0.353 N 
ATOM     39  H2  UNL     1     -84.679  -8.362  14.401  1.00  0.00     0.166 HD
BRANCH  38  40
HETATM   40  C4  UNL     1     -82.715  -8.091  14.066  1.00  0.00     0.092 C 
BRANCH  40  41
HETATM   41  C3  UNL     1     -81.726  -8.619  15.006  1.00  0.00     0.315 C 
BRANCH  41  42
HETATM   42  N1  UNL     1     -82.168  -8.195  16.367  1.00  0.00     0.084 N 
HETATM   43  C1  UNL     1     -81.194  -7.310  16.894  1.00  0.00     0.309 C 
HETATM   44  C2  UNL     1     -82.497  -9.347  17.115  1.00  0.00     0.309 C 
ENDBRANCH  41  42
ENDBRANCH  40  41
ENDBRANCH  38  40
ENDBRANCH   1  38
TORSDOF 12
ENDMDL
MODEL 2
REMARK VINA RESULT: -8.248912116      0.689      1.349
REMARK  12 active torsions:
REMARK  status: ('A' for Active; 'I' for Inactive)
REMARK    1  A    between atoms: N1_2  and  C3_4 
REMARK    2  A    between atoms: C3_4  and  C4_5 
REMARK    3  A    between atoms: C4_5  and  N2_6 
REMARK    4  A    between atoms: N2_6  and  C5_8 
REMARK    5  A    between atoms: C7_12  and  N4_13 
REMARK    6  A    between atoms: N4_13  and  C8_15 
REMARK    7  A    between atoms: C8_15  and  C9_16 
REMARK    8  A    between atoms: C11_18  and  C12_19 
REMARK    9  A    between atoms: C17_24  and  C18_25 
REMARK   10  A    between atoms: C20_30  and  N5_31 
REMARK   11  A    between atoms: N5_31  and  C21_33 
REMARK   12  A    between atoms: C24_36  and  N6_37 
ROOT
HETATM    1  C5  UNL     1     -84.305  -9.857  13.122  1.00  0.00     0.122 A 
HETATM    2  C6  UNL     1     -83.605 -10.425  12.118  1.00  0.00     0.138 A 
HETATM    3  N3  UNL     1     -84.118 -11.475  11.388  1.00  0.00    -0.346 N 
ATOM      4  H3  UNL     1     -83.558 -11.877  10.636  1.00  0.00     0.167 HD
HETATM    5  C7  UNL     1     -85.321 -11.977  11.639  1.00  0.00     0.149 A 
HETATM    6  C20 UNL     1     -86.055 -11.425  12.648  1.00  0.00     0.148 A 
HETATM    7  N7  UNL     1     -85.552 -10.371  13.388  1.00  0.00    -0.325 N 
ATOM      8  H7  UNL     1     -86.113  -9.969  14.139  1.00  0.00     0.169 HD
ENDROOT
BRANCH   5   9
HETATM    9  N4  UNL     1     -85.760 -12.957  10.997  1.00  0.00    -0.348 N 
ATOM     10  H4  UNL     1     -86.185 -13.690  11.565  1.00  0.00     0.167 HD
BRANCH   9  11
HETATM   11  C8  UNL     1     -85.756 -13.199   9.632  1.00  0.00     0.101 C 
BRANCH  11  12
HETATM   12  C9  UNL     1     -87.065 -13.203   8.925  1.00  0.00    -0.019 A 
HETATM   13  C10 UNL     1     -88.050 -13.981   9.501  1.00  0.00     0.020 A 
HETATM   14  C11 UNL     1     -89.308 -14.049   8.937  1.00  0.00    -0.049 A 
HETATM   15  C16 UNL     1     -89.541 -13.330   7.803  1.00  0.00     0.024 A 
HETATM   16  C17 UNL     1     -88.579 -12.529   7.179  1.00  0.00     0.049 A 
HETATM   17  C19 UNL     1     -87.324 -12.492   7.785  1.00  0.00     0.028 A 
BRANCH  14  18
HETATM   18  C12 UNL     1     -90.384 -14.880   9.536  1.00  0.00    -0.024 C 
HETATM   19  C13 UNL     1     -90.781 -16.010   8.608  1.00  0.00     0.019 C 
HETATM   20  C14 UNL     1     -91.595 -13.969   9.700  1.00  0.00     0.019 C 
HETATM   21  C15 UNL     1     -89.970 -15.459  10.862  1.00  0.00     0.019 C 
ENDBRANCH  14  18
BRANCH  16  22
HETATM   22  C18 UNL     1     -88.879 -11.769   5.941  1.00  0.00     0.417 C 
HETATM   23  F1  UNL     1     -90.217 -11.578   5.801  1.00  0.00    -0.166 F 
HETATM   24  F2  UNL     1     -88.130 -10.621   5.918  1.00  0.00    -0.166 F 
HETATM   25  F3  UNL     1     -88.435 -12.562   4.879  1.00  0.00    -0.166 F 
ENDBRANCH  16  22
ENDBRANCH  11  12
ENDBRANCH   9  11
ENDBRANCH   5   9
BRANCH   6  26
HETATM   26  N5  UNL     1     -87.229 -11.754  13.030  1.00  0.00    -0.369 N 
ATOM     27  H5  UNL     1     -87.253 -12.670  13.477  1.00  0.00     0.161 HD
BRANCH  26  28
HETATM   28  C21 UNL     1     -88.485 -11.151  12.978  1.00  0.00     0.083 C 
HETATM   29  C22 UNL     1     -89.469 -11.990  12.136  1.00  0.00     0.027 C 
HETATM   30  C23 UNL     1     -90.861 -11.883  12.750  1.00  0.00     0.035 C 
HETATM   31  C24 UNL     1     -90.939 -12.631  14.070  1.00  0.00     0.183 C 
HETATM   32  C25 UNL     1     -89.536 -12.517  14.678  1.00  0.00     0.035 C 
HETATM   33  C26 UNL     1     -89.026 -11.116  14.412  1.00  0.00     0.027 C 
BRANCH  31  34
HETATM   34  N6  UNL     1     -91.197 -14.039  13.867  1.00  0.00    -0.075 N 
ATOM     35  H63 UNL     1     -90.975 -14.325  12.914  1.00  0.00     0.274 HD
ATOM     36  H62 UNL     1     -90.522 -14.618  14.366  1.00  0.00     0.274 HD
ATOM     37  H61 UNL     1     -92.155 -14.283  14.118  1.00  0.00     0.274 HD
ENDBRANCH  31  34
ENDBRANCH  26  28
ENDBRANCH   6  26
BRANCH   1  38
HETATM   38  N2  UNL     1     -83.868  -8.821  13.917  1.00  0.00    -0.353 N 
ATOM     39  H2  UNL     1     -84.483  -8.010  13.857  1.00  0.00     0.166 HD
BRANCH  38  40
HETATM   40  C4  UNL     1     -82.798  -8.600  14.783  1.00  0.00     0.092 C 
BRANCH  40  41
HETATM   41  C3  UNL     1     -82.956  -8.761  16.228  1.00  0.00     0.315 C 
BRANCH  41  42
HETATM   42  N1  UNL     1     -83.773  -9.994  16.428  1.00  0.00     0.084 N 
HETATM   43  C1  UNL     1     -84.911  -9.653  17.200  1.00  0.00     0.309 C 
HETATM   44  C2  UNL     1     -82.928 -11.023  16.903  1.00  0.00     0.309 C 
ENDBRANCH  41  42
ENDBRANCH  40  41
ENDBRANCH  38  40
ENDBRANCH   1  38
TORSDOF 12
ENDMDL
MODEL 3
REMARK VINA RESULT: -7.948450300      3.941      7.039
REMARK  12 active torsions:
REMARK  status: ('A' for Active; 'I' for Inactive)
REMARK    1  A    between atoms: N1_2  and  C3_4 
REMARK    2  A    between atoms: C3_4  and  C4_5 
REMARK    3  A    between atoms: C4_5  and  N2_6 
REMARK    4  A    between atoms: N2_6  and  C5_8 
REMARK    5  A    between atoms: C7_12  and  N4_13 
REMARK    6  A    between atoms: N4_13  and  C8_15 
REMARK    7  A    between atoms: C8_15  and  C9_16 
REMARK    8  A    between atoms: C11_18  and  C12_19 
REMARK    9  A    between atoms: C17_24  and  C18_25 
REMARK   10  A    between atoms: C20_30  and  N5_31 
REMARK   11  A    between atoms: N5_31  and  C21_33 
REMARK   12  A    between atoms: C24_36  and  N6_37 
ROOT
HETATM    1  C5  UNL     1     -86.141 -11.632   5.603  1.00  0.00     0.122 A 
HETATM    2  C6  UNL     1     -87.405 -12.023   5.344  1.00  0.00     0.138 A 
HETATM    3  N3  UNL     1     -88.228 -12.499   6.341  1.00  0.00    -0.346 N 
ATOM      4  H3  UNL     1     -89.179 -12.784   6.107  1.00  0.00     0.167 HD
HETATM    5  C7  UNL     1     -87.816 -12.595   7.600  1.00  0.00     0.149 A 
HETATM    6  C20 UNL     1     -86.542 -12.206   7.895  1.00  0.00     0.148 A 
HETATM    7  N7  UNL     1     -85.706 -11.727   6.904  1.00  0.00    -0.325 N 
ATOM      8  H7  UNL     1     -84.756 -11.441   7.140  1.00  0.00     0.169 HD
ENDROOT
BRANCH   5   9
HETATM    9  N4  UNL     1     -88.558 -13.068   8.490  1.00  0.00    -0.348 N 
ATOM     10  H4  UNL     1     -88.500 -12.600   9.394  1.00  0.00     0.167 HD
BRANCH   9  11
HETATM   11  C8  UNL     1     -89.447 -14.130   8.434  1.00  0.00     0.101 C 
BRANCH  11  12
HETATM   12  C9  UNL     1     -90.179 -14.488   9.678  1.00  0.00    -0.019 A 
HETATM   13  C10 UNL     1     -89.615 -14.032  10.853  1.00  0.00     0.020 A 
HETATM   14  C11 UNL     1     -90.217 -14.294  12.067  1.00  0.00    -0.049 A 
HETATM   15  C16 UNL     1     -91.375 -15.012  12.066  1.00  0.00     0.024 A 
HETATM   16  C17 UNL     1     -91.987 -15.498  10.905  1.00  0.00     0.049 A 
HETATM   17  C19 UNL     1     -91.343 -15.208   9.704  1.00  0.00     0.028 A 
BRANCH  14  18
HETATM   18  C12 UNL     1     -89.628 -13.817  13.345  1.00  0.00    -0.024 C 
HETATM   19  C13 UNL     1     -90.700 -13.610  14.396  1.00  0.00     0.019 C 
HETATM   20  C14 UNL     1     -88.999 -12.460  13.053  1.00  0.00     0.019 C 
HETATM   21  C15 UNL     1     -88.599 -14.777  13.878  1.00  0.00     0.019 C 
ENDBRANCH  14  18
BRANCH  16  22
HETATM   22  C18 UNL     1     -93.246 -16.281  10.956  1.00  0.00     0.417 C 
HETATM   23  F1  UNL     1     -93.376 -16.915  12.152  1.00  0.00    -0.166 F 
HETATM   24  F2  UNL     1     -94.300 -15.471  10.619  1.00  0.00    -0.166 F 
HETATM   25  F3  UNL     1     -93.143 -17.250   9.955  1.00  0.00    -0.166 F 
ENDBRANCH  16  22
ENDBRANCH  11  12
ENDBRANCH   9  11
ENDBRANCH   5   9
BRANCH   6  26
HETATM   26  N5  UNL     1     -85.969 -12.208   9.037  1.00  0.00    -0.369 N 
ATOM     27  H5  UNL     1     -86.491 -11.683   9.738  1.00  0.00     0.161 HD
BRANCH  26  28
HETATM   28  C21 UNL     1     -84.796 -12.763   9.548  1.00  0.00     0.083 C 
HETATM   29  C22 UNL     1     -84.311 -11.986  10.790  1.00  0.00     0.027 C 
HETATM   30  C23 UNL     1     -83.686 -12.969  11.774  1.00  0.00     0.035 C 
HETATM   31  C24 UNL     1     -84.742 -13.856  12.413  1.00  0.00     0.183 C 
HETATM   32  C25 UNL     1     -85.825 -14.023  11.340  1.00  0.00     0.035 C 
HETATM   33  C26 UNL     1     -85.135 -14.187  10.003  1.00  0.00     0.027 C 
BRANCH  31  34
HETATM   34  N6  UNL     1     -85.366 -13.205  13.543  1.00  0.00    -0.075 N 
ATOM     35  H63 UNL     1     -85.981 -12.448  13.246  1.00  0.00     0.274 HD
ATOM     36  H62 UNL     1     -86.060 -13.808  13.985  1.00  0.00     0.274 HD
ATOM     37  H61 UNL     1     -84.671 -12.880  14.217  1.00  0.00     0.274 HD
ENDBRANCH  31  34
ENDBRANCH  26  28
ENDBRANCH   6  26
BRANCH   1  38
HETATM   38  N2  UNL     1     -85.241 -11.163   4.671  1.00  0.00    -0.353 N 
ATOM     39  H2  UNL     1     -85.706 -10.839   3.823  1.00  0.00     0.166 HD
BRANCH  38  40
HETATM   40  C4  UNL     1     -83.857 -11.019   4.593  1.00  0.00     0.092 C 
BRANCH  40  41
HETATM   41  C3  UNL     1     -82.979 -12.189   4.602  1.00  0.00     0.315 C 
BRANCH  41  42
HETATM   42  N1  UNL     1     -81.814 -11.836   5.465  1.00  0.00     0.084 N 
HETATM   43  C1  UNL     1     -82.142 -12.154   6.807  1.00  0.00     0.309 C 
HETATM   44  C2  UNL     1     -81.418 -10.512   5.170  1.00  0.00     0.309 C 
ENDBRANCH  41  42
ENDBRANCH  40  41
ENDBRANCH  38  40
ENDBRANCH   1  38
TORSDOF 12
ENDMDL
MODEL 4
REMARK VINA RESULT: -7.937661078      3.669      7.918
REMARK  12 active torsions:
REMARK  status: ('A' for Active; 'I' for Inactive)
REMARK    1  A    between atoms: N1_2  and  C3_4 
REMARK    2  A    between atoms: C3_4  and  C4_5 
REMARK    3  A    between atoms: C4_5  and  N2_6 
REMARK    4  A    between atoms: N2_6  and  C5_8 
REMARK    5  A    between atoms: C7_12  and  N4_13 
REMARK    6  A    between atoms: N4_13  and  C8_15 
REMARK    7  A    between atoms: C8_15  and  C9_16 
REMARK    8  A    between atoms: C11_18  and  C12_19 
REMARK    9  A    between atoms: C17_24  and  C18_25 
REMARK   10  A    between atoms: C20_30  and  N5_31 
REMARK   11  A    between atoms: N5_31  and  C21_33 
REMARK   12  A    between atoms: C24_36  and  N6_37 
ROOT
HETATM    1  C5  UNL     1     -91.920 -13.524  12.143  1.00  0.00     0.122 A 
HETATM    2  C6  UNL     1     -91.660 -12.590  11.205  1.00  0.00     0.138 A 
HETATM    3  N3  UNL     1     -90.743 -11.586  11.426  1.00  0.00    -0.346 N 
ATOM      4  H3  UNL     1     -90.573 -10.898  10.692  1.00  0.00     0.167 HD
HETATM    5  C7  UNL     1     -90.075 -11.489  12.569  1.00  0.00     0.149 A 
HETATM    6  C20 UNL     1     -90.314 -12.420  13.538  1.00  0.00     0.148 A 
HETATM    7  N7  UNL     1     -91.232 -13.432  13.329  1.00  0.00    -0.325 N 
ATOM      8  H7  UNL     1     -91.401 -14.120  14.064  1.00  0.00     0.169 HD
ENDROOT
BRANCH   5   9
HETATM    9  N4  UNL     1     -89.275 -10.549  12.775  1.00  0.00    -0.348 N 
ATOM     10  H4  UNL     1     -89.220 -10.233  13.743  1.00  0.00     0.167 HD
BRANCH   9  11
HETATM   11  C8  UNL     1     -88.454  -9.872  11.887  1.00  0.00     0.101 C 
BRANCH  11  12
HETATM   12  C9  UNL     1     -87.076 -10.391  11.683  1.00  0.00    -0.019 A 
HETATM   13  C10 UNL     1     -86.935 -11.331  10.681  1.00  0.00     0.020 A 
HETATM   14  C11 UNL     1     -85.698 -11.873  10.395  1.00  0.00    -0.049 A 
HETATM   15  C16 UNL     1     -84.631 -11.452  11.131  1.00  0.00     0.024 A 
HETATM   16  C17 UNL     1     -84.718 -10.505  12.157  1.00  0.00     0.049 A 
HETATM   17  C19 UNL     1     -85.987  -9.987  12.408  1.00  0.00     0.028 A 
BRANCH  14  18
HETATM   18  C12 UNL     1     -85.522 -12.887   9.324  1.00  0.00    -0.024 C 
HETATM   19  C13 UNL     1     -84.900 -14.155   9.871  1.00  0.00     0.019 C 
HETATM   20  C14 UNL     1     -84.547 -12.290   8.318  1.00  0.00     0.019 C 
HETATM   21  C15 UNL     1     -86.829 -13.229   8.660  1.00  0.00     0.019 C 
ENDBRANCH  14  18
BRANCH  16  22
HETATM   22  C18 UNL     1     -83.527 -10.084  12.934  1.00  0.00     0.417 C 
HETATM   23  F1  UNL     1     -82.416 -10.069  12.149  1.00  0.00    -0.166 F 
HETATM   24  F2  UNL     1     -83.794  -8.900  13.571  1.00  0.00    -0.166 F 
HETATM   25  F3  UNL     1     -83.349 -11.048  13.929  1.00  0.00    -0.166 F 
ENDBRANCH  16  22
ENDBRANCH  11  12
ENDBRANCH   9  11
ENDBRANCH   5   9
BRANCH   6  26
HETATM   26  N5  UNL     1     -89.768 -12.506  14.690  1.00  0.00    -0.369 N 
ATOM     27  H5  UNL     1     -90.261 -11.964  15.399  1.00  0.00     0.161 HD
BRANCH  26  28
HETATM   28  C21 UNL     1     -88.653 -13.170  15.202  1.00  0.00     0.083 C 
HETATM   29  C22 UNL     1     -87.361 -12.709  14.497  1.00  0.00     0.027 C 
HETATM   30  C23 UNL     1     -86.221 -12.697  15.511  1.00  0.00     0.035 C 
HETATM   31  C24 UNL     1     -86.390 -11.570  16.516  1.00  0.00     0.183 C 
HETATM   32  C25 UNL     1     -87.906 -11.396  16.670  1.00  0.00     0.035 C 
HETATM   33  C26 UNL     1     -88.535 -12.774  16.678  1.00  0.00     0.027 C 
BRANCH  31  34
HETATM   34  N6  UNL     1     -85.873 -10.322  16.003  1.00  0.00    -0.075 N 
ATOM     35  H63 UNL     1     -85.428 -10.447  15.094  1.00  0.00     0.274 HD
ATOM     36  H62 UNL     1     -86.625  -9.693  15.724  1.00  0.00     0.274 HD
ATOM     37  H61 UNL     1     -85.242  -9.877  16.670  1.00  0.00     0.274 HD
ENDBRANCH  31  34
ENDBRANCH  26  28
ENDBRANCH   6  26
BRANCH   1  38
HETATM   38  N2  UNL     1     -92.831 -14.550  12.020  1.00  0.00    -0.353 N 
ATOM     39  H2  UNL     1     -93.213 -14.829  12.924  1.00  0.00     0.166 HD
BRANCH  38  40
HETATM   40  C4  UNL     1     -93.363 -15.303  10.975  1.00  0.00     0.092 C 
BRANCH  40  41
HETATM   41  C3  UNL     1     -92.664 -16.485  10.470  1.00  0.00     0.315 C 
BRANCH  41  42
HETATM   42  N1  UNL     1     -91.731 -16.003   9.411  1.00  0.00     0.084 N 
HETATM   43  C1  UNL     1     -91.924 -16.797   8.253  1.00  0.00     0.309 C 
HETATM   44  C2  UNL     1     -90.430 -15.925   9.957  1.00  0.00     0.309 C 
ENDBRANCH  41  42
ENDBRANCH  40  41
ENDBRANCH  38  40
ENDBRANCH   1  38
TORSDOF 12
ENDMDL
MODEL 5
REMARK VINA RESULT: -7.831953930      1.476      2.137
REMARK  12 active torsions:
REMARK  status: ('A' for Active; 'I' for Inactive)
REMARK    1  A    between atoms: N1_2  and  C3_4 
REMARK    2  A    between atoms: C3_4  and  C4_5 
REMARK    3  A    between atoms: C4_5  and  N2_6 
REMARK    4  A    between atoms: N2_6  and  C5_8 
REMARK    5  A    between atoms: C7_12  and  N4_13 
REMARK    6  A    between atoms: N4_13  and  C8_15 
REMARK    7  A    between atoms: C8_15  and  C9_16 
REMARK    8  A    between atoms: C11_18  and  C12_19 
REMARK    9  A    between atoms: C17_24  and  C18_25 
REMARK   10  A    between atoms: C20_30  and  N5_31 
REMARK   11  A    between atoms: N5_31  and  C21_33 
REMARK   12  A    between atoms: C24_36  and  N6_37 
ROOT
HETATM    1  C5  UNL     1     -83.385 -10.862  13.305  1.00  0.00     0.122 A 
HETATM    2  C6  UNL     1     -82.682 -11.720  12.538  1.00  0.00     0.138 A 
HETATM    3  N3  UNL     1     -83.161 -12.154  11.321  1.00  0.00    -0.346 N 
ATOM      4  H3  UNL     1     -82.599 -12.802  10.769  1.00  0.00     0.167 HD
HETATM    5  C7  UNL     1     -84.334 -11.752  10.849  1.00  0.00     0.149 A 
HETATM    6  C20 UNL     1     -85.071 -10.883  11.601  1.00  0.00     0.148 A 
HETATM    7  N7  UNL     1     -84.601 -10.439  12.823  1.00  0.00    -0.325 N 
ATOM      8  H7  UNL     1     -85.164  -9.790  13.374  1.00  0.00     0.169 HD
ENDROOT
BRANCH   5   9
HETATM    9  N4  UNL     1     -84.779 -12.185   9.762  1.00  0.00    -0.348 N 
ATOM     10  H4  UNL     1     -84.616 -11.580   8.957  1.00  0.00     0.167 HD
BRANCH   9  11
HETATM   11  C8  UNL     1     -85.458 -13.361   9.486  1.00  0.00     0.101 C 
BRANCH  11  12
HETATM   12  C9  UNL     1     -86.798 -13.255   8.850  1.00  0.00    -0.019 A 
HETATM   13  C10 UNL     1     -87.820 -13.918   9.500  1.00  0.00     0.020 A 
HETATM   14  C11 UNL     1     -89.108 -13.877   9.006  1.00  0.00    -0.049 A 
HETATM   15  C16 UNL     1     -89.333 -13.167   7.864  1.00  0.00     0.024 A 
HETATM   16  C17 UNL     1     -88.335 -12.480   7.167  1.00  0.00     0.049 A 
HETATM   17  C19 UNL     1     -87.051 -12.550   7.704  1.00  0.00     0.028 A 
BRANCH  14  18
HETATM   18  C12 UNL     1     -90.225 -14.584   9.686  1.00  0.00    -0.024 C 
HETATM   19  C13 UNL     1     -91.420 -13.670   9.867  1.00  0.00     0.019 C 
HETATM   20  C14 UNL     1     -89.718 -14.963  11.072  1.00  0.00     0.019 C 
HETATM   21  C15 UNL     1     -90.655 -15.809   8.924  1.00  0.00     0.019 C 
ENDBRANCH  14  18
BRANCH  16  22
HETATM   22  C18 UNL     1     -88.629 -11.725   5.924  1.00  0.00     0.417 C 
HETATM   23  F1  UNL     1     -89.956 -11.446   5.828  1.00  0.00    -0.166 F 
HETATM   24  F2  UNL     1     -87.806 -10.631   5.850  1.00  0.00    -0.166 F 
HETATM   25  F3  UNL     1     -88.279 -12.566   4.865  1.00  0.00    -0.166 F 
ENDBRANCH  16  22
ENDBRANCH  11  12
ENDBRANCH   9  11
ENDBRANCH   5   9
BRANCH   6  26
HETATM   26  N5  UNL     1     -86.207 -10.372  11.316  1.00  0.00    -0.369 N 
ATOM     27  H5  UNL     1     -86.129  -9.424  10.950  1.00  0.00     0.161 HD
BRANCH  26  28
HETATM   28  C21 UNL     1     -87.528 -10.811  11.391  1.00  0.00     0.083 C 
HETATM   29  C22 UNL     1     -87.668 -11.984  12.382  1.00  0.00     0.027 C 
HETATM   30  C23 UNL     1     -89.012 -11.873  13.094  1.00  0.00     0.035 C 
HETATM   31  C24 UNL     1     -89.027 -10.704  14.065  1.00  0.00     0.183 C 
HETATM   32  C25 UNL     1     -88.105  -9.652  13.436  1.00  0.00     0.035 C 
HETATM   33  C26 UNL     1     -88.357  -9.645  11.943  1.00  0.00     0.027 C 
BRANCH  31  34
HETATM   34  N6  UNL     1     -88.446 -11.066  15.338  1.00  0.00    -0.075 N 
ATOM     35  H63 UNL     1     -88.429 -10.274  15.979  1.00  0.00     0.274 HD
ATOM     36  H62 UNL     1     -89.061 -11.684  15.867  1.00  0.00     0.274 HD
ATOM     37  H61 UNL     1     -87.517 -11.473  15.222  1.00  0.00     0.274 HD
ENDBRANCH  31  34
ENDBRANCH  26  28
ENDBRANCH   6  26
BRANCH   1  38
HETATM   38  N2  UNL     1     -82.998 -10.390  14.540  1.00  0.00    -0.353 N 
ATOM     39  H2  UNL     1     -82.873 -11.145  15.214  1.00  0.00     0.166 HD
BRANCH  38  40
HETATM   40  C4  UNL     1     -82.734  -9.142  15.102  1.00  0.00     0.092 C 
BRANCH  40  41
HETATM   41  C3  UNL     1     -82.332  -8.012  14.264  1.00  0.00     0.315 C 
BRANCH  41  42
HETATM   42  N1  UNL     1     -80.948  -8.309  13.791  1.00  0.00     0.084 N 
HETATM   43  C1  UNL     1     -80.033  -7.693  14.680  1.00  0.00     0.309 C 
HETATM   44  C2  UNL     1     -80.863  -7.988  12.417  1.00  0.00     0.309 C 
ENDBRANCH  41  42
ENDBRANCH  40  41
ENDBRANCH  38  40
ENDBRANCH   1  38
TORSDOF 12
ENDMDL
