MODEL 1
REMARK VINA RESULT: -8.784182897      0.000      0.000
REMARK  7 active torsions:
REMARK  status: ('A' for Active; 'I' for Inactive)
REMARK    1  A    between atoms: C2_2  and  C3_3 
REMARK    2  A    between atoms: C3_3  and  C4_4 
REMARK    3  A    between atoms: C6_6  and  C7_7 
REMARK    4  A    between atoms: C10_12  and  C11_13 
REMARK    5  A    between atoms: C13_15  and  N2_16 
REMARK    6  A    between atoms: N2_16  and  C14_18 
REMARK    7  A    between atoms: C15_19  and  O1_20 
ROOT
HETATM    1  C11 UNL     1     -88.544 -15.110   9.665  1.00  0.00     0.004 A 
HETATM    2  C12 UNL     1     -89.850 -15.534   9.669  1.00  0.00     0.062 A 
HETATM    3  C13 UNL     1     -90.617 -15.630   8.531  1.00  0.00     0.106 A 
HETATM    4  N5  UNL     1     -90.002 -15.274   7.367  1.00  0.00    -0.351 N 
ATOM      5  H5  UNL     1     -90.527 -15.328   6.495  1.00  0.00     0.166 HD
HETATM    6  C20 UNL     1     -88.728 -14.855   7.334  1.00  0.00     0.114 A 
HETATM    7  C21 UNL     1     -87.956 -14.757   8.473  1.00  0.00     0.060 A 
HETATM    8 CL1  UNL     1     -86.292 -14.216   8.453  1.00  0.00    -0.082 Cl
ENDROOT
BRANCH   1   9
HETATM    9  C10 UNL     1     -87.745 -15.036  10.932  1.00  0.00     0.011 A 
HETATM   10  C9  UNL     1     -87.782 -13.994  11.806  1.00  0.00     0.062 A 
HETATM   11  N1  UNL     1     -88.423 -12.787  11.912  1.00  0.00    -0.363 N 
HETATM   12  C23 UNL     1     -86.995 -14.084  12.907  1.00  0.00     0.046 A 
HETATM   13  C8  UNL     1     -88.025 -12.162  13.060  1.00  0.00     0.103 A 
ATOM     14  H1  UNL     1     -89.091 -12.414  11.238  1.00  0.00     0.165 HD
HETATM   15  C7  UNL     1     -87.120 -12.949  13.721  1.00  0.00     0.027 A 
HETATM   16  S1  UNL     1     -86.224 -15.586  12.724  1.00  0.00    -0.098 SA
HETATM   17  C22 UNL     1     -86.916 -16.079  11.245  1.00  0.00     0.065 A 
BRANCH  15  18
HETATM   18  C6  UNL     1     -86.404 -12.740  14.968  1.00  0.00     0.065 A 
HETATM   19  C5  UNL     1     -85.177 -12.071  15.067  1.00  0.00     0.058 A 
HETATM   20  C4  UNL     1     -84.779 -12.039  16.388  1.00  0.00     0.028 A 
HETATM   21  N7  UNL     1     -85.753 -12.678  17.064  1.00  0.00    -0.303 N 
HETATM   22  N6  UNL     1     -86.702 -13.085  16.218  1.00  0.00    -0.296 N 
ATOM     23  H7  UNL     1     -85.764 -12.829  18.072  1.00  0.00     0.186 HD
HETATM   24  C24 UNL     1     -87.899 -13.816  16.631  1.00  0.00     0.178 C 
BRANCH  20  25
HETATM   25  C3  UNL     1     -83.533 -11.427  16.940  1.00  0.00     0.058 C 
BRANCH  25  26
HETATM   26  C2  UNL     1     -82.666 -10.884  15.821  1.00  0.00     0.002 C 
HETATM   27  C1  UNL     1     -81.558 -10.080  16.498  1.00  0.00     0.005 C 
ENDBRANCH  25  26
ENDBRANCH  20  25
ENDBRANCH  15  18
ENDBRANCH   1   9
BRANCH   3  28
HETATM   28  N2  UNL     1     -91.841 -16.030   8.492  1.00  0.00    -0.337 N 
ATOM     29  H2  UNL     1     -92.443 -15.647   7.764  1.00  0.00     0.167 HD
BRANCH  28  30
HETATM   30  C14 UNL     1     -92.408 -16.968   9.393  1.00  0.00     0.111 A 
HETATM   31  C15 UNL     1     -93.201 -16.443  10.435  1.00  0.00     0.100 A 
HETATM   32  C17 UNL     1     -93.763 -17.376  11.325  1.00  0.00     0.056 A 
HETATM   33  C18 UNL     1     -93.529 -18.705  11.154  1.00  0.00     0.092 A 
HETATM   34  N3  UNL     1     -92.771 -19.175  10.155  1.00  0.00    -0.351 N 
HETATM   35  C19 UNL     1     -92.221 -18.310   9.289  1.00  0.00     0.128 A 
ATOM     36  H3  UNL     1     -92.614 -20.178  10.054  1.00  0.00     0.166 HD
HETATM   37  N4  UNL     1     -91.485 -18.801   8.301  1.00  0.00    -0.384 N 
ATOM     38  H42 UNL     1     -91.067 -18.144   7.642  1.00  0.00     0.157 HD
ATOM     39  H41 UNL     1     -91.346 -19.808   8.223  1.00  0.00     0.157 HD
BRANCH  31  40
HETATM   40  O1  UNL     1     -93.422 -15.189  10.596  1.00  0.00    -0.353 OA
HETATM   41  C16 UNL     1     -93.864 -14.036  10.926  1.00  0.00     0.210 C 
ENDBRANCH  31  40
ENDBRANCH  28  30
ENDBRANCH   3  28
TORSDOF 7
ENDMDL
MODEL 2
REMARK VINA RESULT: -8.744415198      1.313      2.011
REMARK  7 active torsions:
REMARK  status: ('A' for Active; 'I' for Inactive)
REMARK    1  A    between atoms: C2_2  and  C3_3 
REMARK    2  A    between atoms: C3_3  and  C4_4 
REMARK    3  A    between atoms: C6_6  and  C7_7 
REMARK    4  A    between atoms: C10_12  and  C11_13 
REMARK    5  A    between atoms: C13_15  and  N2_16 
REMARK    6  A    between atoms: N2_16  and  C14_18 
REMARK    7  A    between atoms: C15_19  and  O1_20 
ROOT
HETATM    1  C11 UNL     1     -88.703 -14.973   9.187  1.00  0.00     0.004 A 
HETATM    2  C12 UNL     1     -90.008 -15.356   9.372  1.00  0.00     0.062 A 
HETATM    3  C13 UNL     1     -90.915 -15.470   8.343  1.00  0.00     0.106 A 
HETATM    4  N5  UNL     1     -90.443 -15.176   7.098  1.00  0.00    -0.351 N 
ATOM      5  H5  UNL     1     -91.075 -15.245   6.301  1.00  0.00     0.166 HD
HETATM    6  C20 UNL     1     -89.173 -14.798   6.889  1.00  0.00     0.114 A 
HETATM    7  C21 UNL     1     -88.260 -14.683   7.918  1.00  0.00     0.060 A 
HETATM    8 CL1  UNL     1     -86.599 -14.194   7.668  1.00  0.00    -0.082 Cl
ENDROOT
BRANCH   1   9
HETATM    9  C10 UNL     1     -87.749 -14.878  10.340  1.00  0.00     0.011 A 
HETATM   10  C9  UNL     1     -87.711 -13.846  11.225  1.00  0.00     0.062 A 
HETATM   11  N1  UNL     1     -88.377 -12.666  11.429  1.00  0.00    -0.363 N 
HETATM   12  C23 UNL     1     -86.783 -13.914  12.213  1.00  0.00     0.046 A 
HETATM   13  C8  UNL     1     -87.857 -12.035  12.524  1.00  0.00     0.103 A 
ATOM     14  H1  UNL     1     -89.142 -12.314  10.853  1.00  0.00     0.165 HD
HETATM   15  C7  UNL     1     -86.844 -12.792  13.051  1.00  0.00     0.027 A 
HETATM   16  S1  UNL     1     -85.987 -15.383  11.911  1.00  0.00    -0.098 SA
HETATM   17  C22 UNL     1     -86.847 -15.891  10.529  1.00  0.00     0.065 A 
BRANCH  15  18
HETATM   18  C6  UNL     1     -85.979 -12.564  14.198  1.00  0.00     0.065 A 
HETATM   19  C5  UNL     1     -86.353 -12.810  15.525  1.00  0.00     0.058 A 
HETATM   20  C4  UNL     1     -85.300 -12.499  16.361  1.00  0.00     0.028 A 
HETATM   21  N7  UNL     1     -84.317 -12.075  15.544  1.00  0.00    -0.303 N 
HETATM   22  N6  UNL     1     -84.728 -12.118  14.275  1.00  0.00    -0.296 N 
ATOM     23  H7  UNL     1     -83.394 -11.766  15.850  1.00  0.00     0.186 HD
HETATM   24  C24 UNL     1     -83.900 -11.718  13.138  1.00  0.00     0.178 C 
BRANCH  20  25
HETATM   25  C3  UNL     1     -85.269 -12.610  17.850  1.00  0.00     0.058 C 
BRANCH  25  26
HETATM   26  C2  UNL     1     -85.918 -13.902  18.302  1.00  0.00     0.002 C 
HETATM   27  C1  UNL     1     -87.381 -13.565  18.582  1.00  0.00     0.005 C 
ENDBRANCH  25  26
ENDBRANCH  20  25
ENDBRANCH  15  18
ENDBRANCH   1   9
BRANCH   3  28
HETATM   28  N2  UNL     1     -92.144 -15.832   8.473  1.00  0.00    -0.337 N 
ATOM     29  H2  UNL     1     -92.839 -15.379   7.881  1.00  0.00     0.167 HD
BRANCH  28  30
HETATM   30  C14 UNL     1     -92.597 -16.821   9.385  1.00  0.00     0.111 A 
HETATM   31  C15 UNL     1     -93.274 -16.358  10.533  1.00  0.00     0.100 A 
HETATM   32  C17 UNL     1     -93.723 -17.341  11.434  1.00  0.00     0.056 A 
HETATM   33  C18 UNL     1     -93.495 -18.657  11.173  1.00  0.00     0.092 A 
HETATM   34  N3  UNL     1     -92.849 -19.067  10.074  1.00  0.00    -0.351 N 
HETATM   35  C19 UNL     1     -92.409 -18.154   9.195  1.00  0.00     0.128 A 
ATOM     36  H3  UNL     1     -92.694 -20.061   9.907  1.00  0.00     0.166 HD
HETATM   37  N4  UNL     1     -91.783 -18.585   8.109  1.00  0.00    -0.384 N 
ATOM     38  H42 UNL     1     -91.448 -17.891   7.441  1.00  0.00     0.157 HD
ATOM     39  H41 UNL     1     -91.642 -19.585   7.967  1.00  0.00     0.157 HD
BRANCH  31  40
HETATM   40  O1  UNL     1     -93.489 -15.117  10.779  1.00  0.00    -0.353 OA
HETATM   41  C16 UNL     1     -93.982 -13.971  11.054  1.00  0.00     0.210 C 
ENDBRANCH  31  40
ENDBRANCH  28  30
ENDBRANCH   3  28
TORSDOF 7
ENDMDL
MODEL 3
REMARK VINA RESULT: -8.733625743      5.275      8.995
REMARK  7 active torsions:
REMARK  status: ('A' for Active; 'I' for Inactive)
REMARK    1  A    between atoms: C2_2  and  C3_3 
REMARK    2  A    between atoms: C3_3  and  C4_4 
REMARK    3  A    between atoms: C6_6  and  C7_7 
REMARK    4  A    between atoms: C10_12  and  C11_13 
REMARK    5  A    between atoms: C13_15  and  N2_16 
REMARK    6  A    between atoms: N2_16  and  C14_18 
REMARK    7  A    between atoms: C15_19  and  O1_20 
ROOT
HETATM    1  C11 UNL     1     -87.468 -16.813  14.737  1.00  0.00     0.004 A 
HETATM    2  C12 UNL     1     -86.641 -17.906  14.809  1.00  0.00     0.062 A 
HETATM    3  C13 UNL     1     -86.375 -18.576  15.981  1.00  0.00     0.106 A 
HETATM    4  N5  UNL     1     -86.988 -18.090  17.098  1.00  0.00    -0.351 N 
ATOM      5  H5  UNL     1     -86.824 -18.551  17.992  1.00  0.00     0.166 HD
HETATM    6  C20 UNL     1     -87.800 -17.022  17.056  1.00  0.00     0.114 A 
HETATM    7  C21 UNL     1     -88.070 -16.348  15.883  1.00  0.00     0.060 A 
HETATM    8 CL1  UNL     1     -89.126 -14.956  15.805  1.00  0.00    -0.082 Cl
ENDROOT
BRANCH   1   9
HETATM    9  C10 UNL     1     -87.738 -16.126  13.432  1.00  0.00     0.011 A 
HETATM   10  C9  UNL     1     -88.686 -16.515  12.537  1.00  0.00     0.062 A 
HETATM   11  N1  UNL     1     -89.628 -17.505  12.432  1.00  0.00    -0.363 N 
HETATM   12  C23 UNL     1     -88.801 -15.783  11.401  1.00  0.00     0.046 A 
HETATM   13  C8  UNL     1     -90.299 -17.369  11.249  1.00  0.00     0.103 A 
ATOM     14  H1  UNL     1     -89.801 -18.231  13.127  1.00  0.00     0.165 HD
HETATM   15  C7  UNL     1     -89.806 -16.289  10.565  1.00  0.00     0.027 A 
HETATM   16  S1  UNL     1     -87.615 -14.582  11.580  1.00  0.00    -0.098 SA
HETATM   17  C22 UNL     1     -86.987 -15.029  13.102  1.00  0.00     0.065 A 
BRANCH  15  18
HETATM   18  C6  UNL     1     -90.169 -15.731   9.272  1.00  0.00     0.065 A 
HETATM   19  C5  UNL     1     -89.246 -15.399   8.272  1.00  0.00     0.058 A 
HETATM   20  C4  UNL     1     -89.920 -14.904   7.174  1.00  0.00     0.028 A 
HETATM   21  N7  UNL     1     -91.223 -14.942   7.516  1.00  0.00    -0.303 N 
HETATM   22  N6  UNL     1     -91.356 -15.429   8.751  1.00  0.00    -0.296 N 
ATOM     23  H7  UNL     1     -91.993 -14.641   6.919  1.00  0.00     0.186 HD
HETATM   24  C24 UNL     1     -92.643 -15.595   9.425  1.00  0.00     0.178 C 
BRANCH  20  25
HETATM   25  C3  UNL     1     -89.325 -14.431   5.889  1.00  0.00     0.058 C 
BRANCH  25  26
HETATM   26  C2  UNL     1     -87.855 -14.792   5.818  1.00  0.00     0.002 C 
HETATM   27  C1  UNL     1     -87.091 -13.471   5.895  1.00  0.00     0.005 C 
ENDBRANCH  25  26
ENDBRANCH  20  25
ENDBRANCH  15  18
ENDBRANCH   1   9
BRANCH   3  28
HETATM   28  N2  UNL     1     -85.612 -19.609  16.089  1.00  0.00    -0.337 N 
ATOM     29  H2  UNL     1     -84.621 -19.492  15.879  1.00  0.00     0.167 HD
BRANCH  28  30
HETATM   30  C14 UNL     1     -86.057 -20.898  16.481  1.00  0.00     0.111 A 
HETATM   31  C15 UNL     1     -86.060 -21.171  17.865  1.00  0.00     0.100 A 
HETATM   32  C17 UNL     1     -86.504 -22.449  18.250  1.00  0.00     0.056 A 
HETATM   33  C18 UNL     1     -86.901 -23.344  17.306  1.00  0.00     0.092 A 
HETATM   34  N3  UNL     1     -86.889 -23.056  15.998  1.00  0.00    -0.351 N 
HETATM   35  C19 UNL     1     -86.471 -21.845  15.599  1.00  0.00     0.128 A 
ATOM     36  H3  UNL     1     -87.193 -23.749  15.314  1.00  0.00     0.166 HD
HETATM   37  N4  UNL     1     -86.478 -21.580  14.300  1.00  0.00    -0.384 N 
ATOM     38  H42 UNL     1     -86.161 -20.660  13.996  1.00  0.00     0.157 HD
ATOM     39  H41 UNL     1     -86.789 -22.291  13.638  1.00  0.00     0.157 HD
BRANCH  31  40
HETATM   40  O1  UNL     1     -85.685 -20.327  18.757  1.00  0.00    -0.353 OA
HETATM   41  C16 UNL     1     -85.402 -19.696  19.831  1.00  0.00     0.210 C 
ENDBRANCH  31  40
ENDBRANCH  28  30
ENDBRANCH   3  28
TORSDOF 7
ENDMDL
MODEL 4
REMARK VINA RESULT: -8.655413558      1.332      1.615
REMARK  7 active torsions:
REMARK  status: ('A' for Active; 'I' for Inactive)
REMARK    1  A    between atoms: C2_2  and  C3_3 
REMARK    2  A    between atoms: C3_3  and  C4_4 
REMARK    3  A    between atoms: C6_6  and  C7_7 
REMARK    4  A    between atoms: C10_12  and  C11_13 
REMARK    5  A    between atoms: C13_15  and  N2_16 
REMARK    6  A    between atoms: N2_16  and  C14_18 
REMARK    7  A    between atoms: C15_19  and  O1_20 
ROOT
HETATM    1  C11 UNL     1     -88.773 -14.549  10.182  1.00  0.00     0.004 A 
HETATM    2  C12 UNL     1     -90.058 -14.996  10.002  1.00  0.00     0.062 A 
HETATM    3  C13 UNL     1     -90.479 -15.647   8.865  1.00  0.00     0.106 A 
HETATM    4  N5  UNL     1     -89.534 -15.831   7.899  1.00  0.00    -0.351 N 
ATOM      5  H5  UNL     1     -89.795 -16.308   7.037  1.00  0.00     0.166 HD
HETATM    6  C20 UNL     1     -88.271 -15.403   8.048  1.00  0.00     0.114 A 
HETATM    7  C21 UNL     1     -87.845 -14.751   9.187  1.00  0.00     0.060 A 
HETATM    8 CL1  UNL     1     -86.203 -14.187   9.405  1.00  0.00    -0.082 Cl
ENDROOT
BRANCH   1   9
HETATM    9  C10 UNL     1     -88.360 -13.858  11.447  1.00  0.00     0.011 A 
HETATM   10  C9  UNL     1     -87.860 -14.490  12.543  1.00  0.00     0.062 A 
HETATM   11  N1  UNL     1     -87.570 -15.775  12.922  1.00  0.00    -0.363 N 
HETATM   12  C23 UNL     1     -87.535 -13.716  13.608  1.00  0.00     0.046 A 
HETATM   13  C8  UNL     1     -87.078 -15.771  14.197  1.00  0.00     0.103 A 
ATOM     14  H1  UNL     1     -87.702 -16.604  12.343  1.00  0.00     0.165 HD
HETATM   15  C7  UNL     1     -87.039 -14.486  14.669  1.00  0.00     0.027 A 
HETATM   16  S1  UNL     1     -87.917 -12.145  13.089  1.00  0.00    -0.098 SA
HETATM   17  C22 UNL     1     -88.487 -12.497  11.521  1.00  0.00     0.065 A 
BRANCH  15  18
HETATM   18  C6  UNL     1     -86.609 -13.952  15.952  1.00  0.00     0.065 A 
HETATM   19  C5  UNL     1     -85.498 -13.116  16.122  1.00  0.00     0.058 A 
HETATM   20  C4  UNL     1     -85.376 -12.784  17.456  1.00  0.00     0.028 A 
HETATM   21  N7  UNL     1     -86.398 -13.413  18.069  1.00  0.00    -0.303 N 
HETATM   22  N6  UNL     1     -87.115 -14.097  17.174  1.00  0.00    -0.296 N 
ATOM     23  H7  UNL     1     -86.594 -13.374  19.069  1.00  0.00     0.186 HD
HETATM   24  C24 UNL     1     -88.292 -14.895  17.513  1.00  0.00     0.178 C 
BRANCH  20  25
HETATM   25  C3  UNL     1     -84.332 -11.916  18.078  1.00  0.00     0.058 C 
BRANCH  25  26
HETATM   26  C2  UNL     1     -83.256 -11.572  17.068  1.00  0.00     0.002 C 
HETATM   27  C1  UNL     1     -82.033 -11.150  17.880  1.00  0.00     0.005 C 
ENDBRANCH  25  26
ENDBRANCH  20  25
ENDBRANCH  15  18
ENDBRANCH   1   9
BRANCH   3  28
HETATM   28  N2  UNL     1     -91.673 -16.087   8.660  1.00  0.00    -0.337 N 
ATOM     29  H2  UNL     1     -92.172 -15.744   7.840  1.00  0.00     0.167 HD
BRANCH  28  30
HETATM   30  C14 UNL     1     -92.339 -17.018   9.498  1.00  0.00     0.111 A 
HETATM   31  C15 UNL     1     -93.232 -16.484  10.450  1.00  0.00     0.100 A 
HETATM   32  C17 UNL     1     -93.893 -17.410  11.278  1.00  0.00     0.056 A 
HETATM   33  C18 UNL     1     -93.654 -18.741  11.134  1.00  0.00     0.092 A 
HETATM   34  N3  UNL     1     -92.800 -19.220  10.220  1.00  0.00    -0.351 N 
HETATM   35  C19 UNL     1     -92.155 -18.362   9.415  1.00  0.00     0.128 A 
ATOM     36  H3  UNL     1     -92.643 -20.224  10.137  1.00  0.00     0.166 HD
HETATM   37  N4  UNL     1     -91.324 -18.861   8.510  1.00  0.00    -0.384 N 
ATOM     38  H42 UNL     1     -90.834 -18.209   7.898  1.00  0.00     0.157 HD
ATOM     39  H41 UNL     1     -91.187 -19.870   8.448  1.00  0.00     0.157 HD
BRANCH  31  40
HETATM   40  O1  UNL     1     -93.457 -15.227  10.587  1.00  0.00    -0.353 OA
HETATM   41  C16 UNL     1     -93.854 -14.066  10.942  1.00  0.00     0.210 C 
ENDBRANCH  31  40
ENDBRANCH  28  30
ENDBRANCH   3  28
TORSDOF 7
ENDMDL
MODEL 5
REMARK VINA RESULT: -8.534601831      5.316      8.959
REMARK  7 active torsions:
REMARK  status: ('A' for Active; 'I' for Inactive)
REMARK    1  A    between atoms: C2_2  and  C3_3 
REMARK    2  A    between atoms: C3_3  and  C4_4 
REMARK    3  A    between atoms: C6_6  and  C7_7 
REMARK    4  A    between atoms: C10_12  and  C11_13 
REMARK    5  A    between atoms: C13_15  and  N2_16 
REMARK    6  A    between atoms: N2_16  and  C14_18 
REMARK    7  A    between atoms: C15_19  and  O1_20 
ROOT
HETATM    1  C11 UNL     1     -88.445 -17.346  15.458  1.00  0.00     0.004 A 
HETATM    2  C12 UNL     1     -87.929 -18.591  15.720  1.00  0.00     0.062 A 
HETATM    3  C13 UNL     1     -87.179 -18.877  16.837  1.00  0.00     0.106 A 
HETATM    4  N5  UNL     1     -86.966 -17.838  17.695  1.00  0.00    -0.351 N 
ATOM      5  H5  UNL     1     -86.417 -17.999  18.538  1.00  0.00     0.166 HD
HETATM    6  C20 UNL     1     -87.458 -16.612  17.462  1.00  0.00     0.114 A 
HETATM    7  C21 UNL     1     -88.211 -16.320  16.343  1.00  0.00     0.060 A 
HETATM    8 CL1  UNL     1     -88.863 -14.729  16.021  1.00  0.00    -0.082 Cl
ENDROOT
BRANCH   1   9
HETATM    9  C10 UNL     1     -89.270 -17.087  14.232  1.00  0.00     0.011 A 
HETATM   10  C9  UNL     1     -88.757 -16.815  13.002  1.00  0.00     0.062 A 
HETATM   11  N1  UNL     1     -87.518 -16.674  12.434  1.00  0.00    -0.363 N 
HETATM   12  C23 UNL     1     -89.642 -16.603  11.997  1.00  0.00     0.046 A 
HETATM   13  C8  UNL     1     -87.658 -16.383  11.106  1.00  0.00     0.103 A 
ATOM     14  H1  UNL     1     -86.629 -16.772  12.925  1.00  0.00     0.165 HD
HETATM   15  C7  UNL     1     -88.989 -16.329  10.787  1.00  0.00     0.027 A 
HETATM   16  S1  UNL     1     -91.152 -16.782  12.752  1.00  0.00    -0.098 SA
HETATM   17  C22 UNL     1     -90.634 -17.124  14.341  1.00  0.00     0.065 A 
BRANCH  15  18
HETATM   18  C6  UNL     1     -89.658 -16.052   9.526  1.00  0.00     0.065 A 
HETATM   19  C5  UNL     1     -89.234 -15.085   8.607  1.00  0.00     0.058 A 
HETATM   20  C4  UNL     1     -90.081 -15.087   7.517  1.00  0.00     0.028 A 
HETATM   21  N7  UNL     1     -90.995 -16.040   7.785  1.00  0.00    -0.303 N 
HETATM   22  N6  UNL     1     -90.736 -16.600   8.969  1.00  0.00    -0.296 N 
ATOM     23  H7  UNL     1     -91.770 -16.296   7.174  1.00  0.00     0.186 HD
HETATM   24  C24 UNL     1     -91.543 -17.667   9.558  1.00  0.00     0.178 C 
BRANCH  20  25
HETATM   25  C3  UNL     1     -89.997 -14.215   6.308  1.00  0.00     0.058 C 
BRANCH  25  26
HETATM   26  C2  UNL     1     -88.766 -14.554   5.492  1.00  0.00     0.002 C 
HETATM   27  C1  UNL     1     -87.718 -13.502   5.851  1.00  0.00     0.005 C 
ENDBRANCH  25  26
ENDBRANCH  20  25
ENDBRANCH  15  18
ENDBRANCH   1   9
BRANCH   3  28
HETATM   28  N2  UNL     1     -86.684 -20.032  17.123  1.00  0.00    -0.337 N 
ATOM     29  H2  UNL     1     -85.737 -20.063  17.499  1.00  0.00     0.167 HD
BRANCH  28  30
HETATM   30  C14 UNL     1     -87.368 -21.263  16.950  1.00  0.00     0.111 A 
HETATM   31  C15 UNL     1     -87.027 -22.020  15.810  1.00  0.00     0.100 A 
HETATM   32  C17 UNL     1     -87.705 -23.241  15.643  1.00  0.00     0.056 A 
HETATM   33  C18 UNL     1     -88.633 -23.633  16.557  1.00  0.00     0.092 A 
HETATM   34  N3  UNL     1     -88.936 -22.894  17.632  1.00  0.00    -0.351 N 
HETATM   35  C19 UNL     1     -88.305 -21.725  17.820  1.00  0.00     0.128 A 
ATOM     36  H3  UNL     1     -89.636 -23.216  18.299  1.00  0.00     0.166 HD
HETATM   37  N4  UNL     1     -88.614 -21.016  18.897  1.00  0.00    -0.384 N 
ATOM     38  H42 UNL     1     -88.135 -20.127  19.040  1.00  0.00     0.157 HD
ATOM     39  H41 UNL     1     -89.317 -21.363  19.549  1.00  0.00     0.157 HD
BRANCH  31  40
HETATM   40  O1  UNL     1     -86.152 -21.649  14.947  1.00  0.00    -0.353 OA
HETATM   41  C16 UNL     1     -85.491 -21.093  14.005  1.00  0.00     0.210 C 
ENDBRANCH  31  40
ENDBRANCH  28  30
ENDBRANCH   3  28
TORSDOF 7
ENDMDL
