MODEL 1
REMARK VINA RESULT: -8.739173523      0.000      0.000
REMARK  8 active torsions:
REMARK  status: ('A' for Active; 'I' for Inactive)
REMARK       I    between atoms: N1_2  and  C2_4 
REMARK       I    between atoms: C2_4  and  N2_6 
REMARK    1  A    between atoms: N3_8  and  C3_10 
REMARK    2  A    between atoms: C5_12  and  C6_13 
REMARK    3  A    between atoms: C10_19  and  O2_20 
REMARK    4  A    between atoms: O2_20  and  C11_21 
REMARK    5  A    between atoms: C11_21  and  C12_22 
REMARK    6  A    between atoms: C12_22  and  O3_23 
REMARK    7  A    between atoms: C12_22  and  C13_25 
REMARK    8  A    between atoms: C13_25  and  O4_28 
ROOT
HETATM    1  C6  UNL     1     -90.158 -15.210   7.748  1.00  0.00     0.004 A 
HETATM    2  C7  UNL     1     -90.863 -14.822   6.598  1.00  0.00     0.101 A 
HETATM    3  N4  UNL     1     -89.999 -14.230   5.763  1.00  0.00    -0.364 N 
ATOM      4  H4  UNL     1     -90.242 -13.850   4.848  1.00  0.00     0.165 HD
HETATM    5  C8  UNL     1     -88.769 -14.209   6.296  1.00  0.00     0.047 A 
HETATM    6  C9  UNL     1     -87.578 -13.727   5.828  1.00  0.00     0.067 A 
HETATM    7  C10 UNL     1     -86.423 -13.833   6.567  1.00  0.00     0.072 A 
HETATM    8  C16 UNL     1     -86.545 -14.457   7.817  1.00  0.00     0.056 A 
HETATM    9  C17 UNL     1     -87.721 -14.940   8.298  1.00  0.00     0.027 A 
HETATM   10 BR1  UNL     1     -87.791 -15.826   9.996  1.00  0.00    -0.050 Br
HETATM   11  C18 UNL     1     -88.868 -14.825   7.543  1.00  0.00     0.021 A 
ENDROOT
BRANCH   1  12
HETATM   12  C5  UNL     1     -90.800 -15.850   8.928  1.00  0.00    -0.014 A 
HETATM   13  C4  UNL     1     -91.450 -15.178   9.895  1.00  0.00     0.051 A 
HETATM   14  C3  UNL     1     -91.935 -15.888  10.955  1.00  0.00     0.089 A 
HETATM   15  S1  UNL     1     -91.476 -17.484  10.588  1.00  0.00    -0.082 SA
HETATM   16  C19 UNL     1     -90.684 -17.214   9.106  1.00  0.00     0.064 A 
BRANCH  14  17
HETATM   17  N3  UNL     1     -92.661 -15.375  12.097  1.00  0.00    -0.290 N 
HETATM   18  N2  UNL     1     -91.958 -14.790  12.977  1.00  0.00    -0.251 N 
HETATM   19  C2  UNL     1     -90.570 -14.625  12.903  1.00  0.00     0.334 C 
ATOM     20  H2  UNL     1     -92.437 -14.415  13.795  1.00  0.00     0.191 HD
HETATM   21  N1  UNL     1     -89.928 -13.369  12.726  1.00  0.00    -0.346 N 
HETATM   22  O1  UNL     1     -89.845 -15.648  12.997  1.00  0.00    -0.246 OA
HETATM   23  C1  UNL     1     -88.486 -13.258  12.656  1.00  0.00     0.151 C 
ATOM     24  H1  UNL     1     -90.496 -12.525  12.646  1.00  0.00     0.163 HD
ATOM     25  H3  UNL     1     -93.672 -15.476  12.189  1.00  0.00     0.188 HD
ENDBRANCH  14  17
ENDBRANCH   1  12
BRANCH   7  26
HETATM   26  O2  UNL     1     -85.197 -13.382   6.172  1.00  0.00    -0.348 OA
BRANCH  26  27
HETATM   27  C11 UNL     1     -84.079 -14.043   5.757  1.00  0.00     0.210 C 
BRANCH  27  28
HETATM   28  C12 UNL     1     -83.580 -13.797   4.374  1.00  0.00     0.175 C 
BRANCH  28  29
HETATM   29  O3  UNL     1     -84.457 -12.911   3.687  1.00  0.00    -0.390 OA
ATOM     30  H3  UNL     1     -84.518 -12.085   4.153  1.00  0.00     0.210 HD
ENDBRANCH  28  29
BRANCH  28  31
HETATM   31  C13 UNL     1     -82.251 -13.035   4.380  1.00  0.00     0.078 C 
HETATM   32  C14 UNL     1     -81.715 -12.790   5.748  1.00  0.00     0.048 C 
HETATM   33  C15 UNL     1     -81.294 -13.904   3.577  1.00  0.00     0.048 C 
BRANCH  31  34
HETATM   34  O4  UNL     1     -82.418 -11.852   3.669  1.00  0.00    -0.388 OA
ATOM     35  H4  UNL     1     -81.770 -11.226   3.971  1.00  0.00     0.210 HD
ENDBRANCH  31  34
ENDBRANCH  28  31
ENDBRANCH  27  28
ENDBRANCH  26  27
ENDBRANCH   7  26
TORSDOF 8
ENDMDL
MODEL 2
REMARK VINA RESULT: -8.357676108      1.706      2.371
REMARK  8 active torsions:
REMARK  status: ('A' for Active; 'I' for Inactive)
REMARK       I    between atoms: N1_2  and  C2_4 
REMARK       I    between atoms: C2_4  and  N2_6 
REMARK    1  A    between atoms: N3_8  and  C3_10 
REMARK    2  A    between atoms: C5_12  and  C6_13 
REMARK    3  A    between atoms: C10_19  and  O2_20 
REMARK    4  A    between atoms: O2_20  and  C11_21 
REMARK    5  A    between atoms: C11_21  and  C12_22 
REMARK    6  A    between atoms: C12_22  and  O3_23 
REMARK    7  A    between atoms: C12_22  and  C13_25 
REMARK    8  A    between atoms: C13_25  and  O4_28 
ROOT
HETATM    1  C6  UNL     1     -90.005 -15.160   7.693  1.00  0.00     0.004 A 
HETATM    2  C7  UNL     1     -90.494 -14.675   6.471  1.00  0.00     0.101 A 
HETATM    3  N4  UNL     1     -89.464 -14.155   5.790  1.00  0.00    -0.364 N 
ATOM      4  H4  UNL     1     -89.534 -13.729   4.865  1.00  0.00     0.165 HD
HETATM    5  C8  UNL     1     -88.329 -14.273   6.493  1.00  0.00     0.047 A 
HETATM    6  C9  UNL     1     -87.041 -13.905   6.217  1.00  0.00     0.067 A 
HETATM    7  C10 UNL     1     -86.022 -14.147   7.108  1.00  0.00     0.072 A 
HETATM    8  C16 UNL     1     -86.384 -14.785   8.303  1.00  0.00     0.056 A 
HETATM    9  C17 UNL     1     -87.659 -15.156   8.593  1.00  0.00     0.027 A 
HETATM   10 BR1  UNL     1     -88.061 -16.072  10.229  1.00  0.00    -0.050 Br
HETATM   11  C18 UNL     1     -88.667 -14.905   7.688  1.00  0.00     0.021 A 
ENDROOT
BRANCH   1  12
HETATM   12  C5  UNL     1     -90.871 -15.759   8.745  1.00  0.00    -0.014 A 
HETATM   13  C4  UNL     1     -91.582 -15.048   9.638  1.00  0.00     0.051 A 
HETATM   14  C3  UNL     1     -92.284 -15.730  10.589  1.00  0.00     0.089 A 
HETATM   15  S1  UNL     1     -91.941 -17.356  10.225  1.00  0.00    -0.082 SA
HETATM   16  C19 UNL     1     -90.921 -17.132   8.881  1.00  0.00     0.064 A 
BRANCH  14  17
HETATM   17  N3  UNL     1     -93.110 -15.173  11.639  1.00  0.00    -0.290 N 
HETATM   18  N2  UNL     1     -92.486 -14.698  12.635  1.00  0.00    -0.251 N 
HETATM   19  C2  UNL     1     -91.092 -14.688  12.767  1.00  0.00     0.334 C 
ATOM     20  H2  UNL     1     -93.037 -14.295  13.394  1.00  0.00     0.191 HD
HETATM   21  N1  UNL     1     -90.300 -13.507  12.742  1.00  0.00    -0.346 N 
HETATM   22  O1  UNL     1     -90.502 -15.788  12.917  1.00  0.00    -0.246 OA
HETATM   23  C1  UNL     1     -88.860 -13.556  12.884  1.00  0.00     0.151 C 
ATOM     24  H1  UNL     1     -90.758 -12.603  12.621  1.00  0.00     0.163 HD
ATOM     25  H3  UNL     1     -94.129 -15.163  11.581  1.00  0.00     0.188 HD
ENDBRANCH  14  17
ENDBRANCH   1  12
BRANCH   7  26
HETATM   26  O2  UNL     1     -84.713 -13.815   6.909  1.00  0.00    -0.348 OA
BRANCH  26  27
HETATM   27  C11 UNL     1     -83.556 -14.389   7.345  1.00  0.00     0.210 C 
BRANCH  27  28
HETATM   28  C12 UNL     1     -82.517 -13.514   7.961  1.00  0.00     0.175 C 
BRANCH  28  29
HETATM   29  O3  UNL     1     -82.288 -12.373   7.141  1.00  0.00    -0.390 OA
ATOM     30  H3  UNL     1     -83.028 -12.234   6.561  1.00  0.00     0.210 HD
ENDBRANCH  28  29
BRANCH  28  31
HETATM   31  C13 UNL     1     -83.002 -12.902   9.279  1.00  0.00     0.078 C 
HETATM   32  C14 UNL     1     -83.339 -13.918  10.316  1.00  0.00     0.048 C 
HETATM   33  C15 UNL     1     -81.856 -12.017   9.749  1.00  0.00     0.048 C 
BRANCH  31  34
HETATM   34  O4  UNL     1     -84.076 -12.063   9.008  1.00  0.00    -0.388 OA
ATOM     35  H4  UNL     1     -83.969 -11.264   9.510  1.00  0.00     0.210 HD
ENDBRANCH  31  34
ENDBRANCH  28  31
ENDBRANCH  27  28
ENDBRANCH  26  27
ENDBRANCH   7  26
TORSDOF 8
ENDMDL
MODEL 3
REMARK VINA RESULT: -8.297340146      1.780      2.138
REMARK  8 active torsions:
REMARK  status: ('A' for Active; 'I' for Inactive)
REMARK       I    between atoms: N1_2  and  C2_4 
REMARK       I    between atoms: C2_4  and  N2_6 
REMARK    1  A    between atoms: N3_8  and  C3_10 
REMARK    2  A    between atoms: C5_12  and  C6_13 
REMARK    3  A    between atoms: C10_19  and  O2_20 
REMARK    4  A    between atoms: O2_20  and  C11_21 
REMARK    5  A    between atoms: C11_21  and  C12_22 
REMARK    6  A    between atoms: C12_22  and  O3_23 
REMARK    7  A    between atoms: C12_22  and  C13_25 
REMARK    8  A    between atoms: C13_25  and  O4_28 
ROOT
HETATM    1  C6  UNL     1     -90.725 -14.818   7.750  1.00  0.00     0.004 A 
HETATM    2  C7  UNL     1     -91.243 -14.496   6.487  1.00  0.00     0.101 A 
HETATM    3  N4  UNL     1     -90.213 -14.257   5.664  1.00  0.00    -0.364 N 
ATOM      4  H4  UNL     1     -90.302 -13.999   4.681  1.00  0.00     0.165 HD
HETATM    5  C8  UNL     1     -89.050 -14.405   6.313  1.00  0.00     0.047 A 
HETATM    6  C9  UNL     1     -87.751 -14.278   5.903  1.00  0.00     0.067 A 
HETATM    7  C10 UNL     1     -86.704 -14.497   6.767  1.00  0.00     0.072 A 
HETATM    8  C16 UNL     1     -87.048 -14.853   8.079  1.00  0.00     0.056 A 
HETATM    9  C17 UNL     1     -88.333 -14.983   8.503  1.00  0.00     0.027 A 
HETATM   10 BR1  UNL     1     -88.717 -15.523  10.302  1.00  0.00    -0.050 Br
HETATM   11  C18 UNL     1     -89.370 -14.759   7.623  1.00  0.00     0.021 A 
ENDROOT
BRANCH   1  12
HETATM   12  C5  UNL     1     -91.573 -15.090   8.941  1.00  0.00    -0.014 A 
HETATM   13  C4  UNL     1     -92.077 -16.298   9.254  1.00  0.00     0.051 A 
HETATM   14  C3  UNL     1     -92.894 -16.390  10.343  1.00  0.00     0.089 A 
HETATM   15  S1  UNL     1     -92.950 -14.789  10.915  1.00  0.00    -0.082 SA
HETATM   16  C19 UNL     1     -91.941 -14.045   9.765  1.00  0.00     0.064 A 
BRANCH  14  17
HETATM   17  N3  UNL     1     -93.539 -17.579  10.859  1.00  0.00    -0.290 N 
HETATM   18  N2  UNL     1     -92.943 -18.153  11.820  1.00  0.00    -0.251 N 
HETATM   19  C2  UNL     1     -91.739 -17.713  12.385  1.00  0.00     0.334 C 
ATOM     20  H2  UNL     1     -93.370 -18.993  12.210  1.00  0.00     0.191 HD
HETATM   21  N1  UNL     1     -91.625 -17.185  13.700  1.00  0.00    -0.346 N 
HETATM   22  O1  UNL     1     -90.695 -17.788  11.688  1.00  0.00    -0.246 OA
HETATM   23  C1  UNL     1     -90.352 -16.746  14.232  1.00  0.00     0.151 C 
ATOM     24  H1  UNL     1     -92.459 -17.115  14.283  1.00  0.00     0.163 HD
ATOM     25  H3  UNL     1     -94.415 -17.932  10.474  1.00  0.00     0.188 HD
ENDBRANCH  14  17
ENDBRANCH   1  12
BRANCH   7  26
HETATM   26  O2  UNL     1     -85.384 -14.394   6.436  1.00  0.00    -0.348 OA
BRANCH  26  27
HETATM   27  C11 UNL     1     -84.692 -13.438   5.754  1.00  0.00     0.210 C 
BRANCH  27  28
HETATM   28  C12 UNL     1     -83.975 -13.832   4.507  1.00  0.00     0.175 C 
BRANCH  28  29
HETATM   29  O3  UNL     1     -84.104 -12.811   3.524  1.00  0.00    -0.390 OA
ATOM     30  H3  UNL     1     -83.844 -13.142   2.672  1.00  0.00     0.210 HD
ENDBRANCH  28  29
BRANCH  28  31
HETATM   31  C13 UNL     1     -82.462 -13.914   4.726  1.00  0.00     0.078 C 
HETATM   32  C14 UNL     1     -81.760 -14.746   3.709  1.00  0.00     0.048 C 
HETATM   33  C15 UNL     1     -81.976 -12.473   4.667  1.00  0.00     0.048 C 
BRANCH  31  34
HETATM   34  O4  UNL     1     -82.226 -14.368   6.019  1.00  0.00    -0.388 OA
ATOM     35  H4  UNL     1     -82.894 -15.008   6.239  1.00  0.00     0.210 HD
ENDBRANCH  31  34
ENDBRANCH  28  31
ENDBRANCH  27  28
ENDBRANCH  26  27
ENDBRANCH   7  26
TORSDOF 8
ENDMDL
MODEL 4
REMARK VINA RESULT: -8.113979696      3.951      8.978
REMARK  8 active torsions:
REMARK  status: ('A' for Active; 'I' for Inactive)
REMARK       I    between atoms: N1_2  and  C2_4 
REMARK       I    between atoms: C2_4  and  N2_6 
REMARK    1  A    between atoms: N3_8  and  C3_10 
REMARK    2  A    between atoms: C5_12  and  C6_13 
REMARK    3  A    between atoms: C10_19  and  O2_20 
REMARK    4  A    between atoms: O2_20  and  C11_21 
REMARK    5  A    between atoms: C11_21  and  C12_22 
REMARK    6  A    between atoms: C12_22  and  O3_23 
REMARK    7  A    between atoms: C12_22  and  C13_25 
REMARK    8  A    between atoms: C13_25  and  O4_28 
ROOT
HETATM    1  C6  UNL     1     -86.643 -13.936   7.122  1.00  0.00     0.004 A 
HETATM    2  C7  UNL     1     -87.221 -13.413   5.956  1.00  0.00     0.101 A 
HETATM    3  N4  UNL     1     -88.494 -13.828   5.903  1.00  0.00    -0.364 N 
ATOM      4  H4  UNL     1     -89.151 -13.596   5.157  1.00  0.00     0.165 HD
HETATM    5  C8  UNL     1     -88.784 -14.592   6.966  1.00  0.00     0.047 A 
HETATM    6  C9  UNL     1     -89.933 -15.227   7.349  1.00  0.00     0.067 A 
HETATM    7  C10 UNL     1     -89.993 -15.957   8.513  1.00  0.00     0.072 A 
HETATM    8  C16 UNL     1     -88.814 -16.010   9.270  1.00  0.00     0.056 A 
HETATM    9  C17 UNL     1     -87.663 -15.386   8.903  1.00  0.00     0.027 A 
HETATM   10 BR1  UNL     1     -86.109 -15.467  10.022  1.00  0.00    -0.050 Br
HETATM   11  C18 UNL     1     -87.623 -14.659   7.733  1.00  0.00     0.021 A 
ENDROOT
BRANCH   1  12
HETATM   12  C5  UNL     1     -85.216 -13.735   7.493  1.00  0.00    -0.014 A 
HETATM   13  C4  UNL     1     -84.192 -14.443   6.983  1.00  0.00     0.051 A 
HETATM   14  C3  UNL     1     -82.939 -14.196   7.463  1.00  0.00     0.089 A 
HETATM   15  S1  UNL     1     -83.206 -12.978   8.620  1.00  0.00    -0.082 SA
HETATM   16  C19 UNL     1     -84.892 -12.813   8.468  1.00  0.00     0.064 A 
BRANCH  14  17
HETATM   17  N3  UNL     1     -81.703 -14.833   7.060  1.00  0.00    -0.290 N 
HETATM   18  N2  UNL     1     -80.933 -14.130   6.338  1.00  0.00    -0.251 N 
HETATM   19  C2  UNL     1     -81.207 -12.820   5.926  1.00  0.00     0.334 C 
ATOM     20  H2  UNL     1     -80.052 -14.547   6.037  1.00  0.00     0.191 HD
HETATM   21  N1  UNL     1     -80.490 -11.679   6.378  1.00  0.00    -0.346 N 
HETATM   22  O1  UNL     1     -82.145 -12.640   5.108  1.00  0.00    -0.246 OA
HETATM   23  C1  UNL     1     -80.818 -10.346   5.916  1.00  0.00     0.151 C 
ATOM     24  H1  UNL     1     -79.725 -11.801   7.042  1.00  0.00     0.163 HD
ATOM     25  H3  UNL     1     -81.468 -15.786   7.338  1.00  0.00     0.188 HD
ENDBRANCH  14  17
ENDBRANCH   1  12
BRANCH   7  26
HETATM   26  O2  UNL     1     -91.098 -16.616   8.967  1.00  0.00    -0.348 OA
BRANCH  26  27
HETATM   27  C11 UNL     1     -91.658 -16.698  10.207  1.00  0.00     0.210 C 
BRANCH  27  28
HETATM   28  C12 UNL     1     -93.001 -16.087  10.422  1.00  0.00     0.175 C 
BRANCH  28  29
HETATM   29  O3  UNL     1     -93.612 -16.642  11.582  1.00  0.00    -0.390 OA
ATOM     30  H3  UNL     1     -94.323 -16.085  11.876  1.00  0.00     0.210 HD
ENDBRANCH  28  29
BRANCH  28  31
HETATM   31  C13 UNL     1     -92.897 -14.598  10.765  1.00  0.00     0.078 C 
HETATM   32  C14 UNL     1     -94.155 -14.029  11.324  1.00  0.00     0.048 C 
HETATM   33  C15 UNL     1     -91.769 -14.505  11.783  1.00  0.00     0.048 C 
BRANCH  31  34
HETATM   34  O4  UNL     1     -92.477 -13.912   9.632  1.00  0.00    -0.388 OA
ATOM     35  H4  UNL     1     -92.682 -12.991   9.743  1.00  0.00     0.210 HD
ENDBRANCH  31  34
ENDBRANCH  28  31
ENDBRANCH  27  28
ENDBRANCH  26  27
ENDBRANCH   7  26
TORSDOF 8
ENDMDL
MODEL 5
REMARK VINA RESULT: -8.100158089      4.166      9.116
REMARK  8 active torsions:
REMARK  status: ('A' for Active; 'I' for Inactive)
REMARK       I    between atoms: N1_2  and  C2_4 
REMARK       I    between atoms: C2_4  and  N2_6 
REMARK    1  A    between atoms: N3_8  and  C3_10 
REMARK    2  A    between atoms: C5_12  and  C6_13 
REMARK    3  A    between atoms: C10_19  and  O2_20 
REMARK    4  A    between atoms: O2_20  and  C11_21 
REMARK    5  A    between atoms: C11_21  and  C12_22 
REMARK    6  A    between atoms: C12_22  and  O3_23 
REMARK    7  A    between atoms: C12_22  and  C13_25 
REMARK    8  A    between atoms: C13_25  and  O4_28 
ROOT
HETATM    1  C6  UNL     1     -86.360 -13.789   7.024  1.00  0.00     0.004 A 
HETATM    2  C7  UNL     1     -86.812 -13.197   5.836  1.00  0.00     0.101 A 
HETATM    3  N4  UNL     1     -88.088 -13.561   5.651  1.00  0.00    -0.364 N 
ATOM      4  H4  UNL     1     -88.667 -13.274   4.861  1.00  0.00     0.165 HD
HETATM    5  C8  UNL     1     -88.499 -14.355   6.650  1.00  0.00     0.047 A 
HETATM    6  C9  UNL     1     -89.700 -14.960   6.903  1.00  0.00     0.067 A 
HETATM    7  C10 UNL     1     -89.889 -15.734   8.024  1.00  0.00     0.072 A 
HETATM    8  C16 UNL     1     -88.786 -15.863   8.880  1.00  0.00     0.056 A 
HETATM    9  C17 UNL     1     -87.586 -15.269   8.643  1.00  0.00     0.027 A 
HETATM   10 BR1  UNL     1     -86.142 -15.454   9.891  1.00  0.00    -0.050 Br
HETATM   11  C18 UNL     1     -87.415 -14.498   7.514  1.00  0.00     0.021 A 
ENDROOT
BRANCH   1  12
HETATM   12  C5  UNL     1     -84.966 -13.657   7.529  1.00  0.00    -0.014 A 
HETATM   13  C4  UNL     1     -83.918 -14.354   7.053  1.00  0.00     0.051 A 
HETATM   14  C3  UNL     1     -82.705 -14.180   7.654  1.00  0.00     0.089 A 
HETATM   15  S1  UNL     1     -83.043 -13.047   8.876  1.00  0.00    -0.082 SA
HETATM   16  C19 UNL     1     -84.707 -12.822   8.597  1.00  0.00     0.064 A 
BRANCH  14  17
HETATM   17  N3  UNL     1     -81.454 -14.821   7.308  1.00  0.00    -0.290 N 
HETATM   18  N2  UNL     1     -80.588 -14.073   6.759  1.00  0.00    -0.251 N 
HETATM   19  C2  UNL     1     -80.775 -12.714   6.480  1.00  0.00     0.334 C 
ATOM     20  H2  UNL     1     -79.694 -14.491   6.503  1.00  0.00     0.191 HD
HETATM   21  N1  UNL     1     -80.075 -11.665   7.137  1.00  0.00    -0.346 N 
HETATM   22  O1  UNL     1     -81.613 -12.399   5.597  1.00  0.00    -0.246 OA
HETATM   23  C1  UNL     1     -80.309 -10.275   6.807  1.00  0.00     0.151 C 
ATOM     24  H1  UNL     1     -79.391 -11.897   7.858  1.00  0.00     0.163 HD
ATOM     25  H3  UNL     1     -81.280 -15.809   7.493  1.00  0.00     0.188 HD
ENDBRANCH  14  17
ENDBRANCH   1  12
BRANCH   7  26
HETATM   26  O2  UNL     1     -91.053 -16.368   8.349  1.00  0.00    -0.348 OA
BRANCH  26  27
HETATM   27  C11 UNL     1     -91.315 -17.660   8.696  1.00  0.00     0.210 C 
BRANCH  27  28
HETATM   28  C12 UNL     1     -92.649 -17.983   9.279  1.00  0.00     0.175 C 
BRANCH  28  29
HETATM   29  O3  UNL     1     -92.846 -19.393   9.299  1.00  0.00    -0.390 OA
ATOM     30  H3  UNL     1     -93.231 -19.658  10.126  1.00  0.00     0.210 HD
ENDBRANCH  28  29
BRANCH  28  31
HETATM   31  C13 UNL     1     -92.726 -17.602  10.760  1.00  0.00     0.078 C 
HETATM   32  C14 UNL     1     -93.463 -16.331  11.007  1.00  0.00     0.048 C 
HETATM   33  C15 UNL     1     -93.432 -18.770  11.433  1.00  0.00     0.048 C 
BRANCH  31  34
HETATM   34  O4  UNL     1     -91.435 -17.559  11.274  1.00  0.00    -0.388 OA
ATOM     35  H4  UNL     1     -91.320 -16.735  11.733  1.00  0.00     0.210 HD
ENDBRANCH  31  34
ENDBRANCH  28  31
ENDBRANCH  27  28
ENDBRANCH  26  27
ENDBRANCH   7  26
TORSDOF 8
ENDMDL
