MODEL 1
REMARK VINA RESULT: -8.718353361      0.000      0.000
REMARK  9 active torsions:
REMARK  status: ('A' for Active; 'I' for Inactive)
REMARK    1  A    between atoms: O1_2  and  C2_3 
REMARK    2  A    between atoms: C4_5  and  O2_6 
REMARK    3  A    between atoms: O2_6  and  C5_7 
REMARK    4  A    between atoms: C8_12  and  C9_13 
REMARK    5  A    between atoms: C12_18  and  N3_19 
REMARK    6  A    between atoms: C13_24  and  N5_25 
REMARK    7  A    between atoms: N5_25  and  C14_26 
REMARK    8  A    between atoms: C21_33  and  N6_34 
REMARK    9  A    between atoms: C23_38  and  O5_39 
ROOT
HETATM    1  C5  UNL     1     -85.663 -14.797  12.184  1.00  0.00     0.103 A 
HETATM    2  C6  UNL     1     -84.287 -15.006  12.376  1.00  0.00     0.125 A 
HETATM    3  N1  UNL     1     -83.930 -16.018  11.586  1.00  0.00    -0.372 N 
ATOM      4  H1  UNL     1     -82.988 -16.401  11.508  1.00  0.00     0.164 HD
HETATM    5  C7  UNL     1     -85.022 -16.464  10.897  1.00  0.00     0.102 A 
HETATM    6  C8  UNL     1     -86.101 -15.705  11.267  1.00  0.00     0.025 A 
ENDROOT
BRANCH   6   7
HETATM    7  C9  UNL     1     -87.453 -15.880  10.764  1.00  0.00    -0.014 A 
HETATM    8  C10 UNL     1     -87.825 -15.343   9.539  1.00  0.00     0.044 A 
HETATM    9  C11 UNL     1     -89.085 -15.446   9.027  1.00  0.00     0.065 A 
HETATM   10  N2  UNL     1     -89.447 -14.915   7.838  1.00  0.00    -0.191 N 
HETATM   11  C17 UNL     1     -90.068 -16.119   9.747  1.00  0.00     0.050 A 
HETATM   12  C12 UNL     1     -90.687 -15.007   7.335  1.00  0.00     0.678 A 
ATOM     13  H2  UNL     1     -88.741 -14.418   7.295  1.00  0.00     0.184 HD
HETATM   14  N4  UNL     1     -91.613 -15.657   8.046  1.00  0.00    -0.164 N 
HETATM   15  C13 UNL     1     -91.351 -16.236   9.269  1.00  0.00     0.200 A 
ATOM     16  H4  UNL     1     -92.557 -15.729   7.667  1.00  0.00     0.187 HD
HETATM   17  C18 UNL     1     -89.691 -16.655  10.970  1.00  0.00     0.026 A 
HETATM   18  C19 UNL     1     -88.417 -16.545  11.477  1.00  0.00    -0.050 A 
HETATM   19  C20 UNL     1     -88.074 -17.156  12.783  1.00  0.00     0.049 C 
BRANCH  12  20
HETATM   20  N3  UNL     1     -90.961 -14.473   6.191  1.00  0.00    -0.234 N 
ATOM     21  H32 UNL     1     -90.273 -13.922   5.679  1.00  0.00     0.174 HD
ATOM     22  H31 UNL     1     -91.886 -14.599   5.779  1.00  0.00     0.174 HD
ENDBRANCH  12  20
BRANCH  15  23
HETATM   23  N5  UNL     1     -92.255 -16.798   9.830  1.00  0.00    -0.424 NA
BRANCH  23  24
HETATM   24  C14 UNL     1     -93.108 -17.757  10.233  1.00  0.00     0.157 C 
HETATM   25  C15 UNL     1     -92.846 -19.064   9.454  1.00  0.00     0.047 C 
HETATM   26  C16 UNL     1     -92.980 -18.143  11.730  1.00  0.00     0.047 C 
ENDBRANCH  23  24
ENDBRANCH  15  23
ENDBRANCH   6   7
BRANCH   1  27
HETATM   27  O2  UNL     1     -86.454 -13.811  12.829  1.00  0.00    -0.306 OA
BRANCH  27  28
HETATM   28  C4  UNL     1     -87.078 -14.116  14.019  1.00  0.00     0.112 A 
HETATM   29  C3  UNL     1     -86.301 -14.943  14.873  1.00  0.00     0.079 A 
HETATM   30  C2  UNL     1     -86.827 -15.315  16.080  1.00  0.00     0.104 A 
HETATM   31  C23 UNL     1     -88.107 -14.867  16.428  1.00  0.00     0.104 A 
HETATM   32  C22 UNL     1     -88.841 -14.069  15.597  1.00  0.00     0.078 A 
HETATM   33  C21 UNL     1     -88.310 -13.674  14.345  1.00  0.00     0.139 A 
BRANCH  30  34
HETATM   34  O1  UNL     1     -86.184 -16.110  16.995  1.00  0.00    -0.353 OA
HETATM   35  C1  UNL     1     -85.051 -15.752  17.701  1.00  0.00     0.210 C 
ENDBRANCH  30  34
BRANCH  31  36
HETATM   36  O5  UNL     1     -88.609 -15.265  17.653  1.00  0.00    -0.353 OA
HETATM   37  C24 UNL     1     -88.451 -14.419  18.769  1.00  0.00     0.210 C 
ENDBRANCH  31  36
BRANCH  33  38
HETATM   38  N6  UNL     1     -89.057 -12.759  13.581  1.00  0.00    -0.113 N 
HETATM   39  O3  UNL     1     -90.276 -13.140  13.361  1.00  0.00    -0.532 OA
HETATM   40  O4  UNL     1     -88.723 -11.564  13.055  1.00  0.00    -0.532 OA
ENDBRANCH  33  38
ENDBRANCH  27  28
ENDBRANCH   1  27
TORSDOF 9
ENDMDL
MODEL 2
REMARK VINA RESULT: -8.496241439      2.265      4.578
REMARK  9 active torsions:
REMARK  status: ('A' for Active; 'I' for Inactive)
REMARK    1  A    between atoms: O1_2  and  C2_3 
REMARK    2  A    between atoms: C4_5  and  O2_6 
REMARK    3  A    between atoms: O2_6  and  C5_7 
REMARK    4  A    between atoms: C8_12  and  C9_13 
REMARK    5  A    between atoms: C12_18  and  N3_19 
REMARK    6  A    between atoms: C13_24  and  N5_25 
REMARK    7  A    between atoms: N5_25  and  C14_26 
REMARK    8  A    between atoms: C21_33  and  N6_34 
REMARK    9  A    between atoms: C23_38  and  O5_39 
ROOT
HETATM    1  C5  UNL     1     -90.361 -15.240  13.612  1.00  0.00     0.103 A 
HETATM    2  C6  UNL     1     -91.117 -15.969  14.544  1.00  0.00     0.125 A 
HETATM    3  N1  UNL     1     -91.241 -17.207  14.067  1.00  0.00    -0.372 N 
ATOM      4  H1  UNL     1     -91.741 -17.968  14.526  1.00  0.00     0.164 HD
HETATM    5  C7  UNL     1     -90.595 -17.299  12.867  1.00  0.00     0.102 A 
HETATM    6  C8  UNL     1     -90.047 -16.076  12.582  1.00  0.00     0.025 A 
ENDROOT
BRANCH   6   7
HETATM    7  C9  UNL     1     -89.288 -15.764  11.382  1.00  0.00    -0.014 A 
HETATM    8  C10 UNL     1     -89.941 -15.453  10.197  1.00  0.00     0.044 A 
HETATM    9  C11 UNL     1     -89.287 -15.182   9.030  1.00  0.00     0.065 A 
HETATM   10  N2  UNL     1     -89.924 -14.887   7.875  1.00  0.00    -0.191 N 
HETATM   11  C17 UNL     1     -87.895 -15.210   8.998  1.00  0.00     0.050 A 
HETATM   12  C12 UNL     1     -89.286 -14.628   6.725  1.00  0.00     0.678 A 
ATOM     13  H2  UNL     1     -90.944 -14.860   7.879  1.00  0.00     0.184 HD
HETATM   14  N4  UNL     1     -87.950 -14.663   6.720  1.00  0.00    -0.164 N 
HETATM   15  C13 UNL     1     -87.202 -14.952   7.841  1.00  0.00     0.200 A 
ATOM     16  H4  UNL     1     -87.461 -14.467   5.847  1.00  0.00     0.187 HD
HETATM   17  C18 UNL     1     -87.249 -15.521  10.185  1.00  0.00     0.026 A 
HETATM   18  C19 UNL     1     -87.918 -15.793  11.356  1.00  0.00    -0.050 A 
HETATM   19  C20 UNL     1     -87.166 -16.102  12.595  1.00  0.00     0.049 C 
BRANCH  12  20
HETATM   20  N3  UNL     1     -89.961 -14.353   5.659  1.00  0.00    -0.234 N 
ATOM     21  H32 UNL     1     -90.079 -13.395   5.332  1.00  0.00     0.174 HD
ATOM     22  H31 UNL     1     -90.392 -15.105   5.121  1.00  0.00     0.174 HD
ENDBRANCH  12  20
BRANCH  15  23
HETATM   23  N5  UNL     1     -86.004 -14.959   7.730  1.00  0.00    -0.424 NA
BRANCH  23  24
HETATM   24  C14 UNL     1     -84.720 -14.558   7.720  1.00  0.00     0.157 C 
HETATM   25  C15 UNL     1     -84.284 -14.205   6.281  1.00  0.00     0.047 C 
HETATM   26  C16 UNL     1     -84.440 -13.281   8.554  1.00  0.00     0.047 C 
ENDBRANCH  23  24
ENDBRANCH  15  23
ENDBRANCH   6   7
BRANCH   1  27
HETATM   27  O2  UNL     1     -89.989 -13.875  13.725  1.00  0.00    -0.306 OA
BRANCH  27  28
HETATM   28  C4  UNL     1     -88.779 -13.549  14.299  1.00  0.00     0.112 A 
HETATM   29  C3  UNL     1     -88.613 -14.068  15.611  1.00  0.00     0.079 A 
HETATM   30  C2  UNL     1     -87.450 -13.799  16.279  1.00  0.00     0.104 A 
HETATM   31  C23 UNL     1     -86.470 -13.025  15.647  1.00  0.00     0.104 A 
HETATM   32  C22 UNL     1     -86.642 -12.535  14.384  1.00  0.00     0.078 A 
HETATM   33  C21 UNL     1     -87.840 -12.807  13.678  1.00  0.00     0.139 A 
BRANCH  30  34
HETATM   34  O1  UNL     1     -87.165 -14.237  17.548  1.00  0.00    -0.353 OA
HETATM   35  C1  UNL     1     -88.045 -14.216  18.612  1.00  0.00     0.210 C 
ENDBRANCH  30  34
BRANCH  31  36
HETATM   36  O5  UNL     1     -85.308 -12.768  16.353  1.00  0.00    -0.353 OA
HETATM   37  C24 UNL     1     -84.726 -11.487  16.277  1.00  0.00     0.210 C 
ENDBRANCH  31  36
BRANCH  33  38
HETATM   38  N6  UNL     1     -87.918 -12.378  12.340  1.00  0.00    -0.113 N 
HETATM   39  O3  UNL     1     -86.770 -12.067  11.826  1.00  0.00    -0.532 OA
HETATM   40  O4  UNL     1     -88.974 -12.248  11.513  1.00  0.00    -0.532 OA
ENDBRANCH  33  38
ENDBRANCH  27  28
ENDBRANCH   1  27
TORSDOF 9
ENDMDL
MODEL 3
REMARK VINA RESULT: -8.493138975      2.842      7.156
REMARK  9 active torsions:
REMARK  status: ('A' for Active; 'I' for Inactive)
REMARK    1  A    between atoms: O1_2  and  C2_3 
REMARK    2  A    between atoms: C4_5  and  O2_6 
REMARK    3  A    between atoms: O2_6  and  C5_7 
REMARK    4  A    between atoms: C8_12  and  C9_13 
REMARK    5  A    between atoms: C12_18  and  N3_19 
REMARK    6  A    between atoms: C13_24  and  N5_25 
REMARK    7  A    between atoms: N5_25  and  C14_26 
REMARK    8  A    between atoms: C21_33  and  N6_34 
REMARK    9  A    between atoms: C23_38  and  O5_39 
ROOT
HETATM    1  C5  UNL     1     -92.430 -15.501  10.952  1.00  0.00     0.103 A 
HETATM    2  C6  UNL     1     -93.640 -15.865  10.339  1.00  0.00     0.125 A 
HETATM    3  N1  UNL     1     -94.011 -17.032  10.864  1.00  0.00    -0.372 N 
ATOM      4  H1  UNL     1     -94.855 -17.549  10.615  1.00  0.00     0.164 HD
HETATM    5  C7  UNL     1     -93.087 -17.429  11.788  1.00  0.00     0.102 A 
HETATM    6  C8  UNL     1     -92.102 -16.478  11.844  1.00  0.00     0.025 A 
ENDROOT
BRANCH   6   7
HETATM    7  C9  UNL     1     -90.929 -16.544  12.701  1.00  0.00    -0.014 A 
HETATM    8  C10 UNL     1     -90.875 -15.814  13.880  1.00  0.00     0.044 A 
HETATM    9  C11 UNL     1     -89.792 -15.810  14.709  1.00  0.00     0.065 A 
HETATM   10  N2  UNL     1     -89.738 -15.091  15.853  1.00  0.00    -0.191 N 
HETATM   11  C17 UNL     1     -88.670 -16.567  14.382  1.00  0.00     0.050 A 
HETATM   12  C12 UNL     1     -88.672 -15.078  16.666  1.00  0.00     0.678 A 
ATOM     13  H2  UNL     1     -90.550 -14.530  16.111  1.00  0.00     0.184 HD
HETATM   14  N4  UNL     1     -87.608 -15.813  16.329  1.00  0.00    -0.164 N 
HETATM   15  C13 UNL     1     -87.558 -16.581  15.187  1.00  0.00     0.200 A 
ATOM     16  H4  UNL     1     -86.796 -15.804  16.946  1.00  0.00     0.187 HD
HETATM   17  C18 UNL     1     -88.731 -17.295  13.202  1.00  0.00     0.026 A 
HETATM   18  C19 UNL     1     -89.828 -17.293  12.373  1.00  0.00    -0.050 A 
HETATM   19  C20 UNL     1     -89.835 -18.107  11.135  1.00  0.00     0.049 C 
BRANCH  12  20
HETATM   20  N3  UNL     1     -88.691 -14.367  17.745  1.00  0.00    -0.234 N 
ATOM     21  H32 UNL     1     -88.689 -14.797  18.669  1.00  0.00     0.174 HD
ATOM     22  H31 UNL     1     -88.709 -13.349  17.684  1.00  0.00     0.174 HD
ENDBRANCH  12  20
BRANCH  15  23
HETATM   23  N5  UNL     1     -86.552 -17.205  14.973  1.00  0.00    -0.424 NA
BRANCH  23  24
HETATM   24  C14 UNL     1     -85.686 -18.227  14.843  1.00  0.00     0.157 C 
HETATM   25  C15 UNL     1     -86.443 -19.573  14.871  1.00  0.00     0.047 C 
HETATM   26  C16 UNL     1     -84.894 -18.233  13.509  1.00  0.00     0.047 C 
ENDBRANCH  23  24
ENDBRANCH  15  23
ENDBRANCH   6   7
BRANCH   1  27
HETATM   27  O2  UNL     1     -91.683 -14.324  10.688  1.00  0.00    -0.306 OA
BRANCH  27  28
HETATM   28  C4  UNL     1     -90.375 -14.431  10.268  1.00  0.00     0.112 A 
HETATM   29  C3  UNL     1     -89.438 -13.873  11.178  1.00  0.00     0.079 A 
HETATM   30  C2  UNL     1     -88.109 -13.917  10.858  1.00  0.00     0.104 A 
HETATM   31  C23 UNL     1     -87.723 -14.510   9.649  1.00  0.00     0.104 A 
HETATM   32  C22 UNL     1     -88.635 -15.045   8.786  1.00  0.00     0.078 A 
HETATM   33  C21 UNL     1     -90.015 -15.009   9.104  1.00  0.00     0.139 A 
BRANCH  30  34
HETATM   34  O1  UNL     1     -87.104 -13.415  11.645  1.00  0.00    -0.353 OA
HETATM   35  C1  UNL     1     -87.080 -13.458  13.026  1.00  0.00     0.210 C 
ENDBRANCH  30  34
BRANCH  31  36
HETATM   36  O5  UNL     1     -86.372 -14.534   9.355  1.00  0.00    -0.353 OA
HETATM   37  C24 UNL     1     -85.750 -15.768   9.081  1.00  0.00     0.210 C 
ENDBRANCH  31  36
BRANCH  33  38
HETATM   38  N6  UNL     1     -90.900 -15.676   8.237  1.00  0.00    -0.113 N 
HETATM   39  O3  UNL     1     -91.459 -14.897   7.366  1.00  0.00    -0.532 OA
HETATM   40  O4  UNL     1     -91.250 -16.976   8.158  1.00  0.00    -0.532 OA
ENDBRANCH  33  38
ENDBRANCH  27  28
ENDBRANCH   1  27
TORSDOF 9
ENDMDL
MODEL 4
REMARK VINA RESULT: -8.480296905      2.378      5.804
REMARK  9 active torsions:
REMARK  status: ('A' for Active; 'I' for Inactive)
REMARK    1  A    between atoms: O1_2  and  C2_3 
REMARK    2  A    between atoms: C4_5  and  O2_6 
REMARK    3  A    between atoms: O2_6  and  C5_7 
REMARK    4  A    between atoms: C8_12  and  C9_13 
REMARK    5  A    between atoms: C12_18  and  N3_19 
REMARK    6  A    between atoms: C13_24  and  N5_25 
REMARK    7  A    between atoms: N5_25  and  C14_26 
REMARK    8  A    between atoms: C21_33  and  N6_34 
REMARK    9  A    between atoms: C23_38  and  O5_39 
ROOT
HETATM    1  C5  UNL     1     -91.430 -16.159  11.635  1.00  0.00     0.103 A 
HETATM    2  C6  UNL     1     -92.478 -17.054  11.905  1.00  0.00     0.125 A 
HETATM    3  N1  UNL     1     -92.240 -18.161  11.202  1.00  0.00    -0.372 N 
ATOM      4  H1  UNL     1     -92.831 -18.992  11.195  1.00  0.00     0.164 HD
HETATM    5  C7  UNL     1     -91.082 -18.010  10.495  1.00  0.00     0.102 A 
HETATM    6  C8  UNL     1     -90.577 -16.765  10.762  1.00  0.00     0.025 A 
ENDROOT
BRANCH   6   7
HETATM    7  C9  UNL     1     -89.357 -16.220  10.186  1.00  0.00    -0.014 A 
HETATM    8  C10 UNL     1     -88.136 -16.403  10.819  1.00  0.00     0.044 A 
HETATM    9  C11 UNL     1     -86.963 -15.891  10.346  1.00  0.00     0.065 A 
HETATM   10  N2  UNL     1     -85.775 -16.063  10.969  1.00  0.00    -0.191 N 
HETATM   11  C17 UNL     1     -86.961 -15.144   9.172  1.00  0.00     0.050 A 
HETATM   12  C12 UNL     1     -84.622 -15.555  10.512  1.00  0.00     0.678 A 
ATOM     13  H2  UNL     1     -85.755 -16.608  11.831  1.00  0.00     0.184 HD
HETATM   14  N4  UNL     1     -84.647 -14.841   9.383  1.00  0.00    -0.164 N 
HETATM   15  C13 UNL     1     -85.802 -14.605   8.669  1.00  0.00     0.200 A 
ATOM     16  H4  UNL     1     -83.772 -14.452   9.032  1.00  0.00     0.187 HD
HETATM   17  C18 UNL     1     -88.185 -14.966   8.543  1.00  0.00     0.026 A 
HETATM   18  C19 UNL     1     -89.362 -15.486   9.028  1.00  0.00    -0.050 A 
HETATM   19  C20 UNL     1     -90.634 -15.273   8.299  1.00  0.00     0.049 C 
BRANCH  12  20
HETATM   20  N3  UNL     1     -83.524 -15.760  11.160  1.00  0.00    -0.234 N 
ATOM     21  H32 UNL     1     -83.235 -15.155  11.928  1.00  0.00     0.174 HD
ATOM     22  H31 UNL     1     -82.921 -16.543  10.908  1.00  0.00     0.174 HD
ENDBRANCH  12  20
BRANCH  15  23
HETATM   23  N5  UNL     1     -85.718 -13.948   7.665  1.00  0.00    -0.424 NA
BRANCH  23  24
HETATM   24  C14 UNL     1     -85.709 -13.596   6.366  1.00  0.00     0.157 C 
HETATM   25  C15 UNL     1     -84.434 -14.131   5.679  1.00  0.00     0.047 C 
HETATM   26  C16 UNL     1     -86.889 -14.168   5.537  1.00  0.00     0.047 C 
ENDBRANCH  23  24
ENDBRANCH  15  23
ENDBRANCH   6   7
BRANCH   1  27
HETATM   27  O2  UNL     1     -91.286 -14.856  12.178  1.00  0.00    -0.306 OA
BRANCH  27  28
HETATM   28  C4  UNL     1     -90.147 -14.540  12.888  1.00  0.00     0.112 A 
HETATM   29  C3  UNL     1     -89.382 -13.497  12.301  1.00  0.00     0.079 A 
HETATM   30  C2  UNL     1     -88.225 -13.107  12.917  1.00  0.00     0.104 A 
HETATM   31  C23 UNL     1     -87.840 -13.747  14.101  1.00  0.00     0.104 A 
HETATM   32  C22 UNL     1     -88.588 -14.746  14.656  1.00  0.00     0.078 A 
HETATM   33  C21 UNL     1     -89.789 -15.161  14.031  1.00  0.00     0.139 A 
BRANCH  30  34
HETATM   34  O1  UNL     1     -87.395 -12.117  12.455  1.00  0.00    -0.353 OA
HETATM   35  C1  UNL     1     -86.428 -12.281  11.483  1.00  0.00     0.210 C 
ENDBRANCH  30  34
BRANCH  31  36
HETATM   36  O5  UNL     1     -86.663 -13.331  14.696  1.00  0.00    -0.353 OA
HETATM   37  C24 UNL     1     -85.543 -14.186  14.678  1.00  0.00     0.210 C 
ENDBRANCH  31  36
BRANCH  33  38
HETATM   38  N6  UNL     1     -90.579 -16.111  14.703  1.00  0.00    -0.113 N 
HETATM   39  O3  UNL     1     -91.578 -15.594  15.346  1.00  0.00    -0.532 OA
HETATM   40  O4  UNL     1     -90.476 -17.453  14.781  1.00  0.00    -0.532 OA
ENDBRANCH  33  38
ENDBRANCH  27  28
ENDBRANCH   1  27
TORSDOF 9
ENDMDL
MODEL 5
REMARK VINA RESULT: -8.424702054      2.764      6.383
REMARK  9 active torsions:
REMARK  status: ('A' for Active; 'I' for Inactive)
REMARK    1  A    between atoms: O1_2  and  C2_3 
REMARK    2  A    between atoms: C4_5  and  O2_6 
REMARK    3  A    between atoms: O2_6  and  C5_7 
REMARK    4  A    between atoms: C8_12  and  C9_13 
REMARK    5  A    between atoms: C12_18  and  N3_19 
REMARK    6  A    between atoms: C13_24  and  N5_25 
REMARK    7  A    between atoms: N5_25  and  C14_26 
REMARK    8  A    between atoms: C21_33  and  N6_34 
REMARK    9  A    between atoms: C23_38  and  O5_39 
ROOT
HETATM    1  C5  UNL     1     -90.939 -15.216   9.378  1.00  0.00     0.103 A 
HETATM    2  C6  UNL     1     -92.132 -15.949   9.272  1.00  0.00     0.125 A 
HETATM    3  N1  UNL     1     -91.836 -17.096   8.662  1.00  0.00    -0.372 N 
ATOM      4  H1  UNL     1     -92.502 -17.837   8.445  1.00  0.00     0.164 HD
HETATM    5  C7  UNL     1     -90.501 -17.125   8.373  1.00  0.00     0.102 A 
HETATM    6  C8  UNL     1     -89.942 -15.957   8.817  1.00  0.00     0.025 A 
ENDROOT
BRANCH   6   7
HETATM    7  C9  UNL     1     -88.538 -15.602   8.682  1.00  0.00    -0.014 A 
HETATM    8  C10 UNL     1     -87.635 -15.897   9.694  1.00  0.00     0.044 A 
HETATM    9  C11 UNL     1     -86.313 -15.563   9.640  1.00  0.00     0.065 A 
HETATM   10  N2  UNL     1     -85.437 -15.845  10.630  1.00  0.00    -0.191 N 
HETATM   11  C17 UNL     1     -85.818 -14.892   8.525  1.00  0.00     0.050 A 
HETATM   12  C12 UNL     1     -84.140 -15.511  10.584  1.00  0.00     0.678 A 
ATOM     13  H2  UNL     1     -85.781 -16.336  11.455  1.00  0.00     0.184 HD
HETATM   14  N4  UNL     1     -83.689 -14.866   9.504  1.00  0.00    -0.164 N 
HETATM   15  C13 UNL     1     -84.495 -14.531   8.438  1.00  0.00     0.200 A 
ATOM     16  H4  UNL     1     -82.702 -14.611   9.466  1.00  0.00     0.187 HD
HETATM   17  C18 UNL     1     -86.725 -14.601   7.517  1.00  0.00     0.026 A 
HETATM   18  C19 UNL     1     -88.056 -14.942   7.581  1.00  0.00    -0.050 A 
HETATM   19  C20 UNL     1     -88.969 -14.616   6.461  1.00  0.00     0.049 C 
BRANCH  12  20
HETATM   20  N3  UNL     1     -83.360 -15.812  11.569  1.00  0.00    -0.234 N 
ATOM     21  H32 UNL     1     -82.704 -16.590  11.513  1.00  0.00     0.174 HD
ATOM     22  H31 UNL     1     -83.391 -15.265  12.430  1.00  0.00     0.174 HD
ENDBRANCH  12  20
BRANCH  15  23
HETATM   23  N5  UNL     1     -83.992 -13.950   7.513  1.00  0.00    -0.424 NA
BRANCH  23  24
HETATM   24  C14 UNL     1     -83.309 -13.700   6.381  1.00  0.00     0.157 C 
HETATM   25  C15 UNL     1     -81.933 -14.400   6.424  1.00  0.00     0.047 C 
HETATM   26  C16 UNL     1     -83.992 -14.222   5.090  1.00  0.00     0.047 C 
ENDBRANCH  23  24
ENDBRANCH  15  23
ENDBRANCH   6   7
BRANCH   1  27
HETATM   27  O2  UNL     1     -90.799 -13.932   9.966  1.00  0.00    -0.306 OA
BRANCH  27  28
HETATM   28  C4  UNL     1     -90.211 -13.817  11.208  1.00  0.00     0.112 A 
HETATM   29  C3  UNL     1     -88.962 -13.141  11.185  1.00  0.00     0.079 A 
HETATM   30  C2  UNL     1     -88.285 -12.977  12.362  1.00  0.00     0.104 A 
HETATM   31  C23 UNL     1     -88.847 -13.478  13.542  1.00  0.00     0.104 A 
HETATM   32  C22 UNL     1     -90.051 -14.123  13.549  1.00  0.00     0.078 A 
HETATM   33  C21 UNL     1     -90.765 -14.299  12.339  1.00  0.00     0.139 A 
BRANCH  30  34
HETATM   34  O1  UNL     1     -87.072 -12.346  12.478  1.00  0.00    -0.353 OA
HETATM   35  C1  UNL     1     -86.070 -12.370  11.527  1.00  0.00     0.210 C 
ENDBRANCH  30  34
BRANCH  31  36
HETATM   36  O5  UNL     1     -88.134 -13.298  14.713  1.00  0.00    -0.353 OA
HETATM   37  C24 UNL     1     -88.518 -14.009  15.868  1.00  0.00     0.210 C 
ENDBRANCH  31  36
BRANCH  33  38
HETATM   38  N6  UNL     1     -92.051 -14.865  12.418  1.00  0.00    -0.113 N 
HETATM   39  O3  UNL     1     -92.045 -16.130  12.701  1.00  0.00    -0.532 OA
HETATM   40  O4  UNL     1     -93.272 -14.315  12.261  1.00  0.00    -0.532 OA
ENDBRANCH  33  38
ENDBRANCH  27  28
ENDBRANCH   1  27
TORSDOF 9
ENDMDL
