MODEL 1
REMARK VINA RESULT: -8.580942814      0.000      0.000
REMARK  8 active torsions:
REMARK  status: ('A' for Active; 'I' for Inactive)
REMARK    1  A    between atoms: C2_2  and  N1_3 
REMARK    2  A    between atoms: C3_4  and  O1_5 
REMARK    3  A    between atoms: C6_9  and  O2_10 
REMARK    4  A    between atoms: C13_20  and  O3_21 
REMARK    5  A    between atoms: C15_23  and  O4_24 
REMARK    6  A    between atoms: C19_28  and  C20_29 
REMARK    7  A    between atoms: C21_30  and  C22_31 
REMARK    8  A    between atoms: C22_31  and  C23_32 
ROOT
HETATM    1  N1  UNL     1     -87.049 -17.555  15.217  1.00  0.00    -0.308 N 
HETATM    2  C3  UNL     1     -88.329 -17.315  15.537  1.00  0.00     0.153 A 
HETATM    3  C4  UNL     1     -88.739 -16.119  14.957  1.00  0.00     0.034 A 
HETATM    4  C5  UNL     1     -87.630 -15.661  14.272  1.00  0.00     0.039 A 
HETATM    5  C6  UNL     1     -86.621 -16.547  14.446  1.00  0.00     0.153 A 
HETATM    6  C7  UNL     1     -88.057 -14.385  13.650  1.00  0.00     0.266 C 
HETATM    7  C8  UNL     1     -87.174 -13.913  12.575  1.00  0.00     0.082 C 
HETATM    8  C9  UNL     1     -87.303 -14.516  11.259  1.00  0.00    -0.020 A 
HETATM    9  C10 UNL     1     -88.144 -15.470  10.802  1.00  0.00     0.026 A 
HETATM   10  N2  UNL     1     -87.861 -15.678   9.510  1.00  0.00    -0.358 N 
ATOM     11  H2  UNL     1     -88.343 -16.349   8.913  1.00  0.00     0.166 HD
HETATM   12  C11 UNL     1     -86.856 -14.882   9.109  1.00  0.00     0.046 A 
HETATM   13  C12 UNL     1     -86.199 -14.704   7.910  1.00  0.00     0.070 A 
HETATM   14  C13 UNL     1     -85.182 -13.800   7.780  1.00  0.00     0.103 A 
HETATM   15  C15 UNL     1     -84.798 -13.043   8.867  1.00  0.00     0.102 A 
HETATM   16  C17 UNL     1     -85.453 -13.219  10.064  1.00  0.00     0.054 A 
HETATM   17  C18 UNL     1     -86.493 -14.141  10.209  1.00  0.00     0.002 A 
HETATM   18  C19 UNL     1     -89.199 -16.169  11.595  1.00  0.00     0.091 C 
HETATM   19  C25 UNL     1     -90.005 -15.237  12.428  1.00  0.00     0.233 C 
HETATM   20  C26 UNL     1     -90.639 -14.221  11.458  1.00  0.00     0.044 C 
HETATM   21  N3  UNL     1     -89.415 -14.540  13.455  1.00  0.00     0.107 N 
HETATM   22  C27 UNL     1     -89.824 -15.112  14.739  1.00  0.00     0.317 C 
ENDROOT
BRANCH  18  23
HETATM   23  C20 UNL     1     -90.116 -16.787  10.590  1.00  0.00    -0.018 C 
HETATM   24  C21 UNL     1     -90.963 -17.757  10.901  1.00  0.00    -0.027 C 
BRANCH  24  25
HETATM   25  C22 UNL     1     -91.862 -18.362   9.910  1.00  0.00     0.063 C 
BRANCH  25  26
HETATM   26  C23 UNL     1     -93.286 -18.493  10.448  1.00  0.00     0.169 C 
HETATM   27  C24 UNL     1     -93.742 -17.226  11.122  1.00  0.00     0.045 C 
HETATM   28  F1  UNL     1     -93.398 -19.550  11.313  1.00  0.00    -0.250 F 
ENDBRANCH  25  26
ENDBRANCH  24  25
ENDBRANCH  18  23
BRANCH  15  29
HETATM   29  O4  UNL     1     -83.772 -12.111   8.791  1.00  0.00    -0.353 OA
HETATM   30  C16 UNL     1     -82.564 -12.307   9.501  1.00  0.00     0.210 C 
ENDBRANCH  15  29
BRANCH  14  31
HETATM   31  O3  UNL     1     -84.514 -13.611   6.585  1.00  0.00    -0.353 OA
HETATM   32  C14 UNL     1     -85.097 -13.864   5.324  1.00  0.00     0.210 C 
ENDBRANCH  14  31
BRANCH   5  33
HETATM   33  O2  UNL     1     -85.337 -16.399  13.888  1.00  0.00    -0.345 OA
ATOM     34  H2  UNL     1     -84.654 -15.808  14.181  1.00  0.00     0.219 HD
ENDBRANCH   5  33
BRANCH   2  35
HETATM   35  O1  UNL     1     -89.162 -18.101  16.320  1.00  0.00    -0.345 OA
ATOM     36  H1  UNL     1     -90.106 -18.032  16.406  1.00  0.00     0.219 HD
ENDBRANCH   2  35
BRANCH   1  37
HETATM   37  C2  UNL     1     -86.248 -18.681  15.612  1.00  0.00     0.129 C 
HETATM   38  C1  UNL     1     -86.592 -19.911  14.763  1.00  0.00     0.027 C 
ENDBRANCH   1  37
TORSDOF 8
ENDMDL
MODEL 2
REMARK VINA RESULT: -8.272387229      1.761      1.959
REMARK  8 active torsions:
REMARK  status: ('A' for Active; 'I' for Inactive)
REMARK    1  A    between atoms: C2_2  and  N1_3 
REMARK    2  A    between atoms: C3_4  and  O1_5 
REMARK    3  A    between atoms: C6_9  and  O2_10 
REMARK    4  A    between atoms: C13_20  and  O3_21 
REMARK    5  A    between atoms: C15_23  and  O4_24 
REMARK    6  A    between atoms: C19_28  and  C20_29 
REMARK    7  A    between atoms: C21_30  and  C22_31 
REMARK    8  A    between atoms: C22_31  and  C23_32 
ROOT
HETATM    1  N1  UNL     1     -87.011 -14.869  15.912  1.00  0.00    -0.308 N 
HETATM    2  C3  UNL     1     -88.341 -14.704  15.907  1.00  0.00     0.153 A 
HETATM    3  C4  UNL     1     -88.710 -13.894  14.839  1.00  0.00     0.034 A 
HETATM    4  C5  UNL     1     -87.521 -13.585  14.205  1.00  0.00     0.039 A 
HETATM    5  C6  UNL     1     -86.509 -14.186  14.873  1.00  0.00     0.153 A 
HETATM    6  C7  UNL     1     -87.903 -12.720  13.063  1.00  0.00     0.266 C 
HETATM    7  C8  UNL     1     -86.861 -12.581  12.038  1.00  0.00     0.082 C 
HETATM    8  C9  UNL     1     -86.690 -13.656  11.074  1.00  0.00    -0.020 A 
HETATM    9  C10 UNL     1     -87.360 -14.820  10.920  1.00  0.00     0.026 A 
HETATM   10  N2  UNL     1     -86.817 -15.467   9.882  1.00  0.00    -0.358 N 
ATOM     11  H2  UNL     1     -87.127 -16.377   9.540  1.00  0.00     0.166 HD
HETATM   12  C11 UNL     1     -85.809 -14.756   9.351  1.00  0.00     0.046 A 
HETATM   13  C12 UNL     1     -84.943 -14.964   8.298  1.00  0.00     0.070 A 
HETATM   14  C13 UNL     1     -83.984 -14.048   7.971  1.00  0.00     0.103 A 
HETATM   15  C15 UNL     1     -83.870 -12.885   8.703  1.00  0.00     0.102 A 
HETATM   16  C17 UNL     1     -84.733 -12.676   9.754  1.00  0.00     0.054 A 
HETATM   17  C18 UNL     1     -85.718 -13.606  10.099  1.00  0.00     0.002 A 
HETATM   18  C19 UNL     1     -88.501 -15.298  11.757  1.00  0.00     0.091 C 
HETATM   19  C25 UNL     1     -89.514 -14.240  12.009  1.00  0.00     0.233 C 
HETATM   20  C26 UNL     1     -90.013 -13.775  10.627  1.00  0.00     0.044 C 
HETATM   21  N3  UNL     1     -89.184 -13.126  12.743  1.00  0.00     0.107 N 
HETATM   22  C27 UNL     1     -89.796 -13.211  14.070  1.00  0.00     0.317 C 
ENDROOT
BRANCH  18  23
HETATM   23  C20 UNL     1     -89.160 -16.377  10.961  1.00  0.00    -0.018 C 
HETATM   24  C21 UNL     1     -90.102 -17.160  11.465  1.00  0.00    -0.027 C 
BRANCH  24  25
HETATM   25  C22 UNL     1     -90.748 -18.219  10.679  1.00  0.00     0.063 C 
BRANCH  25  26
HETATM   26  C23 UNL     1     -92.240 -17.950  10.490  1.00  0.00     0.169 C 
HETATM   27  C24 UNL     1     -92.770 -17.011  11.542  1.00  0.00     0.045 C 
HETATM   28  F1  UNL     1     -92.962 -19.114  10.494  1.00  0.00    -0.250 F 
ENDBRANCH  25  26
ENDBRANCH  24  25
ENDBRANCH  18  23
BRANCH  15  29
HETATM   29  O4  UNL     1     -82.914 -11.921   8.414  1.00  0.00    -0.353 OA
HETATM   30  C16 UNL     1     -81.822 -11.704   9.287  1.00  0.00     0.210 C 
ENDBRANCH  15  29
BRANCH  14  31
HETATM   31  O3  UNL     1     -83.109 -14.243   6.917  1.00  0.00    -0.353 OA
HETATM   32  C14 UNL     1     -83.506 -14.198   5.564  1.00  0.00     0.210 C 
ENDBRANCH  14  31
BRANCH   5  33
HETATM   33  O2  UNL     1     -85.154 -14.088  14.506  1.00  0.00    -0.345 OA
ATOM     34  H2  UNL     1     -84.531 -13.434  14.800  1.00  0.00     0.219 HD
ENDBRANCH   5  33
BRANCH   2  35
HETATM   35  O1  UNL     1     -89.258 -15.236  16.805  1.00  0.00    -0.345 OA
ATOM     36  H1  UNL     1     -90.205 -15.184  16.759  1.00  0.00     0.219 HD
ENDBRANCH   2  35
BRANCH   1  37
HETATM   37  C2  UNL     1     -86.229 -15.632  16.844  1.00  0.00     0.129 C 
HETATM   38  C1  UNL     1     -85.712 -14.734  17.975  1.00  0.00     0.027 C 
ENDBRANCH   1  37
TORSDOF 8
ENDMDL
MODEL 3
REMARK VINA RESULT: -8.127304201      0.849      1.056
REMARK  8 active torsions:
REMARK  status: ('A' for Active; 'I' for Inactive)
REMARK    1  A    between atoms: C2_2  and  N1_3 
REMARK    2  A    between atoms: C3_4  and  O1_5 
REMARK    3  A    between atoms: C6_9  and  O2_10 
REMARK    4  A    between atoms: C13_20  and  O3_21 
REMARK    5  A    between atoms: C15_23  and  O4_24 
REMARK    6  A    between atoms: C19_28  and  C20_29 
REMARK    7  A    between atoms: C21_30  and  C22_31 
REMARK    8  A    between atoms: C22_31  and  C23_32 
ROOT
HETATM    1  N1  UNL     1     -86.924 -17.788  15.377  1.00  0.00    -0.308 N 
HETATM    2  C3  UNL     1     -88.159 -17.503  15.813  1.00  0.00     0.153 A 
HETATM    3  C4  UNL     1     -88.556 -16.265  15.322  1.00  0.00     0.034 A 
HETATM    4  C5  UNL     1     -87.486 -15.827  14.565  1.00  0.00     0.039 A 
HETATM    5  C6  UNL     1     -86.512 -16.765  14.615  1.00  0.00     0.153 A 
HETATM    6  C7  UNL     1     -87.900 -14.505  14.035  1.00  0.00     0.266 C 
HETATM    7  C8  UNL     1     -87.086 -14.025  12.910  1.00  0.00     0.082 C 
HETATM    8  C9  UNL     1     -87.354 -14.561  11.585  1.00  0.00    -0.020 A 
HETATM    9  C10 UNL     1     -88.277 -15.453  11.162  1.00  0.00     0.026 A 
HETATM   10  N2  UNL     1     -88.113 -15.614   9.843  1.00  0.00    -0.358 N 
ATOM     11  H2  UNL     1     -88.675 -16.234   9.261  1.00  0.00     0.166 HD
HETATM   12  C11 UNL     1     -87.106 -14.848   9.392  1.00  0.00     0.046 A 
HETATM   13  C12 UNL     1     -86.543 -14.645   8.149  1.00  0.00     0.070 A 
HETATM   14  C13 UNL     1     -85.496 -13.784   7.972  1.00  0.00     0.103 A 
HETATM   15  C15 UNL     1     -84.986 -13.096   9.052  1.00  0.00     0.102 A 
HETATM   16  C17 UNL     1     -85.547 -13.297  10.292  1.00  0.00     0.054 A 
HETATM   17  C18 UNL     1     -86.616 -14.176  10.487  1.00  0.00     0.002 A 
HETATM   18  C19 UNL     1     -89.296 -16.138  12.012  1.00  0.00     0.091 C 
HETATM   19  C25 UNL     1     -89.982 -15.210  12.949  1.00  0.00     0.233 C 
HETATM   20  C26 UNL     1     -90.643 -14.122  12.080  1.00  0.00     0.044 C 
HETATM   21  N3  UNL     1     -89.275 -14.588  13.950  1.00  0.00     0.107 N 
HETATM   22  C27 UNL     1     -89.604 -15.200  15.239  1.00  0.00     0.317 C 
ENDROOT
BRANCH  18  23
HETATM   23  C20 UNL     1     -90.322 -16.667  11.064  1.00  0.00    -0.018 C 
HETATM   24  C21 UNL     1     -91.115 -17.684  11.367  1.00  0.00    -0.027 C 
BRANCH  24  25
HETATM   25  C22 UNL     1     -92.123 -18.200  10.432  1.00  0.00     0.063 C 
BRANCH  25  26
HETATM   26  C23 UNL     1     -91.530 -18.443   9.044  1.00  0.00     0.169 C 
HETATM   27  C24 UNL     1     -92.490 -19.191   8.155  1.00  0.00     0.045 C 
HETATM   28  F1  UNL     1     -90.340 -19.117   9.120  1.00  0.00    -0.250 F 
ENDBRANCH  25  26
ENDBRANCH  24  25
ENDBRANCH  18  23
BRANCH  15  29
HETATM   29  O4  UNL     1     -83.925 -12.210   8.929  1.00  0.00    -0.353 OA
HETATM   30  C16 UNL     1     -82.733 -12.404   9.666  1.00  0.00     0.210 C 
ENDBRANCH  15  29
BRANCH  14  31
HETATM   31  O3  UNL     1     -84.921 -13.571   6.732  1.00  0.00    -0.353 OA
HETATM   32  C14 UNL     1     -85.593 -13.816   5.515  1.00  0.00     0.210 C 
ENDBRANCH  14  31
BRANCH   5  33
HETATM   33  O2  UNL     1     -85.273 -16.652  13.956  1.00  0.00    -0.345 OA
ATOM     34  H2  UNL     1     -84.635 -15.957  14.062  1.00  0.00     0.219 HD
ENDBRANCH   5  33
BRANCH   2  35
HETATM   35  O1  UNL     1     -88.963 -18.285  16.632  1.00  0.00    -0.345 OA
ATOM     36  H1  UNL     1     -89.570 -18.965  16.362  1.00  0.00     0.219 HD
ENDBRANCH   2  35
BRANCH   1  37
HETATM   37  C2  UNL     1     -86.150 -18.966  15.654  1.00  0.00     0.129 C 
HETATM   38  C1  UNL     1     -86.601 -20.129  14.761  1.00  0.00     0.027 C 
ENDBRANCH   1  37
TORSDOF 8
ENDMDL
MODEL 4
REMARK VINA RESULT: -8.072154058      1.392      1.707
REMARK  8 active torsions:
REMARK  status: ('A' for Active; 'I' for Inactive)
REMARK    1  A    between atoms: C2_2  and  N1_3 
REMARK    2  A    between atoms: C3_4  and  O1_5 
REMARK    3  A    between atoms: C6_9  and  O2_10 
REMARK    4  A    between atoms: C13_20  and  O3_21 
REMARK    5  A    between atoms: C15_23  and  O4_24 
REMARK    6  A    between atoms: C19_28  and  C20_29 
REMARK    7  A    between atoms: C21_30  and  C22_31 
REMARK    8  A    between atoms: C22_31  and  C23_32 
ROOT
HETATM    1  N1  UNL     1     -87.146 -18.674  15.299  1.00  0.00    -0.308 N 
HETATM    2  C3  UNL     1     -88.068 -18.110  16.093  1.00  0.00     0.153 A 
HETATM    3  C4  UNL     1     -88.231 -16.774  15.747  1.00  0.00     0.034 A 
HETATM    4  C5  UNL     1     -87.352 -16.572  14.698  1.00  0.00     0.039 A 
HETATM    5  C6  UNL     1     -86.709 -17.736  14.448  1.00  0.00     0.153 A 
HETATM    6  C7  UNL     1     -87.518 -15.148  14.321  1.00  0.00     0.266 C 
HETATM    7  C8  UNL     1     -86.971 -14.807  13.001  1.00  0.00     0.082 C 
HETATM    8  C9  UNL     1     -87.755 -15.137  11.821  1.00  0.00    -0.020 A 
HETATM    9  C10 UNL     1     -88.971 -15.713  11.701  1.00  0.00     0.026 A 
HETATM   10  N2  UNL     1     -89.254 -15.798  10.395  1.00  0.00    -0.358 N 
ATOM     11  H2  UNL     1     -90.112 -16.195  10.013  1.00  0.00     0.166 HD
HETATM   12  C11 UNL     1     -88.252 -15.291   9.657  1.00  0.00     0.046 A 
HETATM   13  C12 UNL     1     -88.046 -15.140   8.302  1.00  0.00     0.070 A 
HETATM   14  C13 UNL     1     -86.902 -14.575   7.813  1.00  0.00     0.103 A 
HETATM   15  C15 UNL     1     -85.926 -14.142   8.685  1.00  0.00     0.102 A 
HETATM   16  C17 UNL     1     -86.131 -14.292  10.038  1.00  0.00     0.054 A 
HETATM   17  C18 UNL     1     -87.296 -14.869  10.550  1.00  0.00     0.002 A 
HETATM   18  C19 UNL     1     -89.844 -16.173  12.822  1.00  0.00     0.091 C 
HETATM   19  C25 UNL     1     -89.938 -15.180  13.924  1.00  0.00     0.233 C 
HETATM   20  C26 UNL     1     -90.494 -13.886  13.299  1.00  0.00     0.044 C 
HETATM   21  N3  UNL     1     -88.824 -14.856  14.661  1.00  0.00     0.107 N 
HETATM   22  C27 UNL     1     -88.916 -15.466  15.988  1.00  0.00     0.317 C 
ENDROOT
BRANCH  18  23
HETATM   23  C20 UNL     1     -91.209 -16.328  12.233  1.00  0.00    -0.018 C 
HETATM   24  C21 UNL     1     -91.778 -17.511  12.057  1.00  0.00    -0.027 C 
BRANCH  24  25
HETATM   25  C22 UNL     1     -93.120 -17.658  11.478  1.00  0.00     0.063 C 
BRANCH  25  26
HETATM   26  C23 UNL     1     -93.083 -17.597   9.951  1.00  0.00     0.169 C 
HETATM   27  C24 UNL     1     -92.018 -18.501   9.386  1.00  0.00     0.045 C 
HETATM   28  F1  UNL     1     -92.894 -16.316   9.506  1.00  0.00    -0.250 F 
ENDBRANCH  25  26
ENDBRANCH  24  25
ENDBRANCH  18  23
BRANCH  15  29
HETATM   29  O4  UNL     1     -84.745 -13.561   8.244  1.00  0.00    -0.353 OA
HETATM   30  C16 UNL     1     -84.049 -12.634   9.055  1.00  0.00     0.210 C 
ENDBRANCH  15  29
BRANCH  14  31
HETATM   31  O3  UNL     1     -86.680 -14.417   6.457  1.00  0.00    -0.353 OA
HETATM   32  C14 UNL     1     -87.699 -14.072   5.542  1.00  0.00     0.210 C 
ENDBRANCH  14  31
BRANCH   5  33
HETATM   33  O2  UNL     1     -85.738 -17.900  13.441  1.00  0.00    -0.345 OA
ATOM     34  H2  UNL     1     -84.907 -17.445  13.374  1.00  0.00     0.219 HD
ENDBRANCH   5  33
BRANCH   2  35
HETATM   35  O1  UNL     1     -88.780 -18.718  17.118  1.00  0.00    -0.345 OA
ATOM     36  H1  UNL     1     -89.364 -18.300  17.740  1.00  0.00     0.219 HD
ENDBRANCH   2  35
BRANCH   1  37
HETATM   37  C2  UNL     1     -86.686 -20.035  15.326  1.00  0.00     0.129 C 
HETATM   38  C1  UNL     1     -85.620 -20.221  16.414  1.00  0.00     0.027 C 
ENDBRANCH   1  37
TORSDOF 8
ENDMDL
MODEL 5
REMARK VINA RESULT: -8.060069678      3.539      6.250
REMARK  8 active torsions:
REMARK  status: ('A' for Active; 'I' for Inactive)
REMARK    1  A    between atoms: C2_2  and  N1_3 
REMARK    2  A    between atoms: C3_4  and  O1_5 
REMARK    3  A    between atoms: C6_9  and  O2_10 
REMARK    4  A    between atoms: C13_20  and  O3_21 
REMARK    5  A    between atoms: C15_23  and  O4_24 
REMARK    6  A    between atoms: C19_28  and  C20_29 
REMARK    7  A    between atoms: C21_30  and  C22_31 
REMARK    8  A    between atoms: C22_31  and  C23_32 
ROOT
HETATM    1  N1  UNL     1     -92.704 -17.093  11.696  1.00  0.00    -0.308 N 
HETATM    2  C3  UNL     1     -92.889 -15.887  11.142  1.00  0.00     0.153 A 
HETATM    3  C4  UNL     1     -91.983 -14.980  11.679  1.00  0.00     0.034 A 
HETATM    4  C5  UNL     1     -91.245 -15.716  12.587  1.00  0.00     0.039 A 
HETATM    5  C6  UNL     1     -91.701 -16.990  12.578  1.00  0.00     0.153 A 
HETATM    6  C7  UNL     1     -90.274 -14.757  13.167  1.00  0.00     0.266 C 
HETATM    7  C8  UNL     1     -89.149 -15.389  13.869  1.00  0.00     0.082 C 
HETATM    8  C9  UNL     1     -88.048 -15.916  13.077  1.00  0.00    -0.020 A 
HETATM    9  C10 UNL     1     -87.841 -15.916  11.742  1.00  0.00     0.026 A 
HETATM   10  N2  UNL     1     -86.671 -16.525  11.512  1.00  0.00    -0.358 N 
ATOM     11  H2  UNL     1     -86.264 -16.668  10.588  1.00  0.00     0.166 HD
HETATM   12  C11 UNL     1     -86.107 -16.923  12.665  1.00  0.00     0.046 A 
HETATM   13  C12 UNL     1     -84.934 -17.578  12.978  1.00  0.00     0.070 A 
HETATM   14  C13 UNL     1     -84.601 -17.864  14.272  1.00  0.00     0.103 A 
HETATM   15  C15 UNL     1     -85.448 -17.494  15.295  1.00  0.00     0.102 A 
HETATM   16  C17 UNL     1     -86.618 -16.840  14.983  1.00  0.00     0.054 A 
HETATM   17  C18 UNL     1     -86.971 -16.543  13.664  1.00  0.00     0.002 A 
HETATM   18  C19 UNL     1     -88.752 -15.342  10.707  1.00  0.00     0.091 C 
HETATM   19  C25 UNL     1     -89.257 -13.992  11.071  1.00  0.00     0.233 C 
HETATM   20  C26 UNL     1     -88.016 -13.097  11.259  1.00  0.00     0.044 C 
HETATM   21  N3  UNL     1     -90.072 -13.829  12.165  1.00  0.00     0.107 N 
HETATM   22  C27 UNL     1     -91.447 -13.584  11.724  1.00  0.00     0.317 C 
ENDROOT
BRANCH  18  23
HETATM   23  C20 UNL     1     -87.921 -15.198   9.474  1.00  0.00    -0.018 C 
HETATM   24  C21 UNL     1     -88.454 -15.088   8.266  1.00  0.00    -0.027 C 
BRANCH  24  25
HETATM   25  C22 UNL     1     -87.634 -14.947   7.055  1.00  0.00     0.063 C 
BRANCH  25  26
HETATM   26  C23 UNL     1     -88.273 -13.989   6.050  1.00  0.00     0.169 C 
HETATM   27  C24 UNL     1     -89.755 -14.232   5.920  1.00  0.00     0.045 C 
HETATM   28  F1  UNL     1     -87.675 -14.080   4.822  1.00  0.00    -0.250 F 
ENDBRANCH  25  26
ENDBRANCH  24  25
ENDBRANCH  18  23
BRANCH  15  29
HETATM   29  O4  UNL     1     -85.159 -17.760  16.626  1.00  0.00    -0.353 OA
HETATM   30  C16 UNL     1     -86.048 -17.360  17.651  1.00  0.00     0.210 C 
ENDBRANCH  15  29
BRANCH  14  31
HETATM   31  O3  UNL     1     -83.429 -18.520  14.602  1.00  0.00    -0.353 OA
HETATM   32  C14 UNL     1     -82.182 -17.867  14.714  1.00  0.00     0.210 C 
ENDBRANCH  14  31
BRANCH   5  33
HETATM   33  O2  UNL     1     -91.179 -18.021  13.383  1.00  0.00    -0.345 OA
ATOM     34  H2  UNL     1     -90.423 -17.967  13.955  1.00  0.00     0.219 HD
ENDBRANCH   5  33
BRANCH   2  35
HETATM   35  O1  UNL     1     -93.825 -15.539  10.177  1.00  0.00    -0.345 OA
ATOM     36  H1  UNL     1     -94.765 -15.671  10.213  1.00  0.00     0.219 HD
ENDBRANCH   2  35
BRANCH   1  37
HETATM   37  C2  UNL     1     -93.430 -18.302  11.419  1.00  0.00     0.129 C 
HETATM   38  C1  UNL     1     -92.977 -18.908  10.085  1.00  0.00     0.027 C 
ENDBRANCH   1  37
TORSDOF 8
ENDMDL
