MODEL 1
REMARK VINA RESULT: -9.831517538      0.000      0.000
REMARK  9 active torsions:
REMARK  status: ('A' for Active; 'I' for Inactive)
REMARK    1  A    between atoms: N1_1  and  C1_4 
REMARK    2  A    between atoms: C2_7  and  N3_8 
REMARK    3  A    between atoms: N3_8  and  C3_10 
REMARK    4  A    between atoms: C6_13  and  O1_14 
REMARK    5  A    between atoms: O1_14  and  C7_15 
REMARK    6  A    between atoms: C15_25  and  N5_26 
REMARK    7  A    between atoms: N5_26  and  C16_28 
REMARK    8  A    between atoms: C19_31  and  O2_32 
REMARK    9  A    between atoms: O2_32  and  C20_33 
ROOT
HETATM    1  C1  UNL     1     -88.891 -14.873  15.917  1.00  0.00     0.705 A 
HETATM    2  N2  UNL     1     -87.912 -15.788  16.004  1.00  0.00    -0.021 N 
ATOM      3  H2  UNL     1     -87.053 -15.578  16.511  1.00  0.00     0.203 HD
HETATM    4  C2  UNL     1     -88.081 -16.992  15.409  1.00  0.00     0.711 A 
HETATM    5  N4  UNL     1     -89.224 -17.247  14.748  1.00  0.00    -0.021 N 
ATOM      6  H4  UNL     1     -89.341 -18.158  14.305  1.00  0.00     0.203 HD
HETATM    7  C15 UNL     1     -90.228 -16.338  14.646  1.00  0.00     0.711 A 
HETATM    8  N6  UNL     1     -90.023 -15.151  15.250  1.00  0.00    -0.021 N 
ATOM      9  H6  UNL     1     -90.752 -14.440  15.200  1.00  0.00     0.203 HD
ENDROOT
BRANCH   4  10
HETATM   10  N3  UNL     1     -87.127 -17.848  15.509  1.00  0.00    -0.191 N 
ATOM     11  H3  UNL     1     -86.190 -17.615  15.180  1.00  0.00     0.184 HD
BRANCH  10  12
HETATM   12  C3  UNL     1     -87.389 -19.109  16.075  1.00  0.00     0.049 A 
HETATM   13  C4  UNL     1     -87.991 -19.174  17.306  1.00  0.00     0.033 A 
HETATM   14  C5  UNL     1     -88.249 -20.405  17.861  1.00  0.00     0.039 A 
HETATM   15  C6  UNL     1     -87.899 -21.546  17.180  1.00  0.00     0.076 A 
HETATM   16  C13 UNL     1     -87.296 -21.497  15.950  1.00  0.00     0.039 A 
HETATM   17  C14 UNL     1     -87.035 -20.277  15.386  1.00  0.00     0.033 A 
BRANCH  15  18
HETATM   18  O1  UNL     1     -88.153 -22.792  17.730  1.00  0.00    -0.311 OA
BRANCH  18  19
HETATM   19  C7  UNL     1     -89.358 -23.183  18.255  1.00  0.00     0.076 A 
HETATM   20  C8  UNL     1     -89.373 -23.704  19.531  1.00  0.00     0.037 A 
HETATM   21  C9  UNL     1     -90.551 -24.114  20.115  1.00  0.00     0.003 A 
HETATM   22  C10 UNL     1     -91.746 -24.020  19.447  1.00  0.00     0.000 A 
HETATM   23  C11 UNL     1     -91.761 -23.504  18.174  1.00  0.00     0.003 A 
HETATM   24  C12 UNL     1     -90.566 -23.096  17.601  1.00  0.00     0.037 A 
ENDBRANCH  18  19
ENDBRANCH  15  18
ENDBRANCH  10  12
ENDBRANCH   4  10
BRANCH   1  25
HETATM   25  N1  UNL     1     -88.732 -13.736  16.479  1.00  0.00    -0.234 N 
ATOM     26  H12 UNL     1     -88.528 -12.907  15.920  1.00  0.00     0.174 HD
ATOM     27  H11 UNL     1     -88.812 -13.667  17.493  1.00  0.00     0.174 HD
ENDBRANCH   1  25
BRANCH   7  28
HETATM   28  N5  UNL     1     -91.289 -16.662  13.996  1.00  0.00    -0.191 N 
ATOM     29  H5  UNL     1     -92.090 -17.050  14.496  1.00  0.00     0.184 HD
BRANCH  28  30
HETATM   30  C16 UNL     1     -91.356 -16.484  12.584  1.00  0.00     0.052 A 
HETATM   31  C17 UNL     1     -91.034 -17.490  11.697  1.00  0.00     0.033 A 
HETATM   32  C18 UNL     1     -91.117 -17.267  10.341  1.00  0.00     0.043 A 
HETATM   33  C19 UNL     1     -91.517 -16.048   9.792  1.00  0.00     0.115 A 
HETATM   34  C24 UNL     1     -91.834 -15.057  10.680  1.00  0.00     0.152 A 
HETATM   35  F1  UNL     1     -92.232 -13.831  10.259  1.00  0.00    -0.203 F 
HETATM   36  C25 UNL     1     -91.750 -15.283  12.049  1.00  0.00     0.075 A 
BRANCH  33  37
HETATM   37  O2  UNL     1     -91.586 -15.866   8.425  1.00  0.00    -0.300 OA
BRANCH  37  38
HETATM   38  C20 UNL     1     -90.505 -15.346   7.710  1.00  0.00     0.117 A 
HETATM   39  C21 UNL     1     -90.526 -14.601   6.561  1.00  0.00     0.045 A 
HETATM   40  C22 UNL     1     -89.356 -14.211   6.052  1.00  0.00     0.010 A 
HETATM   41  C23 UNL     1     -88.218 -14.586   6.717  1.00  0.00     0.052 A 
HETATM   42  S1  UNL     1     -88.835 -15.475   8.038  1.00  0.00    -0.077 SA
ENDBRANCH  37  38
ENDBRANCH  33  37
ENDBRANCH  28  30
ENDBRANCH   7  28
TORSDOF 9
ENDMDL
MODEL 2
REMARK VINA RESULT: -9.802821804      2.969     10.465
REMARK  9 active torsions:
REMARK  status: ('A' for Active; 'I' for Inactive)
REMARK    1  A    between atoms: N1_1  and  C1_4 
REMARK    2  A    between atoms: C2_7  and  N3_8 
REMARK    3  A    between atoms: N3_8  and  C3_10 
REMARK    4  A    between atoms: C6_13  and  O1_14 
REMARK    5  A    between atoms: O1_14  and  C7_15 
REMARK    6  A    between atoms: C15_25  and  N5_26 
REMARK    7  A    between atoms: N5_26  and  C16_28 
REMARK    8  A    between atoms: C19_31  and  O2_32 
REMARK    9  A    between atoms: O2_32  and  C20_33 
ROOT
HETATM    1  C1  UNL     1     -88.986 -15.122  15.989  1.00  0.00     0.705 A 
HETATM    2  N2  UNL     1     -90.116 -15.342  15.299  1.00  0.00    -0.021 N 
ATOM      3  H2  UNL     1     -90.845 -14.631  15.261  1.00  0.00     0.203 HD
HETATM    4  C2  UNL     1     -90.274 -16.522  14.653  1.00  0.00     0.711 A 
HETATM    5  N4  UNL     1     -89.298 -17.444  14.715  1.00  0.00    -0.021 N 
ATOM      6  H4  UNL     1     -89.427 -18.328  14.224  1.00  0.00     0.203 HD
HETATM    7  C15 UNL     1     -88.146 -17.245  15.406  1.00  0.00     0.711 A 
HETATM    8  N6  UNL     1     -88.025 -16.059  16.035  1.00  0.00    -0.021 N 
ATOM      9  H6  UNL     1     -87.175 -15.867  16.565  1.00  0.00     0.203 HD
ENDROOT
BRANCH   4  10
HETATM   10  N3  UNL     1     -91.366 -16.705  14.001  1.00  0.00    -0.191 N 
ATOM     11  H3  UNL     1     -92.207 -17.025  14.483  1.00  0.00     0.184 HD
BRANCH  10  12
HETATM   12  C3  UNL     1     -91.391 -16.461  12.615  1.00  0.00     0.049 A 
HETATM   13  C4  UNL     1     -91.604 -15.181  12.168  1.00  0.00     0.033 A 
HETATM   14  C5  UNL     1     -91.628 -14.939  10.815  1.00  0.00     0.039 A 
HETATM   15  C6  UNL     1     -91.441 -15.978   9.935  1.00  0.00     0.076 A 
HETATM   16  C13 UNL     1     -91.228 -17.261  10.366  1.00  0.00     0.039 A 
HETATM   17  C14 UNL     1     -91.202 -17.515  11.712  1.00  0.00     0.033 A 
BRANCH  15  18
HETATM   18  O1  UNL     1     -91.464 -15.747   8.569  1.00  0.00    -0.311 OA
BRANCH  18  19
HETATM   19  C7  UNL     1     -90.392 -15.310   7.833  1.00  0.00     0.076 A 
HETATM   20  C8  UNL     1     -90.641 -14.623   6.665  1.00  0.00     0.037 A 
HETATM   21  C9  UNL     1     -89.609 -14.157   5.882  1.00  0.00     0.003 A 
HETATM   22  C10 UNL     1     -88.299 -14.363   6.237  1.00  0.00     0.000 A 
HETATM   23  C11 UNL     1     -88.021 -15.045   7.396  1.00  0.00     0.003 A 
HETATM   24  C12 UNL     1     -89.073 -15.507   8.173  1.00  0.00     0.037 A 
ENDBRANCH  18  19
ENDBRANCH  15  18
ENDBRANCH  10  12
ENDBRANCH   4  10
BRANCH   1  25
HETATM   25  N1  UNL     1     -88.836 -14.009  16.598  1.00  0.00    -0.234 N 
ATOM     26  H12 UNL     1     -89.563 -13.294  16.558  1.00  0.00     0.174 HD
ATOM     27  H11 UNL     1     -87.980 -13.843  17.127  1.00  0.00     0.174 HD
ENDBRANCH   1  25
BRANCH   7  28
HETATM   28  N5  UNL     1     -87.262 -18.178  15.414  1.00  0.00    -0.191 N 
ATOM     29  H5  UNL     1     -86.395 -18.058  14.888  1.00  0.00     0.184 HD
BRANCH  28  30
HETATM   30  C16 UNL     1     -87.482 -19.378  16.149  1.00  0.00     0.052 A 
HETATM   31  C17 UNL     1     -88.052 -19.381  17.405  1.00  0.00     0.033 A 
HETATM   32  C18 UNL     1     -88.245 -20.568  18.073  1.00  0.00     0.043 A 
HETATM   33  C19 UNL     1     -87.887 -21.809  17.542  1.00  0.00     0.115 A 
HETATM   34  C24 UNL     1     -87.322 -21.795  16.296  1.00  0.00     0.152 A 
HETATM   35  F1  UNL     1     -86.932 -22.941  15.685  1.00  0.00    -0.203 F 
HETATM   36  C25 UNL     1     -87.129 -20.596  15.623  1.00  0.00     0.075 A 
BRANCH  33  37
HETATM   37  O2  UNL     1     -88.096 -22.978  18.247  1.00  0.00    -0.300 OA
BRANCH  37  38
HETATM   38  C20 UNL     1     -89.369 -23.329  18.702  1.00  0.00     0.117 A 
HETATM   39  C21 UNL     1     -89.716 -23.898  19.898  1.00  0.00     0.045 A 
HETATM   40  C22 UNL     1     -91.009 -24.147  20.116  1.00  0.00     0.010 A 
HETATM   41  C23 UNL     1     -91.895 -23.815  19.125  1.00  0.00     0.052 A 
HETATM   42  S1  UNL     1     -90.876 -23.162  17.920  1.00  0.00    -0.077 SA
ENDBRANCH  37  38
ENDBRANCH  33  37
ENDBRANCH  28  30
ENDBRANCH   7  28
TORSDOF 9
ENDMDL
MODEL 3
REMARK VINA RESULT: -9.675098651      4.855      6.626
REMARK  9 active torsions:
REMARK  status: ('A' for Active; 'I' for Inactive)
REMARK    1  A    between atoms: N1_1  and  C1_4 
REMARK    2  A    between atoms: C2_7  and  N3_8 
REMARK    3  A    between atoms: N3_8  and  C3_10 
REMARK    4  A    between atoms: C6_13  and  O1_14 
REMARK    5  A    between atoms: O1_14  and  C7_15 
REMARK    6  A    between atoms: C15_25  and  N5_26 
REMARK    7  A    between atoms: N5_26  and  C16_28 
REMARK    8  A    between atoms: C19_31  and  O2_32 
REMARK    9  A    between atoms: O2_32  and  C20_33 
ROOT
HETATM    1  C1  UNL     1     -87.123 -12.683  17.063  1.00  0.00     0.705 A 
HETATM    2  N2  UNL     1     -88.143 -13.556  17.069  1.00  0.00    -0.021 N 
ATOM      3  H2  UNL     1     -88.694 -13.700  17.915  1.00  0.00     0.203 HD
HETATM    4  C2  UNL     1     -88.430 -14.242  15.938  1.00  0.00     0.711 A 
HETATM    5  N4  UNL     1     -87.691 -14.034  14.835  1.00  0.00    -0.021 N 
ATOM      6  H4  UNL     1     -87.917 -14.555  13.988  1.00  0.00     0.203 HD
HETATM    7  C15 UNL     1     -86.655 -13.157  14.803  1.00  0.00     0.711 A 
HETATM    8  N6  UNL     1     -86.399 -12.493  15.947  1.00  0.00    -0.021 N 
ATOM      9  H6  UNL     1     -85.630 -11.823  15.967  1.00  0.00     0.203 HD
ENDROOT
BRANCH   4  10
HETATM   10  N3  UNL     1     -89.412 -15.071  15.974  1.00  0.00    -0.191 N 
ATOM     11  H3  UNL     1     -89.649 -15.551  16.843  1.00  0.00     0.184 HD
BRANCH  10  12
HETATM   12  C3  UNL     1     -90.155 -15.310  14.804  1.00  0.00     0.049 A 
HETATM   13  C4  UNL     1     -90.477 -14.252  13.991  1.00  0.00     0.033 A 
HETATM   14  C5  UNL     1     -91.203 -14.482  12.847  1.00  0.00     0.039 A 
HETATM   15  C6  UNL     1     -91.595 -15.762  12.536  1.00  0.00     0.076 A 
HETATM   16  C13 UNL     1     -91.282 -16.829  13.338  1.00  0.00     0.039 A 
HETATM   17  C14 UNL     1     -90.559 -16.612  14.481  1.00  0.00     0.033 A 
BRANCH  15  18
HETATM   18  O1  UNL     1     -92.328 -16.007  11.386  1.00  0.00    -0.311 OA
BRANCH  18  19
HETATM   19  C7  UNL     1     -92.027 -16.973  10.459  1.00  0.00     0.076 A 
HETATM   20  C8  UNL     1     -90.859 -16.841   9.739  1.00  0.00     0.037 A 
HETATM   21  C9  UNL     1     -90.500 -17.777   8.794  1.00  0.00     0.003 A 
HETATM   22  C10 UNL     1     -91.292 -18.868   8.538  1.00  0.00     0.000 A 
HETATM   23  C11 UNL     1     -92.461 -19.024   9.242  1.00  0.00     0.003 A 
HETATM   24  C12 UNL     1     -92.808 -18.073  10.189  1.00  0.00     0.037 A 
ENDBRANCH  18  19
ENDBRANCH  15  18
ENDBRANCH  10  12
ENDBRANCH   4  10
BRANCH   1  25
HETATM   25  N1  UNL     1     -86.852 -12.035  18.130  1.00  0.00    -0.234 N 
ATOM     26  H12 UNL     1     -85.884 -11.909  18.428  1.00  0.00     0.174 HD
ATOM     27  H11 UNL     1     -87.615 -11.643  18.682  1.00  0.00     0.174 HD
ENDBRANCH   1  25
BRANCH   7  28
HETATM   28  N5  UNL     1     -85.999 -13.017  13.706  1.00  0.00    -0.191 N 
ATOM     29  H5  UNL     1     -85.169 -12.423  13.686  1.00  0.00     0.184 HD
BRANCH  28  30
HETATM   30  C16 UNL     1     -86.421 -13.682  12.520  1.00  0.00     0.052 A 
HETATM   31  C17 UNL     1     -87.427 -13.191  11.715  1.00  0.00     0.033 A 
HETATM   32  C18 UNL     1     -87.797 -13.871  10.577  1.00  0.00     0.043 A 
HETATM   33  C19 UNL     1     -87.198 -15.066  10.175  1.00  0.00     0.115 A 
HETATM   34  C24 UNL     1     -86.200 -15.545  10.980  1.00  0.00     0.152 A 
HETATM   35  F1  UNL     1     -85.550 -16.700  10.689  1.00  0.00    -0.203 F 
HETATM   36  C25 UNL     1     -85.828 -14.857  12.128  1.00  0.00     0.075 A 
BRANCH  33  37
HETATM   37  O2  UNL     1     -87.599 -15.719   9.026  1.00  0.00    -0.300 OA
BRANCH  37  38
HETATM   38  C20 UNL     1     -87.747 -15.032   7.820  1.00  0.00     0.117 A 
HETATM   39  C21 UNL     1     -88.875 -14.893   7.055  1.00  0.00     0.045 A 
HETATM   40  C22 UNL     1     -88.779 -14.184   5.928  1.00  0.00     0.010 A 
HETATM   41  C23 UNL     1     -87.556 -13.648   5.620  1.00  0.00     0.052 A 
HETATM   42  S1  UNL     1     -86.584 -14.159   6.927  1.00  0.00    -0.077 SA
ENDBRANCH  37  38
ENDBRANCH  33  37
ENDBRANCH  28  30
ENDBRANCH   7  28
TORSDOF 9
ENDMDL
MODEL 4
REMARK VINA RESULT: -9.658106418      5.048      6.909
REMARK  9 active torsions:
REMARK  status: ('A' for Active; 'I' for Inactive)
REMARK    1  A    between atoms: N1_1  and  C1_4 
REMARK    2  A    between atoms: C2_7  and  N3_8 
REMARK    3  A    between atoms: N3_8  and  C3_10 
REMARK    4  A    between atoms: C6_13  and  O1_14 
REMARK    5  A    between atoms: O1_14  and  C7_15 
REMARK    6  A    between atoms: C15_25  and  N5_26 
REMARK    7  A    between atoms: N5_26  and  C16_28 
REMARK    8  A    between atoms: C19_31  and  O2_32 
REMARK    9  A    between atoms: O2_32  and  C20_33 
ROOT
HETATM    1  C1  UNL     1     -86.028 -12.335  15.374  1.00  0.00     0.705 A 
HETATM    2  N2  UNL     1     -87.241 -12.808  15.700  1.00  0.00    -0.021 N 
ATOM      3  H2  UNL     1     -87.857 -12.273  16.312  1.00  0.00     0.203 HD
HETATM    4  C2  UNL     1     -87.637 -14.005  15.206  1.00  0.00     0.711 A 
HETATM    5  N4  UNL     1     -86.808 -14.692  14.400  1.00  0.00    -0.021 N 
ATOM      6  H4  UNL     1     -87.117 -15.592  14.033  1.00  0.00     0.203 HD
HETATM    7  C15 UNL     1     -85.577 -14.235  14.056  1.00  0.00     0.711 A 
HETATM    8  N6  UNL     1     -85.219 -13.041  14.567  1.00  0.00    -0.021 N 
ATOM      9  H6  UNL     1     -84.303 -12.659  14.333  1.00  0.00     0.203 HD
ENDROOT
BRANCH   4  10
HETATM   10  N3  UNL     1     -88.803 -14.433  15.536  1.00  0.00    -0.191 N 
ATOM     11  H3  UNL     1     -89.063 -14.514  16.519  1.00  0.00     0.184 HD
BRANCH  10  12
HETATM   12  C3  UNL     1     -89.717 -14.789  14.527  1.00  0.00     0.049 A 
HETATM   13  C4  UNL     1     -90.209 -16.069  14.496  1.00  0.00     0.033 A 
HETATM   14  C5  UNL     1     -91.103 -16.419  13.512  1.00  0.00     0.039 A 
HETATM   15  C6  UNL     1     -91.488 -15.487  12.578  1.00  0.00     0.076 A 
HETATM   16  C13 UNL     1     -91.004 -14.204  12.596  1.00  0.00     0.039 A 
HETATM   17  C14 UNL     1     -90.113 -13.843  13.571  1.00  0.00     0.033 A 
BRANCH  15  18
HETATM   18  O1  UNL     1     -92.387 -15.828  11.581  1.00  0.00    -0.311 OA
BRANCH  18  19
HETATM   19  C7  UNL     1     -92.203 -16.845  10.678  1.00  0.00     0.076 A 
HETATM   20  C8  UNL     1     -91.146 -16.751   9.799  1.00  0.00     0.037 A 
HETATM   21  C9  UNL     1     -90.908 -17.738   8.870  1.00  0.00     0.003 A 
HETATM   22  C10 UNL     1     -91.715 -18.845   8.786  1.00  0.00     0.000 A 
HETATM   23  C11 UNL     1     -92.775 -18.965   9.650  1.00  0.00     0.003 A 
HETATM   24  C12 UNL     1     -93.001 -17.962  10.580  1.00  0.00     0.037 A 
ENDBRANCH  18  19
ENDBRANCH  15  18
ENDBRANCH  10  12
ENDBRANCH   4  10
BRANCH   1  25
HETATM   25  N1  UNL     1     -85.655 -11.205  15.839  1.00  0.00    -0.234 N 
ATOM     26  H12 UNL     1     -85.038 -11.157  16.651  1.00  0.00     0.174 HD
ATOM     27  H11 UNL     1     -85.981 -10.350  15.389  1.00  0.00     0.174 HD
ENDBRANCH   1  25
BRANCH   7  28
HETATM   28  N5  UNL     1     -84.847 -14.954  13.279  1.00  0.00    -0.191 N 
ATOM     29  H5  UNL     1     -84.098 -15.524  13.674  1.00  0.00     0.184 HD
BRANCH  28  30
HETATM   30  C16 UNL     1     -85.075 -14.963  11.874  1.00  0.00     0.052 A 
HETATM   31  C17 UNL     1     -85.298 -16.127  11.168  1.00  0.00     0.033 A 
HETATM   32  C18 UNL     1     -85.515 -16.081   9.810  1.00  0.00     0.043 A 
HETATM   33  C19 UNL     1     -85.522 -14.891   9.079  1.00  0.00     0.115 A 
HETATM   34  C24 UNL     1     -85.300 -13.742   9.787  1.00  0.00     0.152 A 
HETATM   35  F1  UNL     1     -85.281 -12.530   9.180  1.00  0.00    -0.203 F 
HETATM   36  C25 UNL     1     -85.082 -13.791  11.159  1.00  0.00     0.075 A 
BRANCH  33  37
HETATM   37  O2  UNL     1     -85.742 -14.889   7.715  1.00  0.00    -0.300 OA
BRANCH  37  38
HETATM   38  C20 UNL     1     -87.028 -14.738   7.192  1.00  0.00     0.117 A 
HETATM   39  C21 UNL     1     -88.208 -15.228   7.685  1.00  0.00     0.045 A 
HETATM   40  C22 UNL     1     -89.325 -14.955   7.008  1.00  0.00     0.010 A 
HETATM   41  C23 UNL     1     -89.208 -14.204   5.868  1.00  0.00     0.052 A 
HETATM   42  S1  UNL     1     -87.529 -13.907   5.788  1.00  0.00    -0.077 SA
ENDBRANCH  37  38
ENDBRANCH  33  37
ENDBRANCH  28  30
ENDBRANCH   7  28
TORSDOF 9
ENDMDL
MODEL 5
REMARK VINA RESULT: -9.602006861      5.061      8.243
REMARK  9 active torsions:
REMARK  status: ('A' for Active; 'I' for Inactive)
REMARK    1  A    between atoms: N1_1  and  C1_4 
REMARK    2  A    between atoms: C2_7  and  N3_8 
REMARK    3  A    between atoms: N3_8  and  C3_10 
REMARK    4  A    between atoms: C6_13  and  O1_14 
REMARK    5  A    between atoms: O1_14  and  C7_15 
REMARK    6  A    between atoms: C15_25  and  N5_26 
REMARK    7  A    between atoms: N5_26  and  C16_28 
REMARK    8  A    between atoms: C19_31  and  O2_32 
REMARK    9  A    between atoms: O2_32  and  C20_33 
ROOT
HETATM    1  C1  UNL     1     -86.058 -12.338  15.460  1.00  0.00     0.705 A 
HETATM    2  N2  UNL     1     -85.230 -13.076  14.703  1.00  0.00    -0.021 N 
ATOM      3  H2  UNL     1     -84.295 -12.737  14.480  1.00  0.00     0.203 HD
HETATM    4  C2  UNL     1     -85.654 -14.275  14.240  1.00  0.00     0.711 A 
HETATM    5  N4  UNL     1     -86.892 -14.701  14.548  1.00  0.00    -0.021 N 
ATOM      6  H4  UNL     1     -87.200 -15.607  14.195  1.00  0.00     0.203 HD
HETATM    7  C15 UNL     1     -87.747 -13.974  15.312  1.00  0.00     0.711 A 
HETATM    8  N6  UNL     1     -87.289 -12.786  15.754  1.00  0.00    -0.021 N 
ATOM      9  H6  UNL     1     -87.899 -12.207  16.332  1.00  0.00     0.203 HD
ENDROOT
BRANCH   4  10
HETATM   10  N3  UNL     1     -84.841 -14.959  13.517  1.00  0.00    -0.191 N 
ATOM     11  H3  UNL     1     -84.068 -15.464  13.951  1.00  0.00     0.184 HD
BRANCH  10  12
HETATM   12  C3  UNL     1     -85.027 -15.003  12.123  1.00  0.00     0.049 A 
HETATM   13  C4  UNL     1     -85.115 -13.826  11.425  1.00  0.00     0.033 A 
HETATM   14  C5  UNL     1     -85.296 -13.865  10.063  1.00  0.00     0.039 A 
HETATM   15  C6  UNL     1     -85.387 -15.079   9.424  1.00  0.00     0.076 A 
HETATM   16  C13 UNL     1     -85.301 -16.264  10.108  1.00  0.00     0.039 A 
HETATM   17  C14 UNL     1     -85.121 -16.237  11.465  1.00  0.00     0.033 A 
BRANCH  15  18
HETATM   18  O1  UNL     1     -85.570 -15.132   8.052  1.00  0.00    -0.311 OA
BRANCH  18  19
HETATM   19  C7  UNL     1     -86.750 -14.853   7.410  1.00  0.00     0.076 A 
HETATM   20  C8  UNL     1     -86.696 -14.156   6.223  1.00  0.00     0.037 A 
HETATM   21  C9  UNL     1     -87.846 -13.846   5.531  1.00  0.00     0.003 A 
HETATM   22  C10 UNL     1     -89.080 -14.218   6.000  1.00  0.00     0.000 A 
HETATM   23  C11 UNL     1     -89.164 -14.914   7.181  1.00  0.00     0.003 A 
HETATM   24  C12 UNL     1     -87.997 -15.219   7.866  1.00  0.00     0.037 A 
ENDBRANCH  18  19
ENDBRANCH  15  18
ENDBRANCH  10  12
ENDBRANCH   4  10
BRANCH   1  25
HETATM   25  N1  UNL     1     -85.658 -11.206  15.898  1.00  0.00    -0.234 N 
ATOM     26  H12 UNL     1     -86.124 -10.762  16.689  1.00  0.00     0.174 HD
ATOM     27  H11 UNL     1     -84.864 -10.751  15.447  1.00  0.00     0.174 HD
ENDBRANCH   1  25
BRANCH   7  28
HETATM   28  N5  UNL     1     -88.913 -14.455  15.561  1.00  0.00    -0.191 N 
ATOM     29  H5  UNL     1     -89.207 -14.593  16.528  1.00  0.00     0.184 HD
BRANCH  28  30
HETATM   30  C16 UNL     1     -89.797 -14.797  14.498  1.00  0.00     0.052 A 
HETATM   31  C17 UNL     1     -90.213 -13.877  13.558  1.00  0.00     0.033 A 
HETATM   32  C18 UNL     1     -91.068 -14.259  12.549  1.00  0.00     0.043 A 
HETATM   33  C19 UNL     1     -91.557 -15.560  12.415  1.00  0.00     0.115 A 
HETATM   34  C24 UNL     1     -91.139 -16.464  13.353  1.00  0.00     0.152 A 
HETATM   35  F1  UNL     1     -91.553 -17.755  13.323  1.00  0.00    -0.203 F 
HETATM   36  C25 UNL     1     -90.275 -16.077  14.371  1.00  0.00     0.075 A 
BRANCH  33  37
HETATM   37  O2  UNL     1     -92.414 -15.902  11.388  1.00  0.00    -0.300 OA
BRANCH  37  38
HETATM   38  C20 UNL     1     -92.069 -16.880  10.454  1.00  0.00     0.117 A 
HETATM   39  C21 UNL     1     -91.033 -16.871   9.558  1.00  0.00     0.045 A 
HETATM   40  C22 UNL     1     -90.896 -17.928   8.755  1.00  0.00     0.010 A 
HETATM   41  C23 UNL     1     -91.805 -18.946   8.886  1.00  0.00     0.052 A 
HETATM   42  S1  UNL     1     -92.819 -18.380  10.137  1.00  0.00    -0.077 SA
ENDBRANCH  37  38
ENDBRANCH  33  37
ENDBRANCH  28  30
ENDBRANCH   7  28
TORSDOF 9
ENDMDL
