MODEL 1
REMARK VINA RESULT: -8.969359109      0.000      0.000
REMARK  9 active torsions:
REMARK  status: ('A' for Active; 'I' for Inactive)
REMARK    1  A    between atoms: C2_2  and  N1_3 
REMARK    2  A    between atoms: C3_4  and  C4_5 
REMARK    3  A    between atoms: C8_9  and  O1_10 
REMARK    4  A    between atoms: C15_20  and  O2_21 
REMARK    5  A    between atoms: C17_24  and  C18_25 
REMARK    6  A    between atoms: C22_29  and  N3_30 
REMARK    7  A    between atoms: C26_36  and  C27_37 
REMARK    8  A    between atoms: C27_37  and  C28_38 
REMARK    9  A    between atoms: C28_38  and  O3_39 
ROOT
HETATM    1  N1  UNL     1     -87.156 -13.656  14.532  1.00  0.00    -0.330 N 
HETATM    2  C3  UNL     1     -87.493 -14.630  15.380  1.00  0.00     0.031 A 
HETATM    3  C7  UNL     1     -88.233 -15.607  14.674  1.00  0.00     0.036 A 
HETATM    4  C8  UNL     1     -88.807 -16.805  15.038  1.00  0.00     0.081 A 
HETATM    5  C9  UNL     1     -89.462 -17.559  14.121  1.00  0.00     0.067 A 
HETATM    6  C10 UNL     1     -89.548 -17.112  12.822  1.00  0.00     0.047 A 
HETATM    7  N2  UNL     1     -90.124 -17.668  11.750  1.00  0.00    -0.357 N 
ATOM      8  H2  UNL     1     -90.619 -18.560  11.743  1.00  0.00     0.166 HD
HETATM    9  C11 UNL     1     -89.948 -16.857  10.668  1.00  0.00     0.039 A 
HETATM   10  C12 UNL     1     -89.240 -15.754  11.073  1.00  0.00    -0.018 A 
HETATM   11  C13 UNL     1     -88.986 -15.914  12.420  1.00  0.00     0.015 A 
HETATM   12  C14 UNL     1     -88.310 -15.138  13.359  1.00  0.00     0.043 A 
HETATM   13  C15 UNL     1     -87.648 -13.947  13.288  1.00  0.00     0.154 A 
HETATM   14  C16 UNL     1     -88.921 -14.656  10.139  1.00  0.00     0.071 C 
HETATM   15  C17 UNL     1     -89.568 -14.766   8.780  1.00  0.00     0.115 C 
HETATM   16  N4  UNL     1     -90.463 -15.826   8.587  1.00  0.00    -0.403 N 
ATOM     17  H4  UNL     1     -91.227 -15.707   7.923  1.00  0.00     0.154 HD
HETATM   18  C26 UNL     1     -90.350 -17.027   9.261  1.00  0.00     0.130 C 
ENDROOT
BRANCH  15  19
HETATM   19  C18 UNL     1     -88.535 -14.589   7.698  1.00  0.00    -0.033 A 
HETATM   20  C19 UNL     1     -88.869 -14.488   6.376  1.00  0.00     0.009 A 
HETATM   21  C20 UNL     1     -87.851 -14.340   5.432  1.00  0.00     0.003 A 
HETATM   22  C21 UNL     1     -86.529 -14.296   5.818  1.00  0.00     0.029 A 
HETATM   23  C22 UNL     1     -86.179 -14.396   7.149  1.00  0.00     0.029 A 
HETATM   24  C25 UNL     1     -87.184 -14.541   8.076  1.00  0.00     0.038 A 
BRANCH  23  25
HETATM   25  N3  UNL     1     -84.809 -14.347   7.484  1.00  0.00    -0.390 N 
HETATM   26  C23 UNL     1     -83.819 -14.177   6.450  1.00  0.00     0.149 C 
HETATM   27  C24 UNL     1     -84.408 -14.466   8.862  1.00  0.00     0.149 C 
ENDBRANCH  23  25
ENDBRANCH  15  19
BRANCH  18  28
HETATM   28  C27 UNL     1     -91.671 -17.801   9.171  1.00  0.00     0.057 C 
BRANCH  28  29
HETATM   29  C28 UNL     1     -91.530 -19.019   8.285  1.00  0.00     0.166 C 
BRANCH  29  30
HETATM   30  O3  UNL     1     -92.695 -19.228   7.572  1.00  0.00    -0.401 OA
ATOM     31  H3  UNL     1     -93.271 -19.817   8.047  1.00  0.00     0.209 HD
ENDBRANCH  29  30
ENDBRANCH  28  29
ENDBRANCH  18  28
BRANCH  13  32
HETATM   32  O2  UNL     1     -87.439 -13.113  12.246  1.00  0.00    -0.345 OA
ATOM     33  H2  UNL     1     -88.118 -12.961  11.598  1.00  0.00     0.219 HD
ENDBRANCH  13  32
BRANCH   4  34
HETATM   34  O1  UNL     1     -88.707 -17.238  16.373  1.00  0.00    -0.360 OA
ATOM     35  H1  UNL     1     -88.104 -17.941  16.588  1.00  0.00     0.217 HD
ENDBRANCH   4  34
BRANCH   2  36
HETATM   36  C4  UNL     1     -87.218 -14.823  16.804  1.00  0.00     0.028 C 
HETATM   37  C5  UNL     1     -87.335 -13.639  17.712  1.00  0.00     0.016 C 
HETATM   38  C6  UNL     1     -85.753 -15.282  16.988  1.00  0.00     0.016 C 
ENDBRANCH   2  36
BRANCH   1  39
HETATM   39  C2  UNL     1     -86.377 -12.484  14.795  1.00  0.00     0.126 C 
HETATM   40  C1  UNL     1     -84.885 -12.740  14.520  1.00  0.00     0.027 C 
ENDBRANCH   1  39
TORSDOF 9
ENDMDL
MODEL 2
REMARK VINA RESULT: -8.729165170      3.075      6.420
REMARK  9 active torsions:
REMARK  status: ('A' for Active; 'I' for Inactive)
REMARK    1  A    between atoms: C2_2  and  N1_3 
REMARK    2  A    between atoms: C3_4  and  C4_5 
REMARK    3  A    between atoms: C8_9  and  O1_10 
REMARK    4  A    between atoms: C15_20  and  O2_21 
REMARK    5  A    between atoms: C17_24  and  C18_25 
REMARK    6  A    between atoms: C22_29  and  N3_30 
REMARK    7  A    between atoms: C26_36  and  C27_37 
REMARK    8  A    between atoms: C27_37  and  C28_38 
REMARK    9  A    between atoms: C28_38  and  O3_39 
ROOT
HETATM    1  N1  UNL     1     -90.903 -16.446   9.403  1.00  0.00    -0.330 N 
HETATM    2  C3  UNL     1     -91.431 -15.848  10.474  1.00  0.00     0.031 A 
HETATM    3  C7  UNL     1     -90.455 -14.994  11.039  1.00  0.00     0.036 A 
HETATM    4  C8  UNL     1     -90.456 -14.143  12.122  1.00  0.00     0.081 A 
HETATM    5  C9  UNL     1     -89.352 -13.419  12.428  1.00  0.00     0.067 A 
HETATM    6  C10 UNL     1     -88.227 -13.546  11.643  1.00  0.00     0.047 A 
HETATM    7  N2  UNL     1     -87.035 -12.945  11.732  1.00  0.00    -0.357 N 
ATOM      8  H2  UNL     1     -86.770 -12.264  12.445  1.00  0.00     0.166 HD
HETATM    9  C11 UNL     1     -86.229 -13.384  10.724  1.00  0.00     0.039 A 
HETATM   10  C12 UNL     1     -86.936 -14.291   9.978  1.00  0.00    -0.018 A 
HETATM   11  C13 UNL     1     -88.189 -14.391  10.550  1.00  0.00     0.015 A 
HETATM   12  C14 UNL     1     -89.323 -15.135  10.231  1.00  0.00     0.043 A 
HETATM   13  C15 UNL     1     -89.612 -16.023   9.237  1.00  0.00     0.154 A 
HETATM   14  C16 UNL     1     -86.325 -14.989   8.829  1.00  0.00     0.071 C 
HETATM   15  C17 UNL     1     -84.845 -14.752   8.652  1.00  0.00     0.115 C 
HETATM   16  N4  UNL     1     -84.203 -13.990   9.635  1.00  0.00    -0.403 N 
ATOM     17  H4  UNL     1     -83.217 -14.166   9.826  1.00  0.00     0.154 HD
HETATM   18  C26 UNL     1     -84.853 -13.007  10.358  1.00  0.00     0.130 C 
ENDROOT
BRANCH  15  19
HETATM   19  C18 UNL     1     -84.550 -14.351   7.229  1.00  0.00    -0.033 A 
HETATM   20  C19 UNL     1     -85.539 -14.092   6.322  1.00  0.00     0.009 A 
HETATM   21  C20 UNL     1     -85.183 -13.740   5.019  1.00  0.00     0.003 A 
HETATM   22  C21 UNL     1     -83.859 -13.655   4.645  1.00  0.00     0.029 A 
HETATM   23  C22 UNL     1     -82.852 -13.915   5.552  1.00  0.00     0.029 A 
HETATM   24  C25 UNL     1     -83.207 -14.260   6.835  1.00  0.00     0.038 A 
BRANCH  23  25
HETATM   25  N3  UNL     1     -81.515 -13.815   5.111  1.00  0.00    -0.390 N 
HETATM   26  C23 UNL     1     -80.983 -12.538   4.705  1.00  0.00     0.149 C 
HETATM   27  C24 UNL     1     -80.689 -14.993   5.069  1.00  0.00     0.149 C 
ENDBRANCH  23  25
ENDBRANCH  15  19
BRANCH  18  28
HETATM   28  C27 UNL     1     -84.041 -12.661  11.612  1.00  0.00     0.057 C 
BRANCH  28  29
HETATM   29  C28 UNL     1     -82.569 -12.941  11.403  1.00  0.00     0.166 C 
BRANCH  29  30
HETATM   30  O3  UNL     1     -82.041 -12.061  10.478  1.00  0.00    -0.401 OA
ATOM     31  H3  UNL     1     -81.672 -12.538   9.744  1.00  0.00     0.209 HD
ENDBRANCH  29  30
ENDBRANCH  28  29
ENDBRANCH  18  28
BRANCH  13  32
HETATM   32  O2  UNL     1     -88.856 -16.483   8.216  1.00  0.00    -0.345 OA
ATOM     33  H2  UNL     1     -87.984 -16.827   8.369  1.00  0.00     0.219 HD
ENDBRANCH  13  32
BRANCH   4  34
HETATM   34  O1  UNL     1     -91.617 -14.033  12.909  1.00  0.00    -0.360 OA
ATOM     35  H1  UNL     1     -91.540 -13.755  13.814  1.00  0.00     0.217 HD
ENDBRANCH   4  34
BRANCH   2  36
HETATM   36  C4  UNL     1     -92.758 -15.930  11.083  1.00  0.00     0.028 C 
HETATM   37  C5  UNL     1     -93.391 -17.279  11.215  1.00  0.00     0.016 C 
HETATM   38  C6  UNL     1     -93.769 -15.134  10.225  1.00  0.00     0.016 C 
ENDBRANCH   2  36
BRANCH   1  39
HETATM   39  C2  UNL     1     -91.533 -17.363   8.502  1.00  0.00     0.126 C 
HETATM   40  C1  UNL     1     -91.063 -18.804   8.764  1.00  0.00     0.027 C 
ENDBRANCH   1  39
TORSDOF 9
ENDMDL
MODEL 3
REMARK VINA RESULT: -8.615907558      1.924      6.989
REMARK  9 active torsions:
REMARK  status: ('A' for Active; 'I' for Inactive)
REMARK    1  A    between atoms: C2_2  and  N1_3 
REMARK    2  A    between atoms: C3_4  and  C4_5 
REMARK    3  A    between atoms: C8_9  and  O1_10 
REMARK    4  A    between atoms: C15_20  and  O2_21 
REMARK    5  A    between atoms: C17_24  and  C18_25 
REMARK    6  A    between atoms: C22_29  and  N3_30 
REMARK    7  A    between atoms: C26_36  and  C27_37 
REMARK    8  A    between atoms: C27_37  and  C28_38 
REMARK    9  A    between atoms: C28_38  and  O3_39 
ROOT
HETATM    1  N1  UNL     1     -83.906 -14.270   9.088  1.00  0.00    -0.330 N 
HETATM    2  C3  UNL     1     -84.091 -13.939   7.808  1.00  0.00     0.031 A 
HETATM    3  C7  UNL     1     -85.421 -14.255   7.449  1.00  0.00     0.036 A 
HETATM    4  C8  UNL     1     -86.146 -14.118   6.285  1.00  0.00     0.081 A 
HETATM    5  C9  UNL     1     -87.444 -14.504   6.234  1.00  0.00     0.067 A 
HETATM    6  C10 UNL     1     -88.030 -15.038   7.360  1.00  0.00     0.047 A 
HETATM    7  N2  UNL     1     -89.277 -15.480   7.562  1.00  0.00    -0.357 N 
ATOM      8  H2  UNL     1     -90.020 -15.488   6.863  1.00  0.00     0.166 HD
HETATM    9  C11 UNL     1     -89.401 -15.917   8.847  1.00  0.00     0.039 A 
HETATM   10  C12 UNL     1     -88.193 -15.747   9.474  1.00  0.00    -0.018 A 
HETATM   11  C13 UNL     1     -87.335 -15.193   8.545  1.00  0.00     0.015 A 
HETATM   12  C14 UNL     1     -86.001 -14.794   8.601  1.00  0.00     0.043 A 
HETATM   13  C15 UNL     1     -85.064 -14.797   9.593  1.00  0.00     0.154 A 
HETATM   14  C16 UNL     1     -87.983 -16.167  10.873  1.00  0.00     0.071 C 
HETATM   15  C17 UNL     1     -89.128 -16.934  11.488  1.00  0.00     0.115 C 
HETATM   16  N4  UNL     1     -90.206 -17.245  10.649  1.00  0.00    -0.403 N 
ATOM     17  H4  UNL     1     -90.748 -18.087  10.840  1.00  0.00     0.154 HD
HETATM   18  C26 UNL     1     -90.564 -16.453   9.574  1.00  0.00     0.130 C 
ENDROOT
BRANCH  15  19
HETATM   19  C18 UNL     1     -89.499 -16.335  12.820  1.00  0.00    -0.033 A 
HETATM   20  C19 UNL     1     -90.664 -16.646  13.463  1.00  0.00     0.009 A 
HETATM   21  C20 UNL     1     -90.942 -16.037  14.689  1.00  0.00     0.003 A 
HETATM   22  C21 UNL     1     -90.060 -15.135  15.246  1.00  0.00     0.029 A 
HETATM   23  C22 UNL     1     -88.881 -14.814  14.606  1.00  0.00     0.029 A 
HETATM   24  C25 UNL     1     -88.611 -15.417  13.400  1.00  0.00     0.038 A 
BRANCH  23  25
HETATM   25  N3  UNL     1     -88.019 -13.883  15.225  1.00  0.00    -0.390 N 
HETATM   26  C23 UNL     1     -87.183 -13.028  14.420  1.00  0.00     0.149 C 
HETATM   27  C24 UNL     1     -87.981 -13.793  16.662  1.00  0.00     0.149 C 
ENDBRANCH  23  25
ENDBRANCH  15  19
BRANCH  18  28
HETATM   28  C27 UNL     1     -91.470 -17.246   8.624  1.00  0.00     0.057 C 
BRANCH  28  29
HETATM   29  C28 UNL     1     -91.080 -18.708   8.592  1.00  0.00     0.166 C 
BRANCH  29  30
HETATM   30  O3  UNL     1     -92.118 -19.468   8.088  1.00  0.00    -0.401 OA
ATOM     31  H3  UNL     1     -92.103 -20.339   8.469  1.00  0.00     0.209 HD
ENDBRANCH  29  30
ENDBRANCH  28  29
ENDBRANCH  18  28
BRANCH  13  32
HETATM   32  O2  UNL     1     -85.138 -15.209  10.877  1.00  0.00    -0.345 OA
ATOM     33  H2  UNL     1     -84.669 -15.982  11.170  1.00  0.00     0.219 HD
ENDBRANCH  13  32
BRANCH   4  34
HETATM   34  O1  UNL     1     -85.523 -13.570   5.149  1.00  0.00    -0.360 OA
ATOM     35  H1  UNL     1     -85.681 -13.964   4.298  1.00  0.00     0.217 HD
ENDBRANCH   4  34
BRANCH   2  36
HETATM   36  C4  UNL     1     -83.199 -13.338   6.816  1.00  0.00     0.028 C 
HETATM   37  C5  UNL     1     -82.164 -14.211   6.177  1.00  0.00     0.016 C 
HETATM   38  C6  UNL     1     -82.370 -12.216   7.482  1.00  0.00     0.016 C 
ENDBRANCH   2  36
BRANCH   1  39
HETATM   39  C2  UNL     1     -82.728 -14.098   9.885  1.00  0.00     0.126 C 
HETATM   40  C1  UNL     1     -82.877 -12.900  10.837  1.00  0.00     0.027 C 
ENDBRANCH   1  39
TORSDOF 9
ENDMDL
MODEL 4
REMARK VINA RESULT: -8.376533570      2.562      7.895
REMARK  9 active torsions:
REMARK  status: ('A' for Active; 'I' for Inactive)
REMARK    1  A    between atoms: C2_2  and  N1_3 
REMARK    2  A    between atoms: C3_4  and  C4_5 
REMARK    3  A    between atoms: C8_9  and  O1_10 
REMARK    4  A    between atoms: C15_20  and  O2_21 
REMARK    5  A    between atoms: C17_24  and  C18_25 
REMARK    6  A    between atoms: C22_29  and  N3_30 
REMARK    7  A    between atoms: C26_36  and  C27_37 
REMARK    8  A    between atoms: C27_37  and  C28_38 
REMARK    9  A    between atoms: C28_38  and  O3_39 
ROOT
HETATM    1  N1  UNL     1     -82.615 -13.988   7.894  1.00  0.00    -0.330 N 
HETATM    2  C3  UNL     1     -82.895 -13.776   6.606  1.00  0.00     0.031 A 
HETATM    3  C7  UNL     1     -84.286 -13.943   6.415  1.00  0.00     0.036 A 
HETATM    4  C8  UNL     1     -85.110 -13.834   5.316  1.00  0.00     0.081 A 
HETATM    5  C9  UNL     1     -86.444 -14.041   5.435  1.00  0.00     0.067 A 
HETATM    6  C10 UNL     1     -86.967 -14.363   6.667  1.00  0.00     0.047 A 
HETATM    7  N2  UNL     1     -88.230 -14.604   7.037  1.00  0.00    -0.357 N 
ATOM      8  H2  UNL     1     -89.040 -14.587   6.417  1.00  0.00     0.166 HD
HETATM    9  C11 UNL     1     -88.268 -14.878   8.372  1.00  0.00     0.039 A 
HETATM   10  C12 UNL     1     -86.987 -14.808   8.857  1.00  0.00    -0.018 A 
HETATM   11  C13 UNL     1     -86.172 -14.482   7.792  1.00  0.00     0.015 A 
HETATM   12  C14 UNL     1     -84.800 -14.268   7.674  1.00  0.00     0.043 A 
HETATM   13  C15 UNL     1     -83.769 -14.292   8.566  1.00  0.00     0.154 A 
HETATM   14  C16 UNL     1     -86.680 -15.099  10.272  1.00  0.00     0.071 C 
HETATM   15  C17 UNL     1     -87.839 -15.629  11.081  1.00  0.00     0.115 C 
HETATM   16  N4  UNL     1     -89.032 -15.877  10.391  1.00  0.00    -0.403 N 
ATOM     17  H4  UNL     1     -89.651 -16.611  10.733  1.00  0.00     0.154 HD
HETATM   18  C26 UNL     1     -89.403 -15.166   9.265  1.00  0.00     0.130 C 
ENDROOT
BRANCH  15  19
HETATM   19  C18 UNL     1     -87.983 -14.843  12.358  1.00  0.00    -0.033 A 
HETATM   20  C19 UNL     1     -88.036 -13.477  12.375  1.00  0.00     0.009 A 
HETATM   21  C20 UNL     1     -88.156 -12.822  13.602  1.00  0.00     0.003 A 
HETATM   22  C21 UNL     1     -88.220 -13.534  14.781  1.00  0.00     0.029 A 
HETATM   23  C22 UNL     1     -88.168 -14.912  14.776  1.00  0.00     0.029 A 
HETATM   24  C25 UNL     1     -88.050 -15.554  13.566  1.00  0.00     0.038 A 
BRANCH  23  25
HETATM   25  N3  UNL     1     -88.235 -15.586  16.015  1.00  0.00    -0.390 N 
HETATM   26  C23 UNL     1     -88.088 -17.019  16.065  1.00  0.00     0.149 C 
HETATM   27  C24 UNL     1     -88.452 -14.834  17.224  1.00  0.00     0.149 C 
ENDBRANCH  23  25
ENDBRANCH  15  19
BRANCH  18  28
HETATM   28  C27 UNL     1     -90.499 -15.925   8.508  1.00  0.00     0.057 C 
BRANCH  28  29
HETATM   29  C28 UNL     1     -91.608 -14.992   8.072  1.00  0.00     0.166 C 
BRANCH  29  30
HETATM   30  O3  UNL     1     -91.429 -14.622   6.753  1.00  0.00    -0.401 OA
ATOM     31  H3  UNL     1     -91.474 -13.677   6.667  1.00  0.00     0.209 HD
ENDBRANCH  29  30
ENDBRANCH  28  29
ENDBRANCH  18  28
BRANCH  13  32
HETATM   32  O2  UNL     1     -83.753 -14.547   9.893  1.00  0.00    -0.345 OA
ATOM     33  H2  UNL     1     -84.091 -15.366  10.236  1.00  0.00     0.219 HD
ENDBRANCH  13  32
BRANCH   4  34
HETATM   34  O1  UNL     1     -84.551 -13.505   4.068  1.00  0.00    -0.360 OA
ATOM     35  H1  UNL     1     -83.652 -13.200   4.027  1.00  0.00     0.217 HD
ENDBRANCH   4  34
BRANCH   2  36
HETATM   36  C4  UNL     1     -82.049 -13.416   5.469  1.00  0.00     0.028 C 
HETATM   37  C5  UNL     1     -80.836 -14.250   5.200  1.00  0.00     0.016 C 
HETATM   38  C6  UNL     1     -81.475 -11.995   5.685  1.00  0.00     0.016 C 
ENDBRANCH   2  36
BRANCH   1  39
HETATM   39  C2  UNL     1     -81.345 -13.895   8.550  1.00  0.00     0.126 C 
HETATM   40  C1  UNL     1     -81.159 -12.510   9.195  1.00  0.00     0.027 C 
ENDBRANCH   1  39
TORSDOF 9
ENDMDL
MODEL 5
REMARK VINA RESULT: -8.375174776      2.280      7.645
REMARK  9 active torsions:
REMARK  status: ('A' for Active; 'I' for Inactive)
REMARK    1  A    between atoms: C2_2  and  N1_3 
REMARK    2  A    between atoms: C3_4  and  C4_5 
REMARK    3  A    between atoms: C8_9  and  O1_10 
REMARK    4  A    between atoms: C15_20  and  O2_21 
REMARK    5  A    between atoms: C17_24  and  C18_25 
REMARK    6  A    between atoms: C22_29  and  N3_30 
REMARK    7  A    between atoms: C26_36  and  C27_37 
REMARK    8  A    between atoms: C27_37  and  C28_38 
REMARK    9  A    between atoms: C28_38  and  O3_39 
ROOT
HETATM    1  N1  UNL     1     -83.010 -14.001   8.147  1.00  0.00    -0.330 N 
HETATM    2  C3  UNL     1     -83.237 -13.802   6.847  1.00  0.00     0.031 A 
HETATM    3  C7  UNL     1     -84.615 -13.992   6.596  1.00  0.00     0.036 A 
HETATM    4  C8  UNL     1     -85.392 -13.904   5.462  1.00  0.00     0.081 A 
HETATM    5  C9  UNL     1     -86.727 -14.132   5.524  1.00  0.00     0.067 A 
HETATM    6  C10 UNL     1     -87.298 -14.455   6.734  1.00  0.00     0.047 A 
HETATM    7  N2  UNL     1     -88.572 -14.715   7.051  1.00  0.00    -0.357 N 
ATOM      8  H2  UNL     1     -89.353 -14.714   6.396  1.00  0.00     0.166 HD
HETATM    9  C11 UNL     1     -88.663 -14.980   8.385  1.00  0.00     0.039 A 
HETATM   10  C12 UNL     1     -87.405 -14.887   8.925  1.00  0.00    -0.018 A 
HETATM   11  C13 UNL     1     -86.550 -14.554   7.893  1.00  0.00     0.015 A 
HETATM   12  C14 UNL     1     -85.178 -14.318   7.834  1.00  0.00     0.043 A 
HETATM   13  C15 UNL     1     -84.186 -14.319   8.770  1.00  0.00     0.154 A 
HETATM   14  C16 UNL     1     -87.156 -15.163  10.354  1.00  0.00     0.071 C 
HETATM   15  C17 UNL     1     -88.340 -15.708  11.115  1.00  0.00     0.115 C 
HETATM   16  N4  UNL     1     -89.498 -15.980  10.375  1.00  0.00    -0.403 N 
ATOM     17  H4  UNL     1     -90.120 -16.722  10.695  1.00  0.00     0.154 HD
HETATM   18  C26 UNL     1     -89.831 -15.282   9.229  1.00  0.00     0.130 C 
ENDROOT
BRANCH  15  19
HETATM   19  C18 UNL     1     -88.553 -14.917  12.379  1.00  0.00    -0.033 A 
HETATM   20  C19 UNL     1     -88.922 -13.601  12.365  1.00  0.00     0.009 A 
HETATM   21  C20 UNL     1     -89.085 -12.933  13.581  1.00  0.00     0.003 A 
HETATM   22  C21 UNL     1     -88.878 -13.583  14.779  1.00  0.00     0.029 A 
HETATM   23  C22 UNL     1     -88.505 -14.911  14.805  1.00  0.00     0.029 A 
HETATM   24  C25 UNL     1     -88.346 -15.565  13.606  1.00  0.00     0.038 A 
BRANCH  23  25
HETATM   25  N3  UNL     1     -88.305 -15.523  16.061  1.00  0.00    -0.390 N 
HETATM   26  C23 UNL     1     -88.408 -14.742  17.269  1.00  0.00     0.149 C 
HETATM   27  C24 UNL     1     -87.998 -16.929  16.128  1.00  0.00     0.149 C 
ENDBRANCH  23  25
ENDBRANCH  15  19
BRANCH  18  28
HETATM   28  C27 UNL     1     -90.881 -16.063   8.431  1.00  0.00     0.057 C 
BRANCH  28  29
HETATM   29  C28 UNL     1     -90.916 -17.516   8.852  1.00  0.00     0.166 C 
BRANCH  29  30
HETATM   30  O3  UNL     1     -91.865 -18.203   8.119  1.00  0.00    -0.401 OA
ATOM     31  H3  UNL     1     -92.508 -18.595   8.698  1.00  0.00     0.209 HD
ENDBRANCH  29  30
ENDBRANCH  28  29
ENDBRANCH  18  28
BRANCH  13  32
HETATM   32  O2  UNL     1     -84.224 -14.567  10.098  1.00  0.00    -0.345 OA
ATOM     33  H2  UNL     1     -84.536 -15.400  10.431  1.00  0.00     0.219 HD
ENDBRANCH  13  32
BRANCH   4  34
HETATM   34  O1  UNL     1     -84.784 -13.573   4.237  1.00  0.00    -0.360 OA
ATOM     35  H1  UNL     1     -84.186 -14.192   3.834  1.00  0.00     0.217 HD
ENDBRANCH   4  34
BRANCH   2  36
HETATM   36  C4  UNL     1     -82.347 -13.434   5.746  1.00  0.00     0.028 C 
HETATM   37  C5  UNL     1     -81.227 -14.366   5.403  1.00  0.00     0.016 C 
HETATM   38  C6  UNL     1     -81.628 -12.107   6.085  1.00  0.00     0.016 C 
ENDBRANCH   2  36
BRANCH   1  39
HETATM   39  C2  UNL     1     -81.772 -13.883   8.858  1.00  0.00     0.126 C 
HETATM   40  C1  UNL     1     -81.684 -12.533   9.591  1.00  0.00     0.027 C 
ENDBRANCH   1  39
TORSDOF 9
ENDMDL
