MODEL 1
REMARK VINA RESULT: -9.021083158      0.000      0.000
REMARK  9 active torsions:
REMARK  status: ('A' for Active; 'I' for Inactive)
REMARK    1  A    between atoms: C2_2  and  C3_3 
REMARK    2  A    between atoms: C5_5  and  C6_6 
REMARK    3  A    between atoms: C7_7  and  C8_8 
REMARK    4  A    between atoms: C15_15  and  O1_16 
REMARK    5  A    between atoms: C16_18  and  O2_19 
REMARK    6  A    between atoms: C19_25  and  C20_26 
REMARK    7  A    between atoms: C20_26  and  C22_28 
REMARK    8  A    between atoms: C24_30  and  C25_31 
REMARK    9  A    between atoms: C25_31  and  O3_32 
ROOT
HETATM    1  C8  UNL     1     -90.408 -14.995  12.792  1.00  0.00    -0.039 C 
HETATM    2  C9  UNL     1     -89.230 -14.585  12.307  1.00  0.00    -0.004 C 
HETATM    3  C10 UNL     1     -88.717 -14.667  10.947  1.00  0.00     0.062 C 
HETATM    4  C11 UNL     1     -89.692 -15.136   9.976  1.00  0.00    -0.058 C 
HETATM    5  C12 UNL     1     -89.224 -15.845   8.734  1.00  0.00     0.076 C 
HETATM    6  C13 UNL     1     -88.163 -15.129   7.982  1.00  0.00    -0.025 A 
HETATM    7  C14 UNL     1     -88.453 -14.888   6.650  1.00  0.00     0.049 A 
HETATM    8  C15 UNL     1     -87.566 -14.240   5.834  1.00  0.00     0.099 A 
HETATM    9  C16 UNL     1     -86.364 -13.827   6.365  1.00  0.00     0.101 A 
HETATM   10  C17 UNL     1     -86.050 -14.058   7.703  1.00  0.00     0.069 A 
HETATM   11  C18 UNL     1     -86.957 -14.711   8.504  1.00  0.00     0.037 A 
HETATM   12  N1  UNL     1     -86.563 -14.902   9.841  1.00  0.00    -0.383 N 
ATOM     13  H1  UNL     1     -85.604 -14.648  10.078  1.00  0.00     0.160 HD
HETATM   14  C19 UNL     1     -87.407 -15.437  10.943  1.00  0.00     0.097 C 
HETATM   15  C24 UNL     1     -90.960 -15.630  10.494  1.00  0.00    -0.031 C 
HETATM   16  C26 UNL     1     -91.274 -15.551  11.770  1.00  0.00     0.020 C 
ENDROOT
BRANCH   1  17
HETATM   17  C7  UNL     1     -90.741 -14.838  14.198  1.00  0.00     0.012 C 
HETATM   18  C6  UNL     1     -90.127 -15.012  15.294  1.00  0.00     0.013 C 
BRANCH  18  19
HETATM   19  C5  UNL     1     -88.860 -15.441  15.766  1.00  0.00    -0.015 A 
HETATM   20  C4  UNL     1     -88.205 -14.616  16.696  1.00  0.00     0.042 A 
HETATM   21  C3  UNL     1     -87.028 -14.943  17.309  1.00  0.00     0.034 A 
HETATM   22  N3  UNL     1     -86.487 -16.134  16.984  1.00  0.00    -0.334 N 
HETATM   23  C29 UNL     1     -87.038 -16.980  16.116  1.00  0.00     0.186 A 
ATOM     24  H3  UNL     1     -85.608 -16.402  17.427  1.00  0.00     0.168 HD
HETATM   25  C27 UNL     1     -88.239 -16.635  15.497  1.00  0.00     0.085 A 
HETATM   26  O4  UNL     1     -86.701 -18.176  15.660  1.00  0.00    -0.216 OA
HETATM   27  C28 UNL     1     -88.566 -17.693  14.680  1.00  0.00     0.223 A 
HETATM   28  F1  UNL     1     -89.655 -17.810  13.927  1.00  0.00    -0.183 F 
HETATM   29  N2  UNL     1     -87.592 -18.606  14.815  1.00  0.00    -0.232 N 
ATOM     30  H2  UNL     1     -87.556 -19.502  14.329  1.00  0.00     0.197 HD
BRANCH  21  31
HETATM   31  C2  UNL     1     -86.369 -14.069  18.269  1.00  0.00     0.019 C 
HETATM   32  C1  UNL     1     -85.993 -12.841  18.010  1.00  0.00     0.013 C 
ENDBRANCH  21  31
ENDBRANCH  18  19
ENDBRANCH   1  17
BRANCH  15  33
HETATM   33  C25 UNL     1     -92.003 -16.254   9.599  1.00  0.00     0.203 C 
BRANCH  33  34
HETATM   34  O3  UNL     1     -92.653 -15.329   8.800  1.00  0.00    -0.396 OA
ATOM     35  H3  UNL     1     -93.356 -15.711   8.287  1.00  0.00     0.209 HD
ENDBRANCH  33  34
ENDBRANCH  15  33
BRANCH  14  36
HETATM   36  C20 UNL     1     -86.553 -15.415  12.130  1.00  0.00     0.005 C 
HETATM   37  C21 UNL     1     -85.796 -16.681  12.447  1.00  0.00     0.012 C 
BRANCH  36  38
HETATM   38  C22 UNL     1     -85.801 -14.150  12.442  1.00  0.00     0.002 C 
HETATM   39  C23 UNL     1     -85.941 -13.828  13.949  1.00  0.00     0.005 C 
ENDBRANCH  36  38
ENDBRANCH  14  36
BRANCH   8  40
HETATM   40  O1  UNL     1     -87.859 -13.994   4.477  1.00  0.00    -0.358 OA
ATOM     41  H1  UNL     1     -87.860 -13.113   4.122  1.00  0.00     0.217 HD
ENDBRANCH   8  40
BRANCH   9  42
HETATM   42  O2  UNL     1     -85.478 -13.174   5.531  1.00  0.00    -0.358 OA
ATOM     43  H2  UNL     1     -84.730 -12.741   5.927  1.00  0.00     0.217 HD
ENDBRANCH   9  42
TORSDOF 9
ENDMDL
MODEL 2
REMARK VINA RESULT: -8.927803683      3.233      7.211
REMARK  9 active torsions:
REMARK  status: ('A' for Active; 'I' for Inactive)
REMARK    1  A    between atoms: C2_2  and  C3_3 
REMARK    2  A    between atoms: C5_5  and  C6_6 
REMARK    3  A    between atoms: C7_7  and  C8_8 
REMARK    4  A    between atoms: C15_15  and  O1_16 
REMARK    5  A    between atoms: C16_18  and  O2_19 
REMARK    6  A    between atoms: C19_25  and  C20_26 
REMARK    7  A    between atoms: C20_26  and  C22_28 
REMARK    8  A    between atoms: C24_30  and  C25_31 
REMARK    9  A    between atoms: C25_31  and  O3_32 
ROOT
HETATM    1  C8  UNL     1     -88.378 -14.962   9.036  1.00  0.00    -0.039 C 
HETATM    2  C9  UNL     1     -88.698 -14.605  10.285  1.00  0.00    -0.004 C 
HETATM    3  C10 UNL     1     -87.825 -14.211  11.381  1.00  0.00     0.062 C 
HETATM    4  C11 UNL     1     -86.430 -14.059  10.999  1.00  0.00    -0.058 C 
HETATM    5  C12 UNL     1     -85.350 -14.266  12.025  1.00  0.00     0.076 C 
HETATM    6  C13 UNL     1     -85.546 -13.506  13.284  1.00  0.00    -0.025 A 
HETATM    7  C14 UNL     1     -84.487 -12.692  13.646  1.00  0.00     0.049 A 
HETATM    8  C15 UNL     1     -84.526 -11.935  14.786  1.00  0.00     0.099 A 
HETATM    9  C16 UNL     1     -85.652 -11.997  15.578  1.00  0.00     0.101 A 
HETATM   10  C17 UNL     1     -86.731 -12.809  15.233  1.00  0.00     0.069 A 
HETATM   11  C18 UNL     1     -86.669 -13.560  14.084  1.00  0.00     0.037 A 
HETATM   12  N1  UNL     1     -87.801 -14.350  13.810  1.00  0.00    -0.383 N 
ATOM     13  H1  UNL     1     -88.519 -14.391  14.533  1.00  0.00     0.160 HD
HETATM   14  C19 UNL     1     -88.052 -15.131  12.569  1.00  0.00     0.097 C 
HETATM   15  C24 UNL     1     -86.059 -14.488   9.657  1.00  0.00    -0.031 C 
HETATM   16  C26 UNL     1     -86.953 -14.886   8.777  1.00  0.00     0.020 C 
ENDROOT
BRANCH   1  17
HETATM   17  C7  UNL     1     -89.401 -15.340   8.074  1.00  0.00     0.012 C 
HETATM   18  C6  UNL     1     -90.587 -15.782   8.147  1.00  0.00     0.013 C 
BRANCH  18  19
HETATM   19  C5  UNL     1     -91.541 -16.157   9.127  1.00  0.00    -0.015 A 
HETATM   20  C4  UNL     1     -92.119 -15.128   9.890  1.00  0.00     0.042 A 
HETATM   21  C3  UNL     1     -93.118 -15.323  10.802  1.00  0.00     0.034 A 
HETATM   22  N3  UNL     1     -93.557 -16.589  10.956  1.00  0.00    -0.334 N 
HETATM   23  C29 UNL     1     -93.070 -17.624  10.275  1.00  0.00     0.186 A 
ATOM     24  H3  UNL     1     -94.302 -16.763  11.632  1.00  0.00     0.168 HD
HETATM   25  C27 UNL     1     -92.052 -17.412   9.348  1.00  0.00     0.085 A 
HETATM   26  O4  UNL     1     -93.344 -18.919  10.253  1.00  0.00    -0.216 OA
HETATM   27  C28 UNL     1     -91.770 -18.642   8.799  1.00  0.00     0.223 A 
HETATM   28  F1  UNL     1     -90.886 -18.903   7.841  1.00  0.00    -0.183 F 
HETATM   29  N2  UNL     1     -92.586 -19.528   9.389  1.00  0.00    -0.232 N 
ATOM     30  H2  UNL     1     -92.609 -20.529   9.190  1.00  0.00     0.197 HD
BRANCH  21  31
HETATM   31  C2  UNL     1     -93.699 -14.240  11.582  1.00  0.00     0.019 C 
HETATM   32  C1  UNL     1     -94.714 -13.511  11.189  1.00  0.00     0.013 C 
ENDBRANCH  21  31
ENDBRANCH  18  19
ENDBRANCH   1  17
BRANCH  15  33
HETATM   33  C25 UNL     1     -84.626 -14.494   9.185  1.00  0.00     0.203 C 
BRANCH  33  34
HETATM   34  O3  UNL     1     -84.446 -15.207   8.013  1.00  0.00    -0.396 OA
ATOM     35  H3  UNL     1     -83.709 -14.896   7.499  1.00  0.00     0.209 HD
ENDBRANCH  33  34
ENDBRANCH  15  33
BRANCH  14  36
HETATM   36  C20 UNL     1     -89.363 -15.750  12.762  1.00  0.00     0.005 C 
HETATM   37  C21 UNL     1     -89.387 -17.246  12.955  1.00  0.00     0.012 C 
BRANCH  36  38
HETATM   38  C22 UNL     1     -90.390 -15.005  13.572  1.00  0.00     0.002 C 
HETATM   39  C23 UNL     1     -90.887 -15.908  14.726  1.00  0.00     0.005 C 
ENDBRANCH  36  38
ENDBRANCH  14  36
BRANCH   8  40
HETATM   40  O1  UNL     1     -83.448 -11.106  15.156  1.00  0.00    -0.358 OA
ATOM     41  H1  UNL     1     -82.679 -11.456  15.591  1.00  0.00     0.217 HD
ENDBRANCH   8  40
BRANCH   9  42
HETATM   42  O2  UNL     1     -85.680 -11.228  16.725  1.00  0.00    -0.358 OA
ATOM     43  H2  UNL     1     -85.842 -11.667  17.552  1.00  0.00     0.217 HD
ENDBRANCH   9  42
TORSDOF 9
ENDMDL
MODEL 3
REMARK VINA RESULT: -8.844981418      1.995      2.624
REMARK  9 active torsions:
REMARK  status: ('A' for Active; 'I' for Inactive)
REMARK    1  A    between atoms: C2_2  and  C3_3 
REMARK    2  A    between atoms: C5_5  and  C6_6 
REMARK    3  A    between atoms: C7_7  and  C8_8 
REMARK    4  A    between atoms: C15_15  and  O1_16 
REMARK    5  A    between atoms: C16_18  and  O2_19 
REMARK    6  A    between atoms: C19_25  and  C20_26 
REMARK    7  A    between atoms: C20_26  and  C22_28 
REMARK    8  A    between atoms: C24_30  and  C25_31 
REMARK    9  A    between atoms: C25_31  and  O3_32 
ROOT
HETATM    1  C8  UNL     1     -89.279 -14.114  13.751  1.00  0.00    -0.039 C 
HETATM    2  C9  UNL     1     -88.362 -13.982  12.786  1.00  0.00    -0.004 C 
HETATM    3  C10 UNL     1     -88.478 -14.264  11.363  1.00  0.00     0.062 C 
HETATM    4  C11 UNL     1     -89.827 -14.599  10.936  1.00  0.00    -0.058 C 
HETATM    5  C12 UNL     1     -90.031 -15.476   9.730  1.00  0.00     0.076 C 
HETATM    6  C13 UNL     1     -89.283 -15.043   8.524  1.00  0.00    -0.025 A 
HETATM    7  C14 UNL     1     -90.059 -14.847   7.395  1.00  0.00     0.049 A 
HETATM    8  C15 UNL     1     -89.504 -14.451   6.208  1.00  0.00     0.099 A 
HETATM    9  C16 UNL     1     -88.143 -14.247   6.154  1.00  0.00     0.101 A 
HETATM   10  C17 UNL     1     -87.341 -14.438   7.278  1.00  0.00     0.069 A 
HETATM   11  C18 UNL     1     -87.921 -14.836   8.459  1.00  0.00     0.037 A 
HETATM   12  N1  UNL     1     -87.041 -15.003   9.544  1.00  0.00    -0.383 N 
ATOM     13  H1  UNL     1     -86.044 -14.929   9.343  1.00  0.00     0.160 HD
HETATM   14  C19 UNL     1     -87.422 -15.278  10.956  1.00  0.00     0.097 C 
HETATM   15  C24 UNL     1     -90.825 -14.792  11.980  1.00  0.00    -0.031 C 
HETATM   16  C26 UNL     1     -90.564 -14.559  13.249  1.00  0.00     0.020 C 
ENDROOT
BRANCH   1  17
HETATM   17  C7  UNL     1     -88.969 -13.791  15.134  1.00  0.00     0.012 C 
HETATM   18  C6  UNL     1     -87.905 -13.644  15.809  1.00  0.00     0.013 C 
BRANCH  18  19
HETATM   19  C5  UNL     1     -86.500 -13.715  15.637  1.00  0.00    -0.015 A 
HETATM   20  C4  UNL     1     -85.807 -12.502  15.482  1.00  0.00     0.042 A 
HETATM   21  C3  UNL     1     -84.446 -12.405  15.402  1.00  0.00     0.034 A 
HETATM   22  N3  UNL     1     -83.752 -13.558  15.482  1.00  0.00    -0.334 N 
HETATM   23  C29 UNL     1     -84.323 -14.751  15.632  1.00  0.00     0.186 A 
ATOM     24  H3  UNL     1     -82.735 -13.514  15.424  1.00  0.00     0.168 HD
HETATM   25  C27 UNL     1     -85.712 -14.837  15.712  1.00  0.00     0.085 A 
HETATM   26  O4  UNL     1     -83.857 -15.985  15.740  1.00  0.00    -0.216 OA
HETATM   27  C28 UNL     1     -86.005 -16.171  15.877  1.00  0.00     0.223 A 
HETATM   28  F1  UNL     1     -87.212 -16.708  16.037  1.00  0.00    -0.183 F 
HETATM   29  N2  UNL     1     -84.837 -16.829  15.886  1.00  0.00    -0.232 N 
ATOM     30  H2  UNL     1     -84.731 -17.839  15.990  1.00  0.00     0.197 HD
BRANCH  21  31
HETATM   31  C2  UNL     1     -83.753 -11.136  15.239  1.00  0.00     0.019 C 
HETATM   32  C1  UNL     1     -83.159 -10.757  14.135  1.00  0.00     0.013 C 
ENDBRANCH  21  31
ENDBRANCH  18  19
ENDBRANCH   1  17
BRANCH  15  33
HETATM   33  C25 UNL     1     -92.226 -15.260  11.673  1.00  0.00     0.203 C 
BRANCH  33  34
HETATM   34  O3  UNL     1     -93.201 -14.451  12.231  1.00  0.00    -0.396 OA
ATOM     35  H3  UNL     1     -92.841 -13.728  12.732  1.00  0.00     0.209 HD
ENDBRANCH  33  34
ENDBRANCH  15  33
BRANCH  14  36
HETATM   36  C20 UNL     1     -86.160 -15.340  11.692  1.00  0.00     0.005 C 
HETATM   37  C21 UNL     1     -85.804 -16.663  12.323  1.00  0.00     0.012 C 
BRANCH  36  38
HETATM   38  C22 UNL     1     -84.981 -14.576  11.149  1.00  0.00     0.002 C 
HETATM   39  C23 UNL     1     -84.883 -13.208  11.865  1.00  0.00     0.005 C 
ENDBRANCH  36  38
ENDBRANCH  14  36
BRANCH   8  40
HETATM   40  O1  UNL     1     -90.294 -14.251   5.057  1.00  0.00    -0.358 OA
ATOM     41  H1  UNL     1     -90.577 -14.980   4.517  1.00  0.00     0.217 HD
ENDBRANCH   8  40
BRANCH   9  42
HETATM   42  O2  UNL     1     -87.596 -13.847   4.951  1.00  0.00    -0.358 OA
ATOM     43  H2  UNL     1     -86.811 -14.290   4.650  1.00  0.00     0.217 HD
ENDBRANCH   9  42
TORSDOF 9
ENDMDL
MODEL 4
REMARK VINA RESULT: -8.826265079      1.949      2.743
REMARK  9 active torsions:
REMARK  status: ('A' for Active; 'I' for Inactive)
REMARK    1  A    between atoms: C2_2  and  C3_3 
REMARK    2  A    between atoms: C5_5  and  C6_6 
REMARK    3  A    between atoms: C7_7  and  C8_8 
REMARK    4  A    between atoms: C15_15  and  O1_16 
REMARK    5  A    between atoms: C16_18  and  O2_19 
REMARK    6  A    between atoms: C19_25  and  C20_26 
REMARK    7  A    between atoms: C20_26  and  C22_28 
REMARK    8  A    between atoms: C24_30  and  C25_31 
REMARK    9  A    between atoms: C25_31  and  O3_32 
ROOT
HETATM    1  C8  UNL     1     -89.260 -13.976  13.743  1.00  0.00    -0.039 C 
HETATM    2  C9  UNL     1     -88.342 -13.874  12.774  1.00  0.00    -0.004 C 
HETATM    3  C10 UNL     1     -88.463 -14.180  11.357  1.00  0.00     0.062 C 
HETATM    4  C11 UNL     1     -89.816 -14.509  10.937  1.00  0.00    -0.058 C 
HETATM    5  C12 UNL     1     -90.031 -15.406   9.749  1.00  0.00     0.076 C 
HETATM    6  C13 UNL     1     -89.280 -15.004   8.534  1.00  0.00    -0.025 A 
HETATM    7  C14 UNL     1     -90.055 -14.821   7.402  1.00  0.00     0.049 A 
HETATM    8  C15 UNL     1     -89.497 -14.453   6.207  1.00  0.00     0.099 A 
HETATM    9  C16 UNL     1     -88.133 -14.265   6.148  1.00  0.00     0.101 A 
HETATM   10  C17 UNL     1     -87.333 -14.443   7.275  1.00  0.00     0.069 A 
HETATM   11  C18 UNL     1     -87.916 -14.813   8.464  1.00  0.00     0.037 A 
HETATM   12  N1  UNL     1     -87.036 -14.970   9.551  1.00  0.00    -0.383 N 
ATOM     13  H1  UNL     1     -86.038 -14.910   9.347  1.00  0.00     0.160 HD
HETATM   14  C19 UNL     1     -87.419 -15.214  10.968  1.00  0.00     0.097 C 
HETATM   15  C24 UNL     1     -90.815 -14.671  11.986  1.00  0.00    -0.031 C 
HETATM   16  C26 UNL     1     -90.550 -14.417  13.250  1.00  0.00     0.020 C 
ENDROOT
BRANCH   1  17
HETATM   17  C7  UNL     1     -88.945 -13.631  15.119  1.00  0.00     0.012 C 
HETATM   18  C6  UNL     1     -88.212 -14.127  16.028  1.00  0.00     0.013 C 
BRANCH  18  19
HETATM   19  C5  UNL     1     -87.346 -15.230  16.234  1.00  0.00    -0.015 A 
HETATM   20  C4  UNL     1     -87.909 -16.400  16.770  1.00  0.00     0.042 A 
HETATM   21  C3  UNL     1     -87.223 -17.571  16.935  1.00  0.00     0.034 A 
HETATM   22  N3  UNL     1     -85.930 -17.574  16.550  1.00  0.00    -0.334 N 
HETATM   23  C29 UNL     1     -85.316 -16.514  16.030  1.00  0.00     0.186 A 
ATOM     24  H3  UNL     1     -85.395 -18.435  16.664  1.00  0.00     0.168 HD
HETATM   25  C27 UNL     1     -86.027 -15.326  15.866  1.00  0.00     0.085 A 
HETATM   26  O4  UNL     1     -84.090 -16.292  15.583  1.00  0.00    -0.216 OA
HETATM   27  C28 UNL     1     -85.149 -14.429  15.302  1.00  0.00     0.223 A 
HETATM   28  F1  UNL     1     -85.414 -13.178  14.937  1.00  0.00    -0.183 F 
HETATM   29  N2  UNL     1     -83.979 -15.069  15.152  1.00  0.00    -0.232 N 
ATOM     30  H2  UNL     1     -83.132 -14.659  14.759  1.00  0.00     0.197 HD
BRANCH  21  31
HETATM   31  C2  UNL     1     -87.829 -18.770  17.496  1.00  0.00     0.019 C 
HETATM   32  C1  UNL     1     -87.196 -19.629  18.255  1.00  0.00     0.013 C 
ENDBRANCH  21  31
ENDBRANCH  18  19
ENDBRANCH   1  17
BRANCH  15  33
HETATM   33  C25 UNL     1     -92.222 -15.129  11.689  1.00  0.00     0.203 C 
BRANCH  33  34
HETATM   34  O3  UNL     1     -93.187 -14.306  12.243  1.00  0.00    -0.396 OA
ATOM     35  H3  UNL     1     -93.040 -13.385  12.058  1.00  0.00     0.209 HD
ENDBRANCH  33  34
ENDBRANCH  15  33
BRANCH  14  36
HETATM   36  C20 UNL     1     -86.156 -15.275  11.704  1.00  0.00     0.005 C 
HETATM   37  C21 UNL     1     -85.828 -16.582  12.383  1.00  0.00     0.012 C 
BRANCH  36  38
HETATM   38  C22 UNL     1     -84.963 -14.558  11.131  1.00  0.00     0.002 C 
HETATM   39  C23 UNL     1     -84.885 -13.134  11.730  1.00  0.00     0.005 C 
ENDBRANCH  36  38
ENDBRANCH  14  36
BRANCH   8  40
HETATM   40  O1  UNL     1     -90.286 -14.266   5.053  1.00  0.00    -0.358 OA
ATOM     41  H1  UNL     1     -90.755 -13.454   4.900  1.00  0.00     0.217 HD
ENDBRANCH   8  40
BRANCH   9  42
HETATM   42  O2  UNL     1     -87.583 -13.894   4.938  1.00  0.00    -0.358 OA
ATOM     43  H2  UNL     1     -87.503 -14.558   4.263  1.00  0.00     0.217 HD
ENDBRANCH   9  42
TORSDOF 9
ENDMDL
MODEL 5
REMARK VINA RESULT: -8.820119957      2.563      3.684
REMARK  9 active torsions:
REMARK  status: ('A' for Active; 'I' for Inactive)
REMARK    1  A    between atoms: C2_2  and  C3_3 
REMARK    2  A    between atoms: C5_5  and  C6_6 
REMARK    3  A    between atoms: C7_7  and  C8_8 
REMARK    4  A    between atoms: C15_15  and  O1_16 
REMARK    5  A    between atoms: C16_18  and  O2_19 
REMARK    6  A    between atoms: C19_25  and  C20_26 
REMARK    7  A    between atoms: C20_26  and  C22_28 
REMARK    8  A    between atoms: C24_30  and  C25_31 
REMARK    9  A    between atoms: C25_31  and  O3_32 
ROOT
HETATM    1  C8  UNL     1     -89.491 -14.506  13.757  1.00  0.00    -0.039 C 
HETATM    2  C9  UNL     1     -88.546 -14.440  12.811  1.00  0.00    -0.004 C 
HETATM    3  C10 UNL     1     -88.670 -14.637  11.374  1.00  0.00     0.062 C 
HETATM    4  C11 UNL     1     -90.041 -14.786  10.914  1.00  0.00    -0.058 C 
HETATM    5  C12 UNL     1     -90.326 -15.573   9.664  1.00  0.00     0.076 C 
HETATM    6  C13 UNL     1     -89.510 -15.175   8.490  1.00  0.00    -0.025 A 
HETATM    7  C14 UNL     1     -90.237 -14.833   7.363  1.00  0.00     0.049 A 
HETATM    8  C15 UNL     1     -89.616 -14.450   6.204  1.00  0.00     0.099 A 
HETATM    9  C16 UNL     1     -88.239 -14.409   6.177  1.00  0.00     0.101 A 
HETATM   10  C17 UNL     1     -87.487 -14.749   7.300  1.00  0.00     0.069 A 
HETATM   11  C18 UNL     1     -88.132 -15.131   8.452  1.00  0.00     0.037 A 
HETATM   12  N1  UNL     1     -87.298 -15.456   9.539  1.00  0.00    -0.383 N 
ATOM     13  H1  UNL     1     -86.296 -15.493   9.353  1.00  0.00     0.160 HD
HETATM   14  C19 UNL     1     -87.736 -15.750  10.930  1.00  0.00     0.097 C 
HETATM   15  C24 UNL     1     -91.074 -14.907  11.935  1.00  0.00    -0.031 C 
HETATM   16  C26 UNL     1     -90.810 -14.769  13.217  1.00  0.00     0.020 C 
ENDROOT
BRANCH   1  17
HETATM   17  C7  UNL     1     -89.170 -14.290  15.158  1.00  0.00     0.012 C 
HETATM   18  C6  UNL     1     -88.189 -13.796  15.792  1.00  0.00     0.013 C 
BRANCH  18  19
HETATM   19  C5  UNL     1     -86.919 -13.219  15.537  1.00  0.00    -0.015 A 
HETATM   20  C4  UNL     1     -86.523 -13.099  14.195  1.00  0.00     0.042 A 
HETATM   21  C3  UNL     1     -85.374 -12.480  13.790  1.00  0.00     0.034 A 
HETATM   22  N3  UNL     1     -84.593 -11.961  14.759  1.00  0.00    -0.334 N 
HETATM   23  C29 UNL     1     -84.890 -12.025  16.056  1.00  0.00     0.186 A 
ATOM     24  H3  UNL     1     -83.729 -11.494  14.485  1.00  0.00     0.168 HD
HETATM   25  C27 UNL     1     -86.065 -12.659  16.455  1.00  0.00     0.085 A 
HETATM   26  O4  UNL     1     -84.296 -11.590  17.156  1.00  0.00    -0.216 OA
HETATM   27  C28 UNL     1     -86.109 -12.555  17.827  1.00  0.00     0.223 A 
HETATM   28  F1  UNL     1     -87.078 -12.990  18.627  1.00  0.00    -0.183 F 
HETATM   29  N2  UNL     1     -85.004 -11.896  18.204  1.00  0.00    -0.232 N 
ATOM     30  H2  UNL     1     -84.755 -11.669  19.167  1.00  0.00     0.197 HD
BRANCH  21  31
HETATM   31  C2  UNL     1     -84.985 -12.371  12.392  1.00  0.00     0.019 C 
HETATM   32  C1  UNL     1     -85.832 -12.315  11.394  1.00  0.00     0.013 C 
ENDBRANCH  21  31
ENDBRANCH  18  19
ENDBRANCH   1  17
BRANCH  15  33
HETATM   33  C25 UNL     1     -92.515 -15.187  11.587  1.00  0.00     0.203 C 
BRANCH  33  34
HETATM   34  O3  UNL     1     -93.396 -14.297  12.177  1.00  0.00    -0.396 OA
ATOM     35  H3  UNL     1     -93.004 -13.450  12.356  1.00  0.00     0.209 HD
ENDBRANCH  33  34
ENDBRANCH  15  33
BRANCH  14  36
HETATM   36  C20 UNL     1     -86.503 -15.999  11.677  1.00  0.00     0.005 C 
HETATM   37  C21 UNL     1     -86.621 -16.847  12.919  1.00  0.00     0.012 C 
BRANCH  36  38
HETATM   38  C22 UNL     1     -85.231 -16.210  10.901  1.00  0.00     0.002 C 
HETATM   39  C23 UNL     1     -84.018 -15.908  11.814  1.00  0.00     0.005 C 
ENDBRANCH  36  38
ENDBRANCH  14  36
BRANCH   8  40
HETATM   40  O1  UNL     1     -90.355 -14.101   5.055  1.00  0.00    -0.358 OA
ATOM     41  H1  UNL     1     -91.289 -13.930   5.098  1.00  0.00     0.217 HD
ENDBRANCH   8  40
BRANCH   9  42
HETATM   42  O2  UNL     1     -87.626 -14.021   5.003  1.00  0.00    -0.358 OA
ATOM     43  H2  UNL     1     -86.880 -14.526   4.702  1.00  0.00     0.217 HD
ENDBRANCH   9  42
TORSDOF 9
ENDMDL
