MODEL 1
REMARK VINA RESULT: -8.538529000      0.000      0.000
REMARK  10 active torsions:
REMARK  status: ('A' for Active; 'I' for Inactive)
REMARK    1  A    between atoms: O1_2  and  C2_3 
REMARK    2  A    between atoms: C6_7  and  N1_8 
REMARK    3  A    between atoms: C9_11  and  N2_13 
REMARK    4  A    between atoms: N2_13  and  C10_16 
REMARK    5  A    between atoms: C10_16  and  C11_17 
REMARK    6  A    between atoms: C11_17  and  C12_18 
REMARK    7  A    between atoms: C12_18  and  O2_19 
REMARK    8  A    between atoms: C18_27  and  C19_28 
REMARK    9  A    between atoms: C20_29  and  C21_30 
REMARK   10  A    between atoms: C25_34  and  N3_35 
ROOT
HETATM    1  C2  UNL     1     -87.888 -16.390   7.560  1.00  0.00     0.096 A 
HETATM    2  C3  UNL     1     -86.778 -15.735   7.070  1.00  0.00    -0.025 A 
HETATM    3  C4  UNL     1     -86.585 -15.539   5.608  1.00  0.00     0.051 C 
HETATM    4  C5  UNL     1     -85.860 -15.274   7.997  1.00  0.00     0.042 A 
HETATM    5  C6  UNL     1     -86.014 -15.444   9.378  1.00  0.00     0.071 A 
HETATM    6  C17 UNL     1     -87.133 -16.100   9.810  1.00  0.00     0.164 A 
HETATM    7  F2  UNL     1     -87.354 -16.284  11.131  1.00  0.00    -0.202 F 
HETATM    8  C18 UNL     1     -88.085 -16.581   8.904  1.00  0.00     0.092 A 
ENDROOT
BRANCH   5   9
HETATM    9  N1  UNL     1     -85.019 -14.971  10.283  1.00  0.00    -0.378 N 
HETATM   10  C7  UNL     1     -85.406 -13.940  11.222  1.00  0.00     0.128 C 
HETATM   11  C8  UNL     1     -84.667 -13.972  12.529  1.00  0.00     0.094 C 
HETATM   12  C9  UNL     1     -83.269 -14.501  12.414  1.00  0.00     0.268 C 
HETATM   13  F1  UNL     1     -83.250 -15.814  12.821  1.00  0.00    -0.211 F 
HETATM   14  C15 UNL     1     -82.792 -14.458  10.957  1.00  0.00     0.094 C 
HETATM   15  C16 UNL     1     -83.681 -15.477  10.238  1.00  0.00     0.128 C 
BRANCH  12  16
HETATM   16  N2  UNL     1     -82.330 -13.698  13.167  1.00  0.00    -0.037 N 
ATOM     17  H22 UNL     1     -81.747 -14.279  13.771  1.00  0.00     0.281 HD
ATOM     18  H21 UNL     1     -81.603 -13.315  12.563  1.00  0.00     0.281 HD
BRANCH  16  19
HETATM   19  C10 UNL     1     -82.992 -12.652  13.923  1.00  0.00     0.247 C 
BRANCH  19  20
HETATM   20  C11 UNL     1     -82.501 -12.624  15.355  1.00  0.00     0.005 A 
HETATM   21  C13 UNL     1     -82.262 -13.884  16.091  1.00  0.00     0.014 A 
HETATM   22  C14 UNL     1     -83.377 -12.956  16.485  1.00  0.00     0.014 A 
BRANCH  20  23
HETATM   23  C12 UNL     1     -81.445 -11.545  15.608  1.00  0.00     0.175 C 
BRANCH  23  24
HETATM   24  O2  UNL     1     -81.201 -10.937  14.385  1.00  0.00    -0.400 OA
ATOM     25  H2  UNL     1     -81.204 -11.628  13.734  1.00  0.00     0.209 HD
ENDBRANCH  23  24
ENDBRANCH  20  23
ENDBRANCH  19  20
ENDBRANCH  16  19
ENDBRANCH  12  16
ENDBRANCH   5   9
BRANCH   8  26
HETATM   26  C19 UNL     1     -89.257 -17.265   9.347  1.00  0.00    -0.055 C 
HETATM   27  C20 UNL     1     -90.249 -17.827   9.737  1.00  0.00    -0.059 C 
BRANCH  27  28
HETATM   28  C21 UNL     1     -91.442 -18.480  10.223  1.00  0.00     0.046 A 
HETATM   29  C22 UNL     1     -92.000 -19.575   9.595  1.00  0.00    -0.038 A 
HETATM   30  C23 UNL     1     -91.351 -20.111   8.364  1.00  0.00     0.050 C 
HETATM   31  C24 UNL     1     -93.145 -20.130  10.139  1.00  0.00     0.056 A 
HETATM   32  C25 UNL     1     -93.740 -19.633  11.273  1.00  0.00     0.099 A 
HETATM   33  N4  UNL     1     -93.175 -18.572  11.858  1.00  0.00    -0.345 N 
HETATM   34  C26 UNL     1     -92.067 -17.999  11.370  1.00  0.00     0.026 A 
ATOM     35  H4  UNL     1     -93.600 -18.188  12.702  1.00  0.00     0.167 HD
HETATM   36  C27 UNL     1     -91.453 -16.817  12.040  1.00  0.00     0.070 C 
BRANCH  32  37
HETATM   37  N3  UNL     1     -94.815 -20.180  11.756  1.00  0.00    -0.385 N 
ATOM     38  H32 UNL     1     -95.345 -20.871  11.224  1.00  0.00     0.157 HD
ATOM     39  H31 UNL     1     -95.157 -19.931  12.684  1.00  0.00     0.157 HD
ENDBRANCH  32  37
ENDBRANCH  27  28
ENDBRANCH   8  26
BRANCH   1  40
HETATM   40  O1  UNL     1     -88.835 -16.871   6.682  1.00  0.00    -0.354 OA
HETATM   41  C1  UNL     1     -89.832 -16.057   6.089  1.00  0.00     0.210 C 
ENDBRANCH   1  40
TORSDOF 10
ENDMDL
MODEL 2
REMARK VINA RESULT: -8.492844434      1.182      1.724
REMARK  10 active torsions:
REMARK  status: ('A' for Active; 'I' for Inactive)
REMARK    1  A    between atoms: O1_2  and  C2_3 
REMARK    2  A    between atoms: C6_7  and  N1_8 
REMARK    3  A    between atoms: C9_11  and  N2_13 
REMARK    4  A    between atoms: N2_13  and  C10_16 
REMARK    5  A    between atoms: C10_16  and  C11_17 
REMARK    6  A    between atoms: C11_17  and  C12_18 
REMARK    7  A    between atoms: C12_18  and  O2_19 
REMARK    8  A    between atoms: C18_27  and  C19_28 
REMARK    9  A    between atoms: C20_29  and  C21_30 
REMARK   10  A    between atoms: C25_34  and  N3_35 
ROOT
HETATM    1  C2  UNL     1     -87.772 -16.437   7.696  1.00  0.00     0.096 A 
HETATM    2  C3  UNL     1     -86.634 -15.805   7.240  1.00  0.00    -0.025 A 
HETATM    3  C4  UNL     1     -86.418 -15.566   5.788  1.00  0.00     0.051 C 
HETATM    4  C5  UNL     1     -85.712 -15.408   8.192  1.00  0.00     0.042 A 
HETATM    5  C6  UNL     1     -85.888 -15.619   9.564  1.00  0.00     0.071 A 
HETATM    6  C17 UNL     1     -87.034 -16.250   9.962  1.00  0.00     0.164 A 
HETATM    7  F2  UNL     1     -87.276 -16.471  11.274  1.00  0.00    -0.202 F 
HETATM    8  C18 UNL     1     -87.991 -16.666   9.031  1.00  0.00     0.092 A 
ENDROOT
BRANCH   5   9
HETATM    9  N1  UNL     1     -84.887 -15.212  10.495  1.00  0.00    -0.378 N 
HETATM   10  C7  UNL     1     -83.858 -16.173  10.832  1.00  0.00     0.128 C 
HETATM   11  C8  UNL     1     -82.528 -15.571  11.184  1.00  0.00     0.094 C 
HETATM   12  C9  UNL     1     -82.633 -14.217  11.819  1.00  0.00     0.268 C 
HETATM   13  F1  UNL     1     -82.375 -13.255  10.872  1.00  0.00    -0.211 F 
HETATM   14  C15 UNL     1     -84.050 -13.978  12.354  1.00  0.00     0.094 C 
HETATM   15  C16 UNL     1     -84.922 -13.914  11.096  1.00  0.00     0.128 C 
BRANCH  12  16
HETATM   16  N2  UNL     1     -81.748 -14.091  12.958  1.00  0.00    -0.037 N 
ATOM     17  H22 UNL     1     -82.243 -13.726  13.772  1.00  0.00     0.281 HD
ATOM     18  H21 UNL     1     -81.486 -15.005  13.326  1.00  0.00     0.281 HD
BRANCH  16  19
HETATM   19  C10 UNL     1     -80.577 -13.292  12.651  1.00  0.00     0.247 C 
BRANCH  19  20
HETATM   20  C11 UNL     1     -80.401 -12.178  13.661  1.00  0.00     0.005 A 
HETATM   21  C13 UNL     1     -79.635 -10.962  13.312  1.00  0.00     0.014 A 
HETATM   22  C14 UNL     1     -79.122 -11.935  14.338  1.00  0.00     0.014 A 
BRANCH  20  23
HETATM   23  C12 UNL     1     -81.667 -11.902  14.479  1.00  0.00     0.175 C 
BRANCH  23  24
HETATM   24  O2  UNL     1     -82.488 -11.117  13.683  1.00  0.00    -0.400 OA
ATOM     25  H2  UNL     1     -83.276 -11.624  13.524  1.00  0.00     0.209 HD
ENDBRANCH  23  24
ENDBRANCH  20  23
ENDBRANCH  19  20
ENDBRANCH  16  19
ENDBRANCH  12  16
ENDBRANCH   5   9
BRANCH   8  26
HETATM   26  C19 UNL     1     -89.191 -17.324   9.437  1.00  0.00    -0.055 C 
HETATM   27  C20 UNL     1     -90.202 -17.869   9.802  1.00  0.00    -0.059 C 
BRANCH  27  28
HETATM   28  C21 UNL     1     -91.413 -18.508  10.262  1.00  0.00     0.046 A 
HETATM   29  C22 UNL     1     -91.982 -19.584   9.610  1.00  0.00    -0.038 A 
HETATM   30  C23 UNL     1     -91.325 -20.113   8.380  1.00  0.00     0.050 C 
HETATM   31  C24 UNL     1     -93.143 -20.126  10.130  1.00  0.00     0.056 A 
HETATM   32  C25 UNL     1     -93.745 -19.635  11.262  1.00  0.00     0.099 A 
HETATM   33  N4  UNL     1     -93.170 -18.593  11.871  1.00  0.00    -0.345 N 
HETATM   34  C26 UNL     1     -92.045 -18.033  11.407  1.00  0.00     0.026 A 
ATOM     35  H4  UNL     1     -93.600 -18.213  12.714  1.00  0.00     0.167 HD
HETATM   36  C27 UNL     1     -91.420 -16.871  12.103  1.00  0.00     0.070 C 
BRANCH  32  37
HETATM   37  N3  UNL     1     -94.836 -20.170  11.722  1.00  0.00    -0.385 N 
ATOM     38  H32 UNL     1     -95.653 -19.603  11.948  1.00  0.00     0.157 HD
ATOM     39  H31 UNL     1     -94.902 -21.177  11.872  1.00  0.00     0.157 HD
ENDBRANCH  32  37
ENDBRANCH  27  28
ENDBRANCH   8  26
BRANCH   1  40
HETATM   40  O1  UNL     1     -88.725 -16.854   6.792  1.00  0.00    -0.354 OA
HETATM   41  C1  UNL     1     -89.630 -15.972   6.152  1.00  0.00     0.210 C 
ENDBRANCH   1  40
TORSDOF 10
ENDMDL
MODEL 3
REMARK VINA RESULT: -8.426342645      0.848      1.166
REMARK  10 active torsions:
REMARK  status: ('A' for Active; 'I' for Inactive)
REMARK    1  A    between atoms: O1_2  and  C2_3 
REMARK    2  A    between atoms: C6_7  and  N1_8 
REMARK    3  A    between atoms: C9_11  and  N2_13 
REMARK    4  A    between atoms: N2_13  and  C10_16 
REMARK    5  A    between atoms: C10_16  and  C11_17 
REMARK    6  A    between atoms: C11_17  and  C12_18 
REMARK    7  A    between atoms: C12_18  and  O2_19 
REMARK    8  A    between atoms: C18_27  and  C19_28 
REMARK    9  A    between atoms: C20_29  and  C21_30 
REMARK   10  A    between atoms: C25_34  and  N3_35 
ROOT
HETATM    1  C2  UNL     1     -87.726 -16.392   7.765  1.00  0.00     0.096 A 
HETATM    2  C3  UNL     1     -86.579 -15.765   7.326  1.00  0.00    -0.025 A 
HETATM    3  C4  UNL     1     -86.346 -15.515   5.879  1.00  0.00     0.051 C 
HETATM    4  C5  UNL     1     -85.665 -15.382   8.291  1.00  0.00     0.042 A 
HETATM    5  C6  UNL     1     -85.857 -15.603   9.660  1.00  0.00     0.071 A 
HETATM    6  C17 UNL     1     -87.011 -16.229  10.040  1.00  0.00     0.164 A 
HETATM    7  F2  UNL     1     -87.269 -16.459  11.347  1.00  0.00    -0.202 F 
HETATM    8  C18 UNL     1     -87.961 -16.631   9.095  1.00  0.00     0.092 A 
ENDROOT
BRANCH   5   9
HETATM    9  N1  UNL     1     -84.863 -15.211  10.605  1.00  0.00    -0.378 N 
HETATM   10  C7  UNL     1     -83.820 -16.166  10.913  1.00  0.00     0.128 C 
HETATM   11  C8  UNL     1     -82.500 -15.556  11.286  1.00  0.00     0.094 C 
HETATM   12  C9  UNL     1     -82.626 -14.224  11.963  1.00  0.00     0.268 C 
HETATM   13  F1  UNL     1     -82.381 -13.229  11.047  1.00  0.00    -0.211 F 
HETATM   14  C15 UNL     1     -84.047 -14.023  12.503  1.00  0.00     0.094 C 
HETATM   15  C16 UNL     1     -84.918 -13.932  11.246  1.00  0.00     0.128 C 
BRANCH  12  16
HETATM   16  N2  UNL     1     -81.745 -14.121  13.107  1.00  0.00    -0.037 N 
ATOM     17  H22 UNL     1     -81.123 -14.927  13.169  1.00  0.00     0.281 HD
ATOM     18  H21 UNL     1     -81.047 -13.389  12.971  1.00  0.00     0.281 HD
BRANCH  16  19
HETATM   19  C10 UNL     1     -82.479 -13.925  14.343  1.00  0.00     0.247 C 
BRANCH  19  20
HETATM   20  C11 UNL     1     -81.842 -12.840  15.186  1.00  0.00     0.005 A 
HETATM   21  C13 UNL     1     -81.063 -13.188  16.394  1.00  0.00     0.014 A 
HETATM   22  C14 UNL     1     -82.375 -12.461  16.500  1.00  0.00     0.014 A 
BRANCH  20  23
HETATM   23  C12 UNL     1     -81.226 -11.714  14.350  1.00  0.00     0.175 C 
BRANCH  23  24
HETATM   24  O2  UNL     1     -82.275 -11.097  13.684  1.00  0.00    -0.400 OA
ATOM     25  H2  UNL     1     -82.536 -10.356  14.217  1.00  0.00     0.209 HD
ENDBRANCH  23  24
ENDBRANCH  20  23
ENDBRANCH  19  20
ENDBRANCH  16  19
ENDBRANCH  12  16
ENDBRANCH   5   9
BRANCH   8  26
HETATM   26  C19 UNL     1     -89.170 -17.283   9.483  1.00  0.00    -0.055 C 
HETATM   27  C20 UNL     1     -90.186 -17.828   9.832  1.00  0.00    -0.059 C 
BRANCH  27  28
HETATM   28  C21 UNL     1     -91.402 -18.469  10.277  1.00  0.00     0.046 A 
HETATM   29  C22 UNL     1     -91.950 -19.557   9.628  1.00  0.00    -0.038 A 
HETATM   30  C23 UNL     1     -91.266 -20.098   8.418  1.00  0.00     0.050 C 
HETATM   31  C24 UNL     1     -93.118 -20.101  10.132  1.00  0.00     0.056 A 
HETATM   32  C25 UNL     1     -93.746 -19.600  11.246  1.00  0.00     0.099 A 
HETATM   33  N4  UNL     1     -93.190 -18.546  11.852  1.00  0.00    -0.345 N 
HETATM   34  C26 UNL     1     -92.060 -17.984  11.403  1.00  0.00     0.026 A 
ATOM     35  H4  UNL     1     -93.639 -18.159  12.682  1.00  0.00     0.167 HD
HETATM   36  C27 UNL     1     -91.457 -16.809  12.096  1.00  0.00     0.070 C 
BRANCH  32  37
HETATM   37  N3  UNL     1     -94.842 -20.137  11.691  1.00  0.00    -0.385 N 
ATOM     38  H32 UNL     1     -95.033 -20.204  12.692  1.00  0.00     0.157 HD
ATOM     39  H31 UNL     1     -95.541 -20.508  11.049  1.00  0.00     0.157 HD
ENDBRANCH  32  37
ENDBRANCH  27  28
ENDBRANCH   8  26
BRANCH   1  40
HETATM   40  O1  UNL     1     -88.672 -16.795   6.847  1.00  0.00    -0.354 OA
HETATM   41  C1  UNL     1     -89.534 -15.897   6.172  1.00  0.00     0.210 C 
ENDBRANCH   1  40
TORSDOF 10
ENDMDL
MODEL 4
REMARK VINA RESULT: -8.246813396      1.238      1.396
REMARK  10 active torsions:
REMARK  status: ('A' for Active; 'I' for Inactive)
REMARK    1  A    between atoms: O1_2  and  C2_3 
REMARK    2  A    between atoms: C6_7  and  N1_8 
REMARK    3  A    between atoms: C9_11  and  N2_13 
REMARK    4  A    between atoms: N2_13  and  C10_16 
REMARK    5  A    between atoms: C10_16  and  C11_17 
REMARK    6  A    between atoms: C11_17  and  C12_18 
REMARK    7  A    between atoms: C12_18  and  O2_19 
REMARK    8  A    between atoms: C18_27  and  C19_28 
REMARK    9  A    between atoms: C20_29  and  C21_30 
REMARK   10  A    between atoms: C25_34  and  N3_35 
ROOT
HETATM    1  C2  UNL     1     -87.875 -16.383   7.622  1.00  0.00     0.096 A 
HETATM    2  C3  UNL     1     -86.746 -15.746   7.152  1.00  0.00    -0.025 A 
HETATM    3  C4  UNL     1     -86.546 -15.509   5.698  1.00  0.00     0.051 C 
HETATM    4  C5  UNL     1     -85.817 -15.341   8.094  1.00  0.00     0.042 A 
HETATM    5  C6  UNL     1     -85.977 -15.549   9.468  1.00  0.00     0.071 A 
HETATM    6  C17 UNL     1     -87.115 -16.186   9.880  1.00  0.00     0.164 A 
HETATM    7  F2  UNL     1     -87.342 -16.405  11.194  1.00  0.00    -0.202 F 
HETATM    8  C18 UNL     1     -88.079 -16.611   8.959  1.00  0.00     0.092 A 
ENDROOT
BRANCH   5   9
HETATM    9  N1  UNL     1     -84.969 -15.134  10.388  1.00  0.00    -0.378 N 
HETATM   10  C7  UNL     1     -85.227 -13.943  11.170  1.00  0.00     0.128 C 
HETATM   11  C8  UNL     1     -84.582 -13.929  12.525  1.00  0.00     0.094 C 
HETATM   12  C9  UNL     1     -83.291 -14.690  12.581  1.00  0.00     0.268 C 
HETATM   13  F1  UNL     1     -83.520 -15.926  13.138  1.00  0.00    -0.211 F 
HETATM   14  C15 UNL     1     -82.729 -14.910  11.172  1.00  0.00     0.094 C 
HETATM   15  C16 UNL     1     -83.737 -15.854  10.508  1.00  0.00     0.128 C 
BRANCH  12  16
HETATM   16  N2  UNL     1     -82.273 -13.962  13.309  1.00  0.00    -0.037 N 
ATOM     17  H22 UNL     1     -82.688 -13.303  13.968  1.00  0.00     0.281 HD
ATOM     18  H21 UNL     1     -81.787 -14.567  13.970  1.00  0.00     0.281 HD
BRANCH  16  19
HETATM   19  C10 UNL     1     -81.339 -13.298  12.419  1.00  0.00     0.247 C 
BRANCH  19  20
HETATM   20  C11 UNL     1     -80.103 -12.847  13.169  1.00  0.00     0.005 A 
HETATM   21  C13 UNL     1     -78.780 -13.427  12.853  1.00  0.00     0.014 A 
HETATM   22  C14 UNL     1     -79.448 -13.695  14.173  1.00  0.00     0.014 A 
BRANCH  20  23
HETATM   23  C12 UNL     1     -80.076 -11.338  13.431  1.00  0.00     0.175 C 
BRANCH  23  24
HETATM   24  O2  UNL     1     -81.369 -10.973  13.775  1.00  0.00    -0.400 OA
ATOM     25  H2  UNL     1     -81.483 -10.075  13.488  1.00  0.00     0.209 HD
ENDBRANCH  23  24
ENDBRANCH  20  23
ENDBRANCH  19  20
ENDBRANCH  16  19
ENDBRANCH  12  16
ENDBRANCH   5   9
BRANCH   8  26
HETATM   26  C19 UNL     1     -89.271 -17.274   9.380  1.00  0.00    -0.055 C 
HETATM   27  C20 UNL     1     -90.272 -17.829   9.757  1.00  0.00    -0.059 C 
BRANCH  27  28
HETATM   28  C21 UNL     1     -91.469 -18.482  10.234  1.00  0.00     0.046 A 
HETATM   29  C22 UNL     1     -92.018 -19.581   9.605  1.00  0.00    -0.038 A 
HETATM   30  C23 UNL     1     -91.355 -20.122   8.383  1.00  0.00     0.050 C 
HETATM   31  C24 UNL     1     -93.166 -20.136  10.140  1.00  0.00     0.056 A 
HETATM   32  C25 UNL     1     -93.775 -19.635  11.265  1.00  0.00     0.099 A 
HETATM   33  N4  UNL     1     -93.218 -18.571  11.850  1.00  0.00    -0.345 N 
HETATM   34  C26 UNL     1     -92.106 -17.997  11.371  1.00  0.00     0.026 A 
ATOM     35  H4  UNL     1     -93.653 -18.183  12.688  1.00  0.00     0.167 HD
HETATM   36  C27 UNL     1     -91.502 -16.810  12.042  1.00  0.00     0.070 C 
BRANCH  32  37
HETATM   37  N3  UNL     1     -94.853 -20.183  11.739  1.00  0.00    -0.385 N 
ATOM     38  H32 UNL     1     -94.885 -21.174  11.980  1.00  0.00     0.157 HD
ATOM     39  H31 UNL     1     -95.699 -19.633  11.884  1.00  0.00     0.157 HD
ENDBRANCH  32  37
ENDBRANCH  27  28
ENDBRANCH   8  26
BRANCH   1  40
HETATM   40  O1  UNL     1     -88.835 -16.809   6.729  1.00  0.00    -0.354 OA
HETATM   41  C1  UNL     1     -89.743 -15.932   6.086  1.00  0.00     0.210 C 
ENDBRANCH   1  40
TORSDOF 10
ENDMDL
MODEL 5
REMARK VINA RESULT: -8.149287188      5.800      9.373
REMARK  10 active torsions:
REMARK  status: ('A' for Active; 'I' for Inactive)
REMARK    1  A    between atoms: O1_2  and  C2_3 
REMARK    2  A    between atoms: C6_7  and  N1_8 
REMARK    3  A    between atoms: C9_11  and  N2_13 
REMARK    4  A    between atoms: N2_13  and  C10_16 
REMARK    5  A    between atoms: C10_16  and  C11_17 
REMARK    6  A    between atoms: C11_17  and  C12_18 
REMARK    7  A    between atoms: C12_18  and  O2_19 
REMARK    8  A    between atoms: C18_27  and  C19_28 
REMARK    9  A    between atoms: C20_29  and  C21_30 
REMARK   10  A    between atoms: C25_34  and  N3_35 
ROOT
HETATM    1  C2  UNL     1     -83.544 -14.419   7.999  1.00  0.00     0.096 A 
HETATM    2  C3  UNL     1     -82.242 -14.026   7.773  1.00  0.00    -0.025 A 
HETATM    3  C4  UNL     1     -81.518 -13.169   8.748  1.00  0.00     0.051 C 
HETATM    4  C5  UNL     1     -81.648 -14.466   6.604  1.00  0.00     0.042 A 
HETATM    5  C6  UNL     1     -82.303 -15.274   5.667  1.00  0.00     0.071 A 
HETATM    6  C17 UNL     1     -83.593 -15.634   5.941  1.00  0.00     0.164 A 
HETATM    7  F2  UNL     1     -84.280 -16.427   5.088  1.00  0.00    -0.202 F 
HETATM    8  C18 UNL     1     -84.229 -15.210   7.112  1.00  0.00     0.092 A 
ENDROOT
BRANCH   5   9
HETATM    9  N1  UNL     1     -81.646 -15.672   4.466  1.00  0.00    -0.378 N 
HETATM   10  C7  UNL     1     -81.981 -14.956   3.253  1.00  0.00     0.128 C 
HETATM   11  C8  UNL     1     -80.868 -14.869   2.248  1.00  0.00     0.094 C 
HETATM   12  C9  UNL     1     -79.936 -16.044   2.283  1.00  0.00     0.268 C 
HETATM   13  F1  UNL     1     -78.803 -15.698   2.981  1.00  0.00    -0.211 F 
HETATM   14  C15 UNL     1     -80.586 -17.230   3.006  1.00  0.00     0.094 C 
HETATM   15  C16 UNL     1     -80.716 -16.761   4.459  1.00  0.00     0.128 C 
BRANCH  12  16
HETATM   16  N2  UNL     1     -79.616 -16.512   0.952  1.00  0.00    -0.037 N 
ATOM     17  H22 UNL     1     -80.069 -15.940   0.239  1.00  0.00     0.281 HD
ATOM     18  H21 UNL     1     -78.643 -16.321   0.716  1.00  0.00     0.281 HD
BRANCH  16  19
HETATM   19  C10 UNL     1     -79.933 -17.917   0.779  1.00  0.00     0.247 C 
BRANCH  19  20
HETATM   20  C11 UNL     1     -80.938 -18.113  -0.337  1.00  0.00     0.005 A 
HETATM   21  C13 UNL     1     -82.166 -18.905  -0.111  1.00  0.00     0.014 A 
HETATM   22  C14 UNL     1     -81.086 -19.395  -1.036  1.00  0.00     0.014 A 
BRANCH  20  23
HETATM   23  C12 UNL     1     -81.157 -16.851  -1.177  1.00  0.00     0.175 C 
BRANCH  23  24
HETATM   24  O2  UNL     1     -82.279 -16.222  -0.660  1.00  0.00    -0.400 OA
ATOM     25  H2  UNL     1     -82.172 -16.210   0.284  1.00  0.00     0.209 HD
ENDBRANCH  23  24
ENDBRANCH  20  23
ENDBRANCH  19  20
ENDBRANCH  16  19
ENDBRANCH  12  16
ENDBRANCH   5   9
BRANCH   8  26
HETATM   26  C19 UNL     1     -85.576 -15.583   7.407  1.00  0.00    -0.055 C 
HETATM   27  C20 UNL     1     -86.707 -15.919   7.650  1.00  0.00    -0.059 C 
BRANCH  27  28
HETATM   28  C21 UNL     1     -88.055 -16.349   7.939  1.00  0.00     0.046 A 
HETATM   29  C22 UNL     1     -88.458 -16.741   9.200  1.00  0.00    -0.038 A 
HETATM   30  C23 UNL     1     -87.467 -16.722  10.314  1.00  0.00     0.050 C 
HETATM   31  C24 UNL     1     -89.772 -17.135   9.374  1.00  0.00     0.056 A 
HETATM   32  C25 UNL     1     -90.682 -17.152   8.346  1.00  0.00     0.099 A 
HETATM   33  N4  UNL     1     -90.261 -16.766   7.137  1.00  0.00    -0.345 N 
HETATM   34  C26 UNL     1     -88.999 -16.375   6.917  1.00  0.00     0.026 A 
ATOM     35  H4  UNL     1     -90.921 -16.770   6.359  1.00  0.00     0.167 HD
HETATM   36  C27 UNL     1     -88.552 -15.948   5.559  1.00  0.00     0.070 C 
BRANCH  32  37
HETATM   37  N3  UNL     1     -91.909 -17.528   8.547  1.00  0.00    -0.385 N 
ATOM     38  H32 UNL     1     -92.609 -16.886   8.921  1.00  0.00     0.157 HD
ATOM     39  H31 UNL     1     -92.205 -18.482   8.337  1.00  0.00     0.157 HD
ENDBRANCH  32  37
ENDBRANCH  27  28
ENDBRANCH   8  26
BRANCH   1  40
HETATM   40  O1  UNL     1     -84.187 -14.009   9.147  1.00  0.00    -0.354 OA
HETATM   41  C1  UNL     1     -84.102 -14.707  10.377  1.00  0.00     0.210 C 
ENDBRANCH   1  40
TORSDOF 10
ENDMDL
