MODEL 1
REMARK VINA RESULT: -9.177824514      0.000      0.000
REMARK  7 active torsions:
REMARK  status: ('A' for Active; 'I' for Inactive)
REMARK    1  A    between atoms: C3_3  and  C4_4 
REMARK    2  A    between atoms: C4_4  and  O1_5 
REMARK    3  A    between atoms: N1_10  and  C8_11 
REMARK    4  A    between atoms: C8_11  and  C9_12 
REMARK    5  A    between atoms: C9_12  and  C10_13 
REMARK    6  A    between atoms: C10_13  and  N2_14 
REMARK    7  A    between atoms: C16_24  and  C17_25 
ROOT
HETATM    1  C1  UNL     1     -91.658 -20.604   8.317  1.00  0.00     0.013 C 
HETATM    2  C2  UNL     1     -91.562 -19.573   8.923  1.00  0.00    -0.103 C 
HETATM    3  C3  UNL     1     -91.458 -18.309   9.640  1.00  0.00     0.070 C 
HETATM    4  C5  UNL     1     -90.253 -18.327  10.523  1.00  0.00     0.028 C 
HETATM    5  C6  UNL     1     -89.321 -17.227  10.102  1.00  0.00     0.032 C 
HETATM    6  C7  UNL     1     -89.065 -17.373   8.614  1.00  0.00     0.272 C 
HETATM    7  N1  UNL     1     -90.280 -17.175   7.882  1.00  0.00     0.090 N 
HETATM    8  C24 UNL     1     -91.464 -17.132   8.684  1.00  0.00     0.297 C 
ENDROOT
BRANCH   3   9
HETATM    9  C4  UNL     1     -92.700 -18.180  10.498  1.00  0.00     0.188 C 
BRANCH   9  10
HETATM   10  O1  UNL     1     -92.611 -18.856  11.692  1.00  0.00    -0.399 OA
ATOM     11  H1  UNL     1     -93.417 -18.836  12.196  1.00  0.00     0.209 HD
ENDBRANCH   9  10
ENDBRANCH   3   9
BRANCH   7  12
HETATM   12  C8  UNL     1     -90.192 -16.051   6.964  1.00  0.00     0.274 C 
BRANCH  12  13
HETATM   13  C9  UNL     1     -89.231 -16.304   5.849  1.00  0.00     0.050 C 
BRANCH  13  14
HETATM   14  C10 UNL     1     -88.198 -15.197   5.829  1.00  0.00     0.123 C 
BRANCH  14  15
HETATM   15  N2  UNL     1     -87.053 -15.481   6.637  1.00  0.00    -0.376 N 
HETATM   16  C11 UNL     1     -85.837 -15.481   6.239  1.00  0.00     0.115 A 
HETATM   17  N3  UNL     1     -85.470 -15.204   4.966  1.00  0.00    -0.350 N 
HETATM   18  C16 UNL     1     -84.861 -15.780   7.166  1.00  0.00     0.053 A 
HETATM   19  C12 UNL     1     -84.183 -15.211   4.576  1.00  0.00     0.112 A 
ATOM     20  H3  UNL     1     -86.193 -14.984   4.281  1.00  0.00     0.166 HD
HETATM   21  C13 UNL     1     -83.163 -15.504   5.463  1.00  0.00     0.061 A 
HETATM   22  C14 UNL     1     -81.782 -15.515   5.057  1.00  0.00     0.101 C 
HETATM   23  C15 UNL     1     -83.542 -15.788   6.768  1.00  0.00     0.043 A 
HETATM   24  N4  UNL     1     -80.667 -15.536   4.746  1.00  0.00    -0.191 NA
ATOM     25  H2  UNL     1     -87.221 -15.702   7.619  1.00  0.00     0.161 HD
BRANCH  18  26
HETATM   26  C17 UNL     1     -85.248 -16.081   8.550  1.00  0.00     0.120 A 
HETATM   27  N5  UNL     1     -85.283 -17.300   9.115  1.00  0.00    -0.340 N 
HETATM   28  C18 UNL     1     -85.683 -17.199  10.397  1.00  0.00     0.062 A 
ATOM     29  H5  UNL     1     -85.042 -18.171   8.643  1.00  0.00     0.167 HD
HETATM   30  C19 UNL     1     -85.889 -18.105  11.408  1.00  0.00     0.057 A 
HETATM   31  C23 UNL     1     -85.911 -15.865  10.657  1.00  0.00     0.062 A 
HETATM   32  C20 UNL     1     -86.311 -17.718  12.658  1.00  0.00     0.058 A 
HETATM   33 CL1  UNL     1     -86.566 -18.902  13.933  1.00  0.00    -0.082 Cl
HETATM   34  C21 UNL     1     -86.544 -16.387  12.937  1.00  0.00     0.058 A 
HETATM   35 CL2  UNL     1     -87.082 -15.905  14.536  1.00  0.00    -0.082 Cl
HETATM   36  C22 UNL     1     -86.337 -15.479  11.922  1.00  0.00     0.057 A 
HETATM   37  N6  UNL     1     -85.634 -15.223   9.510  1.00  0.00    -0.340 N 
ATOM     38  H6  UNL     1     -85.708 -14.214   9.383  1.00  0.00     0.167 HD
ENDBRANCH  18  26
ENDBRANCH  14  15
ENDBRANCH  13  14
ENDBRANCH  12  13
ENDBRANCH   7  12
TORSDOF 7
ENDMDL
MODEL 2
REMARK VINA RESULT: -9.147036251      0.106      1.244
REMARK  7 active torsions:
REMARK  status: ('A' for Active; 'I' for Inactive)
REMARK    1  A    between atoms: C3_3  and  C4_4 
REMARK    2  A    between atoms: C4_4  and  O1_5 
REMARK    3  A    between atoms: N1_10  and  C8_11 
REMARK    4  A    between atoms: C8_11  and  C9_12 
REMARK    5  A    between atoms: C9_12  and  C10_13 
REMARK    6  A    between atoms: C10_13  and  N2_14 
REMARK    7  A    between atoms: C16_24  and  C17_25 
ROOT
HETATM    1  C1  UNL     1     -91.654 -20.591   8.317  1.00  0.00     0.013 C 
HETATM    2  C2  UNL     1     -91.539 -19.561   8.923  1.00  0.00    -0.103 C 
HETATM    3  C3  UNL     1     -91.411 -18.298   9.638  1.00  0.00     0.070 C 
HETATM    4  C5  UNL     1     -90.203 -18.335  10.516  1.00  0.00     0.028 C 
HETATM    5  C6  UNL     1     -89.254 -17.252  10.090  1.00  0.00     0.032 C 
HETATM    6  C7  UNL     1     -89.007 -17.404   8.602  1.00  0.00     0.272 C 
HETATM    7  N1  UNL     1     -90.221 -17.186   7.873  1.00  0.00     0.090 N 
HETATM    8  C24 UNL     1     -91.400 -17.123   8.680  1.00  0.00     0.297 C 
ENDROOT
BRANCH   3   9
HETATM    9  C4  UNL     1     -92.647 -18.147  10.500  1.00  0.00     0.188 C 
BRANCH   9  10
HETATM   10  O1  UNL     1     -92.568 -18.827  11.692  1.00  0.00    -0.399 OA
ATOM     11  H1  UNL     1     -93.267 -19.458  11.813  1.00  0.00     0.209 HD
ENDBRANCH   9  10
ENDBRANCH   3   9
BRANCH   7  12
HETATM   12  C8  UNL     1     -90.117 -16.065   6.953  1.00  0.00     0.274 C 
BRANCH  12  13
HETATM   13  C9  UNL     1     -89.148 -16.327   5.847  1.00  0.00     0.050 C 
BRANCH  13  14
HETATM   14  C10 UNL     1     -88.124 -15.212   5.816  1.00  0.00     0.123 C 
BRANCH  14  15
HETATM   15  N2  UNL     1     -86.974 -15.481   6.623  1.00  0.00    -0.376 N 
HETATM   16  C11 UNL     1     -85.759 -15.470   6.222  1.00  0.00     0.115 A 
HETATM   17  N3  UNL     1     -85.399 -15.193   4.947  1.00  0.00    -0.350 N 
HETATM   18  C16 UNL     1     -84.779 -15.756   7.147  1.00  0.00     0.053 A 
HETATM   19  C12 UNL     1     -84.112 -15.188   4.554  1.00  0.00     0.112 A 
ATOM     20  H3  UNL     1     -86.125 -14.983   4.263  1.00  0.00     0.166 HD
HETATM   21  C13 UNL     1     -83.087 -15.468   5.439  1.00  0.00     0.061 A 
HETATM   22  C14 UNL     1     -81.707 -15.465   5.030  1.00  0.00     0.101 C 
HETATM   23  C15 UNL     1     -83.460 -15.751   6.746  1.00  0.00     0.043 A 
HETATM   24  N4  UNL     1     -80.593 -15.475   4.717  1.00  0.00    -0.191 NA
ATOM     25  H2  UNL     1     -87.137 -15.702   7.605  1.00  0.00     0.161 HD
BRANCH  18  26
HETATM   26  C17 UNL     1     -85.158 -16.057   8.533  1.00  0.00     0.120 A 
HETATM   27  N5  UNL     1     -85.537 -15.162   9.462  1.00  0.00    -0.340 N 
HETATM   28  C18 UNL     1     -85.812 -15.793  10.619  1.00  0.00     0.062 A 
ATOM     29  H5  UNL     1     -85.607 -14.156   9.312  1.00  0.00     0.167 HD
HETATM   30  C19 UNL     1     -86.229 -15.377  11.860  1.00  0.00     0.057 A 
HETATM   31  C23 UNL     1     -85.599 -17.140  10.419  1.00  0.00     0.062 A 
HETATM   32  C20 UNL     1     -86.438 -16.260  12.893  1.00  0.00     0.058 A 
HETATM   33 CL1  UNL     1     -86.973 -15.696  14.470  1.00  0.00    -0.082 Cl
HETATM   34  C21 UNL     1     -86.231 -17.612  12.711  1.00  0.00     0.058 A 
HETATM   35 CL2  UNL     1     -86.501 -18.730  14.036  1.00  0.00    -0.082 Cl
HETATM   36  C22 UNL     1     -85.813 -18.028  11.466  1.00  0.00     0.057 A 
HETATM   37  N6  UNL     1     -85.205 -17.255   9.140  1.00  0.00    -0.340 N 
ATOM     38  H6  UNL     1     -84.970 -18.138   8.688  1.00  0.00     0.167 HD
ENDBRANCH  18  26
ENDBRANCH  14  15
ENDBRANCH  13  14
ENDBRANCH  12  13
ENDBRANCH   7  12
TORSDOF 7
ENDMDL
MODEL 3
REMARK VINA RESULT: -9.027170846      0.945      1.611
REMARK  7 active torsions:
REMARK  status: ('A' for Active; 'I' for Inactive)
REMARK    1  A    between atoms: C3_3  and  C4_4 
REMARK    2  A    between atoms: C4_4  and  O1_5 
REMARK    3  A    between atoms: N1_10  and  C8_11 
REMARK    4  A    between atoms: C8_11  and  C9_12 
REMARK    5  A    between atoms: C9_12  and  C10_13 
REMARK    6  A    between atoms: C10_13  and  N2_14 
REMARK    7  A    between atoms: C16_24  and  C17_25 
ROOT
HETATM    1  C1  UNL     1     -92.200 -19.890   9.654  1.00  0.00     0.013 C 
HETATM    2  C2  UNL     1     -91.963 -18.716   9.595  1.00  0.00    -0.103 C 
HETATM    3  C3  UNL     1     -91.672 -17.291   9.496  1.00  0.00     0.070 C 
HETATM    4  C5  UNL     1     -90.984 -16.829  10.739  1.00  0.00     0.028 C 
HETATM    5  C6  UNL     1     -89.625 -16.300  10.379  1.00  0.00     0.032 C 
HETATM    6  C7  UNL     1     -88.907 -17.362   9.570  1.00  0.00     0.272 C 
HETATM    7  N1  UNL     1     -89.592 -17.589   8.333  1.00  0.00     0.090 N 
HETATM    8  C24 UNL     1     -90.881 -16.977   8.240  1.00  0.00     0.297 C 
ENDROOT
BRANCH   3   9
HETATM    9  C4  UNL     1     -92.999 -16.574   9.367  1.00  0.00     0.188 C 
BRANCH   9  10
HETATM   10  O1  UNL     1     -93.102 -15.468  10.177  1.00  0.00    -0.399 OA
ATOM     11  H1  UNL     1     -93.654 -14.784   9.814  1.00  0.00     0.209 HD
ENDBRANCH   9  10
ENDBRANCH   3   9
BRANCH   7  12
HETATM   12  C8  UNL     1     -88.756 -17.298   7.179  1.00  0.00     0.274 C 
BRANCH  12  13
HETATM   13  C9  UNL     1     -89.279 -16.153   6.375  1.00  0.00     0.050 C 
BRANCH  13  14
HETATM   14  C10 UNL     1     -88.127 -15.242   6.009  1.00  0.00     0.123 C 
BRANCH  14  15
HETATM   15  N2  UNL     1     -86.945 -15.494   6.772  1.00  0.00    -0.376 N 
HETATM   16  C11 UNL     1     -85.747 -15.483   6.323  1.00  0.00     0.115 A 
HETATM   17  N3  UNL     1     -85.439 -15.224   5.030  1.00  0.00    -0.350 N 
HETATM   18  C16 UNL     1     -84.728 -15.752   7.212  1.00  0.00     0.053 A 
HETATM   19  C12 UNL     1     -84.170 -15.219   4.585  1.00  0.00     0.112 A 
ATOM     20  H3  UNL     1     -86.194 -15.026   4.374  1.00  0.00     0.166 HD
HETATM   21  C13 UNL     1     -83.109 -15.482   5.433  1.00  0.00     0.061 A 
HETATM   22  C14 UNL     1     -81.746 -15.480   4.968  1.00  0.00     0.101 C 
HETATM   23  C15 UNL     1     -83.427 -15.748   6.758  1.00  0.00     0.043 A 
HETATM   24  N4  UNL     1     -80.645 -15.490   4.610  1.00  0.00    -0.191 NA
ATOM     25  H2  UNL     1     -87.067 -15.701   7.764  1.00  0.00     0.161 HD
BRANCH  18  26
HETATM   26  C17 UNL     1     -85.051 -16.035   8.616  1.00  0.00     0.120 A 
HETATM   27  N5  UNL     1     -85.346 -15.124   9.559  1.00  0.00    -0.340 N 
HETATM   28  C18 UNL     1     -85.588 -15.741  10.731  1.00  0.00     0.062 A 
ATOM     29  H5  UNL     1     -85.381 -14.116   9.409  1.00  0.00     0.167 HD
HETATM   30  C19 UNL     1     -85.925 -15.305  11.990  1.00  0.00     0.057 A 
HETATM   31  C23 UNL     1     -85.441 -17.096  10.525  1.00  0.00     0.062 A 
HETATM   32  C20 UNL     1     -86.118 -16.178  13.035  1.00  0.00     0.058 A 
HETATM   33 CL1  UNL     1     -86.550 -15.589  14.635  1.00  0.00    -0.082 Cl
HETATM   34  C21 UNL     1     -85.977 -17.537  12.848  1.00  0.00     0.058 A 
HETATM   35 CL2  UNL     1     -86.226 -18.640  14.189  1.00  0.00    -0.082 Cl
HETATM   36  C22 UNL     1     -85.638 -17.973  11.585  1.00  0.00     0.057 A 
HETATM   37  N6  UNL     1     -85.116 -17.229   9.229  1.00  0.00    -0.340 N 
ATOM     38  H6  UNL     1     -84.941 -18.122   8.769  1.00  0.00     0.167 HD
ENDBRANCH  18  26
ENDBRANCH  14  15
ENDBRANCH  13  14
ENDBRANCH  12  13
ENDBRANCH   7  12
TORSDOF 7
ENDMDL
MODEL 4
REMARK VINA RESULT: -9.006966133      1.514      2.360
REMARK  7 active torsions:
REMARK  status: ('A' for Active; 'I' for Inactive)
REMARK    1  A    between atoms: C3_3  and  C4_4 
REMARK    2  A    between atoms: C4_4  and  O1_5 
REMARK    3  A    between atoms: N1_10  and  C8_11 
REMARK    4  A    between atoms: C8_11  and  C9_12 
REMARK    5  A    between atoms: C9_12  and  C10_13 
REMARK    6  A    between atoms: C10_13  and  N2_14 
REMARK    7  A    between atoms: C16_24  and  C17_25 
ROOT
HETATM    1  C1  UNL     1     -93.969 -19.697  11.097  1.00  0.00     0.013 C 
HETATM    2  C2  UNL     1     -93.403 -18.639  11.074  1.00  0.00    -0.103 C 
HETATM    3  C3  UNL     1     -92.717 -17.355  11.018  1.00  0.00     0.070 C 
HETATM    4  C5  UNL     1     -91.834 -17.202  12.214  1.00  0.00     0.028 C 
HETATM    5  C6  UNL     1     -90.411 -17.060  11.755  1.00  0.00     0.032 C 
HETATM    6  C7  UNL     1     -90.097 -18.221  10.833  1.00  0.00     0.272 C 
HETATM    7  N1  UNL     1     -90.908 -18.151   9.654  1.00  0.00     0.090 N 
HETATM    8  C24 UNL     1     -91.965 -17.189   9.711  1.00  0.00     0.297 C 
ENDROOT
BRANCH   3   9
HETATM    9  C4  UNL     1     -93.782 -16.279  11.048  1.00  0.00     0.188 C 
BRANCH   9  10
HETATM   10  O1  UNL     1     -93.999 -15.760  12.302  1.00  0.00    -0.399 OA
ATOM     11  H1  UNL     1     -94.728 -15.151  12.337  1.00  0.00     0.209 HD
ENDBRANCH   9  10
ENDBRANCH   3   9
BRANCH   7  12
HETATM   12  C8  UNL     1     -90.112 -18.027   8.444  1.00  0.00     0.274 C 
BRANCH  12  13
HETATM   13  C9  UNL     1     -90.544 -16.877   7.596  1.00  0.00     0.050 C 
BRANCH  13  14
HETATM   14  C10 UNL     1     -89.337 -16.315   6.876  1.00  0.00     0.123 C 
BRANCH  14  15
HETATM   15  N2  UNL     1     -88.176 -16.224   7.708  1.00  0.00    -0.376 N 
HETATM   16  C11 UNL     1     -86.989 -15.961   7.310  1.00  0.00     0.115 A 
HETATM   17  N3  UNL     1     -86.672 -15.729   6.015  1.00  0.00    -0.350 N 
HETATM   18  C16 UNL     1     -85.992 -15.917   8.261  1.00  0.00     0.053 A 
HETATM   19  C12 UNL     1     -85.414 -15.454   5.626  1.00  0.00     0.112 A 
ATOM     20  H3  UNL     1     -87.411 -15.763   5.313  1.00  0.00     0.166 HD
HETATM   21  C13 UNL     1     -84.375 -15.397   6.537  1.00  0.00     0.061 A 
HETATM   22  C14 UNL     1     -83.024 -15.104   6.132  1.00  0.00     0.101 C 
HETATM   23  C15 UNL     1     -84.702 -15.636   7.864  1.00  0.00     0.043 A 
HETATM   24  N4  UNL     1     -81.932 -14.878   5.823  1.00  0.00    -0.191 NA
ATOM     25  H2  UNL     1     -88.308 -16.383   8.707  1.00  0.00     0.161 HD
BRANCH  18  26
HETATM   26  C17 UNL     1     -86.325 -16.167   9.669  1.00  0.00     0.120 A 
HETATM   27  N5  UNL     1     -86.726 -15.248  10.563  1.00  0.00    -0.340 N 
HETATM   28  C18 UNL     1     -86.942 -15.834  11.756  1.00  0.00     0.062 A 
ATOM     29  H5  UNL     1     -86.848 -14.254  10.367  1.00  0.00     0.167 HD
HETATM   30  C19 UNL     1     -87.350 -15.378  12.986  1.00  0.00     0.057 A 
HETATM   31  C23 UNL     1     -86.668 -17.177  11.615  1.00  0.00     0.062 A 
HETATM   32  C20 UNL     1     -87.492 -16.219  14.064  1.00  0.00     0.058 A 
HETATM   33 CL1  UNL     1     -88.017 -15.604  15.626  1.00  0.00    -0.082 Cl
HETATM   34  C21 UNL     1     -87.224 -17.566  13.942  1.00  0.00     0.058 A 
HETATM   35 CL2  UNL     1     -87.408 -18.630  15.325  1.00  0.00    -0.082 Cl
HETATM   36  C22 UNL     1     -86.814 -18.023  12.708  1.00  0.00     0.057 A 
HETATM   37  N6  UNL     1     -86.298 -17.335  10.333  1.00  0.00    -0.340 N 
ATOM     38  H6  UNL     1     -86.031 -18.227   9.918  1.00  0.00     0.167 HD
ENDBRANCH  18  26
ENDBRANCH  14  15
ENDBRANCH  13  14
ENDBRANCH  12  13
ENDBRANCH   7  12
TORSDOF 7
ENDMDL
MODEL 5
REMARK VINA RESULT: -8.988532948      1.536      2.067
REMARK  7 active torsions:
REMARK  status: ('A' for Active; 'I' for Inactive)
REMARK    1  A    between atoms: C3_3  and  C4_4 
REMARK    2  A    between atoms: C4_4  and  O1_5 
REMARK    3  A    between atoms: N1_10  and  C8_11 
REMARK    4  A    between atoms: C8_11  and  C9_12 
REMARK    5  A    between atoms: C9_12  and  C10_13 
REMARK    6  A    between atoms: C10_13  and  N2_14 
REMARK    7  A    between atoms: C16_24  and  C17_25 
ROOT
HETATM    1  C1  UNL     1     -94.071 -19.596  11.194  1.00  0.00     0.013 C 
HETATM    2  C2  UNL     1     -93.486 -18.549  11.147  1.00  0.00    -0.103 C 
HETATM    3  C3  UNL     1     -92.777 -17.279  11.063  1.00  0.00     0.070 C 
HETATM    4  C5  UNL     1     -91.858 -17.135  12.232  1.00  0.00     0.028 C 
HETATM    5  C6  UNL     1     -90.446 -17.024  11.733  1.00  0.00     0.032 C 
HETATM    6  C7  UNL     1     -90.180 -18.197  10.811  1.00  0.00     0.272 C 
HETATM    7  N1  UNL     1     -91.023 -18.119   9.655  1.00  0.00     0.090 N 
HETATM    8  C24 UNL     1     -92.059 -17.137   9.734  1.00  0.00     0.297 C 
ENDROOT
BRANCH   3   9
HETATM    9  C4  UNL     1     -93.820 -16.182  11.114  1.00  0.00     0.188 C 
BRANCH   9  10
HETATM   10  O1  UNL     1     -94.146 -15.798  12.393  1.00  0.00    -0.399 OA
ATOM     11  H1  UNL     1     -94.904 -16.254  12.742  1.00  0.00     0.209 HD
ENDBRANCH   9  10
ENDBRANCH   3   9
BRANCH   7  12
HETATM   12  C8  UNL     1     -90.258 -18.020   8.422  1.00  0.00     0.274 C 
BRANCH  12  13
HETATM   13  C9  UNL     1     -90.598 -16.792   7.642  1.00  0.00     0.050 C 
BRANCH  13  14
HETATM   14  C10 UNL     1     -89.362 -16.319   6.906  1.00  0.00     0.123 C 
BRANCH  14  15
HETATM   15  N2  UNL     1     -88.208 -16.225   7.745  1.00  0.00    -0.376 N 
HETATM   16  C11 UNL     1     -87.017 -15.967   7.354  1.00  0.00     0.115 A 
HETATM   17  N3  UNL     1     -86.691 -15.744   6.060  1.00  0.00    -0.350 N 
HETATM   18  C16 UNL     1     -86.027 -15.918   8.312  1.00  0.00     0.053 A 
HETATM   19  C12 UNL     1     -85.430 -15.474   5.678  1.00  0.00     0.112 A 
ATOM     20  H3  UNL     1     -87.424 -15.781   5.352  1.00  0.00     0.166 HD
HETATM   21  C13 UNL     1     -84.397 -15.412   6.596  1.00  0.00     0.061 A 
HETATM   22  C14 UNL     1     -83.043 -15.125   6.198  1.00  0.00     0.101 C 
HETATM   23  C15 UNL     1     -84.734 -15.642   7.923  1.00  0.00     0.043 A 
HETATM   24  N4  UNL     1     -81.948 -14.902   5.896  1.00  0.00    -0.191 NA
ATOM     25  H2  UNL     1     -88.347 -16.377   8.745  1.00  0.00     0.161 HD
BRANCH  18  26
HETATM   26  C17 UNL     1     -86.370 -16.158   9.719  1.00  0.00     0.120 A 
HETATM   27  N5  UNL     1     -86.378 -17.351  10.339  1.00  0.00    -0.340 N 
HETATM   28  C18 UNL     1     -86.741 -17.194  11.626  1.00  0.00     0.062 A 
ATOM     29  H5  UNL     1     -86.144 -18.241   9.900  1.00  0.00     0.167 HD
HETATM   30  C19 UNL     1     -86.910 -18.055  12.684  1.00  0.00     0.057 A 
HETATM   31  C23 UNL     1     -86.973 -15.851  11.832  1.00  0.00     0.062 A 
HETATM   32  C20 UNL     1     -87.299 -17.614  13.927  1.00  0.00     0.058 A 
HETATM   33 CL1  UNL     1     -87.506 -18.741  15.261  1.00  0.00    -0.082 Cl
HETATM   34  C21 UNL     1     -87.535 -16.273  14.152  1.00  0.00     0.058 A 
HETATM   35 CL2  UNL     1     -88.030 -15.722  15.743  1.00  0.00    -0.082 Cl
HETATM   36  C22 UNL     1     -87.365 -15.411  13.091  1.00  0.00     0.057 A 
HETATM   37  N6  UNL     1     -86.736 -15.261  10.650  1.00  0.00    -0.340 N 
ATOM     38  H6  UNL     1     -86.822 -14.259  10.480  1.00  0.00     0.167 HD
ENDBRANCH  18  26
ENDBRANCH  14  15
ENDBRANCH  13  14
ENDBRANCH  12  13
ENDBRANCH   7  12
TORSDOF 7
ENDMDL
