MODEL 1
REMARK VINA RESULT: -9.295002447      0.000      0.000
REMARK  10 active torsions:
REMARK  status: ('A' for Active; 'I' for Inactive)
REMARK    1  A    between atoms: C4_4  and  O1_5 
REMARK    2  A    between atoms: C8_10  and  C9_11 
REMARK    3  A    between atoms: C9_11  and  C10_12 
REMARK    4  A    between atoms: C11_13  and  C12_14 
REMARK    5  A    between atoms: C13_15  and  C14_16 
REMARK    6  A    between atoms: C14_16  and  C16_18 
REMARK    7  A    between atoms: C16_18  and  C17_19 
REMARK    8  A    between atoms: C18_20  and  O2_21 
REMARK    9  A    between atoms: C22_27  and  O3_28 
REMARK   10  A    between atoms: C26_35  and  O6_36 
ROOT
HETATM    1  C12 UNL     1     -87.340 -11.846   7.876  1.00  0.00     0.025 C 
HETATM    2  C13 UNL     1     -86.133 -12.677   8.238  1.00  0.00     0.027 C 
HETATM    3  C26 UNL     1     -85.364 -11.713   7.283  1.00  0.00     0.131 C 
HETATM    4  C27 UNL     1     -86.723 -11.656   6.511  1.00  0.00    -0.014 C 
HETATM    5  C28 UNL     1     -87.004 -10.354   5.852  1.00  0.00     0.018 C 
HETATM    6  C29 UNL     1     -86.717 -12.874   5.603  1.00  0.00     0.018 C 
ENDROOT
BRANCH   2   7
HETATM    7  C14 UNL     1     -85.589 -12.465   9.642  1.00  0.00    -0.007 C 
HETATM    8  C15 UNL     1     -85.698 -13.747  10.392  1.00  0.00     0.011 C 
BRANCH   7   9
HETATM    9  C16 UNL     1     -86.178 -11.253  10.289  1.00  0.00     0.052 C 
BRANCH   9  10
HETATM   10  C17 UNL     1     -86.647 -11.482  11.659  1.00  0.00     0.052 A 
HETATM   11  C18 UNL     1     -87.939 -11.850  11.939  1.00  0.00     0.091 A 
HETATM   12  C19 UNL     1     -88.272 -12.120  13.267  1.00  0.00     0.035 A 
HETATM   13  C20 UNL     1     -89.551 -12.501  13.634  1.00  0.00     0.062 A 
HETATM   14  C24 UNL     1     -87.277 -11.997  14.206  1.00  0.00     0.095 A 
HETATM   15  C21 UNL     1     -89.894 -12.771  14.938  1.00  0.00     0.150 A 
HETATM   16  F1  UNL     1     -91.145 -13.145  15.314  1.00  0.00    -0.203 F 
HETATM   17  C22 UNL     1     -88.900 -12.647  15.883  1.00  0.00     0.106 A 
HETATM   18  C23 UNL     1     -87.623 -12.270  15.530  1.00  0.00     0.078 A 
HETATM   19  O4  UNL     1     -86.058 -11.638  13.882  1.00  0.00    -0.274 OA
HETATM   20  C25 UNL     1     -85.681 -11.372  12.663  1.00  0.00     0.297 A 
HETATM   21  O5  UNL     1     -84.501 -11.030  12.384  1.00  0.00    -0.259 OA
BRANCH  11  22
HETATM   22  O2  UNL     1     -88.950 -11.971  11.028  1.00  0.00    -0.359 OA
ATOM     23  H2  UNL     1     -89.813 -12.327  11.201  1.00  0.00     0.217 HD
ENDBRANCH  11  22
BRANCH  17  24
HETATM   24  O3  UNL     1     -89.168 -12.904  17.235  1.00  0.00    -0.358 OA
ATOM     25  H3  UNL     1     -89.935 -12.532  17.653  1.00  0.00     0.217 HD
ENDBRANCH  17  24
ENDBRANCH   9  10
ENDBRANCH   7   9
ENDBRANCH   2   7
BRANCH   1  26
HETATM   26  C11 UNL     1     -88.664 -12.401   7.901  1.00  0.00    -0.025 C 
HETATM   27  C10 UNL     1     -89.088 -13.610   8.232  1.00  0.00    -0.029 C 
BRANCH  27  28
HETATM   28  C9  UNL     1     -90.555 -13.944   8.177  1.00  0.00     0.036 C 
BRANCH  28  29
HETATM   29  C8  UNL     1     -91.097 -14.265   9.539  1.00  0.00     0.021 C 
HETATM   30  C2  UNL     1     -92.264 -13.379   9.782  1.00  0.00    -0.082 C 
HETATM   31  C1  UNL     1     -92.187 -12.105   9.516  1.00  0.00     0.015 C 
HETATM   32  C3  UNL     1     -93.542 -13.930  10.337  1.00  0.00     0.065 C 
HETATM   33  C4  UNL     1     -93.124 -14.876  11.442  1.00  0.00     0.122 C 
HETATM   34  C5  UNL     1     -92.362 -16.010  10.872  1.00  0.00     0.037 C 
HETATM   35  C6  UNL     1     -91.462 -15.715   9.709  1.00  0.00    -0.008 C 
HETATM   36  C7  UNL     1     -92.026 -16.361   8.485  1.00  0.00     0.011 C 
BRANCH  33  37
HETATM   37  O1  UNL     1     -92.421 -14.154  12.403  1.00  0.00    -0.395 OA
ATOM     38  H1  UNL     1     -92.983 -14.029  13.159  1.00  0.00     0.210 HD
ENDBRANCH  33  37
ENDBRANCH  28  29
ENDBRANCH  27  28
ENDBRANCH   1  26
BRANCH   3  39
HETATM   39  O6  UNL     1     -85.129 -10.501   7.865  1.00  0.00    -0.394 OA
ATOM     40  H6  UNL     1     -84.315 -10.115   7.563  1.00  0.00     0.210 HD
ENDBRANCH   3  39
TORSDOF 10
ENDMDL
MODEL 2
REMARK VINA RESULT: -9.269677583      2.425      3.338
REMARK  10 active torsions:
REMARK  status: ('A' for Active; 'I' for Inactive)
REMARK    1  A    between atoms: C4_4  and  O1_5 
REMARK    2  A    between atoms: C8_10  and  C9_11 
REMARK    3  A    between atoms: C9_11  and  C10_12 
REMARK    4  A    between atoms: C11_13  and  C12_14 
REMARK    5  A    between atoms: C13_15  and  C14_16 
REMARK    6  A    between atoms: C14_16  and  C16_18 
REMARK    7  A    between atoms: C16_18  and  C17_19 
REMARK    8  A    between atoms: C18_20  and  O2_21 
REMARK    9  A    between atoms: C22_27  and  O3_28 
REMARK   10  A    between atoms: C26_35  and  O6_36 
ROOT
HETATM    1  C12 UNL     1     -87.333 -11.939   7.965  1.00  0.00     0.025 C 
HETATM    2  C13 UNL     1     -86.135 -12.825   8.210  1.00  0.00     0.027 C 
HETATM    3  C26 UNL     1     -85.375 -11.799   7.315  1.00  0.00     0.131 C 
HETATM    4  C27 UNL     1     -86.758 -11.646   6.599  1.00  0.00    -0.014 C 
HETATM    5  C28 UNL     1     -87.028 -10.286   6.064  1.00  0.00     0.018 C 
HETATM    6  C29 UNL     1     -86.812 -12.782   5.591  1.00  0.00     0.018 C 
ENDROOT
BRANCH   2   7
HETATM    7  C14 UNL     1     -85.538 -12.747   9.607  1.00  0.00    -0.007 C 
HETATM    8  C15 UNL     1     -84.913 -14.059   9.930  1.00  0.00     0.011 C 
BRANCH   7   9
HETATM    9  C16 UNL     1     -86.516 -12.203  10.599  1.00  0.00     0.052 C 
BRANCH   9  10
HETATM   10  C17 UNL     1     -85.893 -11.673  11.816  1.00  0.00     0.052 A 
HETATM   11  C18 UNL     1     -85.038 -10.601  11.794  1.00  0.00     0.091 A 
HETATM   12  C19 UNL     1     -84.556 -10.120  13.011  1.00  0.00     0.035 A 
HETATM   13  C20 UNL     1     -83.692  -9.040  13.076  1.00  0.00     0.062 A 
HETATM   14  C24 UNL     1     -84.972 -10.760  14.153  1.00  0.00     0.095 A 
HETATM   15  C21 UNL     1     -83.208  -8.554  14.269  1.00  0.00     0.150 A 
HETATM   16  F1  UNL     1     -82.360  -7.496  14.350  1.00  0.00    -0.203 F 
HETATM   17  C22 UNL     1     -83.622  -9.194  15.417  1.00  0.00     0.106 A 
HETATM   18  C23 UNL     1     -84.481 -10.269  15.364  1.00  0.00     0.078 A 
HETATM   19  O4  UNL     1     -85.790 -11.784  14.115  1.00  0.00    -0.274 OA
HETATM   20  C25 UNL     1     -86.277 -12.282  13.014  1.00  0.00     0.297 A 
HETATM   21  O5  UNL     1     -87.061 -13.267  13.012  1.00  0.00    -0.259 OA
BRANCH  11  22
HETATM   22  O2  UNL     1     -84.600  -9.953  10.673  1.00  0.00    -0.359 OA
ATOM     23  H2  UNL     1     -83.862  -9.355  10.631  1.00  0.00     0.217 HD
ENDBRANCH  11  22
BRANCH  17  24
HETATM   24  O3  UNL     1     -83.174  -8.761  16.673  1.00  0.00    -0.358 OA
ATOM     25  H3  UNL     1     -83.739  -8.826  17.434  1.00  0.00     0.217 HD
ENDBRANCH  17  24
ENDBRANCH   9  10
ENDBRANCH   7   9
ENDBRANCH   2   7
BRANCH   1  26
HETATM   26  C11 UNL     1     -88.668 -12.465   7.989  1.00  0.00    -0.025 C 
HETATM   27  C10 UNL     1     -89.113 -13.681   8.263  1.00  0.00    -0.029 C 
BRANCH  27  28
HETATM   28  C9  UNL     1     -90.589 -13.979   8.224  1.00  0.00     0.036 C 
BRANCH  28  29
HETATM   29  C8  UNL     1     -91.124 -14.286   9.592  1.00  0.00     0.021 C 
HETATM   30  C2  UNL     1     -92.282 -13.389   9.837  1.00  0.00    -0.082 C 
HETATM   31  C1  UNL     1     -92.195 -12.117   9.562  1.00  0.00     0.015 C 
HETATM   32  C3  UNL     1     -93.561 -13.925  10.404  1.00  0.00     0.065 C 
HETATM   33  C4  UNL     1     -93.143 -14.867  11.512  1.00  0.00     0.122 C 
HETATM   34  C5  UNL     1     -92.395 -16.011  10.944  1.00  0.00     0.037 C 
HETATM   35  C6  UNL     1     -91.500 -15.732   9.774  1.00  0.00    -0.008 C 
HETATM   36  C7  UNL     1     -92.078 -16.380   8.558  1.00  0.00     0.011 C 
BRANCH  33  37
HETATM   37  O1  UNL     1     -92.427 -14.146  12.464  1.00  0.00    -0.395 OA
ATOM     38  H1  UNL     1     -92.850 -13.304  12.586  1.00  0.00     0.210 HD
ENDBRANCH  33  37
ENDBRANCH  28  29
ENDBRANCH  27  28
ENDBRANCH   1  26
BRANCH   3  39
HETATM   39  O6  UNL     1     -85.090 -10.647   7.988  1.00  0.00    -0.394 OA
ATOM     40  H6  UNL     1     -85.513  -9.893   7.595  1.00  0.00     0.210 HD
ENDBRANCH   3  39
TORSDOF 10
ENDMDL
MODEL 3
REMARK VINA RESULT: -9.133707050      2.297      3.006
REMARK  10 active torsions:
REMARK  status: ('A' for Active; 'I' for Inactive)
REMARK    1  A    between atoms: C4_4  and  O1_5 
REMARK    2  A    between atoms: C8_10  and  C9_11 
REMARK    3  A    between atoms: C9_11  and  C10_12 
REMARK    4  A    between atoms: C11_13  and  C12_14 
REMARK    5  A    between atoms: C13_15  and  C14_16 
REMARK    6  A    between atoms: C14_16  and  C16_18 
REMARK    7  A    between atoms: C16_18  and  C17_19 
REMARK    8  A    between atoms: C18_20  and  O2_21 
REMARK    9  A    between atoms: C22_27  and  O3_28 
REMARK   10  A    between atoms: C26_35  and  O6_36 
ROOT
HETATM    1  C12 UNL     1     -87.795 -12.178   8.254  1.00  0.00     0.025 C 
HETATM    2  C13 UNL     1     -86.561 -12.886   8.757  1.00  0.00     0.027 C 
HETATM    3  C26 UNL     1     -85.826 -12.102   7.628  1.00  0.00     0.131 C 
HETATM    4  C27 UNL     1     -87.189 -12.237   6.871  1.00  0.00    -0.014 C 
HETATM    5  C28 UNL     1     -87.513 -11.095   5.976  1.00  0.00     0.018 C 
HETATM    6  C29 UNL     1     -87.147 -13.606   6.216  1.00  0.00     0.018 C 
ENDROOT
BRANCH   2   7
HETATM    7  C14 UNL     1     -86.020 -12.391  10.089  1.00  0.00    -0.007 C 
HETATM    8  C15 UNL     1     -85.625 -13.570  10.909  1.00  0.00     0.011 C 
BRANCH   7   9
HETATM    9  C16 UNL     1     -86.940 -11.402  10.730  1.00  0.00     0.052 C 
BRANCH   9  10
HETATM   10  C17 UNL     1     -86.626 -11.125  12.135  1.00  0.00     0.052 A 
HETATM   11  C18 UNL     1     -85.539 -10.376  12.509  1.00  0.00     0.091 A 
HETATM   12  C19 UNL     1     -85.366 -10.101  13.865  1.00  0.00     0.035 A 
HETATM   13  C20 UNL     1     -84.297  -9.350  14.325  1.00  0.00     0.062 A 
HETATM   14  C24 UNL     1     -86.301 -10.604  14.737  1.00  0.00     0.095 A 
HETATM   15  C21 UNL     1     -84.113  -9.070  15.660  1.00  0.00     0.150 A 
HETATM   16  F1  UNL     1     -83.071  -8.335  16.127  1.00  0.00    -0.203 F 
HETATM   17  C22 UNL     1     -85.048  -9.574  16.537  1.00  0.00     0.106 A 
HETATM   18  C23 UNL     1     -86.115 -10.322  16.091  1.00  0.00     0.078 A 
HETATM   19  O4  UNL     1     -87.320 -11.317  14.324  1.00  0.00    -0.274 OA
HETATM   20  C25 UNL     1     -87.541 -11.610  13.074  1.00  0.00     0.297 A 
HETATM   21  O5  UNL     1     -88.531 -12.297  12.710  1.00  0.00    -0.259 OA
BRANCH  11  22
HETATM   22  O2  UNL     1     -84.589  -9.872  11.666  1.00  0.00    -0.359 OA
ATOM     23  H2  UNL     1     -83.839 -10.348  11.327  1.00  0.00     0.217 HD
ENDBRANCH  11  22
BRANCH  17  24
HETATM   24  O3  UNL     1     -84.933  -9.334  17.914  1.00  0.00    -0.358 OA
ATOM     25  H3  UNL     1     -84.123  -9.531  18.371  1.00  0.00     0.217 HD
ENDBRANCH  17  24
ENDBRANCH   9  10
ENDBRANCH   7   9
ENDBRANCH   2   7
BRANCH   1  26
HETATM   26  C11 UNL     1     -89.101 -12.758   8.397  1.00  0.00    -0.025 C 
HETATM   27  C10 UNL     1     -90.251 -12.451   7.818  1.00  0.00    -0.029 C 
BRANCH  27  28
HETATM   28  C9  UNL     1     -91.498 -13.229   8.142  1.00  0.00     0.036 C 
BRANCH  28  29
HETATM   29  C8  UNL     1     -91.472 -13.747   9.550  1.00  0.00     0.021 C 
HETATM   30  C2  UNL     1     -92.801 -13.479  10.156  1.00  0.00    -0.082 C 
HETATM   31  C1  UNL     1     -93.360 -12.308  10.019  1.00  0.00     0.015 C 
HETATM   32  C3  UNL     1     -93.518 -14.540  10.933  1.00  0.00     0.065 C 
HETATM   33  C4  UNL     1     -92.458 -15.187  11.799  1.00  0.00     0.122 C 
HETATM   34  C5  UNL     1     -91.455 -15.863  10.946  1.00  0.00     0.037 C 
HETATM   35  C6  UNL     1     -91.109 -15.205   9.643  1.00  0.00    -0.008 C 
HETATM   36  C7  UNL     1     -91.631 -16.046   8.523  1.00  0.00     0.011 C 
BRANCH  33  37
HETATM   37  O1  UNL     1     -91.918 -14.218  12.640  1.00  0.00    -0.395 OA
ATOM     38  H1  UNL     1     -92.294 -13.376  12.412  1.00  0.00     0.210 HD
ENDBRANCH  33  37
ENDBRANCH  28  29
ENDBRANCH  27  28
ENDBRANCH   1  26
BRANCH   3  39
HETATM   39  O6  UNL     1     -85.628 -10.794   7.962  1.00  0.00    -0.394 OA
ATOM     40  H6  UNL     1     -84.886 -10.686   8.545  1.00  0.00     0.210 HD
ENDBRANCH   3  39
TORSDOF 10
ENDMDL
MODEL 4
REMARK VINA RESULT: -9.014065032      1.643      2.291
REMARK  10 active torsions:
REMARK  status: ('A' for Active; 'I' for Inactive)
REMARK    1  A    between atoms: C4_4  and  O1_5 
REMARK    2  A    between atoms: C8_10  and  C9_11 
REMARK    3  A    between atoms: C9_11  and  C10_12 
REMARK    4  A    between atoms: C11_13  and  C12_14 
REMARK    5  A    between atoms: C13_15  and  C14_16 
REMARK    6  A    between atoms: C14_16  and  C16_18 
REMARK    7  A    between atoms: C16_18  and  C17_19 
REMARK    8  A    between atoms: C18_20  and  O2_21 
REMARK    9  A    between atoms: C22_27  and  O3_28 
REMARK   10  A    between atoms: C26_35  and  O6_36 
ROOT
HETATM    1  C12 UNL     1     -87.496 -12.087   8.182  1.00  0.00     0.025 C 
HETATM    2  C13 UNL     1     -86.291 -12.927   8.529  1.00  0.00     0.027 C 
HETATM    3  C26 UNL     1     -85.503 -11.891   7.669  1.00  0.00     0.131 C 
HETATM    4  C27 UNL     1     -86.835 -11.798   6.854  1.00  0.00    -0.014 C 
HETATM    5  C28 UNL     1     -87.112 -10.457   6.275  1.00  0.00     0.018 C 
HETATM    6  C29 UNL     1     -86.781 -12.952   5.867  1.00  0.00     0.018 C 
ENDROOT
BRANCH   2   7
HETATM    7  C14 UNL     1     -85.798 -12.804   9.962  1.00  0.00    -0.007 C 
HETATM    8  C15 UNL     1     -84.313 -12.924   9.966  1.00  0.00     0.011 C 
BRANCH   7   9
HETATM    9  C16 UNL     1     -86.549 -13.708  10.886  1.00  0.00     0.052 C 
BRANCH   9  10
HETATM   10  C17 UNL     1     -86.892 -13.089  12.170  1.00  0.00     0.052 A 
HETATM   11  C18 UNL     1     -86.015 -13.051  13.224  1.00  0.00     0.091 A 
HETATM   12  C19 UNL     1     -86.403 -12.373  14.379  1.00  0.00     0.035 A 
HETATM   13  C20 UNL     1     -85.576 -12.286  15.486  1.00  0.00     0.062 A 
HETATM   14  C24 UNL     1     -87.646 -11.788  14.381  1.00  0.00     0.095 A 
HETATM   15  C21 UNL     1     -85.945 -11.620  16.632  1.00  0.00     0.150 A 
HETATM   16  F1  UNL     1     -85.145 -11.526  17.725  1.00  0.00    -0.203 F 
HETATM   17  C22 UNL     1     -87.191 -11.033  16.638  1.00  0.00     0.106 A 
HETATM   18  C23 UNL     1     -88.023 -11.113  15.543  1.00  0.00     0.078 A 
HETATM   19  O4  UNL     1     -88.447 -11.857  13.345  1.00  0.00    -0.274 OA
HETATM   20  C25 UNL     1     -88.146 -12.473  12.237  1.00  0.00     0.297 A 
HETATM   21  O5  UNL     1     -88.937 -12.522  11.259  1.00  0.00    -0.259 OA
BRANCH  11  22
HETATM   22  O2  UNL     1     -84.778 -13.633  13.254  1.00  0.00    -0.359 OA
ATOM     23  H2  UNL     1     -84.330 -13.943  14.032  1.00  0.00     0.217 HD
ENDBRANCH  11  22
BRANCH  17  24
HETATM   24  O3  UNL     1     -87.642 -10.336  17.767  1.00  0.00    -0.358 OA
ATOM     25  H3  UNL     1     -87.311  -9.467  17.961  1.00  0.00     0.217 HD
ENDBRANCH  17  24
ENDBRANCH   9  10
ENDBRANCH   7   9
ENDBRANCH   2   7
BRANCH   1  26
HETATM   26  C11 UNL     1     -88.812 -12.658   8.122  1.00  0.00    -0.025 C 
HETATM   27  C10 UNL     1     -89.226 -13.898   8.331  1.00  0.00    -0.029 C 
BRANCH  27  28
HETATM   28  C9  UNL     1     -90.687 -14.243   8.209  1.00  0.00     0.036 C 
BRANCH  28  29
HETATM   29  C8  UNL     1     -91.295 -14.541   9.548  1.00  0.00     0.021 C 
HETATM   30  C2  UNL     1     -92.396 -13.569   9.772  1.00  0.00    -0.082 C 
HETATM   31  C1  UNL     1     -92.209 -12.301   9.532  1.00  0.00     0.015 C 
HETATM   32  C3  UNL     1     -93.730 -14.025  10.278  1.00  0.00     0.065 C 
HETATM   33  C4  UNL     1     -93.423 -15.019  11.378  1.00  0.00     0.122 C 
HETATM   34  C5  UNL     1     -92.736 -16.200  10.810  1.00  0.00     0.037 C 
HETATM   35  C6  UNL     1     -91.779 -15.960   9.680  1.00  0.00    -0.008 C 
HETATM   36  C7  UNL     1     -92.353 -16.539   8.428  1.00  0.00     0.011 C 
BRANCH  33  37
HETATM   37  O1  UNL     1     -92.695 -14.371  12.372  1.00  0.00    -0.395 OA
ATOM     38  H1  UNL     1     -92.008 -14.953  12.674  1.00  0.00     0.210 HD
ENDBRANCH  33  37
ENDBRANCH  28  29
ENDBRANCH  27  28
ENDBRANCH   1  26
BRANCH   3  39
HETATM   39  O6  UNL     1     -85.305 -10.718   8.338  1.00  0.00    -0.394 OA
ATOM     40  H6  UNL     1     -84.444 -10.356   8.170  1.00  0.00     0.210 HD
ENDBRANCH   3  39
TORSDOF 10
ENDMDL
MODEL 5
REMARK VINA RESULT: -8.961735614      1.836      2.272
REMARK  10 active torsions:
REMARK  status: ('A' for Active; 'I' for Inactive)
REMARK    1  A    between atoms: C4_4  and  O1_5 
REMARK    2  A    between atoms: C8_10  and  C9_11 
REMARK    3  A    between atoms: C9_11  and  C10_12 
REMARK    4  A    between atoms: C11_13  and  C12_14 
REMARK    5  A    between atoms: C13_15  and  C14_16 
REMARK    6  A    between atoms: C14_16  and  C16_18 
REMARK    7  A    between atoms: C16_18  and  C17_19 
REMARK    8  A    between atoms: C18_20  and  O2_21 
REMARK    9  A    between atoms: C22_27  and  O3_28 
REMARK   10  A    between atoms: C26_35  and  O6_36 
ROOT
HETATM    1  C12 UNL     1     -87.822 -12.225   8.174  1.00  0.00     0.025 C 
HETATM    2  C13 UNL     1     -86.577 -12.934   8.651  1.00  0.00     0.027 C 
HETATM    3  C26 UNL     1     -85.860 -12.122   7.529  1.00  0.00     0.131 C 
HETATM    4  C27 UNL     1     -87.230 -12.253   6.784  1.00  0.00    -0.014 C 
HETATM    5  C28 UNL     1     -87.571 -11.097   5.915  1.00  0.00     0.018 C 
HETATM    6  C29 UNL     1     -87.185 -13.609   6.102  1.00  0.00     0.018 C 
ENDROOT
BRANCH   2   7
HETATM    7  C14 UNL     1     -86.025 -12.461   9.986  1.00  0.00    -0.007 C 
HETATM    8  C15 UNL     1     -85.685 -13.654  10.810  1.00  0.00     0.011 C 
BRANCH   7   9
HETATM    9  C16 UNL     1     -86.908 -11.435  10.620  1.00  0.00     0.052 C 
BRANCH   9  10
HETATM   10  C17 UNL     1     -86.408 -10.933  11.904  1.00  0.00     0.052 A 
HETATM   11  C18 UNL     1     -87.004 -11.251  13.097  1.00  0.00     0.091 A 
HETATM   12  C19 UNL     1     -86.410 -10.790  14.272  1.00  0.00     0.035 A 
HETATM   13  C20 UNL     1     -86.947 -11.068  15.518  1.00  0.00     0.062 A 
HETATM   14  C24 UNL     1     -85.263 -10.044  14.150  1.00  0.00     0.095 A 
HETATM   15  C21 UNL     1     -86.372 -10.621  16.685  1.00  0.00     0.150 A 
HETATM   16  F1  UNL     1     -86.886 -10.885  17.914  1.00  0.00    -0.203 F 
HETATM   17  C22 UNL     1     -85.222  -9.871  16.567  1.00  0.00     0.106 A 
HETATM   18  C23 UNL     1     -84.679  -9.588  15.333  1.00  0.00     0.078 A 
HETATM   19  O4  UNL     1     -84.736  -9.768  12.981  1.00  0.00    -0.274 OA
HETATM   20  C25 UNL     1     -85.239 -10.167  11.848  1.00  0.00     0.297 A 
HETATM   21  O5  UNL     1     -84.709  -9.885  10.741  1.00  0.00    -0.259 OA
BRANCH  11  22
HETATM   22  O2  UNL     1     -88.149 -11.981  13.248  1.00  0.00    -0.359 OA
ATOM     23  H2  UNL     1     -88.762 -11.910  13.971  1.00  0.00     0.217 HD
ENDBRANCH  11  22
BRANCH  17  24
HETATM   24  O3  UNL     1     -84.575  -9.377  17.708  1.00  0.00    -0.358 OA
ATOM     25  H3  UNL     1     -83.639  -9.218  17.699  1.00  0.00     0.217 HD
ENDBRANCH  17  24
ENDBRANCH   9  10
ENDBRANCH   7   9
ENDBRANCH   2   7
BRANCH   1  26
HETATM   26  C11 UNL     1     -89.122 -12.817   8.320  1.00  0.00    -0.025 C 
HETATM   27  C10 UNL     1     -90.303 -12.430   7.865  1.00  0.00    -0.029 C 
BRANCH  27  28
HETATM   28  C9  UNL     1     -91.535 -13.244   8.158  1.00  0.00     0.036 C 
BRANCH  28  29
HETATM   29  C8  UNL     1     -91.529 -13.764   9.566  1.00  0.00     0.021 C 
HETATM   30  C2  UNL     1     -92.894 -13.580  10.122  1.00  0.00    -0.082 C 
HETATM   31  C1  UNL     1     -93.518 -12.446   9.966  1.00  0.00     0.015 C 
HETATM   32  C3  UNL     1     -93.571 -14.686  10.872  1.00  0.00     0.065 C 
HETATM   33  C4  UNL     1     -92.506 -15.269  11.776  1.00  0.00     0.122 C 
HETATM   34  C5  UNL     1     -91.432 -15.879  10.959  1.00  0.00     0.037 C 
HETATM   35  C6  UNL     1     -91.080 -15.197   9.670  1.00  0.00    -0.008 C 
HETATM   36  C7  UNL     1     -91.507 -16.065   8.532  1.00  0.00     0.011 C 
BRANCH  33  37
HETATM   37  O1  UNL     1     -92.059 -14.271  12.637  1.00  0.00    -0.395 OA
ATOM     38  H1  UNL     1     -91.261 -14.569  13.058  1.00  0.00     0.210 HD
ENDBRANCH  33  37
ENDBRANCH  28  29
ENDBRANCH  27  28
ENDBRANCH   1  26
BRANCH   3  39
HETATM   39  O6  UNL     1     -85.668 -10.820   7.887  1.00  0.00    -0.394 OA
ATOM     40  H6  UNL     1     -86.242 -10.558   8.597  1.00  0.00     0.210 HD
ENDBRANCH   3  39
TORSDOF 10
ENDMDL
