MODEL 1
REMARK VINA RESULT: -9.856655567      0.000      0.000
REMARK  6 active torsions:
REMARK  status: ('A' for Active; 'I' for Inactive)
REMARK    1  A    between atoms: C5_6  and  C6_7 
REMARK    2  A    between atoms: C7_8  and  C8_9 
REMARK    3  A    between atoms: C12_15  and  C13_16 
REMARK    4  A    between atoms: C16_19  and  C17_20 
REMARK    5  A    between atoms: C25_33  and  C26_34 
REMARK    6  A    between atoms: C26_34  and  N4_35 
ROOT
HETATM    1  C1  UNL     1     -84.956  -9.717  12.965  1.00  0.00     0.210 C 
HETATM    2  O1  UNL     1     -85.916 -10.401  12.504  1.00  0.00    -0.353 OA
HETATM    3  C2  UNL     1     -86.832 -11.187  12.046  1.00  0.00     0.106 A 
HETATM    4  C3  UNL     1     -86.647 -12.590  11.958  1.00  0.00     0.041 A 
HETATM    5  C4  UNL     1     -87.641 -13.396  11.469  1.00  0.00     0.015 A 
HETATM    6  C5  UNL     1     -88.849 -12.904  11.043  1.00  0.00    -0.017 A 
HETATM    7  C28 UNL     1     -89.048 -11.548  11.121  1.00  0.00     0.057 A 
HETATM    8  C29 UNL     1     -88.081 -10.712  11.603  1.00  0.00     0.150 A 
HETATM    9  F1  UNL     1     -88.273  -9.377  11.681  1.00  0.00    -0.203 F 
ENDROOT
BRANCH   6  10
HETATM   10  C6  UNL     1     -89.846 -13.817  10.539  1.00  0.00     0.045 A 
HETATM   11  C7  UNL     1     -90.030 -13.942   9.180  1.00  0.00     0.058 A 
HETATM   12  N3  UNL     1     -90.967 -14.801   8.748  1.00  0.00    -0.343 N 
HETATM   13  C25 UNL     1     -91.718 -15.527   9.578  1.00  0.00     0.109 A 
ATOM     14  H3  UNL     1     -91.111 -14.903   7.744  1.00  0.00     0.167 HD
HETATM   15  N5  UNL     1     -91.569 -15.435  10.909  1.00  0.00    -0.330 N 
HETATM   16  C27 UNL     1     -90.642 -14.589  11.377  1.00  0.00     0.113 A 
ATOM     17  H5  UNL     1     -92.142 -15.991  11.543  1.00  0.00     0.168 HD
HETATM   18  N6  UNL     1     -90.467 -14.469  12.640  1.00  0.00    -0.385 N 
ATOM     19  H62 UNL     1     -89.761 -13.825  12.995  1.00  0.00     0.157 HD
ATOM     20  H61 UNL     1     -91.052 -15.035  13.255  1.00  0.00     0.157 HD
BRANCH  11  21
HETATM   21  C8  UNL     1     -89.280 -13.215   8.191  1.00  0.00    -0.006 A 
HETATM   22  C9  UNL     1     -89.918 -12.534   7.192  1.00  0.00     0.016 A 
HETATM   23  C10 UNL     1     -89.173 -11.847   6.261  1.00  0.00     0.033 A 
HETATM   24  C11 UNL     1     -87.796 -11.830   6.312  1.00  0.00     0.060 A 
HETATM   25  N1  UNL     1     -86.823 -11.258   5.556  1.00  0.00    -0.340 N 
HETATM   26  C23 UNL     1     -87.142 -12.515   7.316  1.00  0.00     0.061 A 
HETATM   27  C12 UNL     1     -85.625 -11.556   6.042  1.00  0.00     0.116 A 
ATOM     28  H1  UNL     1     -86.990 -10.681   4.731  1.00  0.00     0.167 HD
HETATM   29  N2  UNL     1     -85.810 -12.328   7.125  1.00  0.00    -0.340 N 
ATOM     30  H2  UNL     1     -85.069 -12.713   7.711  1.00  0.00     0.167 HD
HETATM   31  C24 UNL     1     -87.910 -13.199   8.244  1.00  0.00     0.045 A 
BRANCH  27  32
HETATM   32  C13 UNL     1     -84.353 -11.112   5.484  1.00  0.00     0.008 A 
HETATM   33  C14 UNL     1     -84.175 -10.916   4.132  1.00  0.00     0.016 A 
HETATM   34  C15 UNL     1     -82.976 -10.497   3.606  1.00  0.00     0.015 A 
HETATM   35  C16 UNL     1     -81.887 -10.251   4.427  1.00  0.00    -0.002 A 
HETATM   36  C21 UNL     1     -82.054 -10.444   5.784  1.00  0.00     0.015 A 
HETATM   37  C22 UNL     1     -83.258 -10.862   6.286  1.00  0.00     0.016 A 
BRANCH  35  38
HETATM   38  C17 UNL     1     -80.607  -9.802   3.872  1.00  0.00     0.085 A 
HETATM   39  C18 UNL     1     -80.336  -8.519   3.469  1.00  0.00     0.040 A 
HETATM   40  C19 UNL     1     -79.014  -8.532   3.009  1.00  0.00     0.027 A 
HETATM   41  C20 UNL     1     -78.610  -9.845   3.183  1.00  0.00     0.142 A 
HETATM   42  O2  UNL     1     -79.574 -10.574   3.696  1.00  0.00    -0.322 OA
ENDBRANCH  35  38
ENDBRANCH  27  32
ENDBRANCH  11  21
BRANCH  13  43
HETATM   43  C26 UNL     1     -92.748 -16.467   9.023  1.00  0.00     0.305 C 
BRANCH  43  44
HETATM   44  N4  UNL     1     -92.259 -17.054   7.788  1.00  0.00    -0.073 N 
ATOM     45  H43 UNL     1     -92.994 -17.145   7.087  1.00  0.00     0.274 HD
ATOM     46  H42 UNL     1     -91.647 -16.418   7.276  1.00  0.00     0.274 HD
ATOM     47  H41 UNL     1     -91.806 -17.945   7.988  1.00  0.00     0.274 HD
ENDBRANCH  43  44
ENDBRANCH  13  43
ENDBRANCH   6  10
TORSDOF 6
ENDMDL
MODEL 2
REMARK VINA RESULT: -9.679332870      3.769      6.751
REMARK  6 active torsions:
REMARK  status: ('A' for Active; 'I' for Inactive)
REMARK    1  A    between atoms: C5_6  and  C6_7 
REMARK    2  A    between atoms: C7_8  and  C8_9 
REMARK    3  A    between atoms: C12_15  and  C13_16 
REMARK    4  A    between atoms: C16_19  and  C17_20 
REMARK    5  A    between atoms: C25_33  and  C26_34 
REMARK    6  A    between atoms: C26_34  and  N4_35 
ROOT
HETATM    1  C1  UNL     1     -84.911 -11.368   4.812  1.00  0.00     0.210 C 
HETATM    2  O1  UNL     1     -85.762 -11.729   5.677  1.00  0.00    -0.353 OA
HETATM    3  C2  UNL     1     -86.551 -12.152   6.607  1.00  0.00     0.106 A 
HETATM    4  C3  UNL     1     -86.095 -12.984   7.661  1.00  0.00     0.041 A 
HETATM    5  C4  UNL     1     -86.958 -13.415   8.634  1.00  0.00     0.015 A 
HETATM    6  C5  UNL     1     -88.288 -13.075   8.644  1.00  0.00    -0.017 A 
HETATM    7  C28 UNL     1     -88.749 -12.270   7.634  1.00  0.00     0.057 A 
HETATM    8  C29 UNL     1     -87.919 -11.820   6.646  1.00  0.00     0.150 A 
HETATM    9  F1  UNL     1     -88.368 -11.027   5.648  1.00  0.00    -0.203 F 
ENDROOT
BRANCH   6  10
HETATM   10  C6  UNL     1     -89.134 -13.569   9.704  1.00  0.00     0.045 A 
HETATM   11  C7  UNL     1     -89.077 -12.984  10.949  1.00  0.00     0.058 A 
HETATM   12  N3  UNL     1     -89.878 -13.471  11.911  1.00  0.00    -0.343 N 
HETATM   13  C25 UNL     1     -90.715 -14.489  11.705  1.00  0.00     0.109 A 
ATOM     14  H3  UNL     1     -89.845 -13.045  12.836  1.00  0.00     0.167 HD
HETATM   15  N5  UNL     1     -90.801 -15.086  10.505  1.00  0.00    -0.330 N 
HETATM   16  C27 UNL     1     -90.017 -14.626   9.522  1.00  0.00     0.113 A 
ATOM     17  H5  UNL     1     -91.442 -15.864  10.349  1.00  0.00     0.168 HD
HETATM   18  N6  UNL     1     -90.067 -15.167   8.362  1.00  0.00    -0.385 N 
ATOM     19  H62 UNL     1     -89.470 -14.816   7.613  1.00  0.00     0.157 HD
ATOM     20  H61 UNL     1     -90.715 -15.943   8.228  1.00  0.00     0.157 HD
BRANCH  11  21
HETATM   21  C8  UNL     1     -88.218 -11.882  11.288  1.00  0.00    -0.006 A 
HETATM   22  C9  UNL     1     -88.699 -10.603  11.313  1.00  0.00     0.016 A 
HETATM   23  C10 UNL     1     -87.853  -9.569  11.642  1.00  0.00     0.033 A 
HETATM   24  C11 UNL     1     -86.527  -9.794  11.947  1.00  0.00     0.060 A 
HETATM   25  N1  UNL     1     -85.484  -8.997  12.297  1.00  0.00    -0.340 N 
HETATM   26  C23 UNL     1     -86.031 -11.081  11.923  1.00  0.00     0.061 A 
HETATM   27  C12 UNL     1     -84.390  -9.726  12.486  1.00  0.00     0.116 A 
ATOM     28  H1  UNL     1     -85.533  -7.984  12.400  1.00  0.00     0.167 HD
HETATM   29  N2  UNL     1     -84.716 -11.009  12.259  1.00  0.00    -0.340 N 
ATOM     30  H2  UNL     1     -84.079 -11.802  12.328  1.00  0.00     0.167 HD
HETATM   31  C24 UNL     1     -86.899 -12.108  11.591  1.00  0.00     0.045 A 
BRANCH  27  32
HETATM   32  C13 UNL     1     -83.084  -9.204  12.871  1.00  0.00     0.008 A 
HETATM   33  C14 UNL     1     -81.912  -9.709  12.352  1.00  0.00     0.016 A 
HETATM   34  C15 UNL     1     -80.681  -9.216  12.714  1.00  0.00     0.015 A 
HETATM   35  C16 UNL     1     -80.571  -8.179  13.626  1.00  0.00    -0.002 A 
HETATM   36  C21 UNL     1     -81.740  -7.665  14.153  1.00  0.00     0.015 A 
HETATM   37  C22 UNL     1     -82.955  -8.172  13.777  1.00  0.00     0.016 A 
BRANCH  35  38
HETATM   38  C17 UNL     1     -79.261  -7.648  14.014  1.00  0.00     0.085 A 
HETATM   39  C18 UNL     1     -78.600  -6.640  13.360  1.00  0.00     0.040 A 
HETATM   40  C19 UNL     1     -77.400  -6.452  14.056  1.00  0.00     0.027 A 
HETATM   41  C20 UNL     1     -77.457  -7.381  15.081  1.00  0.00     0.142 A 
HETATM   42  O2  UNL     1     -78.570  -8.075  15.031  1.00  0.00    -0.322 OA
ENDBRANCH  35  38
ENDBRANCH  27  32
ENDBRANCH  11  21
BRANCH  13  43
HETATM   43  C26 UNL     1     -91.581 -14.981  12.828  1.00  0.00     0.305 C 
BRANCH  43  44
HETATM   44  N4  UNL     1     -91.193 -14.329  14.066  1.00  0.00    -0.073 N 
ATOM     45  H43 UNL     1     -90.771 -13.414  13.903  1.00  0.00     0.274 HD
ATOM     46  H42 UNL     1     -92.000 -14.022  14.609  1.00  0.00     0.274 HD
ATOM     47  H41 UNL     1     -90.581 -14.945  14.601  1.00  0.00     0.274 HD
ENDBRANCH  43  44
ENDBRANCH  13  43
ENDBRANCH   6  10
TORSDOF 6
ENDMDL
MODEL 3
REMARK VINA RESULT: -9.566364463      3.449      7.370
REMARK  6 active torsions:
REMARK  status: ('A' for Active; 'I' for Inactive)
REMARK    1  A    between atoms: C5_6  and  C6_7 
REMARK    2  A    between atoms: C7_8  and  C8_9 
REMARK    3  A    between atoms: C12_15  and  C13_16 
REMARK    4  A    between atoms: C16_19  and  C17_20 
REMARK    5  A    between atoms: C25_33  and  C26_34 
REMARK    6  A    between atoms: C26_34  and  N4_35 
ROOT
HETATM    1  C1  UNL     1     -83.971 -11.491   4.477  1.00  0.00     0.210 C 
HETATM    2  O1  UNL     1     -85.039 -11.595   5.150  1.00  0.00    -0.353 OA
HETATM    3  C2  UNL     1     -86.105 -11.805   5.847  1.00  0.00     0.106 A 
HETATM    4  C3  UNL     1     -86.420 -13.083   6.374  1.00  0.00     0.041 A 
HETATM    5  C4  UNL     1     -87.560 -13.273   7.111  1.00  0.00     0.015 A 
HETATM    6  C5  UNL     1     -88.445 -12.259   7.376  1.00  0.00    -0.017 A 
HETATM    7  C28 UNL     1     -88.157 -11.014   6.876  1.00  0.00     0.057 A 
HETATM    8  C29 UNL     1     -87.032 -10.785   6.137  1.00  0.00     0.150 A 
HETATM    9  F1  UNL     1     -86.744  -9.561   5.641  1.00  0.00    -0.203 F 
ENDROOT
BRANCH   6  10
HETATM   10  C6  UNL     1     -89.624 -12.538   8.161  1.00  0.00     0.045 A 
HETATM   11  C7  UNL     1     -89.512 -12.695   9.524  1.00  0.00     0.058 A 
HETATM   12  N3  UNL     1     -90.630 -12.955  10.222  1.00  0.00    -0.343 N 
HETATM   13  C25 UNL     1     -91.828 -13.066   9.647  1.00  0.00     0.109 A 
ATOM     14  H3  UNL     1     -90.559 -13.072  11.232  1.00  0.00     0.167 HD
HETATM   15  N5  UNL     1     -91.980 -12.919   8.321  1.00  0.00    -0.330 N 
HETATM   16  C27 UNL     1     -90.886 -12.658   7.594  1.00  0.00     0.113 A 
ATOM     17  H5  UNL     1     -92.897 -13.003   7.883  1.00  0.00     0.168 HD
HETATM   18  N6  UNL     1     -90.985 -12.511   6.325  1.00  0.00    -0.385 N 
ATOM     19  H62 UNL     1     -90.152 -12.312   5.771  1.00  0.00     0.157 HD
ATOM     20  H61 UNL     1     -91.912 -12.599   5.908  1.00  0.00     0.157 HD
BRANCH  11  21
HETATM   21  C8  UNL     1     -88.276 -12.595  10.253  1.00  0.00    -0.006 A 
HETATM   22  C9  UNL     1     -87.503 -13.701  10.472  1.00  0.00     0.016 A 
HETATM   23  C10 UNL     1     -86.325 -13.573  11.172  1.00  0.00     0.033 A 
HETATM   24  C11 UNL     1     -85.905 -12.354  11.658  1.00  0.00     0.060 A 
HETATM   25  N1  UNL     1     -84.823 -11.932  12.363  1.00  0.00    -0.340 N 
HETATM   26  C23 UNL     1     -86.679 -11.231  11.443  1.00  0.00     0.061 A 
HETATM   27  C12 UNL     1     -84.897 -10.625  12.584  1.00  0.00     0.116 A 
ATOM     28  H1  UNL     1     -84.062 -12.534  12.677  1.00  0.00     0.167 HD
HETATM   29  N2  UNL     1     -86.035 -10.185  12.022  1.00  0.00    -0.340 N 
ATOM     30  H2  UNL     1     -86.362  -9.219  12.030  1.00  0.00     0.167 HD
HETATM   31  C24 UNL     1     -87.860 -11.380  10.735  1.00  0.00     0.045 A 
BRANCH  27  32
HETATM   32  C13 UNL     1     -83.909  -9.835  13.309  1.00  0.00     0.008 A 
HETATM   33  C14 UNL     1     -84.082  -9.477  14.629  1.00  0.00     0.016 A 
HETATM   34  C15 UNL     1     -83.150  -8.733  15.312  1.00  0.00     0.015 A 
HETATM   35  C16 UNL     1     -81.986  -8.309  14.691  1.00  0.00    -0.002 A 
HETATM   36  C21 UNL     1     -81.802  -8.661  13.369  1.00  0.00     0.015 A 
HETATM   37  C22 UNL     1     -82.744  -9.404  12.708  1.00  0.00     0.016 A 
BRANCH  35  38
HETATM   38  C17 UNL     1     -80.988  -7.517  15.417  1.00  0.00     0.085 A 
HETATM   39  C18 UNL     1     -81.172  -6.980  16.666  1.00  0.00     0.040 A 
HETATM   40  C19 UNL     1     -79.983  -6.310  16.975  1.00  0.00     0.027 A 
HETATM   41  C20 UNL     1     -79.184  -6.512  15.862  1.00  0.00     0.142 A 
HETATM   42  O2  UNL     1     -79.806  -7.230  14.955  1.00  0.00    -0.322 OA
ENDBRANCH  35  38
ENDBRANCH  27  32
ENDBRANCH  11  21
BRANCH  13  43
HETATM   43  C26 UNL     1     -93.035 -13.359  10.491  1.00  0.00     0.305 C 
BRANCH  43  44
HETATM   44  N4  UNL     1     -92.678 -13.288  11.896  1.00  0.00    -0.073 N 
ATOM     45  H43 UNL     1     -93.000 -12.425  12.333  1.00  0.00     0.274 HD
ATOM     46  H42 UNL     1     -93.212 -13.947  12.463  1.00  0.00     0.274 HD
ATOM     47  H41 UNL     1     -91.672 -13.419  12.000  1.00  0.00     0.274 HD
ENDBRANCH  43  44
ENDBRANCH  13  43
ENDBRANCH   6  10
TORSDOF 6
ENDMDL
MODEL 4
REMARK VINA RESULT: -9.555436080      3.495      7.522
REMARK  6 active torsions:
REMARK  status: ('A' for Active; 'I' for Inactive)
REMARK    1  A    between atoms: C5_6  and  C6_7 
REMARK    2  A    between atoms: C7_8  and  C8_9 
REMARK    3  A    between atoms: C12_15  and  C13_16 
REMARK    4  A    between atoms: C16_19  and  C17_20 
REMARK    5  A    between atoms: C25_33  and  C26_34 
REMARK    6  A    between atoms: C26_34  and  N4_35 
ROOT
HETATM    1  C1  UNL     1     -84.965 -11.363   5.305  1.00  0.00     0.210 C 
HETATM    2  O1  UNL     1     -85.890 -11.801   6.050  1.00  0.00    -0.353 OA
HETATM    3  C2  UNL     1     -86.758 -12.303   6.863  1.00  0.00     0.106 A 
HETATM    4  C3  UNL     1     -86.387 -13.176   7.916  1.00  0.00     0.041 A 
HETATM    5  C4  UNL     1     -87.333 -13.691   8.763  1.00  0.00     0.015 A 
HETATM    6  C5  UNL     1     -88.668 -13.400   8.642  1.00  0.00    -0.017 A 
HETATM    7  C28 UNL     1     -89.048 -12.556   7.629  1.00  0.00     0.057 A 
HETATM    8  C29 UNL     1     -88.134 -12.023   6.765  1.00  0.00     0.150 A 
HETATM    9  F1  UNL     1     -88.503 -11.192   5.765  1.00  0.00    -0.203 F 
ENDROOT
BRANCH   6  10
HETATM   10  C6  UNL     1     -89.605 -13.982   9.574  1.00  0.00     0.045 A 
HETATM   11  C7  UNL     1     -89.725 -13.452  10.839  1.00  0.00     0.058 A 
HETATM   12  N3  UNL     1     -90.605 -14.020  11.679  1.00  0.00    -0.343 N 
HETATM   13  C25 UNL     1     -91.356 -15.067  11.335  1.00  0.00     0.109 A 
ATOM     14  H3  UNL     1     -90.704 -13.636  12.618  1.00  0.00     0.167 HD
HETATM   15  N5  UNL     1     -91.270 -15.613  10.111  1.00  0.00    -0.330 N 
HETATM   16  C27 UNL     1     -90.403 -15.071   9.246  1.00  0.00     0.113 A 
ATOM     17  H5  UNL     1     -91.846 -16.413   9.849  1.00  0.00     0.168 HD
HETATM   18  N6  UNL     1     -90.288 -15.560   8.068  1.00  0.00    -0.385 N 
ATOM     19  H62 UNL     1     -89.627 -15.148   7.410  1.00  0.00     0.157 HD
ATOM     20  H61 UNL     1     -90.873 -16.360   7.828  1.00  0.00     0.157 HD
BRANCH  11  21
HETATM   21  C8  UNL     1     -88.971 -12.326  11.320  1.00  0.00    -0.006 A 
HETATM   22  C9  UNL     1     -89.390 -11.048  11.074  1.00  0.00     0.016 A 
HETATM   23  C10 UNL     1     -88.648  -9.991  11.549  1.00  0.00     0.033 A 
HETATM   24  C11 UNL     1     -87.489 -10.191  12.268  1.00  0.00     0.060 A 
HETATM   25  N1  UNL     1     -86.575  -9.369  12.847  1.00  0.00    -0.340 N 
HETATM   26  C23 UNL     1     -87.057 -11.477  12.522  1.00  0.00     0.061 A 
HETATM   27  C12 UNL     1     -85.620 -10.081  13.433  1.00  0.00     0.116 A 
ATOM     28  H1  UNL     1     -86.617  -8.350  12.833  1.00  0.00     0.167 HD
HETATM   29  N2  UNL     1     -85.907 -11.378  13.239  1.00  0.00    -0.340 N 
ATOM     30  H2  UNL     1     -85.351 -12.164  13.576  1.00  0.00     0.167 HD
HETATM   31  C24 UNL     1     -87.819 -12.527  12.036  1.00  0.00     0.045 A 
BRANCH  27  32
HETATM   32  C13 UNL     1     -84.477  -9.530  14.151  1.00  0.00     0.008 A 
HETATM   33  C14 UNL     1     -83.433  -8.908  13.500  1.00  0.00     0.016 A 
HETATM   34  C15 UNL     1     -82.357  -8.387  14.178  1.00  0.00     0.015 A 
HETATM   35  C16 UNL     1     -82.279  -8.470  15.559  1.00  0.00    -0.002 A 
HETATM   36  C21 UNL     1     -83.319  -9.091  16.222  1.00  0.00     0.015 A 
HETATM   37  C22 UNL     1     -84.382  -9.602  15.526  1.00  0.00     0.016 A 
BRANCH  35  38
HETATM   38  C17 UNL     1     -81.133  -7.915  16.286  1.00  0.00     0.085 A 
HETATM   39  C18 UNL     1     -81.078  -7.744  17.646  1.00  0.00     0.040 A 
HETATM   40  C19 UNL     1     -79.819  -7.192  17.913  1.00  0.00     0.027 A 
HETATM   41  C20 UNL     1     -79.229  -7.082  16.666  1.00  0.00     0.142 A 
HETATM   42  O2  UNL     1     -80.030  -7.518  15.721  1.00  0.00    -0.322 OA
ENDBRANCH  35  38
ENDBRANCH  27  32
ENDBRANCH  11  21
BRANCH  13  43
HETATM   43  C26 UNL     1     -92.320 -15.652  12.327  1.00  0.00     0.305 C 
BRANCH  43  44
HETATM   44  N4  UNL     1     -93.538 -16.054  11.646  1.00  0.00    -0.073 N 
ATOM     45  H43 UNL     1     -94.240 -16.412  12.293  1.00  0.00     0.274 HD
ATOM     46  H42 UNL     1     -94.061 -15.254  11.290  1.00  0.00     0.274 HD
ATOM     47  H41 UNL     1     -93.313 -16.726  10.912  1.00  0.00     0.274 HD
ENDBRANCH  43  44
ENDBRANCH  13  43
ENDBRANCH   6  10
TORSDOF 6
ENDMDL
MODEL 5
REMARK VINA RESULT: -9.410890043      5.740     11.666
REMARK  6 active torsions:
REMARK  status: ('A' for Active; 'I' for Inactive)
REMARK    1  A    between atoms: C5_6  and  C6_7 
REMARK    2  A    between atoms: C7_8  and  C8_9 
REMARK    3  A    between atoms: C12_15  and  C13_16 
REMARK    4  A    between atoms: C16_19  and  C17_20 
REMARK    5  A    between atoms: C25_33  and  C26_34 
REMARK    6  A    between atoms: C26_34  and  N4_35 
ROOT
HETATM    1  C1  UNL     1     -80.487 -11.552   8.266  1.00  0.00     0.210 C 
HETATM    2  O1  UNL     1     -80.501 -10.817   9.297  1.00  0.00    -0.353 OA
HETATM    3  C2  UNL     1     -80.466 -10.148  10.401  1.00  0.00     0.106 A 
HETATM    4  C3  UNL     1     -79.875 -10.670  11.579  1.00  0.00     0.041 A 
HETATM    5  C4  UNL     1     -79.853  -9.934  12.735  1.00  0.00     0.015 A 
HETATM    6  C5  UNL     1     -80.391  -8.674  12.818  1.00  0.00    -0.017 A 
HETATM    7  C28 UNL     1     -80.967  -8.151  11.688  1.00  0.00     0.057 A 
HETATM    8  C29 UNL     1     -81.008  -8.854  10.517  1.00  0.00     0.150 A 
HETATM    9  F1  UNL     1     -81.575  -8.343   9.402  1.00  0.00    -0.203 F 
ENDROOT
BRANCH   6  10
HETATM   10  C6  UNL     1     -80.329  -7.961  14.071  1.00  0.00     0.045 A 
HETATM   11  C7  UNL     1     -81.294  -8.182  15.028  1.00  0.00     0.058 A 
HETATM   12  N3  UNL     1     -81.205  -7.500  16.181  1.00  0.00    -0.343 N 
HETATM   13  C25 UNL     1     -80.228  -6.627  16.429  1.00  0.00     0.109 A 
ATOM     14  H3  UNL     1     -81.914  -7.657  16.898  1.00  0.00     0.167 HD
HETATM   15  N5  UNL     1     -79.267  -6.384  15.523  1.00  0.00    -0.330 N 
HETATM   16  C27 UNL     1     -79.324  -7.047  14.360  1.00  0.00     0.113 A 
ATOM     17  H5  UNL     1     -78.520  -5.717  15.713  1.00  0.00     0.168 HD
HETATM   18  N6  UNL     1     -78.428  -6.845  13.467  1.00  0.00    -0.385 N 
ATOM     19  H62 UNL     1     -78.471  -7.351  12.583  1.00  0.00     0.157 HD
ATOM     20  H61 UNL     1     -77.690  -6.174  13.679  1.00  0.00     0.157 HD
BRANCH  11  21
HETATM   21  C8  UNL     1     -82.391  -9.099  14.875  1.00  0.00    -0.006 A 
HETATM   22  C9  UNL     1     -82.352 -10.338  15.451  1.00  0.00     0.016 A 
HETATM   23  C10 UNL     1     -83.418 -11.193  15.287  1.00  0.00     0.033 A 
HETATM   24  C11 UNL     1     -84.527 -10.828  14.555  1.00  0.00     0.060 A 
HETATM   25  N1  UNL     1     -85.696 -11.440  14.230  1.00  0.00    -0.340 N 
HETATM   26  C23 UNL     1     -84.577  -9.579  13.969  1.00  0.00     0.061 A 
HETATM   27  C12 UNL     1     -86.446 -10.637  13.485  1.00  0.00     0.116 A 
ATOM     28  H1  UNL     1     -85.959 -12.383  14.517  1.00  0.00     0.167 HD
HETATM   29  N2  UNL     1     -85.767  -9.490  13.320  1.00  0.00    -0.340 N 
ATOM     30  H2  UNL     1     -86.093  -8.681  12.790  1.00  0.00     0.167 HD
HETATM   31  C24 UNL     1     -83.495  -8.734  14.147  1.00  0.00     0.045 A 
BRANCH  27  32
HETATM   32  C13 UNL     1     -87.764 -10.964  12.956  1.00  0.00     0.008 A 
HETATM   33  C14 UNL     1     -88.857 -11.153  13.775  1.00  0.00     0.016 A 
HETATM   34  C15 UNL     1     -90.099 -11.460  13.275  1.00  0.00     0.015 A 
HETATM   35  C16 UNL     1     -90.304 -11.593  11.911  1.00  0.00    -0.002 A 
HETATM   36  C21 UNL     1     -89.217 -11.405  11.081  1.00  0.00     0.015 A 
HETATM   37  C22 UNL     1     -87.988 -11.099  11.601  1.00  0.00     0.016 A 
BRANCH  35  38
HETATM   38  C17 UNL     1     -91.629 -11.918  11.373  1.00  0.00     0.085 A 
HETATM   39  C18 UNL     1     -91.871 -12.329  10.087  1.00  0.00     0.040 A 
HETATM   40  C19 UNL     1     -93.254 -12.529  10.002  1.00  0.00     0.027 A 
HETATM   41  C20 UNL     1     -93.718 -12.213  11.268  1.00  0.00     0.142 A 
HETATM   42  O2  UNL     1     -92.733 -11.855  12.059  1.00  0.00    -0.322 OA
ENDBRANCH  35  38
ENDBRANCH  27  32
ENDBRANCH  11  21
BRANCH  13  43
HETATM   43  C26 UNL     1     -80.192  -5.900  17.742  1.00  0.00     0.305 C 
BRANCH  43  44
HETATM   44  N4  UNL     1     -80.839  -4.607  17.601  1.00  0.00    -0.073 N 
ATOM     45  H43 UNL     1     -80.457  -4.068  16.824  1.00  0.00     0.274 HD
ATOM     46  H42 UNL     1     -81.797  -4.691  17.264  1.00  0.00     0.274 HD
ATOM     47  H41 UNL     1     -80.784  -4.099  18.484  1.00  0.00     0.274 HD
ENDBRANCH  43  44
ENDBRANCH  13  43
ENDBRANCH   6  10
TORSDOF 6
ENDMDL
