MODEL 1
REMARK VINA RESULT: -8.457134057      0.000      0.000
REMARK  10 active torsions:
REMARK  status: ('A' for Active; 'I' for Inactive)
REMARK    1  A    between atoms: C2_2  and  C3_3 
REMARK    2  A    between atoms: C3_3  and  N1_4 
REMARK    3  A    between atoms: C4_5  and  O1_6 
REMARK    4  A    between atoms: C5_8  and  O2_9 
REMARK    5  A    between atoms: C6_11  and  C7_12 
REMARK    6  A    between atoms: C7_12  and  O3_13 
REMARK    7  A    between atoms: C7_12  and  C8_15 
REMARK    8  A    between atoms: C15_23  and  C16_24 
REMARK    9  A    between atoms: C16_24  and  O4_25 
REMARK   10  A    between atoms: C17_27  and  C18_28 
ROOT
HETATM    1  N1  UNL     1     -91.446 -14.143  10.476  1.00  0.00    -0.324 N 
HETATM    2  C4  UNL     1     -91.999 -14.242  11.733  1.00  0.00     0.177 A 
HETATM    3  C5  UNL     1     -91.367 -13.362  12.579  1.00  0.00     0.128 A 
HETATM    4  C6  UNL     1     -90.393 -12.711  11.788  1.00  0.00     0.041 A 
HETATM    5  C17 UNL     1     -90.452 -13.209  10.525  1.00  0.00     0.066 A 
ENDROOT
BRANCH   4   6
HETATM    6  C7  UNL     1     -89.636 -11.499  12.243  1.00  0.00     0.190 C 
BRANCH   6   7
HETATM    7  O3  UNL     1     -90.366 -10.847  13.173  1.00  0.00    -0.386 OA
ATOM      8  H3  UNL     1     -89.929 -10.033  13.395  1.00  0.00     0.210 HD
ENDBRANCH   6   7
BRANCH   6   9
HETATM    9  C8  UNL     1     -88.187 -11.642  12.507  1.00  0.00    -0.010 A 
HETATM   10  C9  UNL     1     -87.703 -12.798  13.083  1.00  0.00    -0.051 A 
HETATM   11  C10 UNL     1     -88.517 -13.876  13.747  1.00  0.00     0.049 C 
HETATM   12  C11 UNL     1     -86.307 -12.965  13.278  1.00  0.00     0.027 A 
HETATM   13  C12 UNL     1     -85.422 -12.012  12.913  1.00  0.00     0.018 A 
HETATM   14 BR1  UNL     1     -83.545 -12.245  13.157  1.00  0.00    -0.051 Br
HETATM   15  C13 UNL     1     -85.913 -10.891  12.362  1.00  0.00    -0.036 A 
HETATM   16  C14 UNL     1     -84.877  -9.942  11.784  1.00  0.00     0.050 C 
HETATM   17  C15 UNL     1     -87.275 -10.630  12.137  1.00  0.00    -0.018 A 
BRANCH  17  18
HETATM   18  C16 UNL     1     -87.645  -9.320  11.607  1.00  0.00     0.204 C 
BRANCH  18  19
HETATM   19  O4  UNL     1     -88.275  -8.565  12.724  1.00  0.00    -0.396 OA
ATOM     20  H4  UNL     1     -88.384  -7.670  12.424  1.00  0.00     0.209 HD
ENDBRANCH  18  19
ENDBRANCH  17  18
ENDBRANCH   6   9
ENDBRANCH   4   6
BRANCH   3  21
HETATM   21  O2  UNL     1     -91.601 -13.128  13.925  1.00  0.00    -0.356 OA
ATOM     22  H2  UNL     1     -91.612 -12.302  14.395  1.00  0.00     0.218 HD
ENDBRANCH   3  21
BRANCH   5  23
HETATM   23  C18 UNL     1     -89.402 -13.106   9.433  1.00  0.00     0.033 A 
HETATM   24  C19 UNL     1     -89.809 -12.648   8.154  1.00  0.00     0.029 A 
HETATM   25  C20 UNL     1     -88.804 -12.456   7.282  1.00  0.00    -0.044 A 
HETATM   26  C21 UNL     1     -87.541 -12.707   7.680  1.00  0.00    -0.010 A 
HETATM   27  C24 UNL     1     -88.777 -11.929   5.837  1.00  0.00     0.040 C 
HETATM   28  S1  UNL     1     -87.752 -13.220   9.323  1.00  0.00    -0.092 SA
HETATM   29  C22 UNL     1     -86.556 -12.445   6.527  1.00  0.00     0.047 C 
HETATM   30  C23 UNL     1     -87.373 -11.482   5.661  1.00  0.00     0.010 C 
ENDBRANCH   5  23
BRANCH   2  31
HETATM   31  O1  UNL     1     -93.024 -15.095  12.054  1.00  0.00    -0.344 OA
ATOM     32  H1  UNL     1     -93.073 -15.584  12.867  1.00  0.00     0.219 HD
ENDBRANCH   2  31
BRANCH   1  33
HETATM   33  C3  UNL     1     -92.074 -14.706   9.322  1.00  0.00     0.131 C 
BRANCH  33  34
HETATM   34  C2  UNL     1     -92.020 -16.158   9.055  1.00  0.00     0.016 C 
HETATM   35  C1  UNL     1     -90.583 -16.405   8.444  1.00  0.00     0.006 C 
ENDBRANCH  33  34
ENDBRANCH   1  33
TORSDOF 10
ENDMDL
MODEL 2
REMARK VINA RESULT: -8.263671372      1.972      4.127
REMARK  10 active torsions:
REMARK  status: ('A' for Active; 'I' for Inactive)
REMARK    1  A    between atoms: C2_2  and  C3_3 
REMARK    2  A    between atoms: C3_3  and  N1_4 
REMARK    3  A    between atoms: C4_5  and  O1_6 
REMARK    4  A    between atoms: C5_8  and  O2_9 
REMARK    5  A    between atoms: C6_11  and  C7_12 
REMARK    6  A    between atoms: C7_12  and  O3_13 
REMARK    7  A    between atoms: C7_12  and  C8_15 
REMARK    8  A    between atoms: C15_23  and  C16_24 
REMARK    9  A    between atoms: C16_24  and  O4_25 
REMARK   10  A    between atoms: C17_27  and  C18_28 
ROOT
HETATM    1  N1  UNL     1     -89.956 -13.644   9.555  1.00  0.00    -0.324 N 
HETATM    2  C4  UNL     1     -91.255 -14.031   9.794  1.00  0.00     0.177 A 
HETATM    3  C5  UNL     1     -91.654 -13.555  11.019  1.00  0.00     0.128 A 
HETATM    4  C6  UNL     1     -90.541 -12.852  11.533  1.00  0.00     0.041 A 
HETATM    5  C17 UNL     1     -89.523 -12.931  10.636  1.00  0.00     0.066 A 
ENDROOT
BRANCH   4   6
HETATM    6  C7  UNL     1     -90.610 -11.963  12.739  1.00  0.00     0.190 C 
BRANCH   6   7
HETATM    7  O3  UNL     1     -91.879 -11.938  13.196  1.00  0.00    -0.386 OA
ATOM      8  H3  UNL     1     -91.958 -12.542  13.925  1.00  0.00     0.210 HD
ENDBRANCH   6   7
BRANCH   6   9
HETATM    9  C8  UNL     1     -89.535 -12.079  13.750  1.00  0.00    -0.010 A 
HETATM   10  C9  UNL     1     -88.752 -10.984  14.052  1.00  0.00    -0.051 A 
HETATM   11  C10 UNL     1     -88.671  -9.700  13.270  1.00  0.00     0.049 C 
HETATM   12  C11 UNL     1     -87.764 -11.074  15.066  1.00  0.00     0.027 A 
HETATM   13  C12 UNL     1     -87.560 -12.216  15.756  1.00  0.00     0.018 A 
HETATM   14 BR1  UNL     1     -86.244 -12.331  17.133  1.00  0.00    -0.051 Br
HETATM   15  C13 UNL     1     -88.325 -13.274  15.442  1.00  0.00    -0.036 A 
HETATM   16  C14 UNL     1     -88.202 -14.466  16.375  1.00  0.00     0.050 C 
HETATM   17  C15 UNL     1     -89.320 -13.285  14.451  1.00  0.00    -0.018 A 
BRANCH  17  18
HETATM   18  C16 UNL     1     -90.002 -14.547  14.177  1.00  0.00     0.204 C 
BRANCH  18  19
HETATM   19  O4  UNL     1     -91.330 -14.474  14.845  1.00  0.00    -0.396 OA
ATOM     20  H4  UNL     1     -91.248 -13.844  15.552  1.00  0.00     0.209 HD
ENDBRANCH  18  19
ENDBRANCH  17  18
ENDBRANCH   6   9
ENDBRANCH   4   6
BRANCH   3  21
HETATM   21  O2  UNL     1     -92.877 -13.704  11.656  1.00  0.00    -0.356 OA
ATOM     22  H2  UNL     1     -93.614 -13.104  11.684  1.00  0.00     0.218 HD
ENDBRANCH   3  21
BRANCH   5  23
HETATM   23  C18 UNL     1     -88.047 -12.665  10.875  1.00  0.00     0.033 A 
HETATM   24  C19 UNL     1     -87.529 -11.395  10.516  1.00  0.00     0.029 A 
HETATM   25  C20 UNL     1     -86.251 -11.188  10.880  1.00  0.00    -0.044 A 
HETATM   26  C21 UNL     1     -85.594 -12.169  11.529  1.00  0.00    -0.010 A 
HETATM   27  C24 UNL     1     -85.324  -9.968  10.747  1.00  0.00     0.040 C 
HETATM   28  S1  UNL     1     -86.790 -13.420  11.646  1.00  0.00    -0.092 SA
HETATM   29  C22 UNL     1     -84.148 -11.735  11.829  1.00  0.00     0.047 C 
HETATM   30  C23 UNL     1     -84.288 -10.211  11.781  1.00  0.00     0.010 C 
ENDBRANCH   5  23
BRANCH   2  31
HETATM   31  O1  UNL     1     -92.006 -14.775   8.919  1.00  0.00    -0.344 OA
ATOM     32  H1  UNL     1     -92.465 -15.571   9.158  1.00  0.00     0.219 HD
ENDBRANCH   2  31
BRANCH   1  33
HETATM   33  C3  UNL     1     -89.363 -13.730   8.257  1.00  0.00     0.131 C 
BRANCH  33  34
HETATM   34  C2  UNL     1     -89.281 -12.548   7.375  1.00  0.00     0.016 C 
HETATM   35  C1  UNL     1     -87.763 -12.470   6.939  1.00  0.00     0.006 C 
ENDBRANCH  33  34
ENDBRANCH   1  33
TORSDOF 10
ENDMDL
MODEL 3
REMARK VINA RESULT: -8.255446164      2.031      3.173
REMARK  10 active torsions:
REMARK  status: ('A' for Active; 'I' for Inactive)
REMARK    1  A    between atoms: C2_2  and  C3_3 
REMARK    2  A    between atoms: C3_3  and  N1_4 
REMARK    3  A    between atoms: C4_5  and  O1_6 
REMARK    4  A    between atoms: C5_8  and  O2_9 
REMARK    5  A    between atoms: C6_11  and  C7_12 
REMARK    6  A    between atoms: C7_12  and  O3_13 
REMARK    7  A    between atoms: C7_12  and  C8_15 
REMARK    8  A    between atoms: C15_23  and  C16_24 
REMARK    9  A    between atoms: C16_24  and  O4_25 
REMARK   10  A    between atoms: C17_27  and  C18_28 
ROOT
HETATM    1  N1  UNL     1     -90.439 -13.965  13.033  1.00  0.00    -0.324 N 
HETATM    2  C4  UNL     1     -90.461 -14.140  14.398  1.00  0.00     0.177 A 
HETATM    3  C5  UNL     1     -89.681 -13.178  14.993  1.00  0.00     0.128 A 
HETATM    4  C6  UNL     1     -89.171 -12.395  13.933  1.00  0.00     0.041 A 
HETATM    5  C17 UNL     1     -89.633 -12.897  12.758  1.00  0.00     0.066 A 
ENDROOT
BRANCH   4   6
HETATM    6  C7  UNL     1     -88.468 -11.086  14.136  1.00  0.00     0.190 C 
BRANCH   6   7
HETATM    7  O3  UNL     1     -88.684 -10.661  15.399  1.00  0.00    -0.386 OA
ATOM      8  H3  UNL     1     -88.168 -11.189  15.997  1.00  0.00     0.210 HD
ENDBRANCH   6   7
BRANCH   6   9
HETATM    9  C8  UNL     1     -87.093 -10.946  13.608  1.00  0.00    -0.010 A 
HETATM   10  C9  UNL     1     -86.818  -9.997  12.646  1.00  0.00    -0.051 A 
HETATM   11  C10 UNL     1     -87.825  -9.223  11.838  1.00  0.00     0.049 C 
HETATM   12  C11 UNL     1     -85.487  -9.817  12.184  1.00  0.00     0.027 A 
HETATM   13  C12 UNL     1     -84.465 -10.558  12.663  1.00  0.00     0.018 A 
HETATM   14 BR1  UNL     1     -82.675 -10.303  12.056  1.00  0.00    -0.051 Br
HETATM   15  C13 UNL     1     -84.755 -11.483  13.592  1.00  0.00    -0.036 A 
HETATM   16  C14 UNL     1     -83.554 -12.148  14.244  1.00  0.00     0.050 C 
HETATM   17  C15 UNL     1     -86.037 -11.742  14.104  1.00  0.00    -0.018 A 
BRANCH  17  18
HETATM   18  C16 UNL     1     -86.190 -12.845  15.049  1.00  0.00     0.204 C 
BRANCH  18  19
HETATM   19  O4  UNL     1     -86.398 -12.236  16.391  1.00  0.00    -0.396 OA
ATOM     20  H4  UNL     1     -85.593 -12.364  16.880  1.00  0.00     0.209 HD
ENDBRANCH  18  19
ENDBRANCH  17  18
ENDBRANCH   6   9
ENDBRANCH   4   6
BRANCH   3  21
HETATM   21  O2  UNL     1     -89.421 -12.978  16.341  1.00  0.00    -0.356 OA
ATOM     22  H2  UNL     1     -89.989 -13.128  17.088  1.00  0.00     0.218 HD
ENDBRANCH   3  21
BRANCH   5  23
HETATM   23  C18 UNL     1     -89.095 -12.646  11.360  1.00  0.00     0.033 A 
HETATM   24  C19 UNL     1     -87.764 -13.046  11.074  1.00  0.00     0.029 A 
HETATM   25  C20 UNL     1     -87.406 -12.915   9.785  1.00  0.00    -0.044 A 
HETATM   26  C21 UNL     1     -88.306 -12.432   8.906  1.00  0.00    -0.010 A 
HETATM   27  C24 UNL     1     -86.111 -13.266   9.032  1.00  0.00     0.040 C 
HETATM   28  S1  UNL     1     -89.701 -12.156   9.898  1.00  0.00    -0.092 SA
HETATM   29  C22 UNL     1     -87.685 -12.343   7.501  1.00  0.00     0.047 C 
HETATM   30  C23 UNL     1     -86.552 -13.367   7.619  1.00  0.00     0.010 C 
ENDBRANCH   5  23
BRANCH   2  31
HETATM   31  O1  UNL     1     -91.167 -15.131  15.033  1.00  0.00    -0.344 OA
ATOM     32  H1  UNL     1     -90.766 -15.881  15.455  1.00  0.00     0.219 HD
ENDBRANCH   2  31
BRANCH   1  33
HETATM   33  C3  UNL     1     -91.374 -14.613  12.168  1.00  0.00     0.131 C 
BRANCH  33  34
HETATM   34  C2  UNL     1     -92.576 -13.908  11.677  1.00  0.00     0.016 C 
HETATM   35  C1  UNL     1     -93.548 -15.054  11.187  1.00  0.00     0.006 C 
ENDBRANCH  33  34
ENDBRANCH   1  33
TORSDOF 10
ENDMDL
MODEL 4
REMARK VINA RESULT: -8.229024065      1.864      2.482
REMARK  10 active torsions:
REMARK  status: ('A' for Active; 'I' for Inactive)
REMARK    1  A    between atoms: C2_2  and  C3_3 
REMARK    2  A    between atoms: C3_3  and  N1_4 
REMARK    3  A    between atoms: C4_5  and  O1_6 
REMARK    4  A    between atoms: C5_8  and  O2_9 
REMARK    5  A    between atoms: C6_11  and  C7_12 
REMARK    6  A    between atoms: C7_12  and  O3_13 
REMARK    7  A    between atoms: C7_12  and  C8_15 
REMARK    8  A    between atoms: C15_23  and  C16_24 
REMARK    9  A    between atoms: C16_24  and  O4_25 
REMARK   10  A    between atoms: C17_27  and  C18_28 
ROOT
HETATM    1  N1  UNL     1     -90.592 -14.131  12.948  1.00  0.00    -0.324 N 
HETATM    2  C4  UNL     1     -90.598 -14.277  14.316  1.00  0.00     0.177 A 
HETATM    3  C5  UNL     1     -89.829 -13.291  14.884  1.00  0.00     0.128 A 
HETATM    4  C6  UNL     1     -89.342 -12.522  13.802  1.00  0.00     0.041 A 
HETATM    5  C17 UNL     1     -89.806 -13.057  12.642  1.00  0.00     0.066 A 
ENDROOT
BRANCH   4   6
HETATM    6  C7  UNL     1     -88.658 -11.198  13.972  1.00  0.00     0.190 C 
BRANCH   6   7
HETATM    7  O3  UNL     1     -88.940 -10.710  15.199  1.00  0.00    -0.386 OA
ATOM      8  H3  UNL     1     -89.764 -10.240  15.164  1.00  0.00     0.210 HD
ENDBRANCH   6   7
BRANCH   6   9
HETATM    9  C8  UNL     1     -87.259 -11.073  13.505  1.00  0.00    -0.010 A 
HETATM   10  C9  UNL     1     -86.243 -11.690  14.204  1.00  0.00    -0.051 A 
HETATM   11  C10 UNL     1     -86.337 -12.285  15.584  1.00  0.00     0.049 C 
HETATM   12  C11 UNL     1     -84.908 -11.626  13.723  1.00  0.00     0.027 A 
HETATM   13  C12 UNL     1     -84.596 -10.969  12.586  1.00  0.00     0.018 A 
HETATM   14 BR1  UNL     1     -82.806 -10.899  11.930  1.00  0.00    -0.051 Br
HETATM   15  C13 UNL     1     -85.598 -10.367  11.925  1.00  0.00    -0.036 A 
HETATM   16  C14 UNL     1     -85.237  -9.818  10.555  1.00  0.00     0.050 C 
HETATM   17  C15 UNL     1     -86.945 -10.366  12.324  1.00  0.00    -0.018 A 
BRANCH  17  18
HETATM   18  C16 UNL     1     -87.895  -9.588  11.534  1.00  0.00     0.204 C 
BRANCH  18  19
HETATM   19  O4  UNL     1     -88.012  -8.257  12.190  1.00  0.00    -0.396 OA
ATOM     20  H4  UNL     1     -87.998  -7.606  11.497  1.00  0.00     0.209 HD
ENDBRANCH  18  19
ENDBRANCH  17  18
ENDBRANCH   6   9
ENDBRANCH   4   6
BRANCH   3  21
HETATM   21  O2  UNL     1     -89.560 -13.058  16.224  1.00  0.00    -0.356 OA
ATOM     22  H2  UNL     1     -90.140 -13.140  16.973  1.00  0.00     0.218 HD
ENDBRANCH   3  21
BRANCH   5  23
HETATM   23  C18 UNL     1     -89.284 -12.827  11.235  1.00  0.00     0.033 A 
HETATM   24  C19 UNL     1     -87.931 -13.153  10.961  1.00  0.00     0.029 A 
HETATM   25  C20 UNL     1     -87.582 -13.050   9.667  1.00  0.00    -0.044 A 
HETATM   26  C21 UNL     1     -88.510 -12.659   8.772  1.00  0.00    -0.010 A 
HETATM   27  C24 UNL     1     -86.267 -13.348   8.926  1.00  0.00     0.040 C 
HETATM   28  S1  UNL     1     -89.920 -12.433   9.756  1.00  0.00    -0.092 SA
HETATM   29  C22 UNL     1     -87.896 -12.586   7.363  1.00  0.00     0.047 C 
HETATM   30  C23 UNL     1     -86.701 -13.531   7.519  1.00  0.00     0.010 C 
ENDBRANCH   5  23
BRANCH   2  31
HETATM   31  O1  UNL     1     -91.282 -15.266  14.978  1.00  0.00    -0.344 OA
ATOM     32  H1  UNL     1     -92.218 -15.409  14.899  1.00  0.00     0.219 HD
ENDBRANCH   2  31
BRANCH   1  33
HETATM   33  C3  UNL     1     -91.524 -14.812  12.105  1.00  0.00     0.131 C 
BRANCH  33  34
HETATM   34  C2  UNL     1     -92.737 -14.135  11.603  1.00  0.00     0.016 C 
HETATM   35  C1  UNL     1     -93.707 -15.305  11.169  1.00  0.00     0.006 C 
ENDBRANCH  33  34
ENDBRANCH   1  33
TORSDOF 10
ENDMDL
MODEL 5
REMARK VINA RESULT: -8.216995725      1.069      2.144
REMARK  10 active torsions:
REMARK  status: ('A' for Active; 'I' for Inactive)
REMARK    1  A    between atoms: C2_2  and  C3_3 
REMARK    2  A    between atoms: C3_3  and  N1_4 
REMARK    3  A    between atoms: C4_5  and  O1_6 
REMARK    4  A    between atoms: C5_8  and  O2_9 
REMARK    5  A    between atoms: C6_11  and  C7_12 
REMARK    6  A    between atoms: C7_12  and  O3_13 
REMARK    7  A    between atoms: C7_12  and  C8_15 
REMARK    8  A    between atoms: C15_23  and  C16_24 
REMARK    9  A    between atoms: C16_24  and  O4_25 
REMARK   10  A    between atoms: C17_27  and  C18_28 
ROOT
HETATM    1  N1  UNL     1     -90.996 -14.146  10.769  1.00  0.00    -0.324 N 
HETATM    2  C4  UNL     1     -91.662 -14.220  11.971  1.00  0.00     0.177 A 
HETATM    3  C5  UNL     1     -91.146 -13.285  12.836  1.00  0.00     0.128 A 
HETATM    4  C6  UNL     1     -90.126 -12.624  12.114  1.00  0.00     0.041 A 
HETATM    5  C17 UNL     1     -90.045 -13.171  10.873  1.00  0.00     0.066 A 
ENDROOT
BRANCH   4   6
HETATM    6  C7  UNL     1     -89.461 -11.367  12.588  1.00  0.00     0.190 C 
BRANCH   6   7
HETATM    7  O3  UNL     1     -90.308 -10.699  13.400  1.00  0.00    -0.386 OA
ATOM      8  H3  UNL     1     -90.557  -9.882  12.983  1.00  0.00     0.210 HD
ENDBRANCH   6   7
BRANCH   6   9
HETATM    9  C8  UNL     1     -88.047 -11.447  13.016  1.00  0.00    -0.010 A 
HETATM   10  C9  UNL     1     -87.093 -10.670  12.392  1.00  0.00    -0.051 A 
HETATM   11  C10 UNL     1     -87.262  -9.908  11.104  1.00  0.00     0.049 C 
HETATM   12  C11 UNL     1     -85.747 -10.697  12.843  1.00  0.00     0.027 A 
HETATM   13  C12 UNL     1     -85.363 -11.472  13.879  1.00  0.00     0.018 A 
HETATM   14 BR1  UNL     1     -83.558 -11.493  14.497  1.00  0.00    -0.051 Br
HETATM   15  C13 UNL     1     -86.303 -12.228  14.467  1.00  0.00    -0.036 A 
HETATM   16  C14 UNL     1     -85.872 -12.923  15.748  1.00  0.00     0.050 C 
HETATM   17  C15 UNL     1     -87.655 -12.277  14.089  1.00  0.00    -0.018 A 
BRANCH  17  18
HETATM   18  C16 UNL     1     -88.529 -13.220  14.781  1.00  0.00     0.204 C 
BRANCH  18  19
HETATM   19  O4  UNL     1     -89.298 -12.438  15.787  1.00  0.00    -0.396 OA
ATOM     20  H4  UNL     1     -88.838 -12.524  16.614  1.00  0.00     0.209 HD
ENDBRANCH  18  19
ENDBRANCH  17  18
ENDBRANCH   6   9
ENDBRANCH   4   6
BRANCH   3  21
HETATM   21  O2  UNL     1     -91.516 -13.010  14.144  1.00  0.00    -0.356 OA
ATOM     22  H2  UNL     1     -91.103 -12.429  14.773  1.00  0.00     0.218 HD
ENDBRANCH   3  21
BRANCH   5  23
HETATM   23  C18 UNL     1     -88.900 -13.067   9.881  1.00  0.00     0.033 A 
HETATM   24  C19 UNL     1     -89.153 -12.446   8.630  1.00  0.00     0.029 A 
HETATM   25  C20 UNL     1     -88.063 -12.271   7.863  1.00  0.00    -0.044 A 
HETATM   26  C21 UNL     1     -86.867 -12.685   8.327  1.00  0.00    -0.010 A 
HETATM   27  C24 UNL     1     -87.863 -11.610   6.488  1.00  0.00     0.040 C 
HETATM   28  S1  UNL     1     -87.265 -13.333   9.885  1.00  0.00    -0.092 SA
HETATM   29  C22 UNL     1     -85.767 -12.411   7.287  1.00  0.00     0.047 C 
HETATM   30  C23 UNL     1     -86.415 -11.291   6.469  1.00  0.00     0.010 C 
ENDBRANCH   5  23
BRANCH   2  31
HETATM   31  O1  UNL     1     -92.681 -15.102  12.230  1.00  0.00    -0.344 OA
ATOM     32  H1  UNL     1     -93.078 -15.218  13.085  1.00  0.00     0.219 HD
ENDBRANCH   2  31
BRANCH   1  33
HETATM   33  C3  UNL     1     -91.490 -14.776   9.585  1.00  0.00     0.131 C 
BRANCH  33  34
HETATM   34  C2  UNL     1     -90.841 -15.984   9.036  1.00  0.00     0.016 C 
HETATM   35  C1  UNL     1     -91.977 -16.718   8.216  1.00  0.00     0.006 C 
ENDBRANCH  33  34
ENDBRANCH   1  33
TORSDOF 10
ENDMDL
