MODEL 1
REMARK VINA RESULT: -8.489198039      0.000      0.000
REMARK  9 active torsions:
REMARK  status: ('A' for Active; 'I' for Inactive)
REMARK    1  A    between atoms: C2_2  and  C3_3 
REMARK    2  A    between atoms: C3_3  and  O1_5 
REMARK    3  A    between atoms: C3_3  and  C5_7 
REMARK    4  A    between atoms: C5_7  and  C6_8 
REMARK    5  A    between atoms: C6_8  and  C8_10 
REMARK    6  A    between atoms: C15_17  and  O2_18 
REMARK    7  A    between atoms: C18_22  and  C19_23 
REMARK    8  A    between atoms: C21_26  and  O4_27 
REMARK    9  A    between atoms: C29_37  and  O5_38 
ROOT
HETATM    1  C8  UNL     1     -85.353 -10.905  14.053  1.00  0.00     0.025 C 
HETATM    2  C9  UNL     1     -85.140 -12.151  14.933  1.00  0.00     0.009 C 
HETATM    3  C10 UNL     1     -86.227 -13.153  14.508  1.00  0.00     0.013 C 
HETATM    4  C11 UNL     1     -86.689 -12.553  13.225  1.00  0.00    -0.008 C 
HETATM    5  C12 UNL     1     -85.580 -12.809  12.249  1.00  0.00     0.019 C 
HETATM    6  C13 UNL     1     -87.960 -13.022  12.639  1.00  0.00     0.006 C 
HETATM    7  C14 UNL     1     -87.903 -13.296  11.152  1.00  0.00     0.038 C 
HETATM    8  C15 UNL     1     -89.118 -12.860  10.391  1.00  0.00     0.130 C 
HETATM    9  C16 UNL     1     -90.377 -13.240  11.049  1.00  0.00     0.026 C 
HETATM   10  C17 UNL     1     -91.535 -12.688  10.247  1.00  0.00     0.022 C 
HETATM   11  C18 UNL     1     -90.576 -14.720  11.227  1.00  0.00     0.034 C 
HETATM   12  C23 UNL     1     -91.647 -14.736  12.290  1.00  0.00     0.013 C 
HETATM   13  C24 UNL     1     -91.194 -13.640  13.229  1.00  0.00     0.045 C 
HETATM   14  C25 UNL     1     -90.448 -12.626  12.404  1.00  0.00     0.118 C 
HETATM   15  F1  UNL     1     -91.270 -11.488  12.382  1.00  0.00    -0.242 F 
HETATM   16  C26 UNL     1     -89.155 -12.171  13.007  1.00  0.00     0.031 C 
HETATM   17  C27 UNL     1     -88.909 -10.692  12.815  1.00  0.00     0.011 C 
HETATM   18  C28 UNL     1     -87.418 -10.356  12.622  1.00  0.00     0.039 C 
HETATM   19  C29 UNL     1     -86.736 -11.079  13.695  1.00  0.00     0.069 C 
ENDROOT
BRANCH   1  20
HETATM   20  C6  UNL     1     -84.826  -9.658  14.641  1.00  0.00    -0.009 C 
HETATM   21  C7  UNL     1     -85.201  -9.271  16.010  1.00  0.00     0.010 C 
BRANCH  20  22
HETATM   22  C5  UNL     1     -83.312  -9.778  14.564  1.00  0.00     0.042 C 
BRANCH  22  23
HETATM   23  C3  UNL     1     -82.597  -8.738  13.827  1.00  0.00     0.054 C 
HETATM   24  C4  UNL     1     -81.551  -8.123  14.783  1.00  0.00     0.045 C 
BRANCH  23  25
HETATM   25  C2  UNL     1     -81.819  -9.184  12.627  1.00  0.00     0.033 C 
HETATM   26  C1  UNL     1     -82.651  -9.965  11.638  1.00  0.00     0.008 C 
ENDBRANCH  23  25
BRANCH  23  27
HETATM   27  O1  UNL     1     -83.400  -7.665  13.458  1.00  0.00    -0.390 OA
ATOM     28  H1  UNL     1     -84.081  -7.983  12.877  1.00  0.00     0.210 HD
ENDBRANCH  23  27
ENDBRANCH  22  23
ENDBRANCH  20  22
ENDBRANCH   1  20
BRANCH  19  29
HETATM   29  O5  UNL     1     -87.512 -10.971  14.843  1.00  0.00    -0.389 OA
ATOM     30  H5  UNL     1     -88.296 -11.497  14.734  1.00  0.00     0.210 HD
ENDBRANCH  19  29
BRANCH   8  31
HETATM   31  O2  UNL     1     -88.986 -13.418   9.097  1.00  0.00    -0.395 OA
ATOM     32  H2  UNL     1     -89.686 -13.040   8.577  1.00  0.00     0.210 HD
ENDBRANCH   8  31
BRANCH  11  33
HETATM   33  C19 UNL     1     -90.869 -15.484  10.026  1.00  0.00    -0.026 A 
HETATM   34  C20 UNL     1     -89.951 -16.210   9.253  1.00  0.00     0.152 A 
HETATM   35  O3  UNL     1     -90.555 -16.783   8.265  1.00  0.00    -0.300 OA
HETATM   36  C21 UNL     1     -91.835 -16.519   8.280  1.00  0.00     0.183 A 
HETATM   37  C22 UNL     1     -92.068 -15.693   9.388  1.00  0.00     0.073 A 
BRANCH  36  38
HETATM   38  O4  UNL     1     -92.782 -16.969   7.370  1.00  0.00    -0.341 OA
ATOM     39  H4  UNL     1     -93.263 -17.787   7.413  1.00  0.00     0.220 HD
ENDBRANCH  36  38
ENDBRANCH  11  33
TORSDOF 9
ENDMDL
MODEL 2
REMARK VINA RESULT: -8.317352057      2.170      3.141
REMARK  9 active torsions:
REMARK  status: ('A' for Active; 'I' for Inactive)
REMARK    1  A    between atoms: C2_2  and  C3_3 
REMARK    2  A    between atoms: C3_3  and  O1_5 
REMARK    3  A    between atoms: C3_3  and  C5_7 
REMARK    4  A    between atoms: C5_7  and  C6_8 
REMARK    5  A    between atoms: C6_8  and  C8_10 
REMARK    6  A    between atoms: C15_17  and  O2_18 
REMARK    7  A    between atoms: C18_22  and  C19_23 
REMARK    8  A    between atoms: C21_26  and  O4_27 
REMARK    9  A    between atoms: C29_37  and  O5_38 
ROOT
HETATM    1  C8  UNL     1     -83.601 -11.505  10.872  1.00  0.00     0.025 C 
HETATM    2  C9  UNL     1     -83.204 -12.696  11.764  1.00  0.00     0.009 C 
HETATM    3  C10 UNL     1     -84.503 -13.481  12.015  1.00  0.00     0.013 C 
HETATM    4  C11 UNL     1     -85.398 -12.898  10.977  1.00  0.00    -0.008 C 
HETATM    5  C12 UNL     1     -84.904 -13.453   9.675  1.00  0.00     0.019 C 
HETATM    6  C13 UNL     1     -86.852 -13.138  11.078  1.00  0.00     0.006 C 
HETATM    7  C14 UNL     1     -87.516 -13.531   9.778  1.00  0.00     0.038 C 
HETATM    8  C15 UNL     1     -88.862 -12.913   9.553  1.00  0.00     0.130 C 
HETATM    9  C16 UNL     1     -89.728 -12.973  10.740  1.00  0.00     0.026 C 
HETATM   10  C17 UNL     1     -91.026 -12.257  10.437  1.00  0.00     0.022 C 
HETATM   11  C18 UNL     1     -90.046 -14.361  11.222  1.00  0.00     0.034 C 
HETATM   12  C23 UNL     1     -90.509 -14.073  12.630  1.00  0.00     0.013 C 
HETATM   13  C24 UNL     1     -89.520 -13.026  13.093  1.00  0.00     0.045 C 
HETATM   14  C25 UNL     1     -89.084 -12.255  11.876  1.00  0.00     0.118 C 
HETATM   15  F1  UNL     1     -89.645 -10.976  12.026  1.00  0.00    -0.242 F 
HETATM   16  C26 UNL     1     -87.606 -12.032  11.782  1.00  0.00     0.031 C 
HETATM   17  C27 UNL     1     -87.255 -10.655  11.267  1.00  0.00     0.011 C 
HETATM   18  C28 UNL     1     -85.981 -10.652  10.401  1.00  0.00     0.039 C 
HETATM   19  C29 UNL     1     -85.005 -11.415  11.178  1.00  0.00     0.069 C 
ENDROOT
BRANCH   1  20
HETATM   20  C6  UNL     1     -82.683 -10.352  10.967  1.00  0.00    -0.009 C 
HETATM   21  C7  UNL     1     -82.131  -9.954  12.272  1.00  0.00     0.010 C 
BRANCH  20  22
HETATM   22  C5  UNL     1     -81.533 -10.667  10.024  1.00  0.00     0.042 C 
BRANCH  22  23
HETATM   23  C3  UNL     1     -81.604 -10.108   8.675  1.00  0.00     0.054 C 
HETATM   24  C4  UNL     1     -80.159  -9.818   8.214  1.00  0.00     0.045 C 
BRANCH  23  25
HETATM   25  C2  UNL     1     -82.186 -10.991   7.616  1.00  0.00     0.033 C 
HETATM   26  C1  UNL     1     -83.660 -10.752   7.389  1.00  0.00     0.008 C 
ENDBRANCH  23  25
BRANCH  23  27
HETATM   27  O1  UNL     1     -82.238  -8.873   8.618  1.00  0.00    -0.390 OA
ATOM     28  H1  UNL     1     -82.321  -8.535   9.502  1.00  0.00     0.210 HD
ENDBRANCH  23  27
ENDBRANCH  22  23
ENDBRANCH  20  22
ENDBRANCH   1  20
BRANCH  19  29
HETATM   29  O5  UNL     1     -85.150 -11.061  12.514  1.00  0.00    -0.389 OA
ATOM     30  H5  UNL     1     -85.994 -10.640  12.628  1.00  0.00     0.210 HD
ENDBRANCH  19  29
BRANCH   8  31
HETATM   31  O2  UNL     1     -89.416 -13.585   8.437  1.00  0.00    -0.395 OA
ATOM     32  H2  UNL     1     -90.250 -13.933   8.730  1.00  0.00     0.210 HD
ENDBRANCH   8  31
BRANCH  11  33
HETATM   33  C19 UNL     1     -90.962 -15.138  10.405  1.00  0.00    -0.026 A 
HETATM   34  C20 UNL     1     -92.351 -15.240  10.574  1.00  0.00     0.152 A 
HETATM   35  O3  UNL     1     -92.856 -16.001   9.660  1.00  0.00    -0.300 OA
HETATM   36  C21 UNL     1     -91.929 -16.445   8.853  1.00  0.00     0.183 A 
HETATM   37  C22 UNL     1     -90.712 -15.915   9.300  1.00  0.00     0.073 A 
BRANCH  36  38
HETATM   38  O4  UNL     1     -92.116 -17.284   7.762  1.00  0.00    -0.341 OA
ATOM     39  H4  UNL     1     -92.692 -18.038   7.721  1.00  0.00     0.220 HD
ENDBRANCH  36  38
ENDBRANCH  11  33
TORSDOF 9
ENDMDL
MODEL 3
REMARK VINA RESULT: -8.248989110      1.369      1.732
REMARK  9 active torsions:
REMARK  status: ('A' for Active; 'I' for Inactive)
REMARK    1  A    between atoms: C2_2  and  C3_3 
REMARK    2  A    between atoms: C3_3  and  O1_5 
REMARK    3  A    between atoms: C3_3  and  C5_7 
REMARK    4  A    between atoms: C5_7  and  C6_8 
REMARK    5  A    between atoms: C6_8  and  C8_10 
REMARK    6  A    between atoms: C15_17  and  O2_18 
REMARK    7  A    between atoms: C18_22  and  C19_23 
REMARK    8  A    between atoms: C21_26  and  O4_27 
REMARK    9  A    between atoms: C29_37  and  O5_38 
ROOT
HETATM    1  C8  UNL     1     -84.265 -10.928  12.449  1.00  0.00     0.025 C 
HETATM    2  C9  UNL     1     -84.066 -12.062  13.473  1.00  0.00     0.009 C 
HETATM    3  C10 UNL     1     -85.283 -12.988  13.311  1.00  0.00     0.013 C 
HETATM    4  C11 UNL     1     -85.834 -12.518  12.009  1.00  0.00    -0.008 C 
HETATM    5  C12 UNL     1     -84.875 -13.018  10.971  1.00  0.00     0.019 C 
HETATM    6  C13 UNL     1     -87.203 -12.921  11.630  1.00  0.00     0.006 C 
HETATM    7  C14 UNL     1     -87.346 -13.394  10.201  1.00  0.00     0.038 C 
HETATM    8  C15 UNL     1     -88.595 -12.935   9.513  1.00  0.00     0.130 C 
HETATM    9  C16 UNL     1     -89.799 -13.088  10.345  1.00  0.00     0.026 C 
HETATM   10  C17 UNL     1     -90.987 -12.526   9.596  1.00  0.00     0.022 C 
HETATM   11  C18 UNL     1     -90.111 -14.500  10.754  1.00  0.00     0.034 C 
HETATM   12  C23 UNL     1     -91.048 -14.260  11.912  1.00  0.00     0.013 C 
HETATM   13  C24 UNL     1     -90.389 -13.105  12.633  1.00  0.00     0.045 C 
HETATM   14  C25 UNL     1     -89.654 -12.295  11.599  1.00  0.00     0.118 C 
HETATM   15  F1  UNL     1     -90.365 -11.088  11.498  1.00  0.00    -0.242 F 
HETATM   16  C26 UNL     1     -88.263 -11.905  11.993  1.00  0.00     0.031 C 
HETATM   17  C27 UNL     1     -87.907 -10.500  11.566  1.00  0.00     0.011 C 
HETATM   18  C28 UNL     1     -86.424 -10.355  11.175  1.00  0.00     0.039 C 
HETATM   19  C29 UNL     1     -85.691 -10.998  12.265  1.00  0.00     0.069 C 
ENDROOT
BRANCH   1  20
HETATM   20  C6  UNL     1     -83.560  -9.678  12.795  1.00  0.00    -0.009 C 
HETATM   21  C7  UNL     1     -83.791  -9.036  14.099  1.00  0.00     0.010 C 
BRANCH  20  22
HETATM   22  C5  UNL     1     -82.078  -9.993  12.661  1.00  0.00     0.042 C 
BRANCH  22  23
HETATM   23  C3  UNL     1     -81.367  -9.391  11.535  1.00  0.00     0.054 C 
HETATM   24  C4  UNL     1     -79.969 -10.043  11.464  1.00  0.00     0.045 C 
BRANCH  23  25
HETATM   25  C2  UNL     1     -81.967  -9.597  10.178  1.00  0.00     0.033 C 
HETATM   26  C1  UNL     1     -81.304  -8.768   9.104  1.00  0.00     0.008 C 
ENDBRANCH  23  25
BRANCH  23  27
HETATM   27  O1  UNL     1     -81.108  -8.036  11.701  1.00  0.00    -0.390 OA
ATOM     28  H1  UNL     1     -81.569  -7.733  12.474  1.00  0.00     0.210 HD
ENDBRANCH  23  27
ENDBRANCH  22  23
ENDBRANCH  20  22
ENDBRANCH   1  20
BRANCH  19  29
HETATM   29  O5  UNL     1     -86.313 -10.656  13.459  1.00  0.00    -0.389 OA
ATOM     30  H5  UNL     1     -87.251 -10.771  13.359  1.00  0.00     0.210 HD
ENDBRANCH  19  29
BRANCH   8  31
HETATM   31  O2  UNL     1     -88.668 -13.671   8.307  1.00  0.00    -0.395 OA
ATOM     32  H2  UNL     1     -88.470 -13.054   7.612  1.00  0.00     0.210 HD
ENDBRANCH   8  31
BRANCH  11  33
HETATM   33  C19 UNL     1     -90.611 -15.381   9.712  1.00  0.00    -0.026 A 
HETATM   34  C20 UNL     1     -89.868 -16.326   8.989  1.00  0.00     0.152 A 
HETATM   35  O3  UNL     1     -90.632 -16.948   8.152  1.00  0.00    -0.300 OA
HETATM   36  C21 UNL     1     -91.863 -16.515   8.228  1.00  0.00     0.183 A 
HETATM   37  C22 UNL     1     -91.883 -15.517   9.211  1.00  0.00     0.073 A 
BRANCH  36  38
HETATM   38  O4  UNL     1     -92.943 -16.959   7.476  1.00  0.00    -0.341 OA
ATOM     39  H4  UNL     1     -93.772 -17.276   7.812  1.00  0.00     0.220 HD
ENDBRANCH  36  38
ENDBRANCH  11  33
TORSDOF 9
ENDMDL
MODEL 4
REMARK VINA RESULT: -8.156932847      2.334      2.981
REMARK  9 active torsions:
REMARK  status: ('A' for Active; 'I' for Inactive)
REMARK    1  A    between atoms: C2_2  and  C3_3 
REMARK    2  A    between atoms: C3_3  and  O1_5 
REMARK    3  A    between atoms: C3_3  and  C5_7 
REMARK    4  A    between atoms: C5_7  and  C6_8 
REMARK    5  A    between atoms: C6_8  and  C8_10 
REMARK    6  A    between atoms: C15_17  and  O2_18 
REMARK    7  A    between atoms: C18_22  and  C19_23 
REMARK    8  A    between atoms: C21_26  and  O4_27 
REMARK    9  A    between atoms: C29_37  and  O5_38 
ROOT
HETATM    1  C8  UNL     1     -85.144 -12.936  15.640  1.00  0.00     0.025 C 
HETATM    2  C9  UNL     1     -84.770 -14.356  15.176  1.00  0.00     0.009 C 
HETATM    3  C10 UNL     1     -85.872 -14.777  14.189  1.00  0.00     0.013 C 
HETATM    4  C11 UNL     1     -86.527 -13.468  13.912  1.00  0.00    -0.008 C 
HETATM    5  C12 UNL     1     -85.558 -12.716  13.051  1.00  0.00     0.019 C 
HETATM    6  C13 UNL     1     -87.851 -13.462  13.259  1.00  0.00     0.006 C 
HETATM    7  C14 UNL     1     -87.994 -12.459  12.136  1.00  0.00     0.038 C 
HETATM    8  C15 UNL     1     -89.316 -11.757  12.090  1.00  0.00     0.130 C 
HETATM    9  C16 UNL     1     -90.458 -12.667  12.263  1.00  0.00     0.026 C 
HETATM   10  C17 UNL     1     -91.734 -11.856  12.281  1.00  0.00     0.022 C 
HETATM   11  C18 UNL     1     -90.581 -13.735  11.211  1.00  0.00     0.034 C 
HETATM   12  C23 UNL     1     -91.492 -14.715  11.907  1.00  0.00     0.013 C 
HETATM   13  C24 UNL     1     -90.950 -14.723  13.319  1.00  0.00     0.045 C 
HETATM   14  C25 UNL     1     -90.359 -13.362  13.577  1.00  0.00     0.118 C 
HETATM   15  F1  UNL     1     -91.214 -12.759  14.514  1.00  0.00    -0.242 F 
HETATM   16  C26 UNL     1     -89.011 -13.387  14.227  1.00  0.00     0.031 C 
HETATM   17  C27 UNL     1     -88.844 -12.303  15.268  1.00  0.00     0.011 C 
HETATM   18  C28 UNL     1     -87.406 -11.753  15.328  1.00  0.00     0.039 C 
HETATM   19  C29 UNL     1     -86.558 -12.944  15.367  1.00  0.00     0.069 C 
ENDROOT
BRANCH   1  20
HETATM   20  C6  UNL     1     -84.582 -12.567  16.955  1.00  0.00    -0.009 C 
HETATM   21  C7  UNL     1     -83.798 -13.546  17.723  1.00  0.00     0.010 C 
BRANCH  20  22
HETATM   22  C5  UNL     1     -83.719 -11.341  16.700  1.00  0.00     0.042 C 
BRANCH  22  23
HETATM   23  C3  UNL     1     -84.304 -10.037  17.011  1.00  0.00     0.054 C 
HETATM   24  C4  UNL     1     -83.227  -9.205  17.741  1.00  0.00     0.045 C 
BRANCH  23  25
HETATM   25  C2  UNL     1     -84.725  -9.199  15.844  1.00  0.00     0.033 C 
HETATM   26  C1  UNL     1     -83.981  -9.534  14.574  1.00  0.00     0.008 C 
ENDBRANCH  23  25
BRANCH  23  27
HETATM   27  O1  UNL     1     -85.360 -10.102  17.912  1.00  0.00    -0.390 OA
ATOM     28  H1  UNL     1     -85.661 -11.002  17.960  1.00  0.00     0.210 HD
ENDBRANCH  23  27
ENDBRANCH  22  23
ENDBRANCH  20  22
ENDBRANCH   1  20
BRANCH  19  29
HETATM   29  O5  UNL     1     -87.169 -13.877  16.196  1.00  0.00    -0.389 OA
ATOM     30  H5  UNL     1     -87.058 -13.603  17.100  1.00  0.00     0.210 HD
ENDBRANCH  19  29
BRANCH   8  31
HETATM   31  O2  UNL     1     -89.348 -11.069  10.853  1.00  0.00    -0.395 OA
ATOM     32  H2  UNL     1     -89.471 -11.735  10.187  1.00  0.00     0.210 HD
ENDBRANCH   8  31
BRANCH  11  33
HETATM   33  C19 UNL     1     -91.013 -13.300   9.894  1.00  0.00    -0.026 A 
HETATM   34  C20 UNL     1     -92.320 -12.965   9.511  1.00  0.00     0.152 A 
HETATM   35  O3  UNL     1     -92.344 -12.606   8.270  1.00  0.00    -0.300 OA
HETATM   36  C21 UNL     1     -91.149 -12.659   7.743  1.00  0.00     0.183 A 
HETATM   37  C22 UNL     1     -90.279 -13.098   8.749  1.00  0.00     0.073 A 
BRANCH  36  38
HETATM   38  O4  UNL     1     -90.809 -12.343   6.434  1.00  0.00    -0.341 OA
ATOM     39  H4  UNL     1     -90.027 -12.620   5.971  1.00  0.00     0.220 HD
ENDBRANCH  36  38
ENDBRANCH  11  33
TORSDOF 9
ENDMDL
MODEL 5
REMARK VINA RESULT: -8.080732975      3.288      8.505
REMARK  9 active torsions:
REMARK  status: ('A' for Active; 'I' for Inactive)
REMARK    1  A    between atoms: C2_2  and  C3_3 
REMARK    2  A    between atoms: C3_3  and  O1_5 
REMARK    3  A    between atoms: C3_3  and  C5_7 
REMARK    4  A    between atoms: C5_7  and  C6_8 
REMARK    5  A    between atoms: C6_8  and  C8_10 
REMARK    6  A    between atoms: C15_17  and  O2_18 
REMARK    7  A    between atoms: C18_22  and  C19_23 
REMARK    8  A    between atoms: C21_26  and  O4_27 
REMARK    9  A    between atoms: C29_37  and  O5_38 
ROOT
HETATM    1  C8  UNL     1     -90.829 -12.972  11.189  1.00  0.00     0.025 C 
HETATM    2  C9  UNL     1     -89.993 -11.864  10.522  1.00  0.00     0.009 C 
HETATM    3  C10 UNL     1     -88.790 -11.631  11.452  1.00  0.00     0.013 C 
HETATM    4  C11 UNL     1     -88.857 -12.840  12.320  1.00  0.00    -0.008 C 
HETATM    5  C12 UNL     1     -88.410 -13.975  11.450  1.00  0.00     0.019 C 
HETATM    6  C13 UNL     1     -88.075 -12.859  13.572  1.00  0.00     0.006 C 
HETATM    7  C14 UNL     1     -87.316 -14.144  13.819  1.00  0.00     0.038 C 
HETATM    8  C15 UNL     1     -87.323 -14.609  15.243  1.00  0.00     0.130 C 
HETATM    9  C16 UNL     1     -87.051 -13.529  16.203  1.00  0.00     0.026 C 
HETATM   10  C17 UNL     1     -87.159 -14.081  17.607  1.00  0.00     0.022 C 
HETATM   11  C18 UNL     1     -85.710 -12.867  16.047  1.00  0.00     0.034 C 
HETATM   12  C23 UNL     1     -85.938 -11.583  16.806  1.00  0.00     0.013 C 
HETATM   13  C24 UNL     1     -87.333 -11.189  16.374  1.00  0.00     0.045 C 
HETATM   14  C25 UNL     1     -88.081 -12.460  16.070  1.00  0.00     0.118 C 
HETATM   15  F1  UNL     1     -89.041 -12.578  17.088  1.00  0.00    -0.242 F 
HETATM   16  C26 UNL     1     -88.859 -12.428  14.791  1.00  0.00     0.031 C 
HETATM   17  C27 UNL     1     -90.200 -13.115  14.906  1.00  0.00     0.011 C 
HETATM   18  C28 UNL     1     -90.616 -13.828  13.605  1.00  0.00     0.039 C 
HETATM   19  C29 UNL     1     -90.387 -12.838  12.553  1.00  0.00     0.069 C 
ENDROOT
BRANCH   1  20
HETATM   20  C6  UNL     1     -92.253 -12.965  10.802  1.00  0.00    -0.009 C 
HETATM   21  C7  UNL     1     -92.866 -11.739  10.265  1.00  0.00     0.010 C 
BRANCH  20  22
HETATM   22  C5  UNL     1     -92.404 -14.076   9.776  1.00  0.00     0.042 C 
BRANCH  22  23
HETATM   23  C3  UNL     1     -92.492 -15.445  10.282  1.00  0.00     0.054 C 
HETATM   24  C4  UNL     1     -93.681 -15.502  11.266  1.00  0.00     0.045 C 
BRANCH  23  25
HETATM   25  C2  UNL     1     -92.766 -16.515   9.271  1.00  0.00     0.033 C 
HETATM   26  C1  UNL     1     -91.720 -16.585   8.184  1.00  0.00     0.008 C 
ENDBRANCH  23  25
BRANCH  23  27
HETATM   27  O1  UNL     1     -91.395 -15.827  11.045  1.00  0.00    -0.390 OA
ATOM     28  H1  UNL     1     -91.709 -16.251  11.835  1.00  0.00     0.210 HD
ENDBRANCH  23  27
ENDBRANCH  22  23
ENDBRANCH  20  22
ENDBRANCH   1  20
BRANCH  19  29
HETATM   29  O5  UNL     1     -90.794 -11.600  13.036  1.00  0.00    -0.389 OA
ATOM     30  H5  UNL     1     -91.702 -11.461  12.795  1.00  0.00     0.210 HD
ENDBRANCH  19  29
BRANCH   8  31
HETATM   31  O2  UNL     1     -86.374 -15.656  15.315  1.00  0.00    -0.395 OA
ATOM     32  H2  UNL     1     -85.528 -15.235  15.416  1.00  0.00     0.210 HD
ENDBRANCH   8  31
BRANCH  11  33
HETATM   33  C19 UNL     1     -84.553 -13.644  16.458  1.00  0.00    -0.026 A 
HETATM   34  C20 UNL     1     -84.043 -13.760  17.760  1.00  0.00     0.152 A 
HETATM   35  O3  UNL     1     -83.015 -14.543  17.768  1.00  0.00    -0.300 OA
HETATM   36  C21 UNL     1     -82.757 -14.992  16.569  1.00  0.00     0.183 A 
HETATM   37  C22 UNL     1     -83.717 -14.439  15.711  1.00  0.00     0.073 A 
BRANCH  36  38
HETATM   38  O4  UNL     1     -81.728 -15.853  16.213  1.00  0.00    -0.341 OA
ATOM     39  H4  UNL     1     -81.532 -16.169  15.339  1.00  0.00     0.220 HD
ENDBRANCH  36  38
ENDBRANCH  11  33
TORSDOF 9
ENDMDL
