MODEL 1
REMARK VINA RESULT: -7.493786668      0.000      0.000
REMARK  9 active torsions:
REMARK  status: ('A' for Active; 'I' for Inactive)
REMARK    1  A    between atoms: C2_2  and  C4_4 
REMARK    2  A    between atoms: C4_4  and  C5_5 
REMARK    3  A    between atoms: C5_5  and  C7_7 
REMARK    4  A    between atoms: C8_8  and  O1_9 
REMARK    5  A    between atoms: C9_11  and  C10_12 
REMARK    6  A    between atoms: C17_21  and  O4_22 
REMARK    7  A    between atoms: N1_24  and  C18_25 
REMARK    8  A    between atoms: C18_25  and  C19_26 
REMARK    9  A    between atoms: C20_28  and  O5_29 
ROOT
HETATM    1  C7  UNL     1     -89.542 -13.077  12.376  1.00  0.00    -0.006 A 
HETATM    2  C8  UNL     1     -90.876 -13.571  12.369  1.00  0.00     0.090 A 
HETATM    3  C9  UNL     1     -91.419 -14.261  11.318  1.00  0.00     0.077 A 
HETATM    4  C11 UNL     1     -90.618 -14.488  10.183  1.00  0.00     0.059 A 
HETATM    5  C12 UNL     1     -89.348 -14.021  10.181  1.00  0.00     0.082 A 
HETATM    6  C13 UNL     1     -88.791 -13.316  11.288  1.00  0.00     0.015 A 
HETATM    7  C14 UNL     1     -87.376 -13.120  11.107  1.00  0.00    -0.022 C 
HETATM    8  C15 UNL     1     -86.312 -13.349  12.027  1.00  0.00     0.034 A 
HETATM    9  C16 UNL     1     -85.143 -12.619  11.888  1.00  0.00     0.016 A 
HETATM   10  C17 UNL     1     -84.276 -13.063  12.855  1.00  0.00     0.152 A 
HETATM   11  N1  UNL     1     -84.866 -14.031  13.567  1.00  0.00    -0.305 N 
HETATM   12  C20 UNL     1     -86.096 -14.205  13.068  1.00  0.00     0.156 A 
HETATM   13  C21 UNL     1     -84.884 -11.635  10.822  1.00  0.00    -0.015 C 
HETATM   14  C22 UNL     1     -83.581 -12.153  10.148  1.00  0.00     0.020 C 
HETATM   15  C23 UNL     1     -84.467 -10.334  11.454  1.00  0.00     0.020 C 
HETATM   16  C24 UNL     1     -85.941 -11.499   9.789  1.00  0.00     0.026 C 
HETATM   17  C25 UNL     1     -87.213 -12.186   9.951  1.00  0.00     0.056 C 
HETATM   18  C26 UNL     1     -87.681 -12.959   8.714  1.00  0.00     0.068 C 
HETATM   19  C27 UNL     1     -88.637 -12.101   7.932  1.00  0.00     0.047 C 
HETATM   20  C28 UNL     1     -86.557 -13.465   7.866  1.00  0.00     0.047 C 
HETATM   21  O6  UNL     1     -88.431 -14.156   9.096  1.00  0.00    -0.339 OA
ENDROOT
BRANCH   1  22
HETATM   22  C5  UNL     1     -89.125 -12.295  13.549  1.00  0.00     0.019 C 
HETATM   23  C6  UNL     1     -89.763 -12.691  14.812  1.00  0.00     0.015 C 
BRANCH  22  24
HETATM   24  C4  UNL     1     -89.376 -10.851  13.176  1.00  0.00     0.013 C 
BRANCH  24  25
HETATM   25  C2  UNL     1     -88.274  -9.882  13.245  1.00  0.00    -0.022 C 
HETATM   26  C1  UNL     1     -87.063 -10.233  14.058  1.00  0.00     0.009 C 
HETATM   27  C3  UNL     1     -87.941  -9.169  11.943  1.00  0.00     0.009 C 
ENDBRANCH  24  25
ENDBRANCH  22  24
ENDBRANCH   1  22
BRANCH   2  28
HETATM   28  O1  UNL     1     -91.643 -13.336  13.459  1.00  0.00    -0.359 OA
ATOM     29  H1  UNL     1     -92.334 -12.688  13.384  1.00  0.00     0.217 HD
ENDBRANCH   2  28
BRANCH   3  30
HETATM   30  C10 UNL     1     -92.752 -14.813  11.267  1.00  0.00     0.212 C 
HETATM   31  O2  UNL     1     -93.774 -14.137  11.265  1.00  0.00    -0.644 OA
HETATM   32  O3  UNL     1     -92.950 -16.208  11.214  1.00  0.00    -0.644 OA
ENDBRANCH   3  30
BRANCH  12  33
HETATM   33  O5  UNL     1     -86.996 -15.131  13.556  1.00  0.00    -0.345 OA
ATOM     34  H5  UNL     1     -86.827 -16.057  13.686  1.00  0.00     0.219 HD
ENDBRANCH  12  33
BRANCH  10  35
HETATM   35  O4  UNL     1     -82.978 -12.597  13.089  1.00  0.00    -0.345 OA
ATOM     36  H4  UNL     1     -82.199 -13.127  13.209  1.00  0.00     0.219 HD
ENDBRANCH  10  35
BRANCH  11  37
HETATM   37  C18 UNL     1     -84.312 -14.798  14.655  1.00  0.00     0.164 C 
BRANCH  37  38
HETATM   38  C19 UNL     1     -83.608 -16.050  14.282  1.00  0.00     0.242 C 
HETATM   39  F1  UNL     1     -84.320 -16.923  13.519  1.00  0.00    -0.254 F 
ENDBRANCH  37  38
ENDBRANCH  11  37
TORSDOF 9
ENDMDL
MODEL 2
REMARK VINA RESULT: -7.359403097      1.088      1.167
REMARK  9 active torsions:
REMARK  status: ('A' for Active; 'I' for Inactive)
REMARK    1  A    between atoms: C2_2  and  C4_4 
REMARK    2  A    between atoms: C4_4  and  C5_5 
REMARK    3  A    between atoms: C5_5  and  C7_7 
REMARK    4  A    between atoms: C8_8  and  O1_9 
REMARK    5  A    between atoms: C9_11  and  C10_12 
REMARK    6  A    between atoms: C17_21  and  O4_22 
REMARK    7  A    between atoms: N1_24  and  C18_25 
REMARK    8  A    between atoms: C18_25  and  C19_26 
REMARK    9  A    between atoms: C20_28  and  O5_29 
ROOT
HETATM    1  C7  UNL     1     -89.880 -13.384  12.190  1.00  0.00    -0.006 A 
HETATM    2  C8  UNL     1     -91.140 -14.024  12.032  1.00  0.00     0.090 A 
HETATM    3  C9  UNL     1     -91.488 -14.738  10.916  1.00  0.00     0.077 A 
HETATM    4  C11 UNL     1     -90.552 -14.838   9.869  1.00  0.00     0.059 A 
HETATM    5  C12 UNL     1     -89.351 -14.232  10.012  1.00  0.00     0.082 A 
HETATM    6  C13 UNL     1     -88.998 -13.503  11.185  1.00  0.00     0.015 A 
HETATM    7  C14 UNL     1     -87.603 -13.144  11.160  1.00  0.00    -0.022 C 
HETATM    8  C15 UNL     1     -86.622 -13.281  12.184  1.00  0.00     0.034 A 
HETATM    9  C16 UNL     1     -85.536 -12.420  12.185  1.00  0.00     0.016 A 
HETATM   10  C17 UNL     1     -84.729 -12.793  13.231  1.00  0.00     0.152 A 
HETATM   11  N1  UNL     1     -85.275 -13.842  13.857  1.00  0.00    -0.305 N 
HETATM   12  C20 UNL     1     -86.418 -14.138  13.226  1.00  0.00     0.156 A 
HETATM   13  C21 UNL     1     -85.283 -11.380  11.172  1.00  0.00    -0.015 C 
HETATM   14  C22 UNL     1     -83.866 -11.727  10.631  1.00  0.00     0.020 C 
HETATM   15  C23 UNL     1     -85.086 -10.061  11.869  1.00  0.00     0.020 C 
HETATM   16  C24 UNL     1     -86.235 -11.332  10.034  1.00  0.00     0.026 C 
HETATM   17  C25 UNL     1     -87.430 -12.162  10.046  1.00  0.00     0.056 C 
HETATM   18  C26 UNL     1     -87.674 -12.944   8.752  1.00  0.00     0.068 C 
HETATM   19  C27 UNL     1     -88.635 -12.175   7.888  1.00  0.00     0.047 C 
HETATM   20  C28 UNL     1     -86.417 -13.294   8.019  1.00  0.00     0.047 C 
HETATM   21  O6  UNL     1     -88.317 -14.229   9.028  1.00  0.00    -0.339 OA
ENDROOT
BRANCH   1  22
HETATM   22  C5  UNL     1     -89.680 -12.597  13.416  1.00  0.00     0.019 C 
HETATM   23  C6  UNL     1     -90.555 -12.969  14.537  1.00  0.00     0.015 C 
BRANCH  22  24
HETATM   24  C4  UNL     1     -89.827 -11.153  12.992  1.00  0.00     0.013 C 
BRANCH  24  25
HETATM   25  C2  UNL     1     -88.824 -10.167  13.414  1.00  0.00    -0.022 C 
HETATM   26  C1  UNL     1     -87.775 -10.590  14.399  1.00  0.00     0.009 C 
HETATM   27  C3  UNL     1     -88.289  -9.260  12.314  1.00  0.00     0.009 C 
ENDBRANCH  24  25
ENDBRANCH  22  24
ENDBRANCH   1  22
BRANCH   2  28
HETATM   28  O1  UNL     1     -92.038 -13.911  13.038  1.00  0.00    -0.359 OA
ATOM     29  H1  UNL     1     -92.543 -13.108  13.094  1.00  0.00     0.217 HD
ENDBRANCH   2  28
BRANCH   3  30
HETATM   30  C10 UNL     1     -92.736 -15.434  10.712  1.00  0.00     0.212 C 
HETATM   31  O2  UNL     1     -93.803 -15.084  11.200  1.00  0.00    -0.644 OA
HETATM   32  O3  UNL     1     -92.789 -16.594   9.911  1.00  0.00    -0.644 OA
ENDBRANCH   3  30
BRANCH  12  33
HETATM   33  O5  UNL     1     -87.251 -15.174  13.597  1.00  0.00    -0.345 OA
ATOM     34  H5  UNL     1     -87.143 -15.730  14.360  1.00  0.00     0.219 HD
ENDBRANCH  12  33
BRANCH  10  35
HETATM   35  O4  UNL     1     -83.525 -12.192  13.610  1.00  0.00    -0.345 OA
ATOM     36  H4  UNL     1     -82.713 -12.635  13.825  1.00  0.00     0.219 HD
ENDBRANCH  10  35
BRANCH  11  37
HETATM   37  C18 UNL     1     -84.752 -14.576  14.983  1.00  0.00     0.164 C 
BRANCH  37  38
HETATM   38  C19 UNL     1     -85.172 -14.103  16.326  1.00  0.00     0.242 C 
HETATM   39  F1  UNL     1     -86.036 -13.053  16.338  1.00  0.00    -0.254 F 
ENDBRANCH  37  38
ENDBRANCH  11  37
TORSDOF 9
ENDMDL
MODEL 3
REMARK VINA RESULT: -7.047378432      2.823      5.781
REMARK  9 active torsions:
REMARK  status: ('A' for Active; 'I' for Inactive)
REMARK    1  A    between atoms: C2_2  and  C4_4 
REMARK    2  A    between atoms: C4_4  and  C5_5 
REMARK    3  A    between atoms: C5_5  and  C7_7 
REMARK    4  A    between atoms: C8_8  and  O1_9 
REMARK    5  A    between atoms: C9_11  and  C10_12 
REMARK    6  A    between atoms: C17_21  and  O4_22 
REMARK    7  A    between atoms: N1_24  and  C18_25 
REMARK    8  A    between atoms: C18_25  and  C19_26 
REMARK    9  A    between atoms: C20_28  and  O5_29 
ROOT
HETATM    1  C7  UNL     1     -86.307 -12.565  11.470  1.00  0.00    -0.006 A 
HETATM    2  C8  UNL     1     -86.427 -12.455  10.057  1.00  0.00     0.090 A 
HETATM    3  C9  UNL     1     -87.627 -12.317   9.410  1.00  0.00     0.077 A 
HETATM    4  C11 UNL     1     -88.803 -12.290  10.183  1.00  0.00     0.059 A 
HETATM    5  C12 UNL     1     -88.697 -12.393  11.528  1.00  0.00     0.082 A 
HETATM    6  C13 UNL     1     -87.441 -12.523  12.189  1.00  0.00     0.015 A 
HETATM    7  C14 UNL     1     -87.602 -12.403  13.615  1.00  0.00    -0.022 C 
HETATM    8  C15 UNL     1     -86.855 -11.619  14.541  1.00  0.00     0.034 A 
HETATM    9  C16 UNL     1     -86.786 -12.032  15.861  1.00  0.00     0.016 A 
HETATM   10  C17 UNL     1     -86.059 -11.087  16.541  1.00  0.00     0.152 A 
HETATM   11  N1  UNL     1     -85.692 -10.119  15.693  1.00  0.00    -0.305 N 
HETATM   12  C20 UNL     1     -86.171 -10.438  14.484  1.00  0.00     0.156 A 
HETATM   13  C21 UNL     1     -87.468 -13.218  16.411  1.00  0.00    -0.015 C 
HETATM   14  C22 UNL     1     -88.329 -12.644  17.573  1.00  0.00     0.020 C 
HETATM   15  C23 UNL     1     -86.453 -14.081  17.110  1.00  0.00     0.020 C 
HETATM   16  C24 UNL     1     -88.354 -13.954  15.474  1.00  0.00     0.026 C 
HETATM   17  C25 UNL     1     -88.381 -13.598  14.063  1.00  0.00     0.056 C 
HETATM   18  C26 UNL     1     -89.787 -13.428  13.478  1.00  0.00     0.068 C 
HETATM   19  C27 UNL     1     -90.196 -14.711  12.808  1.00  0.00     0.047 C 
HETATM   20  C28 UNL     1     -90.800 -12.969  14.480  1.00  0.00     0.047 C 
HETATM   21  O6  UNL     1     -89.800 -12.403  12.434  1.00  0.00    -0.339 OA
ENDROOT
BRANCH   1  22
HETATM   22  C5  UNL     1     -84.957 -12.776  12.011  1.00  0.00     0.019 C 
HETATM   23  C6  UNL     1     -83.878 -12.138  11.243  1.00  0.00     0.015 C 
BRANCH  22  24
HETATM   24  C4  UNL     1     -84.805 -14.276  12.130  1.00  0.00     0.013 C 
BRANCH  24  25
HETATM   25  C2  UNL     1     -84.468 -14.870  13.431  1.00  0.00    -0.022 C 
HETATM   26  C1  UNL     1     -83.869 -13.988  14.486  1.00  0.00     0.009 C 
HETATM   27  C3  UNL     1     -85.475 -15.870  13.979  1.00  0.00     0.009 C 
ENDBRANCH  24  25
ENDBRANCH  22  24
ENDBRANCH   1  22
BRANCH   2  28
HETATM   28  O1  UNL     1     -85.292 -12.497   9.320  1.00  0.00    -0.359 OA
ATOM     29  H1  UNL     1     -84.835 -13.327   9.256  1.00  0.00     0.217 HD
ENDBRANCH   2  28
BRANCH   3  30
HETATM   30  C10 UNL     1     -87.808 -12.170   7.985  1.00  0.00     0.212 C 
HETATM   31  O2  UNL     1     -86.962 -11.703   7.232  1.00  0.00    -0.644 OA
HETATM   32  O3  UNL     1     -89.010 -12.573   7.369  1.00  0.00    -0.644 OA
ENDBRANCH   3  30
BRANCH  12  33
HETATM   33  O5  UNL     1     -85.988  -9.662  13.358  1.00  0.00    -0.345 OA
ATOM     34  H5  UNL     1     -85.240  -9.695  12.773  1.00  0.00     0.219 HD
ENDBRANCH  12  33
BRANCH  10  35
HETATM   35  O4  UNL     1     -85.734 -11.104  17.901  1.00  0.00    -0.345 OA
ATOM     36  H4  UNL     1     -86.344 -11.127  18.629  1.00  0.00     0.219 HD
ENDBRANCH  10  35
BRANCH  11  37
HETATM   37  C18 UNL     1     -84.948  -8.918  15.983  1.00  0.00     0.164 C 
BRANCH  37  38
HETATM   38  C19 UNL     1     -83.521  -8.915  15.574  1.00  0.00     0.242 C 
HETATM   39  F1  UNL     1     -83.240  -8.256  14.417  1.00  0.00    -0.254 F 
ENDBRANCH  37  38
ENDBRANCH  11  37
TORSDOF 9
ENDMDL
MODEL 4
REMARK VINA RESULT: -7.043015710      2.062      2.605
REMARK  9 active torsions:
REMARK  status: ('A' for Active; 'I' for Inactive)
REMARK    1  A    between atoms: C2_2  and  C4_4 
REMARK    2  A    between atoms: C4_4  and  C5_5 
REMARK    3  A    between atoms: C5_5  and  C7_7 
REMARK    4  A    between atoms: C8_8  and  O1_9 
REMARK    5  A    between atoms: C9_11  and  C10_12 
REMARK    6  A    between atoms: C17_21  and  O4_22 
REMARK    7  A    between atoms: N1_24  and  C18_25 
REMARK    8  A    between atoms: C18_25  and  C19_26 
REMARK    9  A    between atoms: C20_28  and  O5_29 
ROOT
HETATM    1  C7  UNL     1     -89.117 -12.512  11.843  1.00  0.00    -0.006 A 
HETATM    2  C8  UNL     1     -90.240 -12.677  10.987  1.00  0.00     0.090 A 
HETATM    3  C9  UNL     1     -90.149 -13.148   9.704  1.00  0.00     0.077 A 
HETATM    4  C11 UNL     1     -88.875 -13.480   9.204  1.00  0.00     0.059 A 
HETATM    5  C12 UNL     1     -87.801 -13.326  10.012  1.00  0.00     0.082 A 
HETATM    6  C13 UNL     1     -87.913 -12.847  11.350  1.00  0.00     0.015 A 
HETATM    7  C14 UNL     1     -86.658 -12.979  12.044  1.00  0.00    -0.022 C 
HETATM    8  C15 UNL     1     -86.399 -13.513  13.339  1.00  0.00     0.034 A 
HETATM    9  C16 UNL     1     -85.283 -13.071  14.031  1.00  0.00     0.016 A 
HETATM   10  C17 UNL     1     -85.239 -13.770  15.212  1.00  0.00     0.152 A 
HETATM   11  N1  UNL     1     -86.275 -14.617  15.261  1.00  0.00    -0.305 N 
HETATM   12  C20 UNL     1     -86.976 -14.463  14.131  1.00  0.00     0.156 A 
HETATM   13  C21 UNL     1     -84.297 -12.105  13.514  1.00  0.00    -0.015 C 
HETATM   14  C22 UNL     1     -82.945 -12.869  13.611  1.00  0.00     0.020 C 
HETATM   15  C23 UNL     1     -84.147 -10.985  14.508  1.00  0.00     0.020 C 
HETATM   16  C24 UNL     1     -84.497 -11.656  12.113  1.00  0.00     0.026 C 
HETATM   17  C25 UNL     1     -85.702 -12.033  11.390  1.00  0.00     0.056 C 
HETATM   18  C26 UNL     1     -85.452 -12.589   9.985  1.00  0.00     0.068 C 
HETATM   19  C27 UNL     1     -85.613 -11.480   8.983  1.00  0.00     0.047 C 
HETATM   20  C28 UNL     1     -84.136 -13.288   9.844  1.00  0.00     0.047 C 
HETATM   21  O6  UNL     1     -86.452 -13.599   9.635  1.00  0.00    -0.339 OA
ENDROOT
BRANCH   1  22
HETATM   22  C5  UNL     1     -89.367 -11.931  13.170  1.00  0.00     0.019 C 
HETATM   23  C6  UNL     1     -90.511 -12.508  13.890  1.00  0.00     0.015 C 
BRANCH  22  24
HETATM   24  C4  UNL     1     -89.492 -10.442  12.937  1.00  0.00     0.013 C 
BRANCH  24  25
HETATM   25  C2  UNL     1     -88.320  -9.577  13.130  1.00  0.00    -0.022 C 
HETATM   26  C1  UNL     1     -87.315  -9.958  14.175  1.00  0.00     0.009 C 
HETATM   27  C3  UNL     1     -87.691  -9.027  11.858  1.00  0.00     0.009 C 
ENDBRANCH  24  25
ENDBRANCH  22  24
ENDBRANCH   1  22
BRANCH   2  28
HETATM   28  O1  UNL     1     -91.459 -12.342  11.472  1.00  0.00    -0.359 OA
ATOM     29  H1  UNL     1     -91.945 -11.662  11.020  1.00  0.00     0.217 HD
ENDBRANCH   2  28
BRANCH   3  30
HETATM   30  C10 UNL     1     -91.255 -13.366   8.802  1.00  0.00     0.212 C 
HETATM   31  O2  UNL     1     -92.071 -12.504   8.498  1.00  0.00    -0.644 OA
HETATM   32  O3  UNL     1     -91.455 -14.627   8.204  1.00  0.00    -0.644 OA
ENDBRANCH   3  30
BRANCH  12  33
HETATM   33  O5  UNL     1     -88.115 -15.182  13.834  1.00  0.00    -0.345 OA
ATOM     34  H5  UNL     1     -89.010 -14.885  13.957  1.00  0.00     0.219 HD
ENDBRANCH  12  33
BRANCH  10  35
HETATM   35  O4  UNL     1     -84.283 -13.639  16.223  1.00  0.00    -0.345 OA
ATOM     36  H4  UNL     1     -84.282 -12.997  16.924  1.00  0.00     0.219 HD
ENDBRANCH  10  35
BRANCH  11  37
HETATM   37  C18 UNL     1     -86.599 -15.565  16.299  1.00  0.00     0.164 C 
BRANCH  37  38
HETATM   38  C19 UNL     1     -87.558 -15.103  17.333  1.00  0.00     0.242 C 
HETATM   39  F1  UNL     1     -87.988 -13.818  17.207  1.00  0.00    -0.254 F 
ENDBRANCH  37  38
ENDBRANCH  11  37
TORSDOF 9
ENDMDL
MODEL 5
REMARK VINA RESULT: -6.642471300      2.865      6.754
REMARK  9 active torsions:
REMARK  status: ('A' for Active; 'I' for Inactive)
REMARK    1  A    between atoms: C2_2  and  C4_4 
REMARK    2  A    between atoms: C4_4  and  C5_5 
REMARK    3  A    between atoms: C5_5  and  C7_7 
REMARK    4  A    between atoms: C8_8  and  O1_9 
REMARK    5  A    between atoms: C9_11  and  C10_12 
REMARK    6  A    between atoms: C17_21  and  O4_22 
REMARK    7  A    between atoms: N1_24  and  C18_25 
REMARK    8  A    between atoms: C18_25  and  C19_26 
REMARK    9  A    between atoms: C20_28  and  O5_29 
ROOT
HETATM    1  C7  UNL     1     -84.935 -11.773   9.858  1.00  0.00    -0.006 A 
HETATM    2  C8  UNL     1     -83.722 -11.239   9.341  1.00  0.00     0.090 A 
HETATM    3  C9  UNL     1     -83.610 -10.698   8.088  1.00  0.00     0.077 A 
HETATM    4  C11 UNL     1     -84.753 -10.674   7.267  1.00  0.00     0.059 A 
HETATM    5  C12 UNL     1     -85.911 -11.179   7.751  1.00  0.00     0.082 A 
HETATM    6  C13 UNL     1     -86.016 -11.728   9.062  1.00  0.00     0.015 A 
HETATM    7  C14 UNL     1     -87.392 -11.997   9.392  1.00  0.00    -0.022 C 
HETATM    8  C15 UNL     1     -88.113 -11.669  10.576  1.00  0.00     0.034 A 
HETATM    9  C16 UNL     1     -89.199 -12.451  10.934  1.00  0.00     0.016 A 
HETATM   10  C17 UNL     1     -89.738 -11.897  12.068  1.00  0.00     0.152 A 
HETATM   11  N1  UNL     1     -89.030 -10.812  12.408  1.00  0.00    -0.305 N 
HETATM   12  C20 UNL     1     -88.049 -10.673  11.508  1.00  0.00     0.156 A 
HETATM   13  C21 UNL     1     -89.708 -13.595  10.155  1.00  0.00    -0.015 C 
HETATM   14  C22 UNL     1     -91.198 -13.230   9.893  1.00  0.00     0.020 C 
HETATM   15  C23 UNL     1     -89.788 -14.798  11.055  1.00  0.00     0.020 C 
HETATM   16  C24 UNL     1     -89.038 -13.848   8.855  1.00  0.00     0.026 C 
HETATM   17  C25 UNL     1     -87.844 -13.101   8.491  1.00  0.00     0.056 C 
HETATM   18  C26 UNL     1     -87.870 -12.509   7.078  1.00  0.00     0.068 C 
HETATM   19  C27 UNL     1     -87.154 -13.442   6.142  1.00  0.00     0.047 C 
HETATM   20  C28 UNL     1     -89.248 -12.176   6.596  1.00  0.00     0.047 C 
HETATM   21  O6  UNL     1     -87.139 -11.242   7.027  1.00  0.00    -0.339 OA
ENDROOT
BRANCH   1  22
HETATM   22  C5  UNL     1     -84.881 -12.382  11.196  1.00  0.00     0.019 C 
HETATM   23  C6  UNL     1     -83.803 -11.878  12.059  1.00  0.00     0.015 C 
BRANCH  22  24
HETATM   24  C4  UNL     1     -84.810 -13.873  10.952  1.00  0.00     0.013 C 
BRANCH  24  25
HETATM   25  C2  UNL     1     -85.294 -14.800  11.984  1.00  0.00    -0.022 C 
HETATM   26  C1  UNL     1     -84.288 -15.476  12.867  1.00  0.00     0.009 C 
HETATM   27  C3  UNL     1     -86.551 -14.364  12.723  1.00  0.00     0.009 C 
ENDBRANCH  24  25
ENDBRANCH  22  24
ENDBRANCH   1  22
BRANCH   2  28
HETATM   28  O1  UNL     1     -82.625 -11.280  10.133  1.00  0.00    -0.359 OA
ATOM     29  H1  UNL     1     -82.426 -10.512  10.656  1.00  0.00     0.217 HD
ENDBRANCH   2  28
BRANCH   3  30
HETATM   30  C10 UNL     1     -82.417 -10.114   7.523  1.00  0.00     0.212 C 
HETATM   31  O2  UNL     1     -81.824 -10.571   6.553  1.00  0.00    -0.644 OA
HETATM   32  O3  UNL     1     -81.856  -8.946   8.079  1.00  0.00    -0.644 OA
ENDBRANCH   3  30
BRANCH  12  33
HETATM   33  O5  UNL     1     -87.120  -9.653  11.541  1.00  0.00    -0.345 OA
ATOM     34  H5  UNL     1     -86.980  -9.049  12.261  1.00  0.00     0.219 HD
ENDBRANCH  12  33
BRANCH  10  35
HETATM   35  O4  UNL     1     -90.845 -12.366  12.780  1.00  0.00    -0.345 OA
ATOM     36  H4  UNL     1     -91.461 -13.032  12.498  1.00  0.00     0.219 HD
ENDBRANCH  10  35
BRANCH  11  37
HETATM   37  C18 UNL     1     -89.262  -9.908  13.507  1.00  0.00     0.164 C 
BRANCH  37  38
HETATM   38  C19 UNL     1     -88.663 -10.293  14.810  1.00  0.00     0.242 C 
HETATM   39  F1  UNL     1     -89.039 -11.506  15.297  1.00  0.00    -0.254 F 
ENDBRANCH  37  38
ENDBRANCH  11  37
TORSDOF 9
ENDMDL
