MODEL 1
REMARK VINA RESULT: -8.794160023      0.000      0.000
REMARK  10 active torsions:
REMARK  status: ('A' for Active; 'I' for Inactive)
REMARK    1  A    between atoms: O1_2  and  C2_3 
REMARK    2  A    between atoms: C3_4  and  O2_5 
REMARK    3  A    between atoms: C6_9  and  C7_10 
REMARK    4  A    between atoms: C7_10  and  C8_11 
REMARK    5  A    between atoms: C9_12  and  O3_13 
REMARK    6  A    between atoms: C11_15  and  O4_16 
REMARK    7  A    between atoms: C14_21  and  O5_22 
REMARK    8  A    between atoms: C16_25  and  O6_26 
REMARK    9  A    between atoms: C17_28  and  C18_29 
REMARK   10  A    between atoms: C18_29  and  C19_30 
ROOT
HETATM    1  C8  UNL     1     -87.490 -13.007   9.406  1.00  0.00    -0.006 A 
HETATM    2  C9  UNL     1     -86.093 -12.805   9.606  1.00  0.00     0.110 A 
HETATM    3  C11 UNL     1     -85.270 -12.243   8.669  1.00  0.00     0.118 A 
HETATM    4  C12 UNL     1     -85.816 -11.855   7.489  1.00  0.00     0.060 A 
HETATM    5 BR1  UNL     1     -84.661 -11.075   6.192  1.00  0.00    -0.047 Br
HETATM    6  C13 UNL     1     -87.165 -12.030   7.257  1.00  0.00     0.029 A 
HETATM    7  C14 UNL     1     -87.645 -11.593   6.032  1.00  0.00     0.081 A 
HETATM    8  C15 UNL     1     -88.964 -11.711   5.725  1.00  0.00     0.074 A 
HETATM    9  C16 UNL     1     -89.813 -12.279   6.668  1.00  0.00     0.075 A 
HETATM   10  C17 UNL     1     -89.389 -12.732   7.903  1.00  0.00    -0.010 A 
HETATM   11  C23 UNL     1     -88.041 -12.610   8.207  1.00  0.00    -0.003 A 
ENDROOT
BRANCH   1  12
HETATM   12  C7  UNL     1     -88.212 -13.640  10.467  1.00  0.00     0.081 C 
BRANCH  12  13
HETATM   13  C6  UNL     1     -88.471 -12.498  11.475  1.00  0.00    -0.045 A 
HETATM   14  C5  UNL     1     -88.369 -11.218  11.031  1.00  0.00     0.011 A 
HETATM   15  C4  UNL     1     -88.627 -10.158  11.914  1.00  0.00     0.040 A 
HETATM   16  C3  UNL     1     -88.983 -10.434  13.234  1.00  0.00     0.099 A 
HETATM   17  C2  UNL     1     -89.080 -11.730  13.666  1.00  0.00     0.107 A 
HETATM   18  C24 UNL     1     -88.823 -12.736  12.778  1.00  0.00    -0.019 A 
HETATM   19  C25 UNL     1     -88.909 -14.162  13.247  1.00  0.00     0.052 C 
BRANCH  16  20
HETATM   20  O2  UNL     1     -89.235  -9.363  14.097  1.00  0.00    -0.358 OA
ATOM     21  H2  UNL     1     -89.015  -8.472  13.851  1.00  0.00     0.217 HD
ENDBRANCH  16  20
BRANCH  17  22
HETATM   22  O1  UNL     1     -89.428 -12.017  14.960  1.00  0.00    -0.353 OA
HETATM   23  C1  UNL     1     -88.444 -12.019  15.992  1.00  0.00     0.210 C 
ENDBRANCH  17  22
ENDBRANCH  12  13
ENDBRANCH   1  12
BRANCH   2  24
HETATM   24  O3  UNL     1     -85.594 -13.214  10.837  1.00  0.00    -0.352 OA
HETATM   25  C10 UNL     1     -84.752 -14.347  10.975  1.00  0.00     0.210 C 
ENDBRANCH   2  24
BRANCH   3  26
HETATM   26  O4  UNL     1     -83.910 -12.090   8.962  1.00  0.00    -0.357 OA
ATOM     27  H4  UNL     1     -83.377 -11.535   8.405  1.00  0.00     0.218 HD
ENDBRANCH   3  26
BRANCH  10  28
HETATM   28  C18 UNL     1     -90.321 -13.279   8.847  1.00  0.00     0.070 C 
BRANCH  28  29
HETATM   29  C19 UNL     1     -90.896 -14.577   8.387  1.00  0.00    -0.020 C 
HETATM   30  C20 UNL     1     -91.542 -15.390   9.210  1.00  0.00    -0.091 C 
HETATM   31  C21 UNL     1     -91.723 -15.025  10.660  1.00  0.00     0.042 C 
HETATM   32  C22 UNL     1     -92.107 -16.686   8.765  1.00  0.00     0.042 C 
ENDBRANCH  28  29
ENDBRANCH  10  28
BRANCH   7  33
HETATM   33  O5  UNL     1     -86.742 -11.024   5.110  1.00  0.00    -0.360 OA
ATOM     34  H5  UNL     1     -87.078 -10.679   4.290  1.00  0.00     0.217 HD
ENDBRANCH   7  33
BRANCH   9  35
HETATM   35  O6  UNL     1     -91.142 -12.339   6.235  1.00  0.00    -0.360 OA
ATOM     36  H6  UNL     1     -91.464 -13.230   6.156  1.00  0.00     0.217 HD
ENDBRANCH   9  35
TORSDOF 10
ENDMDL
MODEL 2
REMARK VINA RESULT: -8.769281696      0.834      1.183
REMARK  10 active torsions:
REMARK  status: ('A' for Active; 'I' for Inactive)
REMARK    1  A    between atoms: O1_2  and  C2_3 
REMARK    2  A    between atoms: C3_4  and  O2_5 
REMARK    3  A    between atoms: C6_9  and  C7_10 
REMARK    4  A    between atoms: C7_10  and  C8_11 
REMARK    5  A    between atoms: C9_12  and  O3_13 
REMARK    6  A    between atoms: C11_15  and  O4_16 
REMARK    7  A    between atoms: C14_21  and  O5_22 
REMARK    8  A    between atoms: C16_25  and  O6_26 
REMARK    9  A    between atoms: C17_28  and  C18_29 
REMARK   10  A    between atoms: C18_29  and  C19_30 
ROOT
HETATM    1  C8  UNL     1     -87.468 -13.045   9.411  1.00  0.00    -0.006 A 
HETATM    2  C9  UNL     1     -86.084 -12.799   9.649  1.00  0.00     0.110 A 
HETATM    3  C11 UNL     1     -85.259 -12.187   8.745  1.00  0.00     0.118 A 
HETATM    4  C12 UNL     1     -85.791 -11.791   7.561  1.00  0.00     0.060 A 
HETATM    5 BR1  UNL     1     -84.634 -10.941   6.311  1.00  0.00    -0.047 Br
HETATM    6  C13 UNL     1     -87.127 -12.007   7.293  1.00  0.00     0.029 A 
HETATM    7  C14 UNL     1     -87.594 -11.557   6.067  1.00  0.00     0.081 A 
HETATM    8  C15 UNL     1     -88.900 -11.713   5.726  1.00  0.00     0.074 A 
HETATM    9  C16 UNL     1     -89.750 -12.332   6.635  1.00  0.00     0.075 A 
HETATM   10  C17 UNL     1     -89.340 -12.799   7.869  1.00  0.00    -0.010 A 
HETATM   11  C23 UNL     1     -88.004 -12.638   8.208  1.00  0.00    -0.003 A 
ENDROOT
BRANCH   1  12
HETATM   12  C7  UNL     1     -88.192 -13.726  10.440  1.00  0.00     0.081 C 
BRANCH  12  13
HETATM   13  C6  UNL     1     -88.506 -12.620  11.471  1.00  0.00    -0.045 A 
HETATM   14  C5  UNL     1     -88.417 -11.326  11.068  1.00  0.00     0.011 A 
HETATM   15  C4  UNL     1     -88.724 -10.297  11.972  1.00  0.00     0.040 A 
HETATM   16  C3  UNL     1     -89.115 -10.619  13.272  1.00  0.00     0.099 A 
HETATM   17  C2  UNL     1     -89.198 -11.928  13.663  1.00  0.00     0.107 A 
HETATM   18  C24 UNL     1     -88.893 -12.903  12.756  1.00  0.00    -0.019 A 
HETATM   19  C25 UNL     1     -88.963 -14.343  13.180  1.00  0.00     0.052 C 
BRANCH  16  20
HETATM   20  O2  UNL     1     -89.416  -9.579  14.157  1.00  0.00    -0.358 OA
ATOM     21  H2  UNL     1     -88.793  -8.882  14.326  1.00  0.00     0.217 HD
ENDBRANCH  16  20
BRANCH  17  22
HETATM   22  O1  UNL     1     -89.581 -12.261  14.937  1.00  0.00    -0.353 OA
HETATM   23  C1  UNL     1     -88.621 -12.314  15.991  1.00  0.00     0.210 C 
ENDBRANCH  17  22
ENDBRANCH  12  13
ENDBRANCH   1  12
BRANCH   2  24
HETATM   24  O3  UNL     1     -85.600 -13.220  10.882  1.00  0.00    -0.352 OA
HETATM   25  C10 UNL     1     -84.750 -14.348  11.018  1.00  0.00     0.210 C 
ENDBRANCH   2  24
BRANCH   3  26
HETATM   26  O4  UNL     1     -83.913 -11.995   9.074  1.00  0.00    -0.357 OA
ATOM     27  H4  UNL     1     -83.595 -11.112   9.220  1.00  0.00     0.218 HD
ENDBRANCH   3  26
BRANCH  10  28
HETATM   28  C18 UNL     1     -90.274 -13.400   8.779  1.00  0.00     0.070 C 
BRANCH  28  29
HETATM   29  C19 UNL     1     -91.346 -12.448   9.197  1.00  0.00    -0.020 C 
HETATM   30  C20 UNL     1     -92.155 -12.707  10.213  1.00  0.00    -0.091 C 
HETATM   31  C21 UNL     1     -92.019 -13.987  10.994  1.00  0.00     0.042 C 
HETATM   32  C22 UNL     1     -93.230 -11.774  10.630  1.00  0.00     0.042 C 
ENDBRANCH  28  29
ENDBRANCH  10  28
BRANCH   7  33
HETATM   33  O5  UNL     1     -86.690 -10.936   5.180  1.00  0.00    -0.360 OA
ATOM     34  H5  UNL     1     -87.034 -10.452   4.438  1.00  0.00     0.217 HD
ENDBRANCH   7  33
BRANCH   9  35
HETATM   35  O6  UNL     1     -91.066 -12.427   6.169  1.00  0.00    -0.360 OA
ATOM     36  H6  UNL     1     -91.209 -13.191   5.622  1.00  0.00     0.217 HD
ENDBRANCH   9  35
TORSDOF 10
ENDMDL
MODEL 3
REMARK VINA RESULT: -8.389885303      1.928      4.538
REMARK  10 active torsions:
REMARK  status: ('A' for Active; 'I' for Inactive)
REMARK    1  A    between atoms: O1_2  and  C2_3 
REMARK    2  A    between atoms: C3_4  and  O2_5 
REMARK    3  A    between atoms: C6_9  and  C7_10 
REMARK    4  A    between atoms: C7_10  and  C8_11 
REMARK    5  A    between atoms: C9_12  and  O3_13 
REMARK    6  A    between atoms: C11_15  and  O4_16 
REMARK    7  A    between atoms: C14_21  and  O5_22 
REMARK    8  A    between atoms: C16_25  and  O6_26 
REMARK    9  A    between atoms: C17_28  and  C18_29 
REMARK   10  A    between atoms: C18_29  and  C19_30 
ROOT
HETATM    1  C8  UNL     1     -87.633 -12.963   9.443  1.00  0.00    -0.006 A 
HETATM    2  C9  UNL     1     -89.001 -13.286   9.205  1.00  0.00     0.110 A 
HETATM    3  C11 UNL     1     -89.650 -13.003   8.034  1.00  0.00     0.118 A 
HETATM    4  C12 UNL     1     -88.952 -12.386   7.049  1.00  0.00     0.060 A 
HETATM    5 BR1  UNL     1     -89.866 -11.997   5.424  1.00  0.00    -0.047 Br
HETATM    6  C13 UNL     1     -87.624 -12.060   7.238  1.00  0.00     0.029 A 
HETATM    7  C14 UNL     1     -86.980 -11.446   6.175  1.00  0.00     0.081 A 
HETATM    8  C15 UNL     1     -85.667 -11.104   6.268  1.00  0.00     0.074 A 
HETATM    9  C16 UNL     1     -84.994 -11.387   7.451  1.00  0.00     0.075 A 
HETATM   10  C17 UNL     1     -85.586 -11.996   8.541  1.00  0.00    -0.010 A 
HETATM   11  C23 UNL     1     -86.926 -12.339   8.438  1.00  0.00    -0.003 A 
ENDROOT
BRANCH   1  12
HETATM   12  C7  UNL     1     -87.104 -13.292  10.731  1.00  0.00     0.081 C 
BRANCH  12  13
HETATM   13  C6  UNL     1     -87.685 -12.205  11.662  1.00  0.00    -0.045 A 
HETATM   14  C5  UNL     1     -87.809 -10.944  11.172  1.00  0.00     0.011 A 
HETATM   15  C4  UNL     1     -88.362  -9.939  11.983  1.00  0.00     0.040 A 
HETATM   16  C3  UNL     1     -88.773 -10.251  13.279  1.00  0.00     0.099 A 
HETATM   17  C2  UNL     1     -88.639 -11.526  13.758  1.00  0.00     0.107 A 
HETATM   18  C24 UNL     1     -88.099 -12.478  12.940  1.00  0.00    -0.019 A 
HETATM   19  C25 UNL     1     -87.931 -13.878  13.462  1.00  0.00     0.052 C 
BRANCH  16  20
HETATM   20  O2  UNL     1     -89.320  -9.235  14.069  1.00  0.00    -0.358 OA
ATOM     21  H2  UNL     1     -88.822  -8.841  14.776  1.00  0.00     0.217 HD
ENDBRANCH  16  20
BRANCH  17  22
HETATM   22  O1  UNL     1     -89.038 -11.847  15.029  1.00  0.00    -0.353 OA
HETATM   23  C1  UNL     1     -88.186 -11.588  16.144  1.00  0.00     0.210 C 
ENDBRANCH  17  22
ENDBRANCH  12  13
ENDBRANCH   1  12
BRANCH   2  24
HETATM   24  O3  UNL     1     -89.661 -13.924  10.247  1.00  0.00    -0.352 OA
HETATM   25  C10 UNL     1     -89.942 -15.315  10.229  1.00  0.00     0.210 C 
ENDBRANCH   2  24
BRANCH   3  26
HETATM   26  O4  UNL     1     -90.997 -13.359   7.900  1.00  0.00    -0.357 OA
ATOM     27  H4  UNL     1     -91.218 -14.254   7.669  1.00  0.00     0.218 HD
ENDBRANCH   3  26
BRANCH  10  28
HETATM   28  C18 UNL     1     -84.828 -12.292   9.723  1.00  0.00     0.070 C 
BRANCH  28  29
HETATM   29  C19 UNL     1     -84.386 -11.056  10.434  1.00  0.00    -0.020 C 
HETATM   30  C20 UNL     1     -84.046 -11.068  11.715  1.00  0.00    -0.091 C 
HETATM   31  C21 UNL     1     -84.091 -12.347  12.507  1.00  0.00     0.042 C 
HETATM   32  C22 UNL     1     -83.617  -9.844  12.434  1.00  0.00     0.042 C 
ENDBRANCH  28  29
ENDBRANCH  10  28
BRANCH   7  33
HETATM   33  O5  UNL     1     -87.708 -11.181   4.997  1.00  0.00    -0.360 OA
ATOM     34  H5  UNL     1     -87.496 -11.666   4.207  1.00  0.00     0.217 HD
ENDBRANCH   7  33
BRANCH   9  35
HETATM   35  O6  UNL     1     -83.652 -10.991   7.419  1.00  0.00    -0.360 OA
ATOM     36  H6  UNL     1     -83.260 -11.085   6.558  1.00  0.00     0.217 HD
ENDBRANCH   9  35
TORSDOF 10
ENDMDL
MODEL 4
REMARK VINA RESULT: -8.113005560      2.812      5.088
REMARK  10 active torsions:
REMARK  status: ('A' for Active; 'I' for Inactive)
REMARK    1  A    between atoms: O1_2  and  C2_3 
REMARK    2  A    between atoms: C3_4  and  O2_5 
REMARK    3  A    between atoms: C6_9  and  C7_10 
REMARK    4  A    between atoms: C7_10  and  C8_11 
REMARK    5  A    between atoms: C9_12  and  O3_13 
REMARK    6  A    between atoms: C11_15  and  O4_16 
REMARK    7  A    between atoms: C14_21  and  O5_22 
REMARK    8  A    between atoms: C16_25  and  O6_26 
REMARK    9  A    between atoms: C17_28  and  C18_29 
REMARK   10  A    between atoms: C18_29  and  C19_30 
ROOT
HETATM    1  C8  UNL     1     -88.547 -13.905  11.226  1.00  0.00    -0.006 A 
HETATM    2  C9  UNL     1     -89.446 -14.300  12.259  1.00  0.00     0.110 A 
HETATM    3  C11 UNL     1     -90.807 -14.284  12.123  1.00  0.00     0.118 A 
HETATM    4  C12 UNL     1     -91.326 -13.871  10.939  1.00  0.00     0.060 A 
HETATM    5 BR1  UNL     1     -93.222 -13.852  10.761  1.00  0.00    -0.047 Br
HETATM    6  C13 UNL     1     -90.490 -13.484   9.912  1.00  0.00     0.029 A 
HETATM    7  C14 UNL     1     -91.101 -13.091   8.730  1.00  0.00     0.081 A 
HETATM    8  C15 UNL     1     -90.354 -12.710   7.661  1.00  0.00     0.074 A 
HETATM    9  C16 UNL     1     -88.969 -12.723   7.784  1.00  0.00     0.075 A 
HETATM   10  C17 UNL     1     -88.308 -13.103   8.936  1.00  0.00    -0.010 A 
HETATM   11  C23 UNL     1     -89.078 -13.490  10.024  1.00  0.00    -0.003 A 
ENDROOT
BRANCH   1  12
HETATM   12  C7  UNL     1     -87.150 -13.945  11.531  1.00  0.00     0.081 C 
BRANCH  12  13
HETATM   13  C6  UNL     1     -86.920 -12.685  12.394  1.00  0.00    -0.045 A 
HETATM   14  C5  UNL     1     -87.712 -11.603  12.170  1.00  0.00     0.011 A 
HETATM   15  C4  UNL     1     -87.549 -10.453  12.958  1.00  0.00     0.040 A 
HETATM   16  C3  UNL     1     -86.575 -10.437  13.958  1.00  0.00     0.099 A 
HETATM   17  C2  UNL     1     -85.785 -11.534  14.170  1.00  0.00     0.107 A 
HETATM   18  C24 UNL     1     -85.973 -12.636  13.385  1.00  0.00    -0.019 A 
HETATM   19  C25 UNL     1     -85.099 -13.841  13.597  1.00  0.00     0.052 C 
BRANCH  16  20
HETATM   20  O2  UNL     1     -86.430  -9.280  14.731  1.00  0.00    -0.358 OA
ATOM     21  H2  UNL     1     -85.878  -8.563  14.442  1.00  0.00     0.217 HD
ENDBRANCH  16  20
BRANCH  17  22
HETATM   22  O1  UNL     1     -84.825 -11.533  15.148  1.00  0.00    -0.353 OA
HETATM   23  C1  UNL     1     -85.167 -11.835  16.499  1.00  0.00     0.210 C 
ENDBRANCH  17  22
ENDBRANCH  12  13
ENDBRANCH   1  12
BRANCH   2  24
HETATM   24  O3  UNL     1     -88.856 -14.720  13.444  1.00  0.00    -0.352 OA
HETATM   25  C10 UNL     1     -89.103 -14.077  14.684  1.00  0.00     0.210 C 
ENDBRANCH   2  24
BRANCH   3  26
HETATM   26  O4  UNL     1     -91.604 -14.689  13.199  1.00  0.00    -0.357 OA
ATOM     27  H4  UNL     1     -92.258 -14.091  13.540  1.00  0.00     0.218 HD
ENDBRANCH   3  26
BRANCH  10  28
HETATM   28  C18 UNL     1     -86.874 -13.128   8.990  1.00  0.00     0.070 C 
BRANCH  28  29
HETATM   29  C19 UNL     1     -86.283 -11.760   8.917  1.00  0.00    -0.020 C 
HETATM   30  C20 UNL     1     -85.042 -11.510   9.310  1.00  0.00    -0.091 C 
HETATM   31  C21 UNL     1     -84.173 -12.614   9.849  1.00  0.00     0.042 C 
HETATM   32  C22 UNL     1     -84.449 -10.152   9.251  1.00  0.00     0.042 C 
ENDBRANCH  28  29
ENDBRANCH  10  28
BRANCH   7  33
HETATM   33  O5  UNL     1     -92.509 -13.096   8.657  1.00  0.00    -0.360 OA
ATOM     34  H5  UNL     1     -92.925 -13.044   7.804  1.00  0.00     0.217 HD
ENDBRANCH   7  33
BRANCH   9  35
HETATM   35  O6  UNL     1     -88.317 -12.314   6.616  1.00  0.00    -0.360 OA
ATOM     36  H6  UNL     1     -87.429 -12.015   6.774  1.00  0.00     0.217 HD
ENDBRANCH   9  35
TORSDOF 10
ENDMDL
MODEL 5
REMARK VINA RESULT: -7.957968876      1.176      1.546
REMARK  10 active torsions:
REMARK  status: ('A' for Active; 'I' for Inactive)
REMARK    1  A    between atoms: O1_2  and  C2_3 
REMARK    2  A    between atoms: C3_4  and  O2_5 
REMARK    3  A    between atoms: C6_9  and  C7_10 
REMARK    4  A    between atoms: C7_10  and  C8_11 
REMARK    5  A    between atoms: C9_12  and  O3_13 
REMARK    6  A    between atoms: C11_15  and  O4_16 
REMARK    7  A    between atoms: C14_21  and  O5_22 
REMARK    8  A    between atoms: C16_25  and  O6_26 
REMARK    9  A    between atoms: C17_28  and  C18_29 
REMARK   10  A    between atoms: C18_29  and  C19_30 
ROOT
HETATM    1  C8  UNL     1     -86.595 -12.905   9.523  1.00  0.00    -0.006 A 
HETATM    2  C9  UNL     1     -85.324 -12.600  10.093  1.00  0.00     0.110 A 
HETATM    3  C11 UNL     1     -84.327 -11.957   9.412  1.00  0.00     0.118 A 
HETATM    4  C12 UNL     1     -84.564 -11.588   8.129  1.00  0.00     0.060 A 
HETATM    5 BR1  UNL     1     -83.168 -10.694   7.191  1.00  0.00    -0.047 Br
HETATM    6  C13 UNL     1     -85.782 -11.862   7.541  1.00  0.00     0.029 A 
HETATM    7  C14 UNL     1     -85.948 -11.437   6.231  1.00  0.00     0.081 A 
HETATM    8  C15 UNL     1     -87.122 -11.650   5.580  1.00  0.00     0.074 A 
HETATM    9  C16 UNL     1     -88.145 -12.301   6.259  1.00  0.00     0.075 A 
HETATM   10  C17 UNL     1     -88.035 -12.746   7.563  1.00  0.00    -0.010 A 
HETATM   11  C23 UNL     1     -86.833 -12.526   8.220  1.00  0.00    -0.003 A 
ENDROOT
BRANCH   1  12
HETATM   12  C7  UNL     1     -87.524 -13.613  10.350  1.00  0.00     0.081 C 
BRANCH  12  13
HETATM   13  C6  UNL     1     -88.030 -12.544  11.343  1.00  0.00    -0.045 A 
HETATM   14  C5  UNL     1     -88.049 -11.248  10.933  1.00  0.00     0.011 A 
HETATM   15  C4  UNL     1     -88.532 -10.256  11.800  1.00  0.00     0.040 A 
HETATM   16  C3  UNL     1     -88.984 -10.614  13.070  1.00  0.00     0.099 A 
HETATM   17  C2  UNL     1     -88.958 -11.923  13.469  1.00  0.00     0.107 A 
HETATM   18  C24 UNL     1     -88.482 -12.862  12.597  1.00  0.00    -0.019 A 
HETATM   19  C25 UNL     1     -88.432 -14.300  13.031  1.00  0.00     0.052 C 
BRANCH  16  20
HETATM   20  O2  UNL     1     -89.461  -9.609  13.918  1.00  0.00    -0.358 OA
ATOM     21  H2  UNL     1     -89.491  -9.734  14.859  1.00  0.00     0.217 HD
ENDBRANCH  16  20
BRANCH  17  22
HETATM   22  O1  UNL     1     -89.399 -12.290  14.713  1.00  0.00    -0.353 OA
HETATM   23  C1  UNL     1     -88.548 -12.160  15.851  1.00  0.00     0.210 C 
ENDBRANCH  17  22
ENDBRANCH  12  13
ENDBRANCH   1  12
BRANCH   2  24
HETATM   24  O3  UNL     1     -85.144 -12.995  11.413  1.00  0.00    -0.352 OA
HETATM   25  C10 UNL     1     -84.512 -14.216  11.759  1.00  0.00     0.210 C 
ENDBRANCH   2  24
BRANCH   3  26
HETATM   26  O4  UNL     1     -83.113 -11.706  10.061  1.00  0.00    -0.357 OA
ATOM     27  H4  UNL     1     -83.098 -11.656  11.010  1.00  0.00     0.218 HD
ENDBRANCH   3  26
BRANCH  10  28
HETATM   28  C18 UNL     1     -89.140 -13.382   8.221  1.00  0.00     0.070 C 
BRANCH  28  29
HETATM   29  C19 UNL     1     -90.276 -12.442   8.453  1.00  0.00    -0.020 C 
HETATM   30  C20 UNL     1     -91.241 -12.708   9.321  1.00  0.00    -0.091 C 
HETATM   31  C21 UNL     1     -91.223 -13.985  10.118  1.00  0.00     0.042 C 
HETATM   32  C22 UNL     1     -92.380 -11.786   9.550  1.00  0.00     0.042 C 
ENDBRANCH  28  29
ENDBRANCH  10  28
BRANCH   7  33
HETATM   33  O5  UNL     1     -84.879 -10.781   5.587  1.00  0.00    -0.360 OA
ATOM     34  H5  UNL     1     -84.937 -10.615   4.653  1.00  0.00     0.217 HD
ENDBRANCH   7  33
BRANCH   9  35
HETATM   35  O6  UNL     1     -89.299 -12.454   5.483  1.00  0.00    -0.360 OA
ATOM     36  H6  UNL     1     -89.929 -13.050   5.873  1.00  0.00     0.217 HD
ENDBRANCH   9  35
TORSDOF 10
ENDMDL
