MODEL 1
REMARK VINA RESULT: -9.672114089      0.000      0.000
REMARK  8 active torsions:
REMARK  status: ('A' for Active; 'I' for Inactive)
REMARK    1  A    between atoms: N4_24  and  C17_25 
REMARK    2  A    between atoms: C17_25  and  C18_26 
REMARK    3  A    between atoms: C18_26  and  C19_27 
REMARK    4  A    between atoms: C19_27  and  C20_28 
REMARK    5  A    between atoms: C20_28  and  C21_29 
REMARK    6  A    between atoms: N5_30  and  C22_32 
REMARK    7  A    between atoms: C24_34  and  O2_35 
REMARK    8  A    between atoms: C27_39  and  O3_40 
ROOT
HETATM    1  N1  UNL     1     -92.113 -16.900   8.134  1.00  0.00    -0.191 NA
HETATM    2  C1  UNL     1     -91.332 -16.219   8.665  1.00  0.00     0.099 C 
HETATM    3  C2  UNL     1     -90.380 -15.359   9.335  1.00  0.00     0.045 A 
HETATM    4  C3  UNL     1     -90.087 -15.519  10.670  1.00  0.00     0.025 A 
HETATM    5  C4  UNL     1     -89.174 -14.675  11.262  1.00  0.00     0.032 A 
HETATM    6  C5  UNL     1     -88.546 -13.676  10.554  1.00  0.00     0.043 A 
HETATM    7  N2  UNL     1     -87.630 -12.730  10.882  1.00  0.00    -0.357 N 
ATOM      8  H2  UNL     1     -87.225 -12.607  11.811  1.00  0.00     0.166 HD
HETATM    9  C6  UNL     1     -87.332 -11.977   9.809  1.00  0.00     0.044 A 
HETATM   10  C7  UNL     1     -88.115 -12.500   8.770  1.00  0.00     0.069 A 
HETATM   11  C8  UNL     1     -88.875 -13.550   9.196  1.00  0.00     0.010 A 
HETATM   12  C9  UNL     1     -89.765 -14.357   8.574  1.00  0.00     0.037 A 
HETATM   13  C10 UNL     1     -88.260 -12.111   7.357  1.00  0.00     0.259 C 
HETATM   14  O1  UNL     1     -89.396 -12.308   6.882  1.00  0.00    -0.267 OA
HETATM   15  N3  UNL     1     -87.286 -11.546   6.474  1.00  0.00    -0.321 N 
ATOM     16  H3  UNL     1     -87.683 -11.245   5.584  1.00  0.00     0.169 HD
HETATM   17  C11 UNL     1     -85.870 -11.310   6.566  1.00  0.00     0.064 A 
HETATM   18  C12 UNL     1     -85.401 -11.339   5.277  1.00  0.00     0.074 A 
HETATM   19  C13 UNL     1     -84.043 -11.174   5.059  1.00  0.00     0.118 A 
HETATM   20  F1  UNL     1     -83.566 -11.200   3.802  1.00  0.00    -0.206 F 
HETATM   21  C14 UNL     1     -83.198 -10.986   6.132  1.00  0.00     0.044 A 
HETATM   22  C15 UNL     1     -83.688 -10.958   7.444  1.00  0.00     0.035 A 
HETATM   23  C16 UNL     1     -85.034 -11.119   7.676  1.00  0.00     0.057 A 
HETATM   24  N4  UNL     1     -85.158 -11.018   9.090  1.00  0.00    -0.373 N 
HETATM   25  C28 UNL     1     -86.391 -10.877   9.877  1.00  0.00     0.181 C 
ENDROOT
BRANCH  24  26
HETATM   26  C17 UNL     1     -83.968 -11.065   9.884  1.00  0.00     0.123 C 
BRANCH  26  27
HETATM   27  C18 UNL     1     -84.104 -11.008  11.351  1.00  0.00     0.020 C 
BRANCH  27  28
HETATM   28  C19 UNL     1     -83.539  -9.887  12.125  1.00  0.00     0.007 C 
BRANCH  28  29
HETATM   29  C20 UNL     1     -84.426  -9.475  13.298  1.00  0.00     0.044 C 
BRANCH  29  30
HETATM   30  C21 UNL     1     -85.549 -10.413  13.476  1.00  0.00     0.061 C 
HETATM   31  N5  UNL     1     -86.719  -9.958  13.683  1.00  0.00    -0.367 N 
ATOM     32  H5  UNL     1     -86.800  -8.941  13.713  1.00  0.00     0.165 HD
BRANCH  31  33
HETATM   33  C22 UNL     1     -87.901 -10.665  13.874  1.00  0.00     0.068 A 
HETATM   34  C23 UNL     1     -88.045 -11.461  14.982  1.00  0.00     0.068 A 
HETATM   35  C24 UNL     1     -89.210 -12.165  15.185  1.00  0.00     0.068 A 
HETATM   36  C25 UNL     1     -90.251 -12.088  14.285  1.00  0.00     0.039 A 
HETATM   37  C26 UNL     1     -90.113 -11.292  13.172  1.00  0.00     0.041 A 
HETATM   38  C27 UNL     1     -88.928 -10.579  12.973  1.00  0.00     0.092 A 
BRANCH  35  39
HETATM   39  O2  UNL     1     -89.306 -12.958  16.322  1.00  0.00    -0.361 OA
ATOM     40  H2  UNL     1     -90.163 -13.287  16.567  1.00  0.00     0.217 HD
ENDBRANCH  35  39
BRANCH  38  41
HETATM   41  O3  UNL     1     -88.853  -9.788  11.821  1.00  0.00    -0.358 OA
ATOM     42  H3  UNL     1     -89.218 -10.063  10.988  1.00  0.00     0.217 HD
ENDBRANCH  38  41
ENDBRANCH  31  33
ENDBRANCH  29  30
ENDBRANCH  28  29
ENDBRANCH  27  28
ENDBRANCH  26  27
ENDBRANCH  24  26
TORSDOF 8
ENDMDL
MODEL 2
REMARK VINA RESULT: -9.658029176      2.472      5.542
REMARK  8 active torsions:
REMARK  status: ('A' for Active; 'I' for Inactive)
REMARK    1  A    between atoms: N4_24  and  C17_25 
REMARK    2  A    between atoms: C17_25  and  C18_26 
REMARK    3  A    between atoms: C18_26  and  C19_27 
REMARK    4  A    between atoms: C19_27  and  C20_28 
REMARK    5  A    between atoms: C20_28  and  C21_29 
REMARK    6  A    between atoms: N5_30  and  C22_32 
REMARK    7  A    between atoms: C24_34  and  O2_35 
REMARK    8  A    between atoms: C27_39  and  O3_40 
ROOT
HETATM    1  N1  UNL     1     -85.585 -12.634  16.670  1.00  0.00    -0.191 NA
HETATM    2  C1  UNL     1     -86.400 -13.000  15.923  1.00  0.00     0.099 C 
HETATM    3  C2  UNL     1     -87.407 -13.479  15.001  1.00  0.00     0.045 A 
HETATM    4  C3  UNL     1     -88.658 -13.850  15.437  1.00  0.00     0.025 A 
HETATM    5  C4  UNL     1     -89.582 -14.299  14.520  1.00  0.00     0.032 A 
HETATM    6  C5  UNL     1     -89.288 -14.387  13.180  1.00  0.00     0.043 A 
HETATM    7  N2  UNL     1     -89.994 -14.786  12.091  1.00  0.00    -0.357 N 
ATOM      8  H2  UNL     1     -90.959 -15.116  12.110  1.00  0.00     0.166 HD
HETATM    9  C6  UNL     1     -89.239 -14.683  10.983  1.00  0.00     0.044 A 
HETATM   10  C7  UNL     1     -88.003 -14.194  11.429  1.00  0.00     0.069 A 
HETATM   11  C8  UNL     1     -88.000 -14.000  12.780  1.00  0.00     0.010 A 
HETATM   12  C9  UNL     1     -87.062 -13.551  13.645  1.00  0.00     0.037 A 
HETATM   13  C10 UNL     1     -86.753 -13.882  10.715  1.00  0.00     0.259 C 
HETATM   14  O1  UNL     1     -85.717 -14.071  11.383  1.00  0.00    -0.267 OA
HETATM   15  N3  UNL     1     -86.575 -13.401   9.380  1.00  0.00    -0.321 N 
ATOM     16  H3  UNL     1     -85.599 -13.395   9.085  1.00  0.00     0.169 HD
HETATM   17  C11 UNL     1     -87.471 -12.922   8.361  1.00  0.00     0.064 A 
HETATM   18  C12 UNL     1     -86.733 -12.062   7.588  1.00  0.00     0.074 A 
HETATM   19  C13 UNL     1     -87.357 -11.413   6.535  1.00  0.00     0.118 A 
HETATM   20  F1  UNL     1     -86.649 -10.566   5.766  1.00  0.00    -0.206 F 
HETATM   21  C14 UNL     1     -88.694 -11.643   6.287  1.00  0.00     0.044 A 
HETATM   22  C15 UNL     1     -89.437 -12.524   7.083  1.00  0.00     0.035 A 
HETATM   23  C16 UNL     1     -88.831 -13.176   8.132  1.00  0.00     0.057 A 
HETATM   24  N4  UNL     1     -89.867 -13.979   8.687  1.00  0.00    -0.373 N 
HETATM   25  C28 UNL     1     -89.736 -15.059   9.674  1.00  0.00     0.181 C 
ENDROOT
BRANCH  24  26
HETATM   26  C17 UNL     1     -91.215 -13.736   8.272  1.00  0.00     0.123 C 
BRANCH  26  27
HETATM   27  C18 UNL     1     -92.220 -13.433   9.307  1.00  0.00     0.020 C 
BRANCH  27  28
HETATM   28  C19 UNL     1     -92.488 -12.045   9.726  1.00  0.00     0.007 C 
BRANCH  28  29
HETATM   29  C20 UNL     1     -91.959 -11.740  11.126  1.00  0.00     0.044 C 
BRANCH  29  30
HETATM   30  C21 UNL     1     -90.516 -11.444  11.101  1.00  0.00     0.061 C 
HETATM   31  N5  UNL     1     -89.961 -10.950  12.134  1.00  0.00    -0.367 N 
ATOM     32  H5  UNL     1     -90.574 -10.787  12.933  1.00  0.00     0.165 HD
BRANCH  31  33
HETATM   33  C22 UNL     1     -88.626 -10.602  12.316  1.00  0.00     0.068 A 
HETATM   34  C23 UNL     1     -87.771 -10.605  11.242  1.00  0.00     0.068 A 
HETATM   35  C24 UNL     1     -86.448 -10.262  11.408  1.00  0.00     0.068 A 
HETATM   36  C25 UNL     1     -85.956  -9.911  12.646  1.00  0.00     0.039 A 
HETATM   37  C26 UNL     1     -86.808  -9.906  13.726  1.00  0.00     0.041 A 
HETATM   38  C27 UNL     1     -88.150 -10.255  13.551  1.00  0.00     0.092 A 
BRANCH  35  39
HETATM   39  O2  UNL     1     -85.623 -10.282  10.289  1.00  0.00    -0.361 OA
ATOM     40  H2  UNL     1     -85.541  -9.483   9.781  1.00  0.00     0.217 HD
ENDBRANCH  35  39
BRANCH  38  41
HETATM   41  O3  UNL     1     -88.962 -10.229  14.690  1.00  0.00    -0.358 OA
ATOM     42  H3  UNL     1     -89.376  -9.434  15.005  1.00  0.00     0.217 HD
ENDBRANCH  38  41
ENDBRANCH  31  33
ENDBRANCH  29  30
ENDBRANCH  28  29
ENDBRANCH  27  28
ENDBRANCH  26  27
ENDBRANCH  24  26
TORSDOF 8
ENDMDL
MODEL 3
REMARK VINA RESULT: -9.239132133      2.803      5.753
REMARK  8 active torsions:
REMARK  status: ('A' for Active; 'I' for Inactive)
REMARK    1  A    between atoms: N4_24  and  C17_25 
REMARK    2  A    between atoms: C17_25  and  C18_26 
REMARK    3  A    between atoms: C18_26  and  C19_27 
REMARK    4  A    between atoms: C19_27  and  C20_28 
REMARK    5  A    between atoms: C20_28  and  C21_29 
REMARK    6  A    between atoms: N5_30  and  C22_32 
REMARK    7  A    between atoms: C24_34  and  O2_35 
REMARK    8  A    between atoms: C27_39  and  O3_40 
ROOT
HETATM    1  N1  UNL     1     -88.664 -12.851  17.375  1.00  0.00    -0.191 NA
HETATM    2  C1  UNL     1     -88.687 -12.926  16.213  1.00  0.00     0.099 C 
HETATM    3  C2  UNL     1     -88.719 -13.044  14.771  1.00  0.00     0.045 A 
HETATM    4  C3  UNL     1     -89.908 -13.164  14.089  1.00  0.00     0.025 A 
HETATM    5  C4  UNL     1     -89.886 -13.273  12.716  1.00  0.00     0.032 A 
HETATM    6  C5  UNL     1     -88.707 -13.266  12.008  1.00  0.00     0.043 A 
HETATM    7  N2  UNL     1     -88.407 -13.356  10.687  1.00  0.00    -0.357 N 
ATOM      8  H2  UNL     1     -89.094 -13.453   9.939  1.00  0.00     0.166 HD
HETATM    9  C6  UNL     1     -87.077 -13.299  10.506  1.00  0.00     0.044 A 
HETATM   10  C7  UNL     1     -86.539 -13.167  11.794  1.00  0.00     0.069 A 
HETATM   11  C8  UNL     1     -87.518 -13.142  12.744  1.00  0.00     0.010 A 
HETATM   12  C9  UNL     1     -87.494 -13.031  14.093  1.00  0.00     0.037 A 
HETATM   13  C10 UNL     1     -85.150 -13.070  12.276  1.00  0.00     0.259 C 
HETATM   14  O1  UNL     1     -84.958 -13.573  13.401  1.00  0.00    -0.267 OA
HETATM   15  N3  UNL     1     -84.013 -12.486  11.633  1.00  0.00    -0.321 N 
ATOM     16  H3  UNL     1     -83.139 -12.672  12.124  1.00  0.00     0.169 HD
HETATM   17  C11 UNL     1     -83.833 -11.694  10.446  1.00  0.00     0.064 A 
HETATM   18  C12 UNL     1     -82.707 -10.942  10.666  1.00  0.00     0.074 A 
HETATM   19  C13 UNL     1     -82.305 -10.044   9.690  1.00  0.00     0.118 A 
HETATM   20  F1  UNL     1     -81.203  -9.299   9.889  1.00  0.00    -0.206 F 
HETATM   21  C14 UNL     1     -83.038  -9.926   8.528  1.00  0.00     0.044 A 
HETATM   22  C15 UNL     1     -84.186 -10.700   8.314  1.00  0.00     0.035 A 
HETATM   23  C16 UNL     1     -84.597 -11.596   9.274  1.00  0.00     0.057 A 
HETATM   24  N4  UNL     1     -85.759 -12.198   8.713  1.00  0.00    -0.373 N 
HETATM   25  C28 UNL     1     -86.473 -13.390   9.191  1.00  0.00     0.181 C 
ENDROOT
BRANCH  24  26
HETATM   26  C17 UNL     1     -86.343 -11.600   7.552  1.00  0.00     0.123 C 
BRANCH  26  27
HETATM   27  C18 UNL     1     -87.564 -12.209   6.992  1.00  0.00     0.020 C 
BRANCH  27  28
HETATM   28  C19 UNL     1     -88.397 -11.483   6.015  1.00  0.00     0.007 C 
BRANCH  28  29
HETATM   29  C20 UNL     1     -89.864 -11.906   6.064  1.00  0.00     0.044 C 
BRANCH  29  30
HETATM   30  C21 UNL     1     -90.207 -12.501   7.368  1.00  0.00     0.061 C 
HETATM   31  N5  UNL     1     -91.425 -12.549   7.734  1.00  0.00    -0.367 N 
ATOM     32  H5  UNL     1     -92.101 -12.159   7.077  1.00  0.00     0.165 HD
BRANCH  31  33
HETATM   33  C22 UNL     1     -91.955 -13.063   8.912  1.00  0.00     0.068 A 
HETATM   34  C23 UNL     1     -92.479 -12.211   9.850  1.00  0.00     0.068 A 
HETATM   35  C24 UNL     1     -93.008 -12.707  11.021  1.00  0.00     0.068 A 
HETATM   36  C25 UNL     1     -93.021 -14.061  11.275  1.00  0.00     0.039 A 
HETATM   37  C26 UNL     1     -92.497 -14.921  10.339  1.00  0.00     0.041 A 
HETATM   38  C27 UNL     1     -91.962 -14.411   9.152  1.00  0.00     0.092 A 
BRANCH  35  39
HETATM   39  O2  UNL     1     -93.526 -11.801  11.939  1.00  0.00    -0.361 OA
ATOM     40  H2  UNL     1     -93.155 -11.790  12.814  1.00  0.00     0.217 HD
ENDBRANCH  35  39
BRANCH  38  41
HETATM   41  O3  UNL     1     -91.445 -15.340   8.243  1.00  0.00    -0.358 OA
ATOM     42  H3  UNL     1     -91.850 -15.510   7.401  1.00  0.00     0.217 HD
ENDBRANCH  38  41
ENDBRANCH  31  33
ENDBRANCH  29  30
ENDBRANCH  28  29
ENDBRANCH  27  28
ENDBRANCH  26  27
ENDBRANCH  24  26
TORSDOF 8
ENDMDL
MODEL 4
REMARK VINA RESULT: -9.227722969      0.746      1.444
REMARK  8 active torsions:
REMARK  status: ('A' for Active; 'I' for Inactive)
REMARK    1  A    between atoms: N4_24  and  C17_25 
REMARK    2  A    between atoms: C17_25  and  C18_26 
REMARK    3  A    between atoms: C18_26  and  C19_27 
REMARK    4  A    between atoms: C19_27  and  C20_28 
REMARK    5  A    between atoms: C20_28  and  C21_29 
REMARK    6  A    between atoms: N5_30  and  C22_32 
REMARK    7  A    between atoms: C24_34  and  O2_35 
REMARK    8  A    between atoms: C27_39  and  O3_40 
ROOT
HETATM    1  N1  UNL     1     -92.194 -16.974   8.140  1.00  0.00    -0.191 NA
HETATM    2  C1  UNL     1     -91.432 -16.285   8.689  1.00  0.00     0.099 C 
HETATM    3  C2  UNL     1     -90.505 -15.416   9.381  1.00  0.00     0.045 A 
HETATM    4  C3  UNL     1     -90.241 -15.574  10.722  1.00  0.00     0.025 A 
HETATM    5  C4  UNL     1     -89.350 -14.721  11.335  1.00  0.00     0.032 A 
HETATM    6  C5  UNL     1     -88.716 -13.716  10.642  1.00  0.00     0.043 A 
HETATM    7  N2  UNL     1     -87.817 -12.761  10.992  1.00  0.00    -0.357 N 
ATOM      8  H2  UNL     1     -87.435 -12.634  11.930  1.00  0.00     0.166 HD
HETATM    9  C6  UNL     1     -87.502 -12.005   9.926  1.00  0.00     0.044 A 
HETATM   10  C7  UNL     1     -88.255 -12.534   8.869  1.00  0.00     0.069 A 
HETATM   11  C8  UNL     1     -89.015 -13.592   9.277  1.00  0.00     0.010 A 
HETATM   12  C9  UNL     1     -89.882 -14.407   8.634  1.00  0.00     0.037 A 
HETATM   13  C10 UNL     1     -88.372 -12.146   7.453  1.00  0.00     0.259 C 
HETATM   14  O1  UNL     1     -89.495 -12.354   6.951  1.00  0.00    -0.267 OA
HETATM   15  N3  UNL     1     -87.384 -11.571   6.593  1.00  0.00    -0.321 N 
ATOM     16  H3  UNL     1     -87.763 -11.273   5.694  1.00  0.00     0.169 HD
HETATM   17  C11 UNL     1     -85.972 -11.321   6.717  1.00  0.00     0.064 A 
HETATM   18  C12 UNL     1     -85.474 -11.345   5.439  1.00  0.00     0.074 A 
HETATM   19  C13 UNL     1     -84.112 -11.166   5.253  1.00  0.00     0.118 A 
HETATM   20  F1  UNL     1     -83.607 -11.186   4.007  1.00  0.00    -0.206 F 
HETATM   21  C14 UNL     1     -83.294 -10.971   6.345  1.00  0.00     0.044 A 
HETATM   22  C15 UNL     1     -83.815 -10.948   7.645  1.00  0.00     0.035 A 
HETATM   23  C16 UNL     1     -85.165 -11.122   7.846  1.00  0.00     0.057 A 
HETATM   24  N4  UNL     1     -85.321 -11.023   9.258  1.00  0.00    -0.373 N 
HETATM   25  C28 UNL     1     -86.574 -10.895  10.016  1.00  0.00     0.181 C 
ENDROOT
BRANCH  24  26
HETATM   26  C17 UNL     1     -84.150 -11.059  10.078  1.00  0.00     0.123 C 
BRANCH  26  27
HETATM   27  C18 UNL     1     -84.323 -11.094  11.542  1.00  0.00     0.020 C 
BRANCH  27  28
HETATM   28  C19 UNL     1     -83.945  -9.940  12.380  1.00  0.00     0.007 C 
BRANCH  28  29
HETATM   29  C20 UNL     1     -84.855  -9.773  13.596  1.00  0.00     0.044 C 
BRANCH  29  30
HETATM   30  C21 UNL     1     -85.958 -10.750  13.578  1.00  0.00     0.061 C 
HETATM   31  N5  UNL     1     -87.046 -10.477  14.180  1.00  0.00    -0.367 N 
ATOM     32  H5  UNL     1     -87.079  -9.571  14.648  1.00  0.00     0.165 HD
BRANCH  31  33
HETATM   33  C22 UNL     1     -88.196 -11.253  14.282  1.00  0.00     0.068 A 
HETATM   34  C23 UNL     1     -89.235 -11.045  13.411  1.00  0.00     0.068 A 
HETATM   35  C24 UNL     1     -90.378 -11.807  13.500  1.00  0.00     0.068 A 
HETATM   36  C25 UNL     1     -90.505 -12.787  14.461  1.00  0.00     0.039 A 
HETATM   37  C26 UNL     1     -89.466 -12.999  15.337  1.00  0.00     0.041 A 
HETATM   38  C27 UNL     1     -88.308 -12.224  15.241  1.00  0.00     0.092 A 
BRANCH  35  39
HETATM   39  O2  UNL     1     -91.403 -11.557  12.594  1.00  0.00    -0.361 OA
ATOM     40  H2  UNL     1     -92.115 -12.184  12.542  1.00  0.00     0.217 HD
ENDBRANCH  35  39
BRANCH  38  41
HETATM   41  O3  UNL     1     -87.291 -12.491  16.163  1.00  0.00    -0.358 OA
ATOM     42  H3  UNL     1     -86.588 -13.105  15.985  1.00  0.00     0.217 HD
ENDBRANCH  38  41
ENDBRANCH  31  33
ENDBRANCH  29  30
ENDBRANCH  28  29
ENDBRANCH  27  28
ENDBRANCH  26  27
ENDBRANCH  24  26
TORSDOF 8
ENDMDL
MODEL 5
REMARK VINA RESULT: -9.156680598      3.535      6.370
REMARK  8 active torsions:
REMARK  status: ('A' for Active; 'I' for Inactive)
REMARK    1  A    between atoms: N4_24  and  C17_25 
REMARK    2  A    between atoms: C17_25  and  C18_26 
REMARK    3  A    between atoms: C18_26  and  C19_27 
REMARK    4  A    between atoms: C19_27  and  C20_28 
REMARK    5  A    between atoms: C20_28  and  C21_29 
REMARK    6  A    between atoms: N5_30  and  C22_32 
REMARK    7  A    between atoms: C24_34  and  O2_35 
REMARK    8  A    between atoms: C27_39  and  O3_40 
ROOT
HETATM    1  N1  UNL     1     -92.287 -11.757   9.664  1.00  0.00    -0.191 NA
HETATM    2  C1  UNL     1     -91.823 -12.019  10.700  1.00  0.00     0.099 C 
HETATM    3  C2  UNL     1     -91.268 -12.337  11.997  1.00  0.00     0.045 A 
HETATM    4  C3  UNL     1     -91.682 -13.443  12.702  1.00  0.00     0.025 A 
HETATM    5  C4  UNL     1     -91.122 -13.702  13.933  1.00  0.00     0.032 A 
HETATM    6  C5  UNL     1     -90.159 -12.885  14.477  1.00  0.00     0.043 A 
HETATM    7  N2  UNL     1     -89.459 -12.908  15.641  1.00  0.00    -0.357 N 
ATOM      8  H2  UNL     1     -89.557 -13.619  16.366  1.00  0.00     0.166 HD
HETATM    9  C6  UNL     1     -88.620 -11.860  15.700  1.00  0.00     0.044 A 
HETATM   10  C7  UNL     1     -88.823 -11.162  14.502  1.00  0.00     0.069 A 
HETATM   11  C8  UNL     1     -89.767 -11.768  13.724  1.00  0.00     0.010 A 
HETATM   12  C9  UNL     1     -90.289 -11.476  12.510  1.00  0.00     0.037 A 
HETATM   13  C10 UNL     1     -88.226  -9.925  13.970  1.00  0.00     0.259 C 
HETATM   14  O1  UNL     1     -88.991  -9.249  13.254  1.00  0.00    -0.267 OA
HETATM   15  N3  UNL     1     -86.907  -9.407  14.164  1.00  0.00    -0.321 N 
ATOM     16  H3  UNL     1     -86.791  -8.463  13.795  1.00  0.00     0.169 HD
HETATM   17  C11 UNL     1     -85.707  -9.924  14.766  1.00  0.00     0.064 A 
HETATM   18  C12 UNL     1     -84.668  -9.289  14.135  1.00  0.00     0.074 A 
HETATM   19  C13 UNL     1     -83.370  -9.622  14.491  1.00  0.00     0.118 A 
HETATM   20  F1  UNL     1     -82.339  -9.008  13.883  1.00  0.00    -0.206 F 
HETATM   21  C14 UNL     1     -83.152 -10.575  15.463  1.00  0.00     0.044 A 
HETATM   22  C15 UNL     1     -84.222 -11.217  16.101  1.00  0.00     0.035 A 
HETATM   23  C16 UNL     1     -85.516 -10.897  15.759  1.00  0.00     0.057 A 
HETATM   24  N4  UNL     1     -86.312 -11.718  16.606  1.00  0.00    -0.373 N 
HETATM   25  C28 UNL     1     -87.760 -11.626  16.843  1.00  0.00     0.181 C 
ENDROOT
BRANCH  24  26
HETATM   26  C17 UNL     1     -85.675 -12.778  17.324  1.00  0.00     0.123 C 
BRANCH  26  27
HETATM   27  C18 UNL     1     -86.384 -14.065  17.444  1.00  0.00     0.020 C 
BRANCH  27  28
HETATM   28  C19 UNL     1     -86.515 -14.973  16.289  1.00  0.00     0.007 C 
BRANCH  28  29
HETATM   29  C20 UNL     1     -85.705 -14.507  15.080  1.00  0.00     0.044 C 
BRANCH  29  30
HETATM   30  C21 UNL     1     -86.546 -14.422  13.873  1.00  0.00     0.061 C 
HETATM   31  N5  UNL     1     -86.375 -13.459  13.058  1.00  0.00    -0.367 N 
ATOM     32  H5  UNL     1     -85.644 -12.793  13.305  1.00  0.00     0.165 HD
BRANCH  31  33
HETATM   33  C22 UNL     1     -87.056 -13.199  11.873  1.00  0.00     0.068 A 
HETATM   34  C23 UNL     1     -87.982 -14.098  11.409  1.00  0.00     0.068 A 
HETATM   35  C24 UNL     1     -88.664 -13.852  10.239  1.00  0.00     0.068 A 
HETATM   36  C25 UNL     1     -88.432 -12.705   9.510  1.00  0.00     0.039 A 
HETATM   37  C26 UNL     1     -87.504 -11.800   9.970  1.00  0.00     0.041 A 
HETATM   38  C27 UNL     1     -86.816 -12.055  11.159  1.00  0.00     0.092 A 
BRANCH  35  39
HETATM   39  O2  UNL     1     -89.591 -14.794   9.812  1.00  0.00    -0.361 OA
ATOM     40  H2  UNL     1     -90.441 -14.809  10.237  1.00  0.00     0.217 HD
ENDBRANCH  35  39
BRANCH  38  41
HETATM   41  O3  UNL     1     -85.886 -11.093  11.570  1.00  0.00    -0.358 OA
ATOM     42  H3  UNL     1     -85.882 -10.728  12.447  1.00  0.00     0.217 HD
ENDBRANCH  38  41
ENDBRANCH  31  33
ENDBRANCH  29  30
ENDBRANCH  28  29
ENDBRANCH  27  28
ENDBRANCH  26  27
ENDBRANCH  24  26
TORSDOF 8
ENDMDL
