MODEL 1
REMARK VINA RESULT: -8.266279193      0.000      0.000
REMARK  12 active torsions:
REMARK  status: ('A' for Active; 'I' for Inactive)
REMARK    1  A    between atoms: C5_5  and  O1_6 
REMARK    2  A    between atoms: O1_6  and  C6_7 
REMARK    3  A    between atoms: C6_7  and  C7_9 
REMARK    4  A    between atoms: C15_18  and  C16_19 
REMARK    5  A    between atoms: C16_19  and  C17_20 
REMARK    6  A    between atoms: C17_20  and  C18_21 
REMARK    7  A    between atoms: C18_21  and  C19_22 
REMARK    8  A    between atoms: C19_22  and  C20_23 
REMARK    9  A    between atoms: C20_23  and  O3_24 
REMARK   10  A    between atoms: N1_26  and  O4_28 
REMARK   11  A    between atoms: N2_30  and  O5_32 
REMARK   12  A    between atoms: C23_36  and  O6_37 
ROOT
HETATM    1  C1  UNL     1      95.150  16.978  10.645  1.00  0.00     0.016 C 
HETATM    2  C2  UNL     1      95.304  15.721   9.769  1.00  0.00    -0.036 C 
HETATM    3  C3  UNL     1      96.225  14.810  10.536  1.00  0.00     0.012 C 
HETATM    4  C4  UNL     1      97.606  15.304  10.724  1.00  0.00     0.033 C 
HETATM    5  C5  UNL     1      98.025  16.477   9.920  1.00  0.00     0.132 C 
HETATM    6  C8  UNL     1      97.357  16.615   8.588  1.00  0.00     0.038 C 
HETATM    7  C9  UNL     1      95.952  16.207   8.496  1.00  0.00    -0.004 C 
HETATM    8  C10 UNL     1      95.761  15.106   7.459  1.00  0.00     0.006 C 
HETATM    9  C11 UNL     1      94.320  15.248   7.037  1.00  0.00     0.006 C 
HETATM   10  C12 UNL     1      93.375  15.244   8.191  1.00  0.00    -0.005 C 
HETATM   11  C13 UNL     1      93.987  15.091   9.546  1.00  0.00    -0.001 C 
HETATM   12  C14 UNL     1      93.892  13.612   9.938  1.00  0.00     0.011 C 
HETATM   13  C15 UNL     1      92.452  13.238  10.200  1.00  0.00    -0.003 C 
HETATM   14  C21 UNL     1      91.557  13.728   9.097  1.00  0.00    -0.010 C 
HETATM   15  C22 UNL     1      90.536  14.720   9.526  1.00  0.00     0.018 C 
HETATM   16  C23 UNL     1      90.778  12.586   8.422  1.00  0.00     0.127 C 
HETATM   17  C24 UNL     1      90.418  13.250   7.095  1.00  0.00     0.033 C 
HETATM   18  C25 UNL     1      91.391  14.386   6.882  1.00  0.00     0.008 C 
HETATM   19  C26 UNL     1      92.411  14.137   7.954  1.00  0.00     0.001 C 
ENDROOT
BRANCH  13  20
HETATM   20  C16 UNL     1      91.997  13.615  11.555  1.00  0.00     0.011 C 
BRANCH  20  21
HETATM   21  C17 UNL     1      91.675  12.462  12.467  1.00  0.00     0.055 C 
BRANCH  21  22
HETATM   22  C18 UNL     1      92.626  12.347  13.591  1.00  0.00     0.017 C 
HETATM   23  N2  UNL     1      92.420  11.460  14.494  1.00  0.00    -0.277 N 
ATOM     24  H2  UNL     1      91.604  10.853  14.420  1.00  0.00     0.193 HD
BRANCH  22  25
HETATM   25  C19 UNL     1      93.806  13.225  13.698  1.00  0.00     0.140 C 
BRANCH  25  26
HETATM   26  C20 UNL     1      95.099  12.498  13.560  1.00  0.00     0.140 C 
HETATM   27  N1  UNL     1      95.903  12.319  14.578  1.00  0.00    -0.251 N 
ATOM     28  H1  UNL     1      96.780  11.817  14.443  1.00  0.00     0.196 HD
BRANCH  26  29
HETATM   29  O3  UNL     1      95.547  11.965  12.360  1.00  0.00    -0.348 OA
ATOM     30  H3  UNL     1      95.610  11.031  12.197  1.00  0.00     0.219 HD
ENDBRANCH  26  29
BRANCH  27  31
HETATM   31  O4  UNL     1      95.585  12.792  15.814  1.00  0.00    -0.288 OA
ATOM     32  H4  UNL     1      95.789  13.686  16.063  1.00  0.00     0.244 HD
ENDBRANCH  27  31
ENDBRANCH  25  26
ENDBRANCH  22  25
BRANCH  23  33
HETATM   33  O5  UNL     1      93.276  11.313  15.560  1.00  0.00    -0.290 OA
ATOM     34  H5  UNL     1      94.148  10.953  15.446  1.00  0.00     0.244 HD
ENDBRANCH  23  33
ENDBRANCH  21  22
ENDBRANCH  20  21
ENDBRANCH  13  20
BRANCH  16  35
HETATM   35  O6  UNL     1      89.611  12.307   9.124  1.00  0.00    -0.395 OA
ATOM     36  H6  UNL     1      89.743  11.578   9.719  1.00  0.00     0.210 HD
ENDBRANCH  16  35
BRANCH   5  37
HETATM   37  O1  UNL     1      99.434  16.476   9.778  1.00  0.00    -0.315 OA
BRANCH  37  38
HETATM   38  C6  UNL     1     100.226  17.564  10.053  1.00  0.00     0.273 C 
HETATM   39  O2  UNL     1     100.264  18.472   9.183  1.00  0.00    -0.264 OA
BRANCH  38  40
HETATM   40  C7  UNL     1     100.987  17.648  11.308  1.00  0.00     0.225 C 
HETATM   41 CL1  UNL     1     101.415  19.353  11.583  1.00  0.00    -0.120 Cl
ENDBRANCH  38  40
ENDBRANCH  37  38
ENDBRANCH   5  37
TORSDOF 12
ENDMDL
MODEL 2
REMARK VINA RESULT: -8.235123867      1.079      1.116
REMARK  12 active torsions:
REMARK  status: ('A' for Active; 'I' for Inactive)
REMARK    1  A    between atoms: C5_5  and  O1_6 
REMARK    2  A    between atoms: O1_6  and  C6_7 
REMARK    3  A    between atoms: C6_7  and  C7_9 
REMARK    4  A    between atoms: C15_18  and  C16_19 
REMARK    5  A    between atoms: C16_19  and  C17_20 
REMARK    6  A    between atoms: C17_20  and  C18_21 
REMARK    7  A    between atoms: C18_21  and  C19_22 
REMARK    8  A    between atoms: C19_22  and  C20_23 
REMARK    9  A    between atoms: C20_23  and  O3_24 
REMARK   10  A    between atoms: N1_26  and  O4_28 
REMARK   11  A    between atoms: N2_30  and  O5_32 
REMARK   12  A    between atoms: C23_36  and  O6_37 
ROOT
HETATM    1  C1  UNL     1      95.041  16.928  10.149  1.00  0.00     0.016 C 
HETATM    2  C2  UNL     1      95.149  15.599   9.380  1.00  0.00    -0.036 C 
HETATM    3  C3  UNL     1      95.981  14.699  10.255  1.00  0.00     0.012 C 
HETATM    4  C4  UNL     1      97.381  15.123  10.464  1.00  0.00     0.033 C 
HETATM    5  C5  UNL     1      97.905  16.201   9.591  1.00  0.00     0.132 C 
HETATM    6  C8  UNL     1      97.300  16.272   8.224  1.00  0.00     0.038 C 
HETATM    7  C9  UNL     1      95.876  15.942   8.103  1.00  0.00    -0.004 C 
HETATM    8  C10 UNL     1      95.657  14.776   7.147  1.00  0.00     0.006 C 
HETATM    9  C11 UNL     1      94.245  14.968   6.652  1.00  0.00     0.006 C 
HETATM   10  C12 UNL     1      93.257  15.113   7.760  1.00  0.00    -0.005 C 
HETATM   11  C13 UNL     1      93.805  15.033   9.149  1.00  0.00    -0.001 C 
HETATM   12  C14 UNL     1      93.603  13.599   9.649  1.00  0.00     0.011 C 
HETATM   13  C15 UNL     1      92.133  13.333   9.876  1.00  0.00    -0.003 C 
HETATM   14  C21 UNL     1      91.314  13.785   8.701  1.00  0.00    -0.010 C 
HETATM   15  C22 UNL     1      90.342  14.868   9.006  1.00  0.00     0.018 C 
HETATM   16  C23 UNL     1      90.492  12.642   8.083  1.00  0.00     0.127 C 
HETATM   17  C24 UNL     1      90.226  13.219   6.693  1.00  0.00     0.033 C 
HETATM   18  C25 UNL     1      91.276  14.273   6.436  1.00  0.00     0.008 C 
HETATM   19  C26 UNL     1      92.235  14.050   7.568  1.00  0.00     0.001 C 
ENDROOT
BRANCH  13  20
HETATM   20  C16 UNL     1      91.650  13.843  11.177  1.00  0.00     0.011 C 
BRANCH  20  21
HETATM   21  C17 UNL     1      92.714  14.050  12.220  1.00  0.00     0.055 C 
BRANCH  21  22
HETATM   22  C18 UNL     1      93.078  12.797  12.914  1.00  0.00     0.017 C 
HETATM   23  N2  UNL     1      92.156  12.107  13.477  1.00  0.00    -0.277 N 
ATOM     24  H2  UNL     1      91.191  12.434  13.436  1.00  0.00     0.193 HD
BRANCH  22  25
HETATM   25  C19 UNL     1      94.473  12.324  12.973  1.00  0.00     0.140 C 
BRANCH  25  26
HETATM   26  C20 UNL     1      95.298  13.035  13.989  1.00  0.00     0.140 C 
HETATM   27  N1  UNL     1      95.332  12.653  15.240  1.00  0.00    -0.251 N 
ATOM     28  H1  UNL     1      95.909  13.167  15.907  1.00  0.00     0.196 HD
BRANCH  26  29
HETATM   29  O3  UNL     1      96.081  14.141  13.692  1.00  0.00    -0.348 OA
ATOM     30  H3  UNL     1      96.258  14.836  14.316  1.00  0.00     0.219 HD
ENDBRANCH  26  29
BRANCH  27  31
HETATM   31  O4  UNL     1      94.610  11.581  15.667  1.00  0.00    -0.288 OA
ATOM     32  H4  UNL     1      94.231  11.561  16.538  1.00  0.00     0.244 HD
ENDBRANCH  27  31
ENDBRANCH  25  26
ENDBRANCH  22  25
BRANCH  23  33
HETATM   33  O5  UNL     1      92.444  10.933  14.135  1.00  0.00    -0.290 OA
ATOM     34  H5  UNL     1      91.938  10.654  14.889  1.00  0.00     0.244 HD
ENDBRANCH  23  33
ENDBRANCH  21  22
ENDBRANCH  20  21
ENDBRANCH  13  20
BRANCH  16  35
HETATM   35  O6  UNL     1      89.283  12.490   8.752  1.00  0.00    -0.395 OA
ATOM     36  H6  UNL     1      89.324  11.759   9.358  1.00  0.00     0.210 HD
ENDBRANCH  16  35
BRANCH   5  37
HETATM   37  O1  UNL     1      99.315  16.105   9.512  1.00  0.00    -0.315 OA
BRANCH  37  38
HETATM   38  C6  UNL     1     100.170  17.094   9.933  1.00  0.00     0.273 C 
HETATM   39  O2  UNL     1     100.142  18.177   9.295  1.00  0.00    -0.264 OA
BRANCH  38  40
HETATM   40  C7  UNL     1     101.068  16.882  11.078  1.00  0.00     0.225 C 
HETATM   41 CL1  UNL     1     102.067  15.449  10.740  1.00  0.00    -0.120 Cl
ENDBRANCH  38  40
ENDBRANCH  37  38
ENDBRANCH   5  37
TORSDOF 12
ENDMDL
MODEL 3
REMARK VINA RESULT: -8.176490939      3.426      7.099
REMARK  12 active torsions:
REMARK  status: ('A' for Active; 'I' for Inactive)
REMARK    1  A    between atoms: C5_5  and  O1_6 
REMARK    2  A    between atoms: O1_6  and  C6_7 
REMARK    3  A    between atoms: C6_7  and  C7_9 
REMARK    4  A    between atoms: C15_18  and  C16_19 
REMARK    5  A    between atoms: C16_19  and  C17_20 
REMARK    6  A    between atoms: C17_20  and  C18_21 
REMARK    7  A    between atoms: C18_21  and  C19_22 
REMARK    8  A    between atoms: C19_22  and  C20_23 
REMARK    9  A    between atoms: C20_23  and  O3_24 
REMARK   10  A    between atoms: N1_26  and  O4_28 
REMARK   11  A    between atoms: N2_30  and  O5_32 
REMARK   12  A    between atoms: C23_36  and  O6_37 
ROOT
HETATM    1  C1  UNL     1      95.703  14.270  10.085  1.00  0.00     0.016 C 
HETATM    2  C2  UNL     1      96.372  15.566   9.593  1.00  0.00    -0.036 C 
HETATM    3  C3  UNL     1      95.256  16.570   9.474  1.00  0.00     0.012 C 
HETATM    4  C4  UNL     1      94.229  16.271   8.454  1.00  0.00     0.033 C 
HETATM    5  C5  UNL     1      94.532  15.199   7.476  1.00  0.00     0.132 C 
HETATM    6  C8  UNL     1      95.982  15.015   7.152  1.00  0.00     0.038 C 
HETATM    7  C9  UNL     1      96.944  15.223   8.239  1.00  0.00    -0.004 C 
HETATM    8  C10 UNL     1      97.941  16.322   7.893  1.00  0.00     0.006 C 
HETATM    9  C11 UNL     1      99.152  15.993   8.730  1.00  0.00     0.006 C 
HETATM   10  C12 UNL     1      98.828  15.822  10.176  1.00  0.00    -0.005 C 
HETATM   11  C13 UNL     1      97.396  16.011  10.560  1.00  0.00    -0.001 C 
HETATM   12  C14 UNL     1      97.235  17.446  11.072  1.00  0.00     0.011 C 
HETATM   13  C15 UNL     1      97.938  17.603  12.400  1.00  0.00    -0.003 C 
HETATM   14  C21 UNL     1      99.326  17.031  12.347  1.00  0.00    -0.010 C 
HETATM   15  C22 UNL     1      99.559  15.889  13.270  1.00  0.00     0.018 C 
HETATM   16  C23 UNL     1     100.405  18.074  12.686  1.00  0.00     0.127 C 
HETATM   17  C24 UNL     1     101.630  17.414  12.056  1.00  0.00     0.033 C 
HETATM   18  C25 UNL     1     101.130  16.436  11.019  1.00  0.00     0.008 C 
HETATM   19  C26 UNL     1      99.674  16.789  10.925  1.00  0.00     0.001 C 
ENDROOT
BRANCH  13  20
HETATM   20  C16 UNL     1      97.132  17.117  13.539  1.00  0.00     0.011 C 
BRANCH  20  21
HETATM   21  C17 UNL     1      95.794  16.531  13.175  1.00  0.00     0.055 C 
BRANCH  21  22
HETATM   22  C18 UNL     1      95.403  15.418  14.064  1.00  0.00     0.017 C 
HETATM   23  N2  UNL     1      95.355  15.619  15.329  1.00  0.00    -0.277 N 
ATOM     24  H2  UNL     1      95.589  16.540  15.698  1.00  0.00     0.193 HD
BRANCH  22  25
HETATM   25  C19 UNL     1      95.065  14.086  13.531  1.00  0.00     0.140 C 
BRANCH  25  26
HETATM   26  C20 UNL     1      96.176  13.101  13.650  1.00  0.00     0.140 C 
HETATM   27  N1  UNL     1      96.144  12.125  14.522  1.00  0.00    -0.251 N 
ATOM     28  H1  UNL     1      96.924  11.471  14.574  1.00  0.00     0.196 HD
BRANCH  26  29
HETATM   29  O3  UNL     1      97.315  13.141  12.859  1.00  0.00    -0.348 OA
ATOM     30  H3  UNL     1      98.138  13.514  13.150  1.00  0.00     0.219 HD
ENDBRANCH  26  29
BRANCH  27  31
HETATM   31  O4  UNL     1      95.084  11.970  15.362  1.00  0.00    -0.288 OA
ATOM     32  H4  UNL     1      94.601  12.722  15.686  1.00  0.00     0.244 HD
ENDBRANCH  27  31
ENDBRANCH  25  26
ENDBRANCH  22  25
BRANCH  23  33
HETATM   33  O5  UNL     1      94.996  14.615  16.199  1.00  0.00    -0.290 OA
ATOM     34  H5  UNL     1      94.312  14.743  16.845  1.00  0.00     0.244 HD
ENDBRANCH  23  33
ENDBRANCH  21  22
ENDBRANCH  20  21
ENDBRANCH  13  20
BRANCH  16  35
HETATM   35  O6  UNL     1     100.589  18.160  14.061  1.00  0.00    -0.395 OA
ATOM     36  H6  UNL     1     101.188  17.486  14.362  1.00  0.00     0.210 HD
ENDBRANCH  16  35
BRANCH   5  37
HETATM   37  O1  UNL     1      93.776  15.404   6.297  1.00  0.00    -0.315 OA
BRANCH  37  38
HETATM   38  C6  UNL     1      92.679  14.651   5.956  1.00  0.00     0.273 C 
HETATM   39  O2  UNL     1      91.912  14.310   6.892  1.00  0.00    -0.264 OA
BRANCH  38  40
HETATM   40  C7  UNL     1      92.428  14.269   4.558  1.00  0.00     0.225 C 
HETATM   41 CL1  UNL     1      91.044  13.152   4.528  1.00  0.00    -0.120 Cl
ENDBRANCH  38  40
ENDBRANCH  37  38
ENDBRANCH   5  37
TORSDOF 12
ENDMDL
MODEL 4
REMARK VINA RESULT: -8.116677281      3.058      6.996
REMARK  12 active torsions:
REMARK  status: ('A' for Active; 'I' for Inactive)
REMARK    1  A    between atoms: C5_5  and  O1_6 
REMARK    2  A    between atoms: O1_6  and  C6_7 
REMARK    3  A    between atoms: C6_7  and  C7_9 
REMARK    4  A    between atoms: C15_18  and  C16_19 
REMARK    5  A    between atoms: C16_19  and  C17_20 
REMARK    6  A    between atoms: C17_20  and  C18_21 
REMARK    7  A    between atoms: C18_21  and  C19_22 
REMARK    8  A    between atoms: C19_22  and  C20_23 
REMARK    9  A    between atoms: C20_23  and  O3_24 
REMARK   10  A    between atoms: N1_26  and  O4_28 
REMARK   11  A    between atoms: N2_30  and  O5_32 
REMARK   12  A    between atoms: C23_36  and  O6_37 
ROOT
HETATM    1  C1  UNL     1      94.061  13.402  10.652  1.00  0.00     0.016 C 
HETATM    2  C2  UNL     1      94.137  14.752   9.917  1.00  0.00    -0.036 C 
HETATM    3  C3  UNL     1      92.934  15.528  10.383  1.00  0.00     0.012 C 
HETATM    4  C4  UNL     1      91.621  14.969   9.999  1.00  0.00     0.033 C 
HETATM    5  C5  UNL     1      91.611  13.893   8.980  1.00  0.00     0.132 C 
HETATM    6  C8  UNL     1      92.722  13.945   7.978  1.00  0.00     0.038 C 
HETATM    7  C9  UNL     1      94.030  14.408   8.451  1.00  0.00    -0.004 C 
HETATM    8  C10 UNL     1      94.496  15.636   7.677  1.00  0.00     0.006 C 
HETATM    9  C11 UNL     1      95.999  15.597   7.800  1.00  0.00     0.006 C 
HETATM   10  C12 UNL     1      96.462  15.488   9.214  1.00  0.00    -0.005 C 
HETATM   11  C13 UNL     1      95.394  15.449  10.259  1.00  0.00    -0.001 C 
HETATM   12  C14 UNL     1      95.227  16.869  10.810  1.00  0.00     0.011 C 
HETATM   13  C15 UNL     1      96.442  17.256  11.619  1.00  0.00    -0.003 C 
HETATM   14  C21 UNL     1      97.709  16.939  10.877  1.00  0.00    -0.010 C 
HETATM   15  C22 UNL     1      98.580  15.935  11.544  1.00  0.00     0.018 C 
HETATM   16  C23 UNL     1      98.589  18.181  10.657  1.00  0.00     0.127 C 
HETATM   17  C24 UNL     1      99.452  17.701   9.492  1.00  0.00     0.033 C 
HETATM   18  C25 UNL     1      98.712  16.569   8.821  1.00  0.00     0.008 C 
HETATM   19  C26 UNL     1      97.358  16.648   9.464  1.00  0.00     0.001 C 
ENDROOT
BRANCH  13  20
HETATM   20  C16 UNL     1      96.407  16.728  12.999  1.00  0.00     0.011 C 
BRANCH  20  21
HETATM   21  C17 UNL     1      95.031  16.542  13.580  1.00  0.00     0.055 C 
BRANCH  21  22
HETATM   22  C18 UNL     1      94.971  15.428  14.548  1.00  0.00     0.017 C 
HETATM   23  N2  UNL     1      95.292  15.646  15.769  1.00  0.00    -0.277 N 
ATOM     24  H2  UNL     1      95.582  16.582  16.051  1.00  0.00     0.193 HD
BRANCH  22  25
HETATM   25  C19 UNL     1      94.551  14.074  14.142  1.00  0.00     0.140 C 
BRANCH  25  26
HETATM   26  C20 UNL     1      95.684  13.114  14.019  1.00  0.00     0.140 C 
HETATM   27  N1  UNL     1      95.807  12.085  14.819  1.00  0.00    -0.251 N 
ATOM     28  H1  UNL     1      96.597  11.451  14.703  1.00  0.00     0.196 HD
BRANCH  26  29
HETATM   29  O3  UNL     1      96.681  13.235  13.062  1.00  0.00    -0.348 OA
ATOM     30  H3  UNL     1      97.083  12.489  12.632  1.00  0.00     0.219 HD
ENDBRANCH  26  29
BRANCH  27  31
HETATM   31  O4  UNL     1      94.897  11.848  15.803  1.00  0.00    -0.288 OA
ATOM     32  H4  UNL     1      95.134  11.931  16.719  1.00  0.00     0.244 HD
ENDBRANCH  27  31
ENDBRANCH  25  26
ENDBRANCH  22  25
BRANCH  23  33
HETATM   33  O5  UNL     1      95.252  14.642  16.709  1.00  0.00    -0.290 OA
ATOM     34  H5  UNL     1      94.622  14.655  17.419  1.00  0.00     0.244 HD
ENDBRANCH  23  33
ENDBRANCH  21  22
ENDBRANCH  20  21
ENDBRANCH  13  20
BRANCH  16  35
HETATM   35  O6  UNL     1      99.400  18.410  11.763  1.00  0.00    -0.395 OA
ATOM     36  H6  UNL     1     100.129  17.800  11.775  1.00  0.00     0.210 HD
ENDBRANCH  16  35
BRANCH   5  37
HETATM   37  O1  UNL     1      90.352  13.863   8.332  1.00  0.00    -0.315 OA
BRANCH  37  38
HETATM   38  C6  UNL     1      89.519  12.771   8.337  1.00  0.00     0.273 C 
HETATM   39  O2  UNL     1      88.336  12.959   7.957  1.00  0.00    -0.264 OA
BRANCH  38  40
HETATM   40  C7  UNL     1      90.005  11.452   8.769  1.00  0.00     0.225 C 
HETATM   41 CL1  UNL     1      89.624  10.276   7.490  1.00  0.00    -0.120 Cl
ENDBRANCH  38  40
ENDBRANCH  37  38
ENDBRANCH   5  37
TORSDOF 12
ENDMDL
MODEL 5
REMARK VINA RESULT: -8.090440488      1.602      1.792
REMARK  12 active torsions:
REMARK  status: ('A' for Active; 'I' for Inactive)
REMARK    1  A    between atoms: C5_5  and  O1_6 
REMARK    2  A    between atoms: O1_6  and  C6_7 
REMARK    3  A    between atoms: C6_7  and  C7_9 
REMARK    4  A    between atoms: C15_18  and  C16_19 
REMARK    5  A    between atoms: C16_19  and  C17_20 
REMARK    6  A    between atoms: C17_20  and  C18_21 
REMARK    7  A    between atoms: C18_21  and  C19_22 
REMARK    8  A    between atoms: C19_22  and  C20_23 
REMARK    9  A    between atoms: C20_23  and  O3_24 
REMARK   10  A    between atoms: N1_26  and  O4_28 
REMARK   11  A    between atoms: N2_30  and  O5_32 
REMARK   12  A    between atoms: C23_36  and  O6_37 
ROOT
HETATM    1  C1  UNL     1      94.736  16.909   9.707  1.00  0.00     0.016 C 
HETATM    2  C2  UNL     1      94.868  15.583   8.937  1.00  0.00    -0.036 C 
HETATM    3  C3  UNL     1      95.742  14.708   9.796  1.00  0.00     0.012 C 
HETATM    4  C4  UNL     1      97.133  15.174   9.979  1.00  0.00     0.033 C 
HETATM    5  C5  UNL     1      97.608  16.265   9.096  1.00  0.00     0.132 C 
HETATM    6  C8  UNL     1      96.976  16.318   7.740  1.00  0.00     0.038 C 
HETATM    7  C9  UNL     1      95.560  15.946   7.646  1.00  0.00    -0.004 C 
HETATM    8  C10 UNL     1      95.358  14.773   6.695  1.00  0.00     0.006 C 
HETATM    9  C11 UNL     1      93.932  14.924   6.227  1.00  0.00     0.006 C 
HETATM   10  C12 UNL     1      92.961  15.041   7.354  1.00  0.00    -0.005 C 
HETATM   11  C13 UNL     1      93.537  14.977   8.732  1.00  0.00    -0.001 C 
HETATM   12  C14 UNL     1      93.386  13.538   9.236  1.00  0.00     0.011 C 
HETATM   13  C15 UNL     1      91.929  13.230   9.491  1.00  0.00    -0.003 C 
HETATM   14  C21 UNL     1      91.076  13.657   8.331  1.00  0.00    -0.010 C 
HETATM   15  C22 UNL     1      90.078  14.711   8.655  1.00  0.00     0.018 C 
HETATM   16  C23 UNL     1      90.275  12.490   7.729  1.00  0.00     0.127 C 
HETATM   17  C24 UNL     1      89.967  13.057   6.344  1.00  0.00     0.033 C 
HETATM   18  C25 UNL     1      90.980  14.142   6.067  1.00  0.00     0.008 C 
HETATM   19  C26 UNL     1      91.967  13.948   7.181  1.00  0.00     0.001 C 
ENDROOT
BRANCH  13  20
HETATM   20  C16 UNL     1      91.457  13.727  10.800  1.00  0.00     0.011 C 
BRANCH  20  21
HETATM   21  C17 UNL     1      92.093  13.079  12.000  1.00  0.00     0.055 C 
BRANCH  21  22
HETATM   22  C18 UNL     1      93.191  13.889  12.565  1.00  0.00     0.017 C 
HETATM   23  N2  UNL     1      93.022  15.152  12.711  1.00  0.00    -0.277 N 
ATOM     24  H2  UNL     1      92.136  15.573  12.435  1.00  0.00     0.193 HD
BRANCH  22  25
HETATM   25  C19 UNL     1      94.473  13.281  12.966  1.00  0.00     0.140 C 
BRANCH  25  26
HETATM   26  C20 UNL     1      94.596  13.070  14.435  1.00  0.00     0.140 C 
HETATM   27  N1  UNL     1      95.613  12.434  14.959  1.00  0.00    -0.251 N 
ATOM     28  H1  UNL     1      95.661  12.309  15.970  1.00  0.00     0.196 HD
BRANCH  26  29
HETATM   29  O3  UNL     1      93.656  13.524  15.349  1.00  0.00    -0.348 OA
ATOM     30  H3  UNL     1      92.721  13.386  15.246  1.00  0.00     0.219 HD
ENDBRANCH  26  29
BRANCH  27  31
HETATM   31  O4  UNL     1      96.608  11.936  14.175  1.00  0.00    -0.288 OA
ATOM     32  H4  UNL     1      96.457  11.189  13.607  1.00  0.00     0.244 HD
ENDBRANCH  27  31
ENDBRANCH  25  26
ENDBRANCH  22  25
BRANCH  23  33
HETATM   33  O5  UNL     1      94.014  15.949  13.233  1.00  0.00    -0.290 OA
ATOM     34  H5  UNL     1      94.926  15.820  12.998  1.00  0.00     0.244 HD
ENDBRANCH  23  33
ENDBRANCH  21  22
ENDBRANCH  20  21
ENDBRANCH  13  20
BRANCH  16  35
HETATM   35  O6  UNL     1      89.085  12.303   8.421  1.00  0.00    -0.395 OA
ATOM     36  H6  UNL     1      88.370  12.756   7.988  1.00  0.00     0.210 HD
ENDBRANCH  16  35
BRANCH   5  37
HETATM   37  O1  UNL     1      99.019  16.211   8.989  1.00  0.00    -0.315 OA
BRANCH  37  38
HETATM   38  C6  UNL     1      99.864  17.090   9.622  1.00  0.00     0.273 C 
HETATM   39  O2  UNL     1      99.880  18.271   9.192  1.00  0.00    -0.264 OA
BRANCH  38  40
HETATM   40  C7  UNL     1     100.704  16.654  10.748  1.00  0.00     0.225 C 
HETATM   41 CL1  UNL     1     101.314  15.023  10.386  1.00  0.00    -0.120 Cl
ENDBRANCH  38  40
ENDBRANCH  37  38
ENDBRANCH   5  37
TORSDOF 12
ENDMDL
