MODEL 1
REMARK VINA RESULT: -7.622221372      0.000      0.000
REMARK  11 active torsions:
REMARK  status: ('A' for Active; 'I' for Inactive)
REMARK    1  A    between atoms: C3_3  and  C4_4 
REMARK    2  A    between atoms: C10_11  and  C12_13 
REMARK    3  A    between atoms: C12_13  and  O2_14 
REMARK    4  A    between atoms: C12_13  and  C13_16 
REMARK    5  A    between atoms: C13_16  and  C15_18 
REMARK    6  A    between atoms: C16_19  and  C17_20 
REMARK    7  A    between atoms: C17_20  and  O3_21 
REMARK    8  A    between atoms: C17_20  and  C18_23 
REMARK    9  A    between atoms: C18_23  and  C19_24 
REMARK   10  A    between atoms: C19_24  and  O4_26 
REMARK   11  A    between atoms: C27_35  and  O6_36 
ROOT
HETATM    1  C4  UNL     1      92.087  14.331   9.891  1.00  0.00     0.054 C 
HETATM    2  C5  UNL     1      92.206  13.637  11.226  1.00  0.00     0.019 C 
HETATM    3  C6  UNL     1      93.270  14.052  12.141  1.00  0.00     0.080 C 
HETATM    4  C7  UNL     1      94.516  14.245  11.311  1.00  0.00     0.136 C 
HETATM    5  O1  UNL     1      95.387  13.565  11.706  1.00  0.00    -0.297 OA
HETATM    6  C8  UNL     1      94.297  15.220  10.244  1.00  0.00     0.035 C 
HETATM    7  C9  UNL     1      93.448  16.371  10.730  1.00  0.00     0.025 C 
HETATM    8  C10 UNL     1      95.497  15.931   9.759  1.00  0.00    -0.003 C 
HETATM    9  C11 UNL     1      95.179  17.345   9.162  1.00  0.00     0.019 C 
HETATM   10  C21 UNL     1      96.156  15.260   8.589  1.00  0.00     0.013 C 
HETATM   11  C22 UNL     1      95.131  15.029   7.580  1.00  0.00     0.006 C 
HETATM   12  C23 UNL     1      93.676  14.919   7.942  1.00  0.00    -0.009 C 
HETATM   13  C24 UNL     1      93.152  14.239   6.687  1.00  0.00     0.011 C 
HETATM   14  C25 UNL     1      93.491  14.352   9.229  1.00  0.00    -0.016 C 
HETATM   15  C26 UNL     1      93.928  12.920   9.272  1.00  0.00     0.018 C 
ENDROOT
BRANCH   8  16
HETATM   16  C12 UNL     1      96.542  16.254  10.780  1.00  0.00     0.134 C 
BRANCH  16  17
HETATM   17  O2  UNL     1      97.678  15.430  10.772  1.00  0.00    -0.394 OA
ATOM     18  H2  UNL     1      98.188  15.421  11.574  1.00  0.00     0.210 HD
ENDBRANCH  16  17
BRANCH  16  19
HETATM   19  C13 UNL     1      97.127  17.585  10.943  1.00  0.00     0.033 C 
HETATM   20  C14 UNL     1      97.277  17.624  12.563  1.00  0.00     0.017 C 
BRANCH  19  21
HETATM   21  C15 UNL     1      98.610  17.733  10.698  1.00  0.00    -0.021 C 
HETATM   22  C16 UNL     1      99.084  18.936  10.332  1.00  0.00     0.001 C 
BRANCH  22  23
HETATM   23  C17 UNL     1     100.535  19.181  10.065  1.00  0.00     0.143 C 
BRANCH  23  24
HETATM   24  O3  UNL     1     100.736  20.249   9.198  1.00  0.00    -0.392 OA
ATOM     25  H3  UNL     1     100.791  19.969   8.292  1.00  0.00     0.210 HD
ENDBRANCH  23  24
BRANCH  23  26
HETATM   26  C18 UNL     1     101.234  19.492  11.364  1.00  0.00     0.067 C 
BRANCH  26  27
HETATM   27  C19 UNL     1     102.193  18.484  11.860  1.00  0.00     0.116 C 
HETATM   28  C20 UNL     1     101.715  17.111  12.133  1.00  0.00     0.039 C 
BRANCH  27  29
HETATM   29  O4  UNL     1     102.784  19.013  13.053  1.00  0.00    -0.396 OA
ATOM     30  H4  UNL     1     103.671  19.274  12.835  1.00  0.00     0.210 HD
ENDBRANCH  27  29
ENDBRANCH  26  27
ENDBRANCH  23  26
ENDBRANCH  22  23
ENDBRANCH  19  21
ENDBRANCH  16  19
ENDBRANCH   8  16
BRANCH   1  31
HETATM   31  C3  UNL     1      91.117  13.487   9.109  1.00  0.00     0.068 A 
HETATM   32  C2  UNL     1      90.008  14.026   8.416  1.00  0.00    -0.005 A 
HETATM   33  C1  UNL     1      89.506  15.420   8.381  1.00  0.00     0.052 C 
HETATM   34  C28 UNL     1      89.404  12.951   7.831  1.00  0.00     0.100 A 
HETATM   35  C27 UNL     1      90.099  11.802   8.142  1.00  0.00     0.206 A 
HETATM   36 CL1  UNL     1      87.937  12.985   6.823  1.00  0.00    -0.079 Cl
HETATM   37  O5  UNL     1      91.078  12.227   8.892  1.00  0.00    -0.290 OA
BRANCH  35  38
HETATM   38  O6  UNL     1      89.840  10.468   7.756  1.00  0.00    -0.339 OA
ATOM     39  H6  UNL     1      89.059   9.960   7.941  1.00  0.00     0.220 HD
ENDBRANCH  35  38
ENDBRANCH   1  31
TORSDOF 11
ENDMDL
MODEL 2
REMARK VINA RESULT: -7.546228307      2.227      2.927
REMARK  11 active torsions:
REMARK  status: ('A' for Active; 'I' for Inactive)
REMARK    1  A    between atoms: C3_3  and  C4_4 
REMARK    2  A    between atoms: C10_11  and  C12_13 
REMARK    3  A    between atoms: C12_13  and  O2_14 
REMARK    4  A    between atoms: C12_13  and  C13_16 
REMARK    5  A    between atoms: C13_16  and  C15_18 
REMARK    6  A    between atoms: C16_19  and  C17_20 
REMARK    7  A    between atoms: C17_20  and  O3_21 
REMARK    8  A    between atoms: C17_20  and  C18_23 
REMARK    9  A    between atoms: C18_23  and  C19_24 
REMARK   10  A    between atoms: C19_24  and  O4_26 
REMARK   11  A    between atoms: C27_35  and  O6_36 
ROOT
HETATM    1  C4  UNL     1      92.745  14.013  13.151  1.00  0.00     0.054 C 
HETATM    2  C5  UNL     1      93.657  13.544  14.259  1.00  0.00     0.019 C 
HETATM    3  C6  UNL     1      95.000  14.117  14.353  1.00  0.00     0.080 C 
HETATM    4  C7  UNL     1      95.546  14.194  12.947  1.00  0.00     0.136 C 
HETATM    5  O1  UNL     1      96.555  13.599  12.862  1.00  0.00    -0.297 OA
HETATM    6  C8  UNL     1      94.673  14.981  12.080  1.00  0.00     0.035 C 
HETATM    7  C9  UNL     1      94.124  16.182  12.813  1.00  0.00     0.025 C 
HETATM    8  C10 UNL     1      95.320  15.623  10.918  1.00  0.00    -0.003 C 
HETATM    9  C11 UNL     1      94.580  16.918  10.436  1.00  0.00     0.019 C 
HETATM   10  C21 UNL     1      95.283  14.783   9.675  1.00  0.00     0.013 C 
HETATM   11  C22 UNL     1      93.900  14.378   9.459  1.00  0.00     0.006 C 
HETATM   12  C23 UNL     1      92.912  14.306  10.590  1.00  0.00    -0.009 C 
HETATM   13  C24 UNL     1      91.852  13.425   9.947  1.00  0.00     0.011 C 
HETATM   14  C25 UNL     1      93.532  13.950  11.815  1.00  0.00    -0.016 C 
HETATM   15  C26 UNL     1      94.065  12.550  11.780  1.00  0.00     0.018 C 
ENDROOT
BRANCH   8  16
HETATM   16  C12 UNL     1      96.716  16.122  11.121  1.00  0.00     0.134 C 
BRANCH  16  17
HETATM   17  O2  UNL     1      97.727  15.375  10.497  1.00  0.00    -0.394 OA
ATOM     18  H2  UNL     1      97.767  14.455  10.733  1.00  0.00     0.210 HD
ENDBRANCH  16  17
BRANCH  16  19
HETATM   19  C13 UNL     1      97.131  17.496  10.842  1.00  0.00     0.033 C 
HETATM   20  C14 UNL     1      97.536  17.973  12.343  1.00  0.00     0.017 C 
BRANCH  19  21
HETATM   21  C15 UNL     1      98.519  17.710  10.286  1.00  0.00    -0.021 C 
HETATM   22  C16 UNL     1      99.139  18.877  10.534  1.00  0.00     0.001 C 
BRANCH  22  23
HETATM   23  C17 UNL     1     100.512  19.182  10.025  1.00  0.00     0.143 C 
BRANCH  23  24
HETATM   24  O3  UNL     1     100.515  20.245   9.131  1.00  0.00    -0.392 OA
ATOM     25  H3  UNL     1     100.545  19.952   8.227  1.00  0.00     0.210 HD
ENDBRANCH  23  24
BRANCH  23  26
HETATM   26  C18 UNL     1     101.404  19.542  11.187  1.00  0.00     0.067 C 
BRANCH  26  27
HETATM   27  C19 UNL     1     101.939  18.420  11.985  1.00  0.00     0.116 C 
HETATM   28  C20 UNL     1     101.831  17.044  11.454  1.00  0.00     0.039 C 
BRANCH  27  29
HETATM   29  O4  UNL     1     101.304  18.473  13.268  1.00  0.00    -0.396 OA
ATOM     30  H4  UNL     1     101.603  17.718  13.761  1.00  0.00     0.210 HD
ENDBRANCH  27  29
ENDBRANCH  26  27
ENDBRANCH  23  26
ENDBRANCH  22  23
ENDBRANCH  19  21
ENDBRANCH  16  19
ENDBRANCH   8  16
BRANCH   1  31
HETATM   31  C3  UNL     1      91.597  13.040  13.166  1.00  0.00     0.068 A 
HETATM   32  C2  UNL     1      90.243  13.440  13.078  1.00  0.00    -0.005 A 
HETATM   33  C1  UNL     1      89.664  14.804  13.064  1.00  0.00     0.052 C 
HETATM   34  C28 UNL     1      89.531  12.276  13.105  1.00  0.00     0.100 A 
HETATM   35  C27 UNL     1      90.395  11.206  13.203  1.00  0.00     0.206 A 
HETATM   36 CL1  UNL     1      87.758  12.123  13.036  1.00  0.00    -0.079 Cl
HETATM   37  O5  UNL     1      91.574  11.763  13.233  1.00  0.00    -0.290 OA
BRANCH  35  38
HETATM   38  O6  UNL     1      90.103   9.825  13.259  1.00  0.00    -0.339 OA
ATOM     39  H6  UNL     1      89.766   9.282  12.557  1.00  0.00     0.220 HD
ENDBRANCH  35  38
ENDBRANCH   1  31
TORSDOF 11
ENDMDL
MODEL 3
REMARK VINA RESULT: -7.336179247      1.538      2.126
REMARK  11 active torsions:
REMARK  status: ('A' for Active; 'I' for Inactive)
REMARK    1  A    between atoms: C3_3  and  C4_4 
REMARK    2  A    between atoms: C10_11  and  C12_13 
REMARK    3  A    between atoms: C12_13  and  O2_14 
REMARK    4  A    between atoms: C12_13  and  C13_16 
REMARK    5  A    between atoms: C13_16  and  C15_18 
REMARK    6  A    between atoms: C16_19  and  C17_20 
REMARK    7  A    between atoms: C17_20  and  O3_21 
REMARK    8  A    between atoms: C17_20  and  C18_23 
REMARK    9  A    between atoms: C18_23  and  C19_24 
REMARK   10  A    between atoms: C19_24  and  O4_26 
REMARK   11  A    between atoms: C27_35  and  O6_36 
ROOT
HETATM    1  C4  UNL     1      91.890  14.152  11.000  1.00  0.00     0.054 C 
HETATM    2  C5  UNL     1      91.747  13.362  12.279  1.00  0.00     0.019 C 
HETATM    3  C6  UNL     1      92.622  13.686  13.406  1.00  0.00     0.080 C 
HETATM    4  C7  UNL     1      94.005  13.907  12.842  1.00  0.00     0.136 C 
HETATM    5  O1  UNL     1      94.778  13.180  13.343  1.00  0.00    -0.297 OA
HETATM    6  C8  UNL     1      94.003  14.961  11.829  1.00  0.00     0.035 C 
HETATM    7  C9  UNL     1      93.089  16.094  12.230  1.00  0.00     0.025 C 
HETATM    8  C10 UNL     1      95.280  15.675  11.632  1.00  0.00    -0.003 C 
HETATM    9  C11 UNL     1      95.095  17.135  11.093  1.00  0.00     0.019 C 
HETATM   10  C21 UNL     1      96.142  15.073  10.561  1.00  0.00     0.013 C 
HETATM   11  C22 UNL     1      95.324  14.940   9.363  1.00  0.00     0.006 C 
HETATM   12  C23 UNL     1      93.826  14.840   9.435  1.00  0.00    -0.009 C 
HETATM   13  C24 UNL     1      93.542  14.263   8.057  1.00  0.00     0.011 C 
HETATM   14  C25 UNL     1      93.394  14.187  10.618  1.00  0.00    -0.016 C 
HETATM   15  C26 UNL     1      93.800  12.746  10.636  1.00  0.00     0.018 C 
ENDROOT
BRANCH   8  16
HETATM   16  C12 UNL     1      96.115  15.899  12.853  1.00  0.00     0.134 C 
BRANCH  16  17
HETATM   17  O2  UNL     1      97.200  15.024  13.019  1.00  0.00    -0.394 OA
ATOM     18  H2  UNL     1      98.026  15.430  13.253  1.00  0.00     0.210 HD
ENDBRANCH  16  17
BRANCH  16  19
HETATM   19  C13 UNL     1      96.706  17.191  13.201  1.00  0.00     0.033 C 
HETATM   20  C14 UNL     1      96.461  17.183  14.809  1.00  0.00     0.017 C 
BRANCH  19  21
HETATM   21  C15 UNL     1      98.210  17.264  13.325  1.00  0.00    -0.021 C 
HETATM   22  C16 UNL     1      98.902  17.925  12.381  1.00  0.00     0.001 C 
BRANCH  22  23
HETATM   23  C17 UNL     1     100.392  18.049  12.416  1.00  0.00     0.143 C 
BRANCH  23  24
HETATM   24  O3  UNL     1     100.969  17.172  13.325  1.00  0.00    -0.392 OA
ATOM     25  H3  UNL     1     100.418  17.032  14.087  1.00  0.00     0.210 HD
ENDBRANCH  23  24
BRANCH  23  26
HETATM   26  C18 UNL     1     100.948  17.741  11.048  1.00  0.00     0.067 C 
BRANCH  26  27
HETATM   27  C19 UNL     1     100.266  16.683  10.277  1.00  0.00     0.116 C 
HETATM   28  C20 UNL     1     100.981  15.417  10.004  1.00  0.00     0.039 C 
BRANCH  27  29
HETATM   29  O4  UNL     1      99.858  17.262   9.031  1.00  0.00    -0.396 OA
ATOM     30  H4  UNL     1     100.648  17.466   8.544  1.00  0.00     0.210 HD
ENDBRANCH  27  29
ENDBRANCH  26  27
ENDBRANCH  23  26
ENDBRANCH  22  23
ENDBRANCH  19  21
ENDBRANCH  16  19
ENDBRANCH   8  16
BRANCH   1  31
HETATM   31  C3  UNL     1      91.077  13.390   9.989  1.00  0.00     0.068 A 
HETATM   32  C2  UNL     1      90.100  13.998   9.167  1.00  0.00    -0.005 A 
HETATM   33  C1  UNL     1      89.599  15.392   9.173  1.00  0.00     0.052 C 
HETATM   34  C28 UNL     1      89.615  12.984   8.391  1.00  0.00     0.100 A 
HETATM   35  C27 UNL     1      90.257  11.807   8.711  1.00  0.00     0.206 A 
HETATM   36 CL1  UNL     1      88.344  13.120   7.151  1.00  0.00    -0.079 Cl
HETATM   37  O5  UNL     1      91.088  12.155   9.655  1.00  0.00    -0.290 OA
BRANCH  35  38
HETATM   38  O6  UNL     1      90.081  10.516   8.166  1.00  0.00    -0.339 OA
ATOM     39  H6  UNL     1      89.384   9.902   8.364  1.00  0.00     0.220 HD
ENDBRANCH  35  38
ENDBRANCH   1  31
TORSDOF 11
ENDMDL
MODEL 4
REMARK VINA RESULT: -7.279911500      3.148      9.472
REMARK  11 active torsions:
REMARK  status: ('A' for Active; 'I' for Inactive)
REMARK    1  A    between atoms: C3_3  and  C4_4 
REMARK    2  A    between atoms: C10_11  and  C12_13 
REMARK    3  A    between atoms: C12_13  and  O2_14 
REMARK    4  A    between atoms: C12_13  and  C13_16 
REMARK    5  A    between atoms: C13_16  and  C15_18 
REMARK    6  A    between atoms: C16_19  and  C17_20 
REMARK    7  A    between atoms: C17_20  and  O3_21 
REMARK    8  A    between atoms: C17_20  and  C18_23 
REMARK    9  A    between atoms: C18_23  and  C19_24 
REMARK   10  A    between atoms: C19_24  and  O4_26 
REMARK   11  A    between atoms: C27_35  and  O6_36 
ROOT
HETATM    1  C4  UNL     1      96.248  15.844  10.987  1.00  0.00     0.054 C 
HETATM    2  C5  UNL     1      95.723  16.921  11.905  1.00  0.00     0.019 C 
HETATM    3  C6  UNL     1      94.315  16.883  12.301  1.00  0.00     0.080 C 
HETATM    4  C7  UNL     1      93.519  16.530  11.068  1.00  0.00     0.136 C 
HETATM    5  O1  UNL     1      92.718  17.358  10.841  1.00  0.00    -0.297 OA
HETATM    6  C8  UNL     1      93.963  15.261  10.493  1.00  0.00     0.035 C 
HETATM    7  C9  UNL     1      94.282  14.260  11.578  1.00  0.00     0.025 C 
HETATM    8  C10 UNL     1      92.960  14.521   9.702  1.00  0.00    -0.003 C 
HETATM    9  C11 UNL     1      93.208  12.974   9.683  1.00  0.00     0.019 C 
HETATM   10  C21 UNL     1      92.999  14.844   8.237  1.00  0.00     0.013 C 
HETATM   11  C22 UNL     1      94.375  14.680   7.788  1.00  0.00     0.006 C 
HETATM   12  C23 UNL     1      95.536  14.795   8.737  1.00  0.00    -0.009 C 
HETATM   13  C24 UNL     1      96.660  15.018   7.739  1.00  0.00     0.011 C 
HETATM   14  C25 UNL     1      95.276  15.717   9.783  1.00  0.00    -0.016 C 
HETATM   15  C26 UNL     1      95.157  17.119   9.271  1.00  0.00     0.018 C 
ENDROOT
BRANCH   8  16
HETATM   16  C12 UNL     1      91.543  14.602  10.176  1.00  0.00     0.134 C 
BRANCH  16  17
HETATM   17  O2  UNL     1      90.710  15.477   9.461  1.00  0.00    -0.394 OA
ATOM     18  H2  UNL     1      90.465  15.192   8.588  1.00  0.00     0.210 HD
ENDBRANCH  16  17
BRANCH  16  19
HETATM   19  C13 UNL     1      90.683  13.432  10.351  1.00  0.00     0.033 C 
HETATM   20  C14 UNL     1      89.471  14.104  11.202  1.00  0.00     0.017 C 
BRANCH  19  21
HETATM   21  C15 UNL     1      89.792  13.037   9.196  1.00  0.00    -0.021 C 
HETATM   22  C16 UNL     1      90.130  11.962   8.462  1.00  0.00     0.001 C 
BRANCH  22  23
HETATM   23  C17 UNL     1      89.313  11.496   7.299  1.00  0.00     0.143 C 
BRANCH  23  24
HETATM   24  O3  UNL     1      89.702  12.100   6.110  1.00  0.00    -0.392 OA
ATOM     25  H3  UNL     1      90.393  12.738   6.242  1.00  0.00     0.210 HD
ENDBRANCH  23  24
BRANCH  23  26
HETATM   26  C18 UNL     1      89.477  10.005   7.144  1.00  0.00     0.067 C 
BRANCH  26  27
HETATM   27  C19 UNL     1      88.473   9.310   6.312  1.00  0.00     0.116 C 
HETATM   28  C20 UNL     1      88.903   8.671   5.049  1.00  0.00     0.039 C 
BRANCH  27  29
HETATM   29  O4  UNL     1      87.435  10.255   6.023  1.00  0.00    -0.396 OA
ATOM     30  H4  UNL     1      87.418  10.881   6.737  1.00  0.00     0.210 HD
ENDBRANCH  27  29
ENDBRANCH  26  27
ENDBRANCH  23  26
ENDBRANCH  22  23
ENDBRANCH  19  21
ENDBRANCH  16  19
ENDBRANCH   8  16
BRANCH   1  31
HETATM   31  C3  UNL     1      97.603  16.336  10.557  1.00  0.00     0.068 A 
HETATM   32  C2  UNL     1      98.806  15.664  10.875  1.00  0.00    -0.005 A 
HETATM   33  C1  UNL     1      99.021  14.472  11.729  1.00  0.00     0.052 C 
HETATM   34  C28 UNL     1      99.790  16.411  10.293  1.00  0.00     0.100 A 
HETATM   35  C27 UNL     1      99.229  17.492   9.646  1.00  0.00     0.206 A 
HETATM   36 CL1  UNL     1     101.538  16.079  10.348  1.00  0.00    -0.079 Cl
HETATM   37  O5  UNL     1      97.951  17.353   9.864  1.00  0.00    -0.290 OA
BRANCH  35  38
HETATM   38  O6  UNL     1      99.862  18.520   8.914  1.00  0.00    -0.339 OA
ATOM     39  H6  UNL     1      99.539  18.946   8.128  1.00  0.00     0.220 HD
ENDBRANCH  35  38
ENDBRANCH   1  31
TORSDOF 11
ENDMDL
MODEL 5
REMARK VINA RESULT: -7.190298729      4.418     10.067
REMARK  11 active torsions:
REMARK  status: ('A' for Active; 'I' for Inactive)
REMARK    1  A    between atoms: C3_3  and  C4_4 
REMARK    2  A    between atoms: C10_11  and  C12_13 
REMARK    3  A    between atoms: C12_13  and  O2_14 
REMARK    4  A    between atoms: C12_13  and  C13_16 
REMARK    5  A    between atoms: C13_16  and  C15_18 
REMARK    6  A    between atoms: C16_19  and  C17_20 
REMARK    7  A    between atoms: C17_20  and  O3_21 
REMARK    8  A    between atoms: C17_20  and  C18_23 
REMARK    9  A    between atoms: C18_23  and  C19_24 
REMARK   10  A    between atoms: C19_24  and  O4_26 
REMARK   11  A    between atoms: C27_35  and  O6_36 
ROOT
HETATM    1  C4  UNL     1      96.803  16.606  12.411  1.00  0.00     0.054 C 
HETATM    2  C5  UNL     1      95.721  17.408  11.730  1.00  0.00     0.019 C 
HETATM    3  C6  UNL     1      94.329  16.985  11.886  1.00  0.00     0.080 C 
HETATM    4  C7  UNL     1      94.307  15.481  11.755  1.00  0.00     0.136 C 
HETATM    5  O1  UNL     1      93.587  15.151  10.888  1.00  0.00    -0.297 OA
HETATM    6  C8  UNL     1      95.186  14.850  12.738  1.00  0.00     0.035 C 
HETATM    7  C9  UNL     1      95.105  15.560  14.069  1.00  0.00     0.025 C 
HETATM    8  C10 UNL     1      94.840  13.468  13.126  1.00  0.00    -0.003 C 
HETATM    9  C11 UNL     1      95.329  13.089  14.565  1.00  0.00     0.019 C 
HETATM   10  C21 UNL     1      95.529  12.425  12.296  1.00  0.00     0.013 C 
HETATM   11  C22 UNL     1      96.954  12.725  12.309  1.00  0.00     0.006 C 
HETATM   12  C23 UNL     1      97.468  14.115  12.564  1.00  0.00    -0.009 C 
HETATM   13  C24 UNL     1      98.877  13.971  12.014  1.00  0.00     0.011 C 
HETATM   14  C25 UNL     1      96.577  15.107  12.079  1.00  0.00    -0.016 C 
HETATM   15  C26 UNL     1      96.482  15.083  10.584  1.00  0.00     0.018 C 
ENDROOT
BRANCH   8  16
HETATM   16  C12 UNL     1      93.381  13.140  13.198  1.00  0.00     0.134 C 
BRANCH  16  17
HETATM   17  O2  UNL     1      92.871  12.392  12.126  1.00  0.00    -0.394 OA
ATOM     18  H2  UNL     1      92.186  11.770  12.345  1.00  0.00     0.210 HD
ENDBRANCH  16  17
BRANCH  16  19
HETATM   19  C13 UNL     1      92.756  12.492  14.351  1.00  0.00     0.033 C 
HETATM   20  C14 UNL     1      91.596  13.582  14.685  1.00  0.00     0.017 C 
BRANCH  19  21
HETATM   21  C15 UNL     1      91.776  11.375  14.081  1.00  0.00    -0.021 C 
HETATM   22  C16 UNL     1      90.929  11.012  15.060  1.00  0.00     0.001 C 
BRANCH  22  23
HETATM   23  C17 UNL     1      89.925   9.917  14.888  1.00  0.00     0.143 C 
BRANCH  23  24
HETATM   24  O3  UNL     1      89.695   9.227  16.072  1.00  0.00    -0.392 OA
ATOM     25  H3  UNL     1      88.966   8.622  15.998  1.00  0.00     0.210 HD
ENDBRANCH  23  24
BRANCH  23  26
HETATM   26  C18 UNL     1      88.617  10.510  14.428  1.00  0.00     0.067 C 
BRANCH  26  27
HETATM   27  C19 UNL     1      87.734   9.633  13.632  1.00  0.00     0.116 C 
HETATM   28  C20 UNL     1      86.310   9.511  14.012  1.00  0.00     0.039 C 
BRANCH  27  29
HETATM   29  O4  UNL     1      88.326   8.327  13.628  1.00  0.00    -0.396 OA
ATOM     30  H4  UNL     1      87.886   7.822  12.955  1.00  0.00     0.210 HD
ENDBRANCH  27  29
ENDBRANCH  26  27
ENDBRANCH  23  26
ENDBRANCH  22  23
ENDBRANCH  19  21
ENDBRANCH  16  19
ENDBRANCH   8  16
BRANCH   1  31
HETATM   31  C3  UNL     1      98.087  17.119  11.820  1.00  0.00     0.068 A 
HETATM   32  C2  UNL     1      99.243  17.384  12.591  1.00  0.00    -0.005 A 
HETATM   33  C1  UNL     1      99.425  17.332  14.061  1.00  0.00     0.052 C 
HETATM   34  C28 UNL     1     100.177  17.807  11.690  1.00  0.00     0.100 A 
HETATM   35  C27 UNL     1      99.633  17.805  10.423  1.00  0.00     0.206 A 
HETATM   36 CL1  UNL     1     101.847  18.302  12.057  1.00  0.00    -0.079 Cl
HETATM   37  O5  UNL     1      98.412  17.389  10.612  1.00  0.00    -0.290 OA
BRANCH  35  38
HETATM   38  O6  UNL     1     100.231  18.162   9.195  1.00  0.00    -0.339 OA
ATOM     39  H6  UNL     1     100.828  17.637   8.674  1.00  0.00     0.220 HD
ENDBRANCH  35  38
ENDBRANCH   1  31
TORSDOF 11
ENDMDL
