MODEL 1
REMARK VINA RESULT: -8.697019071      0.000      0.000
REMARK  10 active torsions:
REMARK  status: ('A' for Active; 'I' for Inactive)
REMARK    1  A    between atoms: C3_3  and  O1_4 
REMARK    2  A    between atoms: C4_6  and  O2_7 
REMARK    3  A    between atoms: C7_11  and  C8_12 
REMARK    4  A    between atoms: C11_17  and  O3_18 
REMARK    5  A    between atoms: C12_20  and  O4_21 
REMARK    6  A    between atoms: O4_21  and  C13_22 
REMARK    7  A    between atoms: C18_28  and  O5_29 
REMARK    8  A    between atoms: O5_29  and  C19_30 
REMARK    9  A    between atoms: C22_33  and  C23_34 
REMARK   10  A    between atoms: C26_37  and  O6_38 
ROOT
HETATM    1  C13 UNL     1      89.957  12.772   8.430  1.00  0.00     0.110 A 
HETATM    2  C14 UNL     1      88.637  13.258   8.394  1.00  0.00     0.043 A 
HETATM    3  C15 UNL     1      88.072  13.917   9.460  1.00  0.00     0.045 A 
HETATM    4  C16 UNL     1      88.829  14.100  10.588  1.00  0.00     0.119 A 
HETATM    5  F1  UNL     1      88.259  14.743  11.639  1.00  0.00    -0.206 F 
HETATM    6  C17 UNL     1      90.124  13.628  10.634  1.00  0.00     0.082 A 
HETATM    7  C18 UNL     1      90.694  12.972   9.582  1.00  0.00     0.112 A 
ENDROOT
BRANCH   1   8
HETATM    8  O4  UNL     1      90.550  12.118   7.378  1.00  0.00    -0.306 OA
BRANCH   8   9
HETATM    9  C12 UNL     1      89.896  11.755   6.200  1.00  0.00     0.100 A 
HETATM   10  C2  UNL     1      89.368  10.443   6.234  1.00  0.00     0.025 A 
HETATM   11  C1  UNL     1      89.552   9.697   7.330  1.00  0.00     0.029 C 
HETATM   12  C3  UNL     1      88.706  10.019   5.122  1.00  0.00     0.112 A 
HETATM   13  C4  UNL     1      88.561  10.853   3.990  1.00  0.00     0.110 A 
HETATM   14  C5  UNL     1      89.074  12.111   3.972  1.00  0.00     0.004 A 
HETATM   15  C6  UNL     1      88.973  12.947   2.963  1.00  0.00     0.027 C 
HETATM   16  C7  UNL     1      89.764  12.574   5.117  1.00  0.00     0.025 A 
BRANCH  12  17
HETATM   17  O1  UNL     1      88.156   8.763   5.059  1.00  0.00    -0.357 OA
ATOM     18  H1  UNL     1      88.249   8.225   4.281  1.00  0.00     0.217 HD
ENDBRANCH  12  17
BRANCH  13  19
HETATM   19  O2  UNL     1      87.873  10.348   2.902  1.00  0.00    -0.357 OA
ATOM     20  H2  UNL     1      87.950  10.813   2.077  1.00  0.00     0.217 HD
ENDBRANCH  13  19
BRANCH  16  21
HETATM   21  C8  UNL     1      90.279  13.927   5.016  1.00  0.00     0.028 A 
HETATM   22  C9  UNL     1      89.605  15.128   5.275  1.00  0.00     0.102 A 
HETATM   23  N1  UNL     1      90.432  16.175   5.023  1.00  0.00    -0.372 N 
HETATM   24  C10 UNL     1      91.618  15.703   4.610  1.00  0.00     0.125 A 
ATOM     25  H1  UNL     1      90.191  17.160   5.129  1.00  0.00     0.164 HD
HETATM   26  C11 UNL     1      91.534  14.309   4.602  1.00  0.00     0.093 A 
BRANCH  26  27
HETATM   27  O3  UNL     1      92.591  13.510   4.220  1.00  0.00    -0.358 OA
ATOM     28  H3  UNL     1      93.160  12.981   4.767  1.00  0.00     0.217 HD
ENDBRANCH  26  27
ENDBRANCH  16  21
ENDBRANCH   8   9
ENDBRANCH   1   8
BRANCH   7  29
HETATM   29  O5  UNL     1      91.990  12.521   9.667  1.00  0.00    -0.308 OA
BRANCH  29  30
HETATM   30  C19 UNL     1      93.098  13.347   9.705  1.00  0.00     0.076 A 
HETATM   31  C20 UNL     1      93.484  14.075   8.573  1.00  0.00     0.038 A 
HETATM   32  C21 UNL     1      94.591  14.885   8.635  1.00  0.00     0.015 A 
HETATM   33  C22 UNL     1      95.368  15.029   9.779  1.00  0.00    -0.026 A 
HETATM   34  C30 UNL     1      94.993  14.321  10.892  1.00  0.00     0.015 A 
HETATM   35  C31 UNL     1      93.864  13.494  10.827  1.00  0.00     0.038 A 
BRANCH  33  36
HETATM   36  C23 UNL     1      96.565  15.896   9.720  1.00  0.00    -0.026 A 
HETATM   37  C24 UNL     1      96.884  16.830  10.664  1.00  0.00     0.015 A 
HETATM   38  C25 UNL     1      98.023  17.589  10.519  1.00  0.00     0.037 A 
HETATM   39  C26 UNL     1      98.874  17.425   9.415  1.00  0.00     0.068 A 
HETATM   40  C28 UNL     1      98.555  16.478   8.456  1.00  0.00     0.037 A 
HETATM   41  C29 UNL     1      97.417  15.736   8.621  1.00  0.00     0.015 A 
BRANCH  39  42
HETATM   42  O6  UNL     1     100.016  18.180   9.250  1.00  0.00    -0.356 OA
HETATM   43  C27 UNL     1     100.149  19.571   9.289  1.00  0.00     0.210 C 
ENDBRANCH  39  42
ENDBRANCH  33  36
ENDBRANCH  29  30
ENDBRANCH   7  29
TORSDOF 10
ENDMDL
MODEL 2
REMARK VINA RESULT: -8.637445516      2.552      3.867
REMARK  10 active torsions:
REMARK  status: ('A' for Active; 'I' for Inactive)
REMARK    1  A    between atoms: C3_3  and  O1_4 
REMARK    2  A    between atoms: C4_6  and  O2_7 
REMARK    3  A    between atoms: C7_11  and  C8_12 
REMARK    4  A    between atoms: C11_17  and  O3_18 
REMARK    5  A    between atoms: C12_20  and  O4_21 
REMARK    6  A    between atoms: O4_21  and  C13_22 
REMARK    7  A    between atoms: C18_28  and  O5_29 
REMARK    8  A    between atoms: O5_29  and  C19_30 
REMARK    9  A    between atoms: C22_33  and  C23_34 
REMARK   10  A    between atoms: C26_37  and  O6_38 
ROOT
HETATM    1  C13 UNL     1      88.721  14.986   6.503  1.00  0.00     0.110 A 
HETATM    2  C14 UNL     1      87.697  15.948   6.425  1.00  0.00     0.043 A 
HETATM    3  C15 UNL     1      87.834  17.102   5.691  1.00  0.00     0.045 A 
HETATM    4  C16 UNL     1      89.011  17.310   5.018  1.00  0.00     0.119 A 
HETATM    5  F1  UNL     1      89.141  18.457   4.303  1.00  0.00    -0.206 F 
HETATM    6  C17 UNL     1      90.020  16.373   5.088  1.00  0.00     0.082 A 
HETATM    7  C18 UNL     1      89.895  15.225   5.814  1.00  0.00     0.112 A 
ENDROOT
BRANCH   1   8
HETATM    8  O4  UNL     1      88.609  13.821   7.222  1.00  0.00    -0.306 OA
BRANCH   8   9
HETATM    9  C12 UNL     1      88.641  12.540   6.667  1.00  0.00     0.100 A 
HETATM   10  C2  UNL     1      89.454  11.637   7.392  1.00  0.00     0.025 A 
HETATM   11  C1  UNL     1      90.103  12.074   8.477  1.00  0.00     0.029 C 
HETATM   12  C3  UNL     1      89.528  10.363   6.915  1.00  0.00     0.112 A 
HETATM   13  C4  UNL     1      88.828   9.970   5.752  1.00  0.00     0.110 A 
HETATM   14  C5  UNL     1      88.052  10.850   5.067  1.00  0.00     0.004 A 
HETATM   15  C6  UNL     1      87.366  10.558   3.985  1.00  0.00     0.027 C 
HETATM   16  C7  UNL     1      87.957  12.178   5.544  1.00  0.00     0.025 A 
BRANCH  12  17
HETATM   17  O1  UNL     1      90.288   9.411   7.550  1.00  0.00    -0.357 OA
ATOM     18  H1  UNL     1      89.923   8.874   8.243  1.00  0.00     0.217 HD
ENDBRANCH  12  17
BRANCH  13  19
HETATM   19  O2  UNL     1      88.954   8.657   5.337  1.00  0.00    -0.357 OA
ATOM     20  H2  UNL     1      89.646   8.455   4.718  1.00  0.00     0.217 HD
ENDBRANCH  13  19
BRANCH  16  21
HETATM   21  C8  UNL     1      87.109  13.053   4.756  1.00  0.00     0.028 A 
HETATM   22  C9  UNL     1      87.432  13.732   3.573  1.00  0.00     0.102 A 
HETATM   23  N1  UNL     1      86.369  14.477   3.173  1.00  0.00    -0.372 N 
HETATM   24  C10 UNL     1      85.367  14.309   4.049  1.00  0.00     0.125 A 
ATOM     25  H1  UNL     1      86.339  15.068   2.343  1.00  0.00     0.164 HD
HETATM   26  C11 UNL     1      85.815  13.428   5.035  1.00  0.00     0.093 A 
BRANCH  26  27
HETATM   27  O3  UNL     1      85.021  13.045   6.096  1.00  0.00    -0.358 OA
ATOM     28  H3  UNL     1      85.289  12.693   6.937  1.00  0.00     0.217 HD
ENDBRANCH  26  27
ENDBRANCH  16  21
ENDBRANCH   8   9
ENDBRANCH   1   8
BRANCH   7  29
HETATM   29  O5  UNL     1      90.923  14.314   5.854  1.00  0.00    -0.308 OA
BRANCH  29  30
HETATM   30  C19 UNL     1      92.191  14.595   6.330  1.00  0.00     0.076 A 
HETATM   31  C20 UNL     1      93.238  14.877   5.444  1.00  0.00     0.038 A 
HETATM   32  C21 UNL     1      94.489  15.148   5.940  1.00  0.00     0.015 A 
HETATM   33  C22 UNL     1      94.784  15.162   7.299  1.00  0.00    -0.026 A 
HETATM   34  C30 UNL     1      93.762  14.890   8.171  1.00  0.00     0.015 A 
HETATM   35  C31 UNL     1      92.486  14.612   7.663  1.00  0.00     0.038 A 
BRANCH  33  36
HETATM   36  C23 UNL     1      96.177  15.425   7.721  1.00  0.00    -0.026 A 
HETATM   37  C24 UNL     1      96.536  15.841   8.971  1.00  0.00     0.015 A 
HETATM   38  C25 UNL     1      97.863  16.059   9.267  1.00  0.00     0.037 A 
HETATM   39  C26 UNL     1      98.866  15.861   8.306  1.00  0.00     0.068 A 
HETATM   40  C28 UNL     1      98.508  15.437   7.038  1.00  0.00     0.037 A 
HETATM   41  C29 UNL     1      97.183  15.229   6.766  1.00  0.00     0.015 A 
BRANCH  39  42
HETATM   42  O6  UNL     1     100.200  16.078   8.582  1.00  0.00    -0.356 OA
HETATM   43  C27 UNL     1     100.975  15.518   9.602  1.00  0.00     0.210 C 
ENDBRANCH  39  42
ENDBRANCH  33  36
ENDBRANCH  29  30
ENDBRANCH   7  29
TORSDOF 10
ENDMDL
MODEL 3
REMARK VINA RESULT: -8.610550258      5.459     10.861
REMARK  10 active torsions:
REMARK  status: ('A' for Active; 'I' for Inactive)
REMARK    1  A    between atoms: C3_3  and  O1_4 
REMARK    2  A    between atoms: C4_6  and  O2_7 
REMARK    3  A    between atoms: C7_11  and  C8_12 
REMARK    4  A    between atoms: C11_17  and  O3_18 
REMARK    5  A    between atoms: C12_20  and  O4_21 
REMARK    6  A    between atoms: O4_21  and  C13_22 
REMARK    7  A    between atoms: C18_28  and  O5_29 
REMARK    8  A    between atoms: O5_29  and  C19_30 
REMARK    9  A    between atoms: C22_33  and  C23_34 
REMARK   10  A    between atoms: C26_37  and  O6_38 
ROOT
HETATM    1  C13 UNL     1      97.183  16.611   8.939  1.00  0.00     0.110 A 
HETATM    2  C14 UNL     1      98.231  16.251   8.071  1.00  0.00     0.043 A 
HETATM    3  C15 UNL     1      98.021  15.477   6.956  1.00  0.00     0.045 A 
HETATM    4  C16 UNL     1      96.745  15.047   6.692  1.00  0.00     0.119 A 
HETATM    5  F1  UNL     1      96.550  14.274   5.592  1.00  0.00    -0.206 F 
HETATM    6  C17 UNL     1      95.712  15.394   7.536  1.00  0.00     0.082 A 
HETATM    7  C18 UNL     1      95.910  16.163   8.646  1.00  0.00     0.112 A 
ENDROOT
BRANCH   1   8
HETATM    8  O4  UNL     1      97.362  17.391  10.057  1.00  0.00    -0.306 OA
BRANCH   8   9
HETATM    9  C12 UNL     1      98.508  17.384  10.853  1.00  0.00     0.100 A 
HETATM   10  C2  UNL     1      99.385  18.461  10.582  1.00  0.00     0.025 A 
HETATM   11  C1  UNL     1      99.063  19.334   9.620  1.00  0.00     0.029 C 
HETATM   12  C3  UNL     1     100.523  18.527  11.327  1.00  0.00     0.112 A 
HETATM   13  C4  UNL     1     100.810  17.562  12.319  1.00  0.00     0.110 A 
HETATM   14  C5  UNL     1      99.959  16.533  12.567  1.00  0.00     0.004 A 
HETATM   15  C6  UNL     1     100.152  15.603  13.475  1.00  0.00     0.027 C 
HETATM   16  C7  UNL     1      98.769  16.445  11.807  1.00  0.00     0.025 A 
BRANCH  12  17
HETATM   17  O1  UNL     1     101.435  19.536  11.141  1.00  0.00    -0.357 OA
ATOM     18  H1  UNL     1     102.045  19.779  11.828  1.00  0.00     0.217 HD
ENDBRANCH  12  17
BRANCH  13  19
HETATM   19  O2  UNL     1     101.986  17.702  13.033  1.00  0.00    -0.357 OA
ATOM     20  H2  UNL     1     102.131  17.115  13.765  1.00  0.00     0.217 HD
ENDBRANCH  13  19
BRANCH  16  21
HETATM   21  C8  UNL     1      97.915  15.318  12.135  1.00  0.00     0.028 A 
HETATM   22  C9  UNL     1      98.063  13.981  11.740  1.00  0.00     0.102 A 
HETATM   23  N1  UNL     1      97.028  13.248  12.228  1.00  0.00    -0.372 N 
HETATM   24  C10 UNL     1      96.214  14.055  12.925  1.00  0.00     0.125 A 
ATOM     25  H1  UNL     1      96.893  12.247  12.087  1.00  0.00     0.164 HD
HETATM   26  C11 UNL     1      96.755  15.342  12.873  1.00  0.00     0.093 A 
BRANCH  26  27
HETATM   27  O3  UNL     1      96.154  16.418  13.492  1.00  0.00    -0.358 OA
ATOM     28  H3  UNL     1      95.772  16.463  14.360  1.00  0.00     0.217 HD
ENDBRANCH  26  27
ENDBRANCH  16  21
ENDBRANCH   8   9
ENDBRANCH   1   8
BRANCH   7  29
HETATM   29  O5  UNL     1      94.851  16.490   9.459  1.00  0.00    -0.308 OA
BRANCH  29  30
HETATM   30  C19 UNL     1      94.134  15.575  10.207  1.00  0.00     0.076 A 
HETATM   31  C20 UNL     1      94.158  14.213   9.880  1.00  0.00     0.038 A 
HETATM   32  C21 UNL     1      93.434  13.324  10.636  1.00  0.00     0.015 A 
HETATM   33  C22 UNL     1      92.663  13.703  11.729  1.00  0.00    -0.026 A 
HETATM   34  C30 UNL     1      92.638  15.034  12.055  1.00  0.00     0.015 A 
HETATM   35  C31 UNL     1      93.376  15.941  11.283  1.00  0.00     0.038 A 
BRANCH  33  36
HETATM   36  C23 UNL     1      91.889  12.666  12.445  1.00  0.00    -0.026 A 
HETATM   37  C24 UNL     1      92.319  12.028  13.574  1.00  0.00     0.015 A 
HETATM   38  C25 UNL     1      91.523  11.075  14.168  1.00  0.00     0.037 A 
HETATM   39  C26 UNL     1      90.268  10.739  13.638  1.00  0.00     0.068 A 
HETATM   40  C28 UNL     1      89.827  11.383  12.495  1.00  0.00     0.037 A 
HETATM   41  C29 UNL     1      90.635  12.326  11.921  1.00  0.00     0.015 A 
BRANCH  39  42
HETATM   42  O6  UNL     1      89.458   9.784  14.216  1.00  0.00    -0.356 OA
HETATM   43  C27 UNL     1      88.187   9.365  13.812  1.00  0.00     0.210 C 
ENDBRANCH  39  42
ENDBRANCH  33  36
ENDBRANCH  29  30
ENDBRANCH   7  29
TORSDOF 10
ENDMDL
MODEL 4
REMARK VINA RESULT: -8.530252423      1.204      1.719
REMARK  10 active torsions:
REMARK  status: ('A' for Active; 'I' for Inactive)
REMARK    1  A    between atoms: C3_3  and  O1_4 
REMARK    2  A    between atoms: C4_6  and  O2_7 
REMARK    3  A    between atoms: C7_11  and  C8_12 
REMARK    4  A    between atoms: C11_17  and  O3_18 
REMARK    5  A    between atoms: C12_20  and  O4_21 
REMARK    6  A    between atoms: O4_21  and  C13_22 
REMARK    7  A    between atoms: C18_28  and  O5_29 
REMARK    8  A    between atoms: O5_29  and  C19_30 
REMARK    9  A    between atoms: C22_33  and  C23_34 
REMARK   10  A    between atoms: C26_37  and  O6_38 
ROOT
HETATM    1  C13 UNL     1      90.445  13.227   8.246  1.00  0.00     0.110 A 
HETATM    2  C14 UNL     1      89.173  13.472   8.796  1.00  0.00     0.043 A 
HETATM    3  C15 UNL     1      88.921  14.563   9.593  1.00  0.00     0.045 A 
HETATM    4  C16 UNL     1      89.949  15.433   9.851  1.00  0.00     0.119 A 
HETATM    5  F1  UNL     1      89.692  16.503  10.647  1.00  0.00    -0.206 F 
HETATM    6  C17 UNL     1      91.199  15.202   9.317  1.00  0.00     0.082 A 
HETATM    7  C18 UNL     1      91.460  14.121   8.526  1.00  0.00     0.112 A 
ENDROOT
BRANCH   1   8
HETATM    8  O4  UNL     1      90.724  12.149   7.440  1.00  0.00    -0.306 OA
BRANCH   8   9
HETATM    9  C12 UNL     1      90.003  11.807   6.295  1.00  0.00     0.100 A 
HETATM   10  C2  UNL     1      89.438  10.511   6.356  1.00  0.00     0.025 A 
HETATM   11  C1  UNL     1      89.654   9.759   7.442  1.00  0.00     0.029 C 
HETATM   12  C3  UNL     1      88.711  10.109   5.277  1.00  0.00     0.112 A 
HETATM   13  C4  UNL     1      88.535  10.948   4.154  1.00  0.00     0.110 A 
HETATM   14  C5  UNL     1      89.084  12.190   4.110  1.00  0.00     0.004 A 
HETATM   15  C6  UNL     1      88.959  13.030   3.107  1.00  0.00     0.027 C 
HETATM   16  C7  UNL     1      89.842  12.631   5.221  1.00  0.00     0.025 A 
BRANCH  12  17
HETATM   17  O1  UNL     1      88.121   8.869   5.242  1.00  0.00    -0.357 OA
ATOM     18  H1  UNL     1      88.162   8.329   4.462  1.00  0.00     0.217 HD
ENDBRANCH  12  17
BRANCH  13  19
HETATM   19  O2  UNL     1      87.780  10.465   3.101  1.00  0.00    -0.357 OA
ATOM     20  H2  UNL     1      86.961  10.905   2.907  1.00  0.00     0.217 HD
ENDBRANCH  13  19
BRANCH  16  21
HETATM   21  C8  UNL     1      90.392  13.968   5.094  1.00  0.00     0.028 A 
HETATM   22  C9  UNL     1      89.754  15.190   5.347  1.00  0.00     0.102 A 
HETATM   23  N1  UNL     1      90.605  16.211   5.069  1.00  0.00    -0.372 N 
HETATM   24  C10 UNL     1      91.772  15.702   4.645  1.00  0.00     0.125 A 
ATOM     25  H1  UNL     1      90.392  17.204   5.166  1.00  0.00     0.164 HD
HETATM   26  C11 UNL     1      91.650  14.311   4.656  1.00  0.00     0.093 A 
BRANCH  26  27
HETATM   27  O3  UNL     1      92.680  13.479   4.269  1.00  0.00    -0.358 OA
ATOM     28  H3  UNL     1      93.370  13.647   3.638  1.00  0.00     0.217 HD
ENDBRANCH  26  27
ENDBRANCH  16  21
ENDBRANCH   8   9
ENDBRANCH   1   8
BRANCH   7  29
HETATM   29  O5  UNL     1      92.719  13.930   8.009  1.00  0.00    -0.308 OA
BRANCH  29  30
HETATM   30  C19 UNL     1      93.841  14.628   8.417  1.00  0.00     0.076 A 
HETATM   31  C20 UNL     1      94.390  14.414   9.688  1.00  0.00     0.038 A 
HETATM   32  C21 UNL     1      95.501  15.123  10.071  1.00  0.00     0.015 A 
HETATM   33  C22 UNL     1      96.128  16.059   9.256  1.00  0.00    -0.026 A 
HETATM   34  C30 UNL     1      95.597  16.270   8.010  1.00  0.00     0.015 A 
HETATM   35  C31 UNL     1      94.462  15.547   7.620  1.00  0.00     0.038 A 
BRANCH  33  36
HETATM   36  C23 UNL     1      97.295  16.796   9.789  1.00  0.00    -0.026 A 
HETATM   37  C24 UNL     1      98.489  16.919   9.138  1.00  0.00     0.015 A 
HETATM   38  C25 UNL     1      99.516  17.627   9.718  1.00  0.00     0.037 A 
HETATM   39  C26 UNL     1      99.367  18.233  10.975  1.00  0.00     0.068 A 
HETATM   40  C28 UNL     1      98.157  18.114  11.638  1.00  0.00     0.037 A 
HETATM   41  C29 UNL     1      97.151  17.403  11.042  1.00  0.00     0.015 A 
BRANCH  39  42
HETATM   42  O6  UNL     1     100.386  18.943  11.574  1.00  0.00    -0.356 OA
HETATM   43  C27 UNL     1     101.625  18.472  12.018  1.00  0.00     0.210 C 
ENDBRANCH  39  42
ENDBRANCH  33  36
ENDBRANCH  29  30
ENDBRANCH   7  29
TORSDOF 10
ENDMDL
MODEL 5
REMARK VINA RESULT: -8.275985738      4.091     10.293
REMARK  10 active torsions:
REMARK  status: ('A' for Active; 'I' for Inactive)
REMARK    1  A    between atoms: C3_3  and  O1_4 
REMARK    2  A    between atoms: C4_6  and  O2_7 
REMARK    3  A    between atoms: C7_11  and  C8_12 
REMARK    4  A    between atoms: C11_17  and  O3_18 
REMARK    5  A    between atoms: C12_20  and  O4_21 
REMARK    6  A    between atoms: O4_21  and  C13_22 
REMARK    7  A    between atoms: C18_28  and  O5_29 
REMARK    8  A    between atoms: O5_29  and  C19_30 
REMARK    9  A    between atoms: C22_33  and  C23_34 
REMARK   10  A    between atoms: C26_37  and  O6_38 
ROOT
HETATM    1  C13 UNL     1      98.607  15.750  11.079  1.00  0.00     0.110 A 
HETATM    2  C14 UNL     1      99.405  15.049  12.001  1.00  0.00     0.043 A 
HETATM    3  C15 UNL     1     100.754  14.867  11.808  1.00  0.00     0.045 A 
HETATM    4  C16 UNL     1     101.327  15.389  10.678  1.00  0.00     0.119 A 
HETATM    5  F1  UNL     1     102.658  15.196  10.492  1.00  0.00    -0.206 F 
HETATM    6  C17 UNL     1     100.553  16.078   9.768  1.00  0.00     0.082 A 
HETATM    7  C18 UNL     1      99.214  16.264   9.949  1.00  0.00     0.112 A 
ENDROOT
BRANCH   1   8
HETATM    8  O4  UNL     1      97.259  15.954  11.249  1.00  0.00    -0.306 OA
BRANCH   8   9
HETATM    9  C12 UNL     1      96.643  16.201  12.477  1.00  0.00     0.100 A 
HETATM   10  C2  UNL     1      96.818  17.529  12.934  1.00  0.00     0.025 A 
HETATM   11  C1  UNL     1      97.540  18.380  12.196  1.00  0.00     0.029 C 
HETATM   12  C3  UNL     1      96.237  17.848  14.124  1.00  0.00     0.112 A 
HETATM   13  C4  UNL     1      95.500  16.895  14.862  1.00  0.00     0.110 A 
HETATM   14  C5  UNL     1      95.341  15.624  14.410  1.00  0.00     0.004 A 
HETATM   15  C6  UNL     1      94.664  14.686  15.034  1.00  0.00     0.027 C 
HETATM   16  C7  UNL     1      95.933  15.269  13.175  1.00  0.00     0.025 A 
BRANCH  12  17
HETATM   17  O1  UNL     1      96.348  19.111  14.651  1.00  0.00    -0.357 OA
ATOM     18  H1  UNL     1      95.577  19.620  14.871  1.00  0.00     0.217 HD
ENDBRANCH  12  17
BRANCH  13  19
HETATM   19  O2  UNL     1      94.940  17.301  16.059  1.00  0.00    -0.357 OA
ATOM     20  H2  UNL     1      94.930  16.678  16.777  1.00  0.00     0.217 HD
ENDBRANCH  13  19
BRANCH  16  21
HETATM   21  C8  UNL     1      95.715  13.894  12.765  1.00  0.00     0.028 A 
HETATM   22  C9  UNL     1      96.555  12.791  12.967  1.00  0.00     0.102 A 
HETATM   23  N1  UNL     1      96.003  11.690  12.394  1.00  0.00    -0.372 N 
HETATM   24  C10 UNL     1      94.836  12.034  11.828  1.00  0.00     0.125 A 
ATOM     25  H1  UNL     1      96.409  10.755  12.394  1.00  0.00     0.164 HD
HETATM   26  C11 UNL     1      94.648  13.400  12.052  1.00  0.00     0.093 A 
BRANCH  26  27
HETATM   27  O3  UNL     1      93.537  14.075  11.592  1.00  0.00    -0.358 OA
ATOM     28  H3  UNL     1      92.707  13.717  11.300  1.00  0.00     0.217 HD
ENDBRANCH  26  27
ENDBRANCH  16  21
ENDBRANCH   8   9
ENDBRANCH   1   8
BRANCH   7  29
HETATM   29  O5  UNL     1      98.479  16.961   9.020  1.00  0.00    -0.308 OA
BRANCH  29  30
HETATM   30  C19 UNL     1      97.344  16.470   8.401  1.00  0.00     0.076 A 
HETATM   31  C20 UNL     1      96.074  16.924   8.778  1.00  0.00     0.038 A 
HETATM   32  C21 UNL     1      94.962  16.418   8.151  1.00  0.00     0.015 A 
HETATM   33  C22 UNL     1      95.023  15.463   7.142  1.00  0.00    -0.026 A 
HETATM   34  C30 UNL     1      96.264  15.016   6.768  1.00  0.00     0.015 A 
HETATM   35  C31 UNL     1      97.398  15.532   7.409  1.00  0.00     0.038 A 
BRANCH  33  36
HETATM   36  C23 UNL     1      93.758  14.956   6.567  1.00  0.00    -0.026 A 
HETATM   37  C24 UNL     1      93.479  14.929   5.230  1.00  0.00     0.015 A 
HETATM   38  C25 UNL     1      92.270  14.437   4.793  1.00  0.00     0.037 A 
HETATM   39  C26 UNL     1      91.307  13.958   5.694  1.00  0.00     0.068 A 
HETATM   40  C28 UNL     1      91.586  13.982   7.050  1.00  0.00     0.037 A 
HETATM   41  C29 UNL     1      92.794  14.477   7.462  1.00  0.00     0.015 A 
BRANCH  39  42
HETATM   42  O6  UNL     1      90.089  13.465   5.275  1.00  0.00    -0.356 OA
HETATM   43  C27 UNL     1      89.771  12.162   4.882  1.00  0.00     0.210 C 
ENDBRANCH  39  42
ENDBRANCH  33  36
ENDBRANCH  29  30
ENDBRANCH   7  29
TORSDOF 10
ENDMDL
