MODEL 1
REMARK VINA RESULT: -9.692524148      0.000      0.000
REMARK  8 active torsions:
REMARK  status: ('A' for Active; 'I' for Inactive)
REMARK    1  A    between atoms: N1_1  and  C1_4 
REMARK    2  A    between atoms: C3_10  and  N4_11 
REMARK    3  A    between atoms: C4_12  and  C5_13 
REMARK    4  A    between atoms: C5_13  and  C6_14 
REMARK    5  A    between atoms: C6_14  and  C7_15 
REMARK    6  A    between atoms: C7_15  and  C8_16 
REMARK    7  A    between atoms: C8_16  and  C9_17 
REMARK    8  A    between atoms: C22_39  and  C23_40 
ROOT
HETATM    1  N4  UNL     1      98.369  17.072  10.751  1.00  0.00    -0.282 N 
HETATM    2  C4  UNL     1      98.723  16.519  11.939  1.00  0.00     0.090 A 
HETATM    3  N7  UNL     1      99.816  17.173  12.371  1.00  0.00    -0.341 N 
ATOM      4  H7  UNL     1     100.308  16.974  13.242  1.00  0.00     0.167 HD
HETATM    5  C16 UNL     1     100.166  18.123  11.491  1.00  0.00     0.100 A 
HETATM    6  C17 UNL     1     101.197  19.055  11.467  1.00  0.00     0.145 A 
HETATM    7  F1  UNL     1     102.111  19.125  12.483  1.00  0.00    -0.204 F 
HETATM    8  C18 UNL     1     101.262  19.903  10.382  1.00  0.00     0.045 A 
HETATM    9  C19 UNL     1     100.332  19.823   9.361  1.00  0.00     0.005 A 
HETATM   10  C20 UNL     1      99.302  18.887   9.393  1.00  0.00     0.032 A 
HETATM   11  C21 UNL     1      99.245  18.049  10.473  1.00  0.00     0.072 A 
ENDROOT
BRANCH   1  12
HETATM   12  C3  UNL     1      97.250  16.642   9.979  1.00  0.00     0.146 A 
HETATM   13  C2  UNL     1      97.440  16.104   8.719  1.00  0.00     0.123 A 
HETATM   14  N3  UNL     1      98.538  15.867   7.978  1.00  0.00    -0.293 N 
HETATM   15  C29 UNL     1      96.377  15.681   7.956  1.00  0.00     0.111 A 
HETATM   16  N2  UNL     1      98.178  15.327   6.817  1.00  0.00    -0.283 N 
ATOM     17  H3  UNL     1      99.496  16.071   8.262  1.00  0.00     0.187 HD
HETATM   18  C1  UNL     1      96.853  15.193   6.756  1.00  0.00     0.143 A 
ATOM     19  H2  UNL     1      98.824  15.054   6.077  1.00  0.00     0.188 HD
HETATM   20  N9  UNL     1      95.140  15.815   8.490  1.00  0.00    -0.337 N 
HETATM   21  C22 UNL     1      94.925  16.331   9.706  1.00  0.00     0.117 A 
ATOM     22  H9  UNL     1      94.337  15.508   7.941  1.00  0.00     0.167 HD
HETATM   23  N8  UNL     1      95.983  16.733  10.423  1.00  0.00    -0.325 N 
ATOM     24  H8  UNL     1      95.820  17.126  11.349  1.00  0.00     0.169 HD
BRANCH  18  25
HETATM   25  N1  UNL     1      96.129  14.723   5.821  1.00  0.00    -0.383 N 
ATOM     26  H12 UNL     1      96.479  14.199   5.019  1.00  0.00     0.157 HD
ATOM     27  H11 UNL     1      95.118  14.777   5.694  1.00  0.00     0.157 HD
ENDBRANCH  18  25
BRANCH  21  28
HETATM   28  C23 UNL     1      93.601  16.480  10.289  1.00  0.00     0.008 A 
HETATM   29  C24 UNL     1      92.601  15.576  10.003  1.00  0.00     0.015 A 
HETATM   30  C25 UNL     1      91.332  15.691  10.541  1.00  0.00     0.001 A 
HETATM   31  C26 UNL     1      91.017  16.729  11.398  1.00  0.00     0.000 A 
HETATM   32  C27 UNL     1      92.019  17.628  11.680  1.00  0.00     0.001 A 
HETATM   33  C28 UNL     1      93.284  17.518  11.146  1.00  0.00     0.015 A 
ENDBRANCH  21  28
ENDBRANCH   1  12
BRANCH   2  34
HETATM   34  C5  UNL     1      98.023  15.390  12.637  1.00  0.00     0.077 C 
BRANCH  34  35
HETATM   35  C6  UNL     1      98.834  14.114  12.582  1.00  0.00     0.008 C 
BRANCH  35  36
HETATM   36  C7  UNL     1      98.087  12.947  12.073  1.00  0.00     0.008 C 
BRANCH  36  37
HETATM   37  C8  UNL     1      97.288  12.157  13.024  1.00  0.00     0.076 C 
BRANCH  37  38
HETATM   38  C9  UNL     1      95.881  12.573  13.207  1.00  0.00     0.082 A 
HETATM   39  N5  UNL     1      95.460  13.536  14.058  1.00  0.00    -0.344 N 
HETATM   40  C10 UNL     1      94.140  13.691  13.965  1.00  0.00     0.060 A 
ATOM     41  H5  UNL     1      96.067  14.068  14.682  1.00  0.00     0.167 HD
HETATM   42  C11 UNL     1      93.231  14.510  14.586  1.00  0.00     0.032 A 
HETATM   43  C15 UNL     1      93.680  12.814  13.033  1.00  0.00     0.060 A 
HETATM   44  C12 UNL     1      91.882  14.443  14.274  1.00  0.00     0.002 A 
HETATM   45  C13 UNL     1      91.441  13.544  13.325  1.00  0.00     0.002 A 
HETATM   46  C14 UNL     1      92.356  12.732  12.710  1.00  0.00     0.032 A 
HETATM   47  N6  UNL     1      94.773  12.146  12.590  1.00  0.00    -0.344 N 
ATOM     48  H6  UNL     1      94.754  11.414  11.881  1.00  0.00     0.167 HD
ENDBRANCH  37  38
ENDBRANCH  36  37
ENDBRANCH  35  36
ENDBRANCH  34  35
ENDBRANCH   2  34
TORSDOF 8
ENDMDL
MODEL 2
REMARK VINA RESULT: -9.608041515      0.292      1.206
REMARK  8 active torsions:
REMARK  status: ('A' for Active; 'I' for Inactive)
REMARK    1  A    between atoms: N1_1  and  C1_4 
REMARK    2  A    between atoms: C3_10  and  N4_11 
REMARK    3  A    between atoms: C4_12  and  C5_13 
REMARK    4  A    between atoms: C5_13  and  C6_14 
REMARK    5  A    between atoms: C6_14  and  C7_15 
REMARK    6  A    between atoms: C7_15  and  C8_16 
REMARK    7  A    between atoms: C8_16  and  C9_17 
REMARK    8  A    between atoms: C22_39  and  C23_40 
ROOT
HETATM    1  N4  UNL     1      98.492  17.046  10.726  1.00  0.00    -0.282 N 
HETATM    2  C4  UNL     1      98.892  16.438  11.873  1.00  0.00     0.090 A 
HETATM    3  N7  UNL     1      99.996  17.078  12.297  1.00  0.00    -0.341 N 
ATOM      4  H7  UNL     1     100.520  16.841  13.140  1.00  0.00     0.167 HD
HETATM    5  C16 UNL     1     100.308  18.074  11.454  1.00  0.00     0.100 A 
HETATM    6  C17 UNL     1     101.333  19.014  11.439  1.00  0.00     0.145 A 
HETATM    7  F1  UNL     1     102.281  19.040  12.424  1.00  0.00    -0.204 F 
HETATM    8  C18 UNL     1     101.353  19.913  10.395  1.00  0.00     0.045 A 
HETATM    9  C19 UNL     1     100.388  19.877   9.405  1.00  0.00     0.005 A 
HETATM   10  C20 UNL     1      99.365  18.933   9.428  1.00  0.00     0.032 A 
HETATM   11  C21 UNL     1      99.352  18.042  10.466  1.00  0.00     0.072 A 
ENDROOT
BRANCH   1  12
HETATM   12  C3  UNL     1      97.349  16.646   9.975  1.00  0.00     0.146 A 
HETATM   13  C2  UNL     1      97.501  16.126   8.701  1.00  0.00     0.123 A 
HETATM   14  N3  UNL     1      98.578  15.886   7.931  1.00  0.00    -0.293 N 
HETATM   15  C29 UNL     1      96.414  15.732   7.957  1.00  0.00     0.111 A 
HETATM   16  N2  UNL     1      98.182  15.371   6.770  1.00  0.00    -0.283 N 
ATOM     17  H3  UNL     1      99.545  16.070   8.195  1.00  0.00     0.187 HD
HETATM   18  C1  UNL     1      96.854  15.258   6.739  1.00  0.00     0.143 A 
ATOM     19  H2  UNL     1      98.806  15.101   6.010  1.00  0.00     0.188 HD
HETATM   20  N9  UNL     1      95.192  15.875   8.522  1.00  0.00    -0.337 N 
HETATM   21  C22 UNL     1      95.013  16.375   9.752  1.00  0.00     0.117 A 
ATOM     22  H9  UNL     1      94.372  15.590   7.988  1.00  0.00     0.167 HD
HETATM   23  N8  UNL     1      96.095  16.748  10.450  1.00  0.00    -0.325 N 
ATOM     24  H8  UNL     1      95.960  17.128  11.386  1.00  0.00     0.169 HD
BRANCH  18  25
HETATM   25  N1  UNL     1      96.101  14.815   5.813  1.00  0.00    -0.383 N 
ATOM     26  H12 UNL     1      96.405  14.609   4.861  1.00  0.00     0.157 HD
ATOM     27  H11 UNL     1      95.106  14.593   5.837  1.00  0.00     0.157 HD
ENDBRANCH  18  25
BRANCH  21  28
HETATM   28  C23 UNL     1      93.707  16.533  10.368  1.00  0.00     0.008 A 
HETATM   29  C24 UNL     1      93.474  17.542  11.277  1.00  0.00     0.015 A 
HETATM   30  C25 UNL     1      92.242  17.718  11.881  1.00  0.00     0.001 A 
HETATM   31  C26 UNL     1      91.184  16.877  11.589  1.00  0.00     0.000 A 
HETATM   32  C27 UNL     1      91.421  15.872  10.681  1.00  0.00     0.001 A 
HETATM   33  C28 UNL     1      92.646  15.693  10.078  1.00  0.00     0.015 A 
ENDBRANCH  21  28
ENDBRANCH   1  12
BRANCH   2  34
HETATM   34  C5  UNL     1      98.224  15.271  12.538  1.00  0.00     0.077 C 
BRANCH  34  35
HETATM   35  C6  UNL     1      98.402  13.999  11.739  1.00  0.00     0.008 C 
BRANCH  35  36
HETATM   36  C7  UNL     1      98.497  12.778  12.563  1.00  0.00     0.008 C 
BRANCH  36  37
HETATM   37  C8  UNL     1      97.360  11.841  12.563  1.00  0.00     0.076 C 
BRANCH  37  38
HETATM   38  C9  UNL     1      96.036  12.414  12.884  1.00  0.00     0.082 A 
HETATM   39  N5  UNL     1      94.876  12.081  12.272  1.00  0.00    -0.344 N 
HETATM   40  C10 UNL     1      93.860  12.752  12.810  1.00  0.00     0.060 A 
ATOM     41  H5  UNL     1      94.793  11.411  11.507  1.00  0.00     0.167 HD
HETATM   42  C11 UNL     1      92.509  12.788  12.572  1.00  0.00     0.032 A 
HETATM   43  C15 UNL     1      94.357  13.544  13.799  1.00  0.00     0.060 A 
HETATM   44  C12 UNL     1      91.675  13.610  13.315  1.00  0.00     0.002 A 
HETATM   45  C13 UNL     1      92.205  14.402  14.312  1.00  0.00     0.002 A 
HETATM   46  C14 UNL     1      93.554  14.359  14.543  1.00  0.00     0.032 A 
HETATM   47  N6  UNL     1      95.692  13.310  13.815  1.00  0.00    -0.344 N 
ATOM     48  H6  UNL     1      96.348  13.760  14.453  1.00  0.00     0.167 HD
ENDBRANCH  37  38
ENDBRANCH  36  37
ENDBRANCH  35  36
ENDBRANCH  34  35
ENDBRANCH   2  34
TORSDOF 8
ENDMDL
MODEL 3
REMARK VINA RESULT: -9.551381364      1.101      1.677
REMARK  8 active torsions:
REMARK  status: ('A' for Active; 'I' for Inactive)
REMARK    1  A    between atoms: N1_1  and  C1_4 
REMARK    2  A    between atoms: C3_10  and  N4_11 
REMARK    3  A    between atoms: C4_12  and  C5_13 
REMARK    4  A    between atoms: C5_13  and  C6_14 
REMARK    5  A    between atoms: C6_14  and  C7_15 
REMARK    6  A    between atoms: C7_15  and  C8_16 
REMARK    7  A    between atoms: C8_16  and  C9_17 
REMARK    8  A    between atoms: C22_39  and  C23_40 
ROOT
HETATM    1  N4  UNL     1      98.363  17.080  11.018  1.00  0.00    -0.282 N 
HETATM    2  C4  UNL     1      98.893  16.388  12.058  1.00  0.00     0.090 A 
HETATM    3  N7  UNL     1     100.099  16.922  12.319  1.00  0.00    -0.341 N 
ATOM      4  H7  UNL     1     100.731  16.604  13.053  1.00  0.00     0.167 HD
HETATM    5  C16 UNL     1     100.350  17.933  11.473  1.00  0.00     0.100 A 
HETATM    6  C17 UNL     1     101.431  18.795  11.325  1.00  0.00     0.145 A 
HETATM    7  F1  UNL     1     102.526  18.702  12.139  1.00  0.00    -0.204 F 
HETATM    8  C18 UNL     1     101.355  19.742  10.327  1.00  0.00     0.045 A 
HETATM    9  C19 UNL     1     100.243  19.827   9.510  1.00  0.00     0.005 A 
HETATM   10  C20 UNL     1      99.164  18.961   9.666  1.00  0.00     0.032 A 
HETATM   11  C21 UNL     1      99.247  18.023  10.657  1.00  0.00     0.072 A 
ENDROOT
BRANCH   1  12
HETATM   12  C3  UNL     1      97.085  16.804  10.451  1.00  0.00     0.146 A 
HETATM   13  C2  UNL     1      96.987  16.315   9.160  1.00  0.00     0.123 A 
HETATM   14  N3  UNL     1      97.903  16.009   8.223  1.00  0.00    -0.293 N 
HETATM   15  C29 UNL     1      95.765  16.039   8.592  1.00  0.00     0.111 A 
HETATM   16  N2  UNL     1      97.285  15.568   7.131  1.00  0.00    -0.283 N 
ATOM     17  H3  UNL     1      98.913  16.101   8.334  1.00  0.00     0.187 HD
HETATM   18  C1  UNL     1      95.964  15.569   7.311  1.00  0.00     0.143 A 
ATOM     19  H2  UNL     1      97.756  15.270   6.277  1.00  0.00     0.188 HD
HETATM   20  N9  UNL     1      94.666  16.268   9.348  1.00  0.00    -0.337 N 
HETATM   21  C22 UNL     1      94.728  16.741  10.599  1.00  0.00     0.117 A 
ATOM     22  H9  UNL     1      93.749  16.071   8.946  1.00  0.00     0.167 HD
HETATM   23  N8  UNL     1      95.935  16.998  11.122  1.00  0.00    -0.325 N 
ATOM     24  H8  UNL     1      95.983  17.357  12.075  1.00  0.00     0.169 HD
BRANCH  18  25
HETATM   25  N1  UNL     1      95.039  15.222   6.509  1.00  0.00    -0.383 N 
ATOM     26  H12 UNL     1      95.069  15.339   5.496  1.00  0.00     0.157 HD
ATOM     27  H11 UNL     1      94.138  14.787   6.708  1.00  0.00     0.157 HD
ENDBRANCH  18  25
BRANCH  21  28
HETATM   28  C23 UNL     1      93.554  16.990  11.419  1.00  0.00     0.008 A 
HETATM   29  C24 UNL     1      93.660  17.089  12.789  1.00  0.00     0.015 A 
HETATM   30  C25 UNL     1      92.562  17.325  13.596  1.00  0.00     0.001 A 
HETATM   31  C26 UNL     1      91.301  17.474  13.049  1.00  0.00     0.000 A 
HETATM   32  C27 UNL     1      91.200  17.376  11.681  1.00  0.00     0.001 A 
HETATM   33  C28 UNL     1      92.291  17.140  10.874  1.00  0.00     0.015 A 
ENDBRANCH  21  28
ENDBRANCH   1  12
BRANCH   2  34
HETATM   34  C5  UNL     1      98.249  15.240  12.780  1.00  0.00     0.077 C 
BRANCH  34  35
HETATM   35  C6  UNL     1      98.615  13.913  12.153  1.00  0.00     0.008 C 
BRANCH  35  36
HETATM   36  C7  UNL     1      97.525  12.917  12.173  1.00  0.00     0.008 C 
BRANCH  36  37
HETATM   37  C8  UNL     1      96.455  13.069  13.174  1.00  0.00     0.076 C 
BRANCH  37  38
HETATM   38  C9  UNL     1      95.082  13.231  12.650  1.00  0.00     0.082 A 
HETATM   39  N5  UNL     1      94.739  13.190  11.343  1.00  0.00    -0.344 N 
HETATM   40  C10 UNL     1      93.423  13.342  11.205  1.00  0.00     0.060 A 
ATOM     41  H5  UNL     1      95.395  13.062  10.572  1.00  0.00     0.167 HD
HETATM   42  C11 UNL     1      92.576  13.375  10.126  1.00  0.00     0.032 A 
HETATM   43  C15 UNL     1      92.885  13.484  12.447  1.00  0.00     0.060 A 
HETATM   44  C12 UNL     1      91.211  13.552  10.296  1.00  0.00     0.002 A 
HETATM   45  C13 UNL     1      90.692  13.694  11.566  1.00  0.00     0.002 A 
HETATM   46  C14 UNL     1      91.545  13.658  12.637  1.00  0.00     0.032 A 
HETATM   47  N6  UNL     1      93.930  13.412  13.306  1.00  0.00    -0.344 N 
ATOM     48  H6  UNL     1      93.849  13.485  14.320  1.00  0.00     0.167 HD
ENDBRANCH  37  38
ENDBRANCH  36  37
ENDBRANCH  35  36
ENDBRANCH  34  35
ENDBRANCH   2  34
TORSDOF 8
ENDMDL
MODEL 4
REMARK VINA RESULT: -9.525051617      2.584      4.486
REMARK  8 active torsions:
REMARK  status: ('A' for Active; 'I' for Inactive)
REMARK    1  A    between atoms: N1_1  and  C1_4 
REMARK    2  A    between atoms: C3_10  and  N4_11 
REMARK    3  A    between atoms: C4_12  and  C5_13 
REMARK    4  A    between atoms: C5_13  and  C6_14 
REMARK    5  A    between atoms: C6_14  and  C7_15 
REMARK    6  A    between atoms: C7_15  and  C8_16 
REMARK    7  A    between atoms: C8_16  and  C9_17 
REMARK    8  A    between atoms: C22_39  and  C23_40 
ROOT
HETATM    1  N4  UNL     1      98.358  17.238  13.070  1.00  0.00    -0.282 N 
HETATM    2  C4  UNL     1      99.105  16.331  13.752  1.00  0.00     0.090 A 
HETATM    3  N7  UNL     1      98.694  16.360  15.032  1.00  0.00    -0.341 N 
ATOM      4  H7  UNL     1      99.077  15.781  15.780  1.00  0.00     0.167 HD
HETATM    5  C16 UNL     1      97.709  17.258  15.183  1.00  0.00     0.100 A 
HETATM    6  C17 UNL     1      96.959  17.663  16.281  1.00  0.00     0.145 A 
HETATM    7  F1  UNL     1      97.165  17.115  17.518  1.00  0.00    -0.204 F 
HETATM    8  C18 UNL     1      96.004  18.635  16.074  1.00  0.00     0.045 A 
HETATM    9  C19 UNL     1      95.805  19.181  14.820  1.00  0.00     0.005 A 
HETATM   10  C20 UNL     1      96.561  18.770  13.725  1.00  0.00     0.032 A 
HETATM   11  C21 UNL     1      97.507  17.806  13.938  1.00  0.00     0.072 A 
ENDROOT
BRANCH   1  12
HETATM   12  C3  UNL     1      98.502  17.495  11.676  1.00  0.00     0.146 A 
HETATM   13  C2  UNL     1      99.481  18.366  11.228  1.00  0.00     0.123 A 
HETATM   14  N3  UNL     1     100.418  19.097  11.858  1.00  0.00    -0.293 N 
HETATM   15  C29 UNL     1      99.641  18.630   9.887  1.00  0.00     0.111 A 
HETATM   16  N2  UNL     1     101.122  19.779  10.960  1.00  0.00    -0.283 N 
ATOM     17  H3  UNL     1     100.564  19.124  12.867  1.00  0.00     0.187 HD
HETATM   18  C1  UNL     1     100.679  19.524   9.729  1.00  0.00     0.143 A 
ATOM     19  H2  UNL     1     101.893  20.409  11.182  1.00  0.00     0.188 HD
HETATM   20  N9  UNL     1      98.802  18.004   9.029  1.00  0.00    -0.337 N 
HETATM   21  C22 UNL     1      97.847  17.157   9.433  1.00  0.00     0.117 A 
ATOM     22  H9  UNL     1      98.903  18.185   8.030  1.00  0.00     0.167 HD
HETATM   23  N8  UNL     1      97.719  16.922  10.746  1.00  0.00    -0.325 N 
ATOM     24  H8  UNL     1      96.992  16.276  11.054  1.00  0.00     0.169 HD
BRANCH  18  25
HETATM   25  N1  UNL     1     101.087  19.978   8.612  1.00  0.00    -0.383 N 
ATOM     26  H12 UNL     1     102.065  20.042   8.330  1.00  0.00     0.157 HD
ATOM     27  H11 UNL     1     100.551  20.346   7.826  1.00  0.00     0.157 HD
ENDBRANCH  18  25
BRANCH  21  28
HETATM   28  C23 UNL     1      96.941  16.479   8.519  1.00  0.00     0.008 A 
HETATM   29  C24 UNL     1      97.426  15.785   7.432  1.00  0.00     0.015 A 
HETATM   30  C25 UNL     1      96.590  15.131   6.546  1.00  0.00     0.001 A 
HETATM   31  C26 UNL     1      95.219  15.149   6.721  1.00  0.00     0.000 A 
HETATM   32  C27 UNL     1      94.740  15.843   7.808  1.00  0.00     0.001 A 
HETATM   33  C28 UNL     1      95.569  16.496   8.693  1.00  0.00     0.015 A 
ENDBRANCH  21  28
ENDBRANCH   1  12
BRANCH   2  34
HETATM   34  C5  UNL     1     100.186  15.462  13.179  1.00  0.00     0.077 C 
BRANCH  34  35
HETATM   35  C6  UNL     1      99.644  14.525  12.121  1.00  0.00     0.008 C 
BRANCH  35  36
HETATM   36  C7  UNL     1      98.598  13.605  12.611  1.00  0.00     0.008 C 
BRANCH  36  37
HETATM   37  C8  UNL     1      97.281  13.626  11.952  1.00  0.00     0.076 C 
BRANCH  37  38
HETATM   38  C9  UNL     1      96.205  14.355  12.654  1.00  0.00     0.082 A 
HETATM   39  N5  UNL     1      95.928  14.251  13.974  1.00  0.00    -0.344 N 
HETATM   40  C10 UNL     1      94.920  15.057  14.300  1.00  0.00     0.060 A 
ATOM     41  H5  UNL     1      96.421  13.641  14.626  1.00  0.00     0.167 HD
HETATM   42  C11 UNL     1      94.260  15.333  15.472  1.00  0.00     0.032 A 
HETATM   43  C15 UNL     1      94.523  15.710  13.174  1.00  0.00     0.060 A 
HETATM   44  C12 UNL     1      93.218  16.247  15.506  1.00  0.00     0.002 A 
HETATM   45  C13 UNL     1      92.836  16.894  14.350  1.00  0.00     0.002 A 
HETATM   46  C14 UNL     1      93.500  16.613  13.186  1.00  0.00     0.032 A 
HETATM   47  N6  UNL     1      95.331  15.254  12.186  1.00  0.00    -0.344 N 
ATOM     48  H6  UNL     1      95.281  15.557  11.214  1.00  0.00     0.167 HD
ENDBRANCH  37  38
ENDBRANCH  36  37
ENDBRANCH  35  36
ENDBRANCH  34  35
ENDBRANCH   2  34
TORSDOF 8
ENDMDL
MODEL 5
REMARK VINA RESULT: -9.452640731      1.816      2.491
REMARK  8 active torsions:
REMARK  status: ('A' for Active; 'I' for Inactive)
REMARK    1  A    between atoms: N1_1  and  C1_4 
REMARK    2  A    between atoms: C3_10  and  N4_11 
REMARK    3  A    between atoms: C4_12  and  C5_13 
REMARK    4  A    between atoms: C5_13  and  C6_14 
REMARK    5  A    between atoms: C6_14  and  C7_15 
REMARK    6  A    between atoms: C7_15  and  C8_16 
REMARK    7  A    between atoms: C8_16  and  C9_17 
REMARK    8  A    between atoms: C22_39  and  C23_40 
ROOT
HETATM    1  N4  UNL     1      99.123  16.492  10.461  1.00  0.00    -0.282 N 
HETATM    2  C4  UNL     1      99.741  15.574  11.247  1.00  0.00     0.090 A 
HETATM    3  N7  UNL     1     100.810  16.176  11.797  1.00  0.00    -0.341 N 
ATOM      4  H7  UNL     1     101.466  15.728  12.437  1.00  0.00     0.167 HD
HETATM    5  C16 UNL     1     100.889  17.449  11.383  1.00  0.00     0.100 A 
HETATM    6  C17 UNL     1     101.786  18.477  11.652  1.00  0.00     0.145 A 
HETATM    7  F1  UNL     1     102.849  18.286  12.491  1.00  0.00    -0.204 F 
HETATM    8  C18 UNL     1     101.561  19.692  11.040  1.00  0.00     0.045 A 
HETATM    9  C19 UNL     1     100.483  19.873  10.193  1.00  0.00     0.005 A 
HETATM   10  C20 UNL     1      99.589  18.839   9.930  1.00  0.00     0.032 A 
HETATM   11  C21 UNL     1      99.818  17.637  10.540  1.00  0.00     0.072 A 
ENDROOT
BRANCH   1  12
HETATM   12  C3  UNL     1      97.944  16.225   9.708  1.00  0.00     0.146 A 
HETATM   13  C2  UNL     1      98.037  15.863   8.375  1.00  0.00     0.123 A 
HETATM   14  N3  UNL     1      99.080  15.688   7.542  1.00  0.00    -0.293 N 
HETATM   15  C29 UNL     1      96.913  15.598   7.627  1.00  0.00     0.111 A 
HETATM   16  N2  UNL     1      98.630  15.334   6.342  1.00  0.00    -0.283 N 
ATOM     17  H3  UNL     1     100.061  15.807   7.793  1.00  0.00     0.187 HD
HETATM   18  C1  UNL     1      97.298  15.266   6.344  1.00  0.00     0.143 A 
ATOM     19  H2  UNL     1      99.220  15.141   5.533  1.00  0.00     0.188 HD
HETATM   20  N9  UNL     1      95.716  15.707   8.249  1.00  0.00    -0.337 N 
HETATM   21  C22 UNL     1      95.594  16.055   9.536  1.00  0.00     0.117 A 
ATOM     22  H9  UNL     1      94.870  15.516   7.712  1.00  0.00     0.167 HD
HETATM   23  N8  UNL     1      96.709  16.305  10.236  1.00  0.00    -0.325 N 
ATOM     24  H8  UNL     1      96.617  16.570  11.216  1.00  0.00     0.169 HD
BRANCH  18  25
HETATM   25  N1  UNL     1      96.502  14.965   5.398  1.00  0.00    -0.383 N 
ATOM     26  H12 UNL     1      96.750  14.408   4.581  1.00  0.00     0.157 HD
ATOM     27  H11 UNL     1      95.518  15.208   5.277  1.00  0.00     0.157 HD
ENDBRANCH  18  25
BRANCH  21  28
HETATM   28  C23 UNL     1      94.313  16.175  10.213  1.00  0.00     0.008 A 
HETATM   29  C24 UNL     1      93.521  15.068  10.423  1.00  0.00     0.015 A 
HETATM   30  C25 UNL     1      92.298  15.150  11.064  1.00  0.00     0.001 A 
HETATM   31  C26 UNL     1      91.820  16.363  11.524  1.00  0.00     0.000 A 
HETATM   32  C27 UNL     1      92.616  17.466  11.313  1.00  0.00     0.001 A 
HETATM   33  C28 UNL     1      93.833  17.388  10.676  1.00  0.00     0.015 A 
ENDBRANCH  21  28
ENDBRANCH   1  12
BRANCH   2  34
HETATM   34  C5  UNL     1      99.309  14.152  11.459  1.00  0.00     0.077 C 
BRANCH  34  35
HETATM   35  C6  UNL     1      98.310  14.038  12.590  1.00  0.00     0.008 C 
BRANCH  35  36
HETATM   36  C7  UNL     1      97.005  13.479  12.186  1.00  0.00     0.008 C 
BRANCH  36  37
HETATM   37  C8  UNL     1      95.847  13.692  13.070  1.00  0.00     0.076 C 
BRANCH  37  38
HETATM   38  C9  UNL     1      95.625  15.074  13.544  1.00  0.00     0.082 A 
HETATM   39  N5  UNL     1      94.436  15.577  13.947  1.00  0.00    -0.344 N 
HETATM   40  C10 UNL     1      94.577  16.841  14.340  1.00  0.00     0.060 A 
ATOM     41  H5  UNL     1      93.556  15.060  13.949  1.00  0.00     0.167 HD
HETATM   42  C11 UNL     1      93.713  17.790  14.827  1.00  0.00     0.032 A 
HETATM   43  C15 UNL     1      95.886  17.182  14.195  1.00  0.00     0.060 A 
HETATM   44  C12 UNL     1      94.162  19.059  15.161  1.00  0.00     0.002 A 
HETATM   45  C13 UNL     1      95.495  19.377  15.005  1.00  0.00     0.002 A 
HETATM   46  C14 UNL     1      96.349  18.424  14.518  1.00  0.00     0.032 A 
HETATM   47  N6  UNL     1      96.497  16.076  13.706  1.00  0.00    -0.344 N 
ATOM     48  H6  UNL     1      97.492  16.014  13.489  1.00  0.00     0.167 HD
ENDBRANCH  37  38
ENDBRANCH  36  37
ENDBRANCH  35  36
ENDBRANCH  34  35
ENDBRANCH   2  34
TORSDOF 8
ENDMDL
