MODEL 1
REMARK VINA RESULT: -10.142562903      0.000      0.000
REMARK  8 active torsions:
REMARK  status: ('A' for Active; 'I' for Inactive)
REMARK    1  A    between atoms: O1_2  and  C2_3 
REMARK    2  A    between atoms: C2_3  and  N1_4 
REMARK    3  A    between atoms: N1_4  and  C4_6 
REMARK    4  A    between atoms: C4_6  and  O2_7 
REMARK    5  A    between atoms: C4_6  and  C5_9 
REMARK    6  A    between atoms: C10_14  and  C11_15 
REMARK    7  A    between atoms: C12_18  and  N3_19 
REMARK    8  A    between atoms: C22_33  and  C23_34 
ROOT
HETATM    1  C11 UNL     1     -87.825 -16.752   9.233  1.00  0.00     0.090 A 
HETATM    2  N2  UNL     1     -87.663 -16.264  10.466  1.00  0.00    -0.188 N 
ATOM      3  H2  UNL     1     -86.854 -15.669  10.649  1.00  0.00     0.184 HD
HETATM    4  C12 UNL     1     -88.519 -16.518  11.488  1.00  0.00     0.691 A 
HETATM    5  N5  UNL     1     -89.557 -17.303  11.180  1.00  0.00    -0.186 N 
ATOM      6  H5  UNL     1     -90.222 -17.517  11.922  1.00  0.00     0.184 HD
HETATM    7  C21 UNL     1     -89.791 -17.832   9.968  1.00  0.00     0.108 A 
HETATM    8  C22 UNL     1     -90.756 -18.626   9.406  1.00  0.00     0.088 A 
HETATM    9  N6  UNL     1     -90.441 -18.804   8.109  1.00  0.00    -0.297 N 
ATOM     10  H6  UNL     1     -90.989 -19.354   7.448  1.00  0.00     0.187 HD
HETATM   11  N7  UNL     1     -89.327 -18.168   7.814  1.00  0.00    -0.296 N 
ATOM     12  H7  UNL     1     -88.872 -18.143   6.902  1.00  0.00     0.187 HD
HETATM   13  C29 UNL     1     -88.896 -17.555   8.934  1.00  0.00     0.105 A 
ENDROOT
BRANCH   1  14
HETATM   14  C10 UNL     1     -86.853 -16.449   8.196  1.00  0.00     0.004 A 
HETATM   15  C5  UNL     1     -85.519 -16.274   8.424  1.00  0.00     0.003 A 
HETATM   16  C6  UNL     1     -84.708 -16.123   7.327  1.00  0.00     0.012 A 
HETATM   17  C7  UNL     1     -85.194 -16.136   6.005  1.00  0.00     0.001 A 
HETATM   18  C8  UNL     1     -86.531 -16.307   5.786  1.00  0.00     0.001 A 
HETATM   19  C9  UNL     1     -87.347 -16.461   6.864  1.00  0.00     0.014 A 
BRANCH  15  20
HETATM   20  C4  UNL     1     -84.958 -16.169   9.779  1.00  0.00     0.256 C 
BRANCH  20  21
HETATM   21  N1  UNL     1     -83.553 -16.283   9.926  1.00  0.00    -0.346 N 
HETATM   22  C3  UNL     1     -83.143 -17.504  10.599  1.00  0.00     0.154 C 
BRANCH  21  23
HETATM   23  C2  UNL     1     -82.715 -15.217  10.210  1.00  0.00     0.225 C 
BRANCH  23  24
HETATM   24  O1  UNL     1     -82.693 -14.174   9.282  1.00  0.00    -0.351 OA
HETATM   25  C1  UNL     1     -81.572 -14.250   8.466  1.00  0.00     0.210 C 
ENDBRANCH  23  24
ENDBRANCH  21  23
ENDBRANCH  20  21
BRANCH  20  26
HETATM   26  O2  UNL     1     -85.221 -14.854  10.291  1.00  0.00    -0.372 OA
ATOM     27  H2  UNL     1     -86.152 -14.750  10.126  1.00  0.00     0.212 HD
ENDBRANCH  20  26
ENDBRANCH  15  20
ENDBRANCH   1  14
BRANCH   4  28
HETATM   28  N3  UNL     1     -88.343 -16.007  12.804  1.00  0.00    -0.134 N 
HETATM   29  C13 UNL     1     -88.254 -14.678  13.043  1.00  0.00     0.102 A 
HETATM   30  C14 UNL     1     -88.327 -13.589  12.000  1.00  0.00     0.090 C 
HETATM   31  N4  UNL     1     -88.096 -14.496  14.358  1.00  0.00    -0.344 N 
HETATM   32  C15 UNL     1     -88.077 -15.678  15.005  1.00  0.00     0.061 A 
ATOM     33  H4  UNL     1     -88.002 -13.586  14.810  1.00  0.00     0.167 HD
HETATM   34  C16 UNL     1     -87.945 -16.056  16.315  1.00  0.00     0.032 A 
HETATM   35  C20 UNL     1     -88.237 -16.621  13.985  1.00  0.00     0.085 A 
HETATM   36  C17 UNL     1     -87.968 -17.378  16.664  1.00  0.00     0.002 A 
HETATM   37  C18 UNL     1     -88.129 -18.312  15.644  1.00  0.00     0.002 A 
HETATM   38  C19 UNL     1     -88.261 -17.945  14.323  1.00  0.00     0.033 A 
ENDBRANCH   4  28
BRANCH   8  39
HETATM   39  C23 UNL     1     -91.941 -19.171  10.045  1.00  0.00    -0.005 A 
HETATM   40  C24 UNL     1     -92.840 -18.430  10.738  1.00  0.00     0.017 A 
HETATM   41  C25 UNL     1     -93.975 -18.978  11.312  1.00  0.00     0.043 A 
HETATM   42  C26 UNL     1     -94.251 -20.321  11.204  1.00  0.00     0.116 A 
HETATM   43  F1  UNL     1     -95.362 -20.831  11.777  1.00  0.00    -0.206 F 
HETATM   44  C27 UNL     1     -93.339 -21.079  10.498  1.00  0.00     0.043 A 
HETATM   45  C28 UNL     1     -92.233 -20.538   9.941  1.00  0.00     0.017 A 
ENDBRANCH   8  39
TORSDOF 8
ENDMDL
MODEL 2
REMARK VINA RESULT: -10.021747525      0.968      1.822
REMARK  8 active torsions:
REMARK  status: ('A' for Active; 'I' for Inactive)
REMARK    1  A    between atoms: O1_2  and  C2_3 
REMARK    2  A    between atoms: C2_3  and  N1_4 
REMARK    3  A    between atoms: N1_4  and  C4_6 
REMARK    4  A    between atoms: C4_6  and  O2_7 
REMARK    5  A    between atoms: C4_6  and  C5_9 
REMARK    6  A    between atoms: C10_14  and  C11_15 
REMARK    7  A    between atoms: C12_18  and  N3_19 
REMARK    8  A    between atoms: C22_33  and  C23_34 
ROOT
HETATM    1  C11 UNL     1     -87.667 -16.741   9.286  1.00  0.00     0.090 A 
HETATM    2  N2  UNL     1     -87.558 -16.257  10.526  1.00  0.00    -0.188 N 
ATOM      3  H2  UNL     1     -86.763 -15.656  10.744  1.00  0.00     0.184 HD
HETATM    4  C12 UNL     1     -88.452 -16.523  11.512  1.00  0.00     0.691 A 
HETATM    5  N5  UNL     1     -89.470 -17.316  11.159  1.00  0.00    -0.186 N 
ATOM      6  H5  UNL     1     -90.162 -17.539  11.874  1.00  0.00     0.184 HD
HETATM    7  C21 UNL     1     -89.652 -17.841   9.937  1.00  0.00     0.108 A 
HETATM    8  C22 UNL     1     -90.587 -18.640   9.333  1.00  0.00     0.088 A 
HETATM    9  N6  UNL     1     -90.219 -18.808   8.050  1.00  0.00    -0.297 N 
ATOM     10  H6  UNL     1     -90.735 -19.360   7.365  1.00  0.00     0.187 HD
HETATM   11  N7  UNL     1     -89.100 -18.162   7.802  1.00  0.00    -0.296 N 
ATOM     12  H7  UNL     1     -88.610 -18.128   6.908  1.00  0.00     0.187 HD
HETATM   13  C29 UNL     1     -88.718 -17.551   8.941  1.00  0.00     0.105 A 
ENDROOT
BRANCH   1  14
HETATM   14  C10 UNL     1     -86.658 -16.424   8.289  1.00  0.00     0.004 A 
HETATM   15  C5  UNL     1     -85.337 -16.226   8.572  1.00  0.00     0.003 A 
HETATM   16  C6  UNL     1     -84.484 -16.064   7.510  1.00  0.00     0.012 A 
HETATM   17  C7  UNL     1     -84.913 -16.089   6.169  1.00  0.00     0.001 A 
HETATM   18  C8  UNL     1     -86.237 -16.284   5.894  1.00  0.00     0.001 A 
HETATM   19  C9  UNL     1     -87.095 -16.449   6.937  1.00  0.00     0.014 A 
BRANCH  15  20
HETATM   20  C4  UNL     1     -84.836 -16.107   9.949  1.00  0.00     0.256 C 
BRANCH  20  21
HETATM   21  N1  UNL     1     -84.170 -17.223  10.512  1.00  0.00    -0.346 N 
HETATM   22  C3  UNL     1     -82.722 -17.094  10.502  1.00  0.00     0.154 C 
BRANCH  21  23
HETATM   23  C2  UNL     1     -84.583 -18.535  10.348  1.00  0.00     0.225 C 
BRANCH  23  24
HETATM   24  O1  UNL     1     -85.703 -18.934  11.079  1.00  0.00    -0.351 OA
HETATM   25  C1  UNL     1     -85.428 -18.977  12.440  1.00  0.00     0.210 C 
ENDBRANCH  23  24
ENDBRANCH  21  23
ENDBRANCH  20  21
BRANCH  20  26
HETATM   26  O2  UNL     1     -83.827 -15.086   9.990  1.00  0.00    -0.372 OA
ATOM     27  H2  UNL     1     -83.743 -14.914  10.922  1.00  0.00     0.212 HD
ENDBRANCH  20  26
ENDBRANCH  15  20
ENDBRANCH   1  14
BRANCH   4  28
HETATM   28  N3  UNL     1     -88.332 -16.017  12.836  1.00  0.00    -0.134 N 
HETATM   29  C13 UNL     1     -88.273 -14.688  13.085  1.00  0.00     0.102 A 
HETATM   30  C14 UNL     1     -88.325 -13.594  12.046  1.00  0.00     0.090 C 
HETATM   31  N4  UNL     1     -88.167 -14.511  14.406  1.00  0.00    -0.344 N 
HETATM   32  C15 UNL     1     -88.153 -15.697  15.047  1.00  0.00     0.061 A 
ATOM     33  H4  UNL     1     -88.104 -13.603  14.866  1.00  0.00     0.167 HD
HETATM   34  C16 UNL     1     -88.064 -16.080  16.359  1.00  0.00     0.032 A 
HETATM   35  C20 UNL     1     -88.260 -16.636  14.017  1.00  0.00     0.085 A 
HETATM   36  C17 UNL     1     -88.079 -17.404  16.701  1.00  0.00     0.002 A 
HETATM   37  C18 UNL     1     -88.187 -18.335  15.671  1.00  0.00     0.002 A 
HETATM   38  C19 UNL     1     -88.276 -17.962  14.347  1.00  0.00     0.033 A 
ENDBRANCH   4  28
BRANCH   8  39
HETATM   39  C23 UNL     1     -91.791 -19.198   9.923  1.00  0.00    -0.005 A 
HETATM   40  C24 UNL     1     -92.124 -20.511   9.871  1.00  0.00     0.017 A 
HETATM   41  C25 UNL     1     -93.268 -21.015  10.469  1.00  0.00     0.043 A 
HETATM   42  C26 UNL     1     -94.132 -20.196  11.156  1.00  0.00     0.116 A 
HETATM   43  F1  UNL     1     -95.243 -20.712  11.726  1.00  0.00    -0.206 F 
HETATM   44  C27 UNL     1     -93.796 -18.859  11.213  1.00  0.00     0.043 A 
HETATM   45  C28 UNL     1     -92.680 -18.374  10.626  1.00  0.00     0.017 A 
ENDBRANCH   8  39
TORSDOF 8
ENDMDL
MODEL 3
REMARK VINA RESULT: -9.863701118      3.406      7.494
REMARK  8 active torsions:
REMARK  status: ('A' for Active; 'I' for Inactive)
REMARK    1  A    between atoms: O1_2  and  C2_3 
REMARK    2  A    between atoms: C2_3  and  N1_4 
REMARK    3  A    between atoms: N1_4  and  C4_6 
REMARK    4  A    between atoms: C4_6  and  O2_7 
REMARK    5  A    between atoms: C4_6  and  C5_9 
REMARK    6  A    between atoms: C10_14  and  C11_15 
REMARK    7  A    between atoms: C12_18  and  N3_19 
REMARK    8  A    between atoms: C22_33  and  C23_34 
ROOT
HETATM    1  C11 UNL     1     -86.957 -19.328  13.338  1.00  0.00     0.090 A 
HETATM    2  N2  UNL     1     -88.274 -19.129  13.239  1.00  0.00    -0.188 N 
ATOM      3  H2  UNL     1     -88.866 -19.403  14.024  1.00  0.00     0.184 HD
HETATM    4  C12 UNL     1     -88.866 -18.579  12.148  1.00  0.00     0.691 A 
HETATM    5  N5  UNL     1     -88.033 -18.243  11.157  1.00  0.00    -0.186 N 
ATOM      6  H5  UNL     1     -88.441 -17.828  10.320  1.00  0.00     0.184 HD
HETATM    7  C21 UNL     1     -86.701 -18.409  11.179  1.00  0.00     0.108 A 
HETATM    8  C22 UNL     1     -85.657 -18.142  10.332  1.00  0.00     0.088 A 
HETATM    9  N6  UNL     1     -84.522 -18.532  10.940  1.00  0.00    -0.297 N 
ATOM     10  H6  UNL     1     -83.589 -18.449  10.537  1.00  0.00     0.187 HD
HETATM   11  N7  UNL     1     -84.784 -19.034  12.127  1.00  0.00    -0.296 N 
ATOM     12  H7  UNL     1     -84.100 -19.402  12.789  1.00  0.00     0.187 HD
HETATM   13  C29 UNL     1     -86.117 -18.976  12.313  1.00  0.00     0.105 A 
ENDROOT
BRANCH   1  14
HETATM   14  C10 UNL     1     -86.400 -19.939  14.534  1.00  0.00     0.004 A 
HETATM   15  C5  UNL     1     -86.154 -19.265  15.695  1.00  0.00     0.003 A 
HETATM   16  C6  UNL     1     -85.750 -20.005  16.777  1.00  0.00     0.012 A 
HETATM   17  C7  UNL     1     -85.577 -21.402  16.733  1.00  0.00     0.001 A 
HETATM   18  C8  UNL     1     -85.822 -22.068  15.565  1.00  0.00     0.001 A 
HETATM   19  C9  UNL     1     -86.226 -21.348  14.484  1.00  0.00     0.014 A 
BRANCH  15  20
HETATM   20  C4  UNL     1     -86.235 -17.799  15.788  1.00  0.00     0.256 C 
BRANCH  20  21
HETATM   21  N1  UNL     1     -86.901 -17.242  16.907  1.00  0.00    -0.346 N 
HETATM   22  C3  UNL     1     -88.341 -17.150  16.731  1.00  0.00     0.154 C 
BRANCH  21  23
HETATM   23  C2  UNL     1     -86.396 -16.203  17.671  1.00  0.00     0.225 C 
BRANCH  23  24
HETATM   24  O1  UNL     1     -86.310 -14.955  17.051  1.00  0.00    -0.351 OA
HETATM   25  C1  UNL     1     -85.364 -14.149  17.671  1.00  0.00     0.210 C 
ENDBRANCH  23  24
ENDBRANCH  21  23
ENDBRANCH  20  21
BRANCH  20  26
HETATM   26  O2  UNL     1     -84.908 -17.268  15.916  1.00  0.00    -0.372 OA
ATOM     27  H2  UNL     1     -84.944 -16.816  16.752  1.00  0.00     0.212 HD
ENDBRANCH  20  26
ENDBRANCH  15  20
ENDBRANCH   1  14
BRANCH   4  28
HETATM   28  N3  UNL     1     -90.269 -18.376  12.037  1.00  0.00    -0.134 N 
HETATM   29  C13 UNL     1     -90.901 -17.398  12.727  1.00  0.00     0.102 A 
HETATM   30  C14 UNL     1     -90.244 -16.422  13.673  1.00  0.00     0.090 C 
HETATM   31  N4  UNL     1     -92.203 -17.443  12.425  1.00  0.00    -0.344 N 
HETATM   32  C15 UNL     1     -92.455 -18.432  11.544  1.00  0.00     0.061 A 
ATOM     33  H4  UNL     1     -92.909 -16.814  12.808  1.00  0.00     0.167 HD
HETATM   34  C16 UNL     1     -93.581 -18.901  10.922  1.00  0.00     0.032 A 
HETATM   35  C20 UNL     1     -91.201 -19.007  11.318  1.00  0.00     0.085 A 
HETATM   36  C17 UNL     1     -93.508 -19.954  10.052  1.00  0.00     0.002 A 
HETATM   37  C18 UNL     1     -92.256 -20.521   9.829  1.00  0.00     0.002 A 
HETATM   38  C19 UNL     1     -91.117 -20.060  10.451  1.00  0.00     0.033 A 
ENDBRANCH   4  28
BRANCH   8  39
HETATM   39  C23 UNL     1     -85.715 -17.520   9.021  1.00  0.00    -0.005 A 
HETATM   40  C24 UNL     1     -86.850 -17.385   8.293  1.00  0.00     0.017 A 
HETATM   41  C25 UNL     1     -86.875 -16.759   7.057  1.00  0.00     0.043 A 
HETATM   42  C26 UNL     1     -85.732 -16.236   6.501  1.00  0.00     0.116 A 
HETATM   43  F1  UNL     1     -85.782 -15.636   5.292  1.00  0.00    -0.206 F 
HETATM   44  C27 UNL     1     -84.573 -16.370   7.238  1.00  0.00     0.043 A 
HETATM   45  C28 UNL     1     -84.556 -16.982   8.444  1.00  0.00     0.017 A 
ENDBRANCH   8  39
TORSDOF 8
ENDMDL
MODEL 4
REMARK VINA RESULT: -9.858099711      3.545      6.178
REMARK  8 active torsions:
REMARK  status: ('A' for Active; 'I' for Inactive)
REMARK    1  A    between atoms: O1_2  and  C2_3 
REMARK    2  A    between atoms: C2_3  and  N1_4 
REMARK    3  A    between atoms: N1_4  and  C4_6 
REMARK    4  A    between atoms: C4_6  and  O2_7 
REMARK    5  A    between atoms: C4_6  and  C5_9 
REMARK    6  A    between atoms: C10_14  and  C11_15 
REMARK    7  A    between atoms: C12_18  and  N3_19 
REMARK    8  A    between atoms: C22_33  and  C23_34 
ROOT
HETATM    1  C11 UNL     1     -86.368 -17.909  13.045  1.00  0.00     0.090 A 
HETATM    2  N2  UNL     1     -87.601 -17.715  12.567  1.00  0.00    -0.188 N 
ATOM      3  H2  UNL     1     -87.794 -16.848  12.063  1.00  0.00     0.184 HD
HETATM    4  C12 UNL     1     -88.609 -18.611  12.715  1.00  0.00     0.691 A 
HETATM    5  N5  UNL     1     -88.287 -19.724  13.384  1.00  0.00    -0.186 N 
ATOM      6  H5  UNL     1     -89.020 -20.421  13.517  1.00  0.00     0.184 HD
HETATM    7  C21 UNL     1     -87.076 -19.995  13.895  1.00  0.00     0.108 A 
HETATM    8  C22 UNL     1     -86.502 -21.032  14.582  1.00  0.00     0.088 A 
HETATM    9  N6  UNL     1     -85.213 -20.716  14.805  1.00  0.00    -0.297 N 
ATOM     10  H6  UNL     1     -84.546 -21.310  15.298  1.00  0.00     0.187 HD
HETATM   11  N7  UNL     1     -84.933 -19.534  14.299  1.00  0.00    -0.296 N 
ATOM     12  H7  UNL     1     -84.028 -19.064  14.333  1.00  0.00     0.187 HD
HETATM   13  C29 UNL     1     -86.056 -19.056  13.728  1.00  0.00     0.105 A 
ENDROOT
BRANCH   1  14
HETATM   14  C10 UNL     1     -85.346 -16.892  12.861  1.00  0.00     0.004 A 
HETATM   15  C5  UNL     1     -84.559 -16.791  11.750  1.00  0.00     0.003 A 
HETATM   16  C6  UNL     1     -83.730 -15.701  11.666  1.00  0.00     0.012 A 
HETATM   17  C7  UNL     1     -83.659 -14.709  12.663  1.00  0.00     0.001 A 
HETATM   18  C8  UNL     1     -84.448 -14.821  13.773  1.00  0.00     0.001 A 
HETATM   19  C9  UNL     1     -85.277 -15.895  13.870  1.00  0.00     0.014 A 
BRANCH  15  20
HETATM   20  C4  UNL     1     -84.523 -17.831  10.711  1.00  0.00     0.256 C 
BRANCH  20  21
HETATM   21  N1  UNL     1     -85.165 -17.559   9.478  1.00  0.00    -0.346 N 
HETATM   22  C3  UNL     1     -84.235 -17.376   8.375  1.00  0.00     0.154 C 
BRANCH  21  23
HETATM   23  C2  UNL     1     -86.296 -16.770   9.350  1.00  0.00     0.225 C 
BRANCH  23  24
HETATM   24  O1  UNL     1     -87.526 -17.413   9.496  1.00  0.00    -0.351 OA
HETATM   25  C1  UNL     1     -88.184 -17.525   8.279  1.00  0.00     0.210 C 
ENDBRANCH  23  24
ENDBRANCH  21  23
ENDBRANCH  20  21
BRANCH  20  26
HETATM   26  O2  UNL     1     -83.160 -18.046  10.315  1.00  0.00    -0.372 OA
ATOM     27  H2  UNL     1     -82.679 -17.853  11.112  1.00  0.00     0.212 HD
ENDBRANCH  20  26
ENDBRANCH  15  20
ENDBRANCH   1  14
BRANCH   4  28
HETATM   28  N3  UNL     1     -89.924 -18.401  12.215  1.00  0.00    -0.134 N 
HETATM   29  C13 UNL     1     -90.767 -17.512  12.788  1.00  0.00     0.102 A 
HETATM   30  C14 UNL     1     -90.456 -16.648  13.986  1.00  0.00     0.090 C 
HETATM   31  N4  UNL     1     -91.919 -17.526  12.109  1.00  0.00    -0.344 N 
HETATM   32  C15 UNL     1     -91.863 -18.409  11.092  1.00  0.00     0.061 A 
ATOM     33  H4  UNL     1     -92.730 -16.949  12.331  1.00  0.00     0.167 HD
HETATM   34  C16 UNL     1     -92.737 -18.809  10.116  1.00  0.00     0.032 A 
HETATM   35  C20 UNL     1     -90.577 -18.950  11.187  1.00  0.00     0.085 A 
HETATM   36  C17 UNL     1     -92.371 -19.755   9.198  1.00  0.00     0.002 A 
HETATM   37  C18 UNL     1     -91.089 -20.288   9.298  1.00  0.00     0.002 A 
HETATM   38  C19 UNL     1     -90.202 -19.896  10.276  1.00  0.00     0.033 A 
ENDBRANCH   4  28
BRANCH   8  39
HETATM   39  C23 UNL     1     -87.124 -22.280  14.988  1.00  0.00    -0.005 A 
HETATM   40  C24 UNL     1     -88.000 -22.394  16.016  1.00  0.00     0.017 A 
HETATM   41  C25 UNL     1     -88.598 -23.596  16.358  1.00  0.00     0.043 A 
HETATM   42  C26 UNL     1     -88.328 -24.750  15.660  1.00  0.00     0.116 A 
HETATM   43  F1  UNL     1     -88.919 -25.910  16.017  1.00  0.00    -0.206 F 
HETATM   44  C27 UNL     1     -87.437 -24.639  14.612  1.00  0.00     0.043 A 
HETATM   45  C28 UNL     1     -86.857 -23.462  14.284  1.00  0.00     0.017 A 
ENDBRANCH   8  39
TORSDOF 8
ENDMDL
MODEL 5
REMARK VINA RESULT: -9.856259088      3.841      6.642
REMARK  8 active torsions:
REMARK  status: ('A' for Active; 'I' for Inactive)
REMARK    1  A    between atoms: O1_2  and  C2_3 
REMARK    2  A    between atoms: C2_3  and  N1_4 
REMARK    3  A    between atoms: N1_4  and  C4_6 
REMARK    4  A    between atoms: C4_6  and  O2_7 
REMARK    5  A    between atoms: C4_6  and  C5_9 
REMARK    6  A    between atoms: C10_14  and  C11_15 
REMARK    7  A    between atoms: C12_18  and  N3_19 
REMARK    8  A    between atoms: C22_33  and  C23_34 
ROOT
HETATM    1  C11 UNL     1     -86.432 -17.876  13.199  1.00  0.00     0.090 A 
HETATM    2  N2  UNL     1     -87.651 -17.683  12.688  1.00  0.00    -0.188 N 
ATOM      3  H2  UNL     1     -87.839 -16.805  12.203  1.00  0.00     0.184 HD
HETATM    4  C12 UNL     1     -88.653 -18.594  12.782  1.00  0.00     0.691 A 
HETATM    5  N5  UNL     1     -88.338 -19.721  13.431  1.00  0.00    -0.186 N 
ATOM      6  H5  UNL     1     -89.066 -20.430  13.522  1.00  0.00     0.184 HD
HETATM    7  C21 UNL     1     -87.139 -19.992  13.971  1.00  0.00     0.108 A 
HETATM    8  C22 UNL     1     -86.574 -21.041  14.647  1.00  0.00     0.088 A 
HETATM    9  N6  UNL     1     -85.297 -20.717  14.918  1.00  0.00    -0.297 N 
ATOM     10  H6  UNL     1     -84.638 -21.317  15.415  1.00  0.00     0.187 HD
HETATM   11  N7  UNL     1     -85.016 -19.519  14.453  1.00  0.00    -0.296 N 
ATOM     12  H7  UNL     1     -84.118 -19.040  14.526  1.00  0.00     0.187 HD
HETATM   13  C29 UNL     1     -86.127 -19.038  13.860  1.00  0.00     0.105 A 
ENDROOT
BRANCH   1  14
HETATM   14  C10 UNL     1     -85.416 -16.843  13.074  1.00  0.00     0.004 A 
HETATM   15  C5  UNL     1     -85.233 -15.836  13.976  1.00  0.00     0.003 A 
HETATM   16  C6  UNL     1     -84.150 -15.014  13.788  1.00  0.00     0.012 A 
HETATM   17  C7  UNL     1     -83.247 -15.165  12.719  1.00  0.00     0.001 A 
HETATM   18  C8  UNL     1     -83.441 -16.173  11.818  1.00  0.00     0.001 A 
HETATM   19  C9  UNL     1     -84.508 -16.998  11.992  1.00  0.00     0.014 A 
BRANCH  15  20
HETATM   20  C4  UNL     1     -86.183 -15.572  15.067  1.00  0.00     0.256 C 
BRANCH  20  21
HETATM   21  N1  UNL     1     -85.753 -15.816  16.395  1.00  0.00    -0.346 N 
HETATM   22  C3  UNL     1     -86.238 -17.075  16.934  1.00  0.00     0.154 C 
BRANCH  21  23
HETATM   23  C2  UNL     1     -85.643 -14.835  17.366  1.00  0.00     0.225 C 
BRANCH  23  24
HETATM   24  O1  UNL     1     -84.663 -13.861  17.163  1.00  0.00    -0.351 OA
HETATM   25  C1  UNL     1     -83.393 -14.364  17.411  1.00  0.00     0.210 C 
ENDBRANCH  23  24
ENDBRANCH  21  23
ENDBRANCH  20  21
BRANCH  20  26
HETATM   26  O2  UNL     1     -86.488 -14.169  15.089  1.00  0.00    -0.372 OA
ATOM     27  H2  UNL     1     -87.250 -14.114  14.523  1.00  0.00     0.212 HD
ENDBRANCH  20  26
ENDBRANCH  15  20
ENDBRANCH   1  14
BRANCH   4  28
HETATM   28  N3  UNL     1     -89.954 -18.385  12.248  1.00  0.00    -0.134 N 
HETATM   29  C13 UNL     1     -90.844 -17.563  12.848  1.00  0.00     0.102 A 
HETATM   30  C14 UNL     1     -90.603 -16.779  14.116  1.00  0.00     0.090 C 
HETATM   31  N4  UNL     1     -91.970 -17.560  12.127  1.00  0.00    -0.344 N 
HETATM   32  C15 UNL     1     -91.850 -18.366  11.052  1.00  0.00     0.061 A 
ATOM     33  H4  UNL     1     -92.806 -17.023  12.357  1.00  0.00     0.167 HD
HETATM   34  C16 UNL     1     -92.675 -18.718  10.018  1.00  0.00     0.032 A 
HETATM   35  C20 UNL     1     -90.553 -18.876  11.159  1.00  0.00     0.085 A 
HETATM   36  C17 UNL     1     -92.248 -19.586   9.051  1.00  0.00     0.002 A 
HETATM   37  C18 UNL     1     -90.954 -20.089   9.162  1.00  0.00     0.002 A 
HETATM   38  C19 UNL     1     -90.116 -19.744  10.199  1.00  0.00     0.033 A 
ENDBRANCH   4  28
BRANCH   8  39
HETATM   39  C23 UNL     1     -87.193 -22.306  15.000  1.00  0.00    -0.005 A 
HETATM   40  C24 UNL     1     -88.112 -22.455  15.986  1.00  0.00     0.017 A 
HETATM   41  C25 UNL     1     -88.705 -23.673  16.277  1.00  0.00     0.043 A 
HETATM   42  C26 UNL     1     -88.386 -24.807  15.569  1.00  0.00     0.116 A 
HETATM   43  F1  UNL     1     -88.974 -25.983  15.876  1.00  0.00    -0.206 F 
HETATM   44  C27 UNL     1     -87.452 -24.661  14.563  1.00  0.00     0.043 A 
HETATM   45  C28 UNL     1     -86.877 -23.470  14.285  1.00  0.00     0.017 A 
ENDBRANCH   8  39
TORSDOF 8
ENDMDL
