MODEL 1
REMARK VINA RESULT: -9.845147784      0.000      0.000
REMARK  6 active torsions:
REMARK  status: ('A' for Active; 'I' for Inactive)
REMARK    1  A    between atoms: C10_15  and  O2_16 
REMARK    2  A    between atoms: N3_18  and  C11_19 
REMARK    3  A    between atoms: C16_24  and  O3_25 
REMARK    4  A    between atoms: O3_25  and  C17_26 
REMARK    5  A    between atoms: N4_35  and  C24_36 
REMARK    6  A    between atoms: C24_36  and  C25_37 
ROOT
HETATM    1  O1  UNL     1     -89.225 -17.073   9.149  1.00  0.00    -0.267 OA
HETATM    2  C1  UNL     1     -88.806 -17.508  10.253  1.00  0.00     0.270 A 
HETATM    3  C2  UNL     1     -87.410 -17.659  10.349  1.00  0.00     0.128 A 
HETATM    4  C3  UNL     1     -86.556 -17.327   9.233  1.00  0.00     0.126 A 
HETATM    5  N1  UNL     1     -87.026 -16.858   8.039  1.00  0.00    -0.340 N 
ATOM      6  H1  UNL     1     -88.012 -16.701   7.829  1.00  0.00     0.167 HD
HETATM    7  C4  UNL     1     -86.037 -16.634   7.191  1.00  0.00     0.060 A 
HETATM    8  C5  UNL     1     -85.914 -16.174   5.887  1.00  0.00     0.032 A 
HETATM    9  C6  UNL     1     -84.668 -16.058   5.277  1.00  0.00     0.002 A 
HETATM   10  C7  UNL     1     -83.520 -16.399   5.959  1.00  0.00     0.002 A 
HETATM   11  C8  UNL     1     -83.634 -16.855   7.255  1.00  0.00     0.032 A 
HETATM   12  C9  UNL     1     -84.878 -16.964   7.840  1.00  0.00     0.060 A 
HETATM   13  N2  UNL     1     -85.248 -17.382   9.084  1.00  0.00    -0.340 N 
ATOM     14  H2  UNL     1     -84.597 -17.696   9.804  1.00  0.00     0.167 HD
HETATM   15  C10 UNL     1     -86.961 -18.131  11.556  1.00  0.00     0.171 A 
HETATM   16  N3  UNL     1     -87.799 -18.429  12.575  1.00  0.00    -0.240 N 
HETATM   17  C23 UNL     1     -89.115 -18.254  12.392  1.00  0.00     0.338 A 
HETATM   18  O4  UNL     1     -89.865 -18.531  13.340  1.00  0.00    -0.246 OA
HETATM   19  N4  UNL     1     -89.662 -17.795  11.242  1.00  0.00    -0.261 N 
ENDROOT
BRANCH  16  20
HETATM   20  C11 UNL     1     -87.225 -18.912  13.784  1.00  0.00     0.080 A 
HETATM   21  C12 UNL     1     -87.040 -20.257  14.029  1.00  0.00     0.033 A 
HETATM   22  C13 UNL     1     -86.492 -20.765  15.177  1.00  0.00     0.002 A 
HETATM   23  C14 UNL     1     -86.093 -19.890  16.164  1.00  0.00     0.003 A 
HETATM   24  C15 UNL     1     -86.260 -18.517  15.962  1.00  0.00     0.039 A 
HETATM   25  C16 UNL     1     -86.815 -18.044  14.793  1.00  0.00     0.103 A 
BRANCH  25  26
HETATM   26  O3  UNL     1     -86.980 -16.680  14.599  1.00  0.00    -0.308 OA
BRANCH  26  27
HETATM   27  C17 UNL     1     -85.981 -15.758  14.786  1.00  0.00     0.076 A 
HETATM   28  C18 UNL     1     -84.971 -15.630  13.867  1.00  0.00     0.040 A 
HETATM   29  C19 UNL     1     -83.944 -14.703  14.029  1.00  0.00     0.045 A 
HETATM   30  C20 UNL     1     -83.968 -13.901  15.159  1.00  0.00     0.116 A 
HETATM   31  F1  UNL     1     -82.951 -13.000  15.299  1.00  0.00    -0.206 F 
HETATM   32  C21 UNL     1     -84.972 -14.008  16.103  1.00  0.00     0.045 A 
HETATM   33  C22 UNL     1     -85.984 -14.953  15.896  1.00  0.00     0.040 A 
ENDBRANCH  26  27
ENDBRANCH  25  26
ENDBRANCH  16  20
BRANCH  15  34
HETATM   34  O2  UNL     1     -85.625 -18.314  11.753  1.00  0.00    -0.345 OA
ATOM     35  H2  UNL     1     -85.268 -19.194  11.765  1.00  0.00     0.219 HD
ENDBRANCH  15  34
BRANCH  19  36
HETATM   36  C24 UNL     1     -91.086 -17.617  11.080  1.00  0.00     0.175 C 
BRANCH  36  37
HETATM   37  C25 UNL     1     -91.841 -18.836  10.725  1.00  0.00    -0.040 A 
HETATM   38  C26 UNL     1     -93.047 -19.137  11.322  1.00  0.00     0.009 A 
HETATM   39  C27 UNL     1     -93.774 -20.285  11.002  1.00  0.00     0.001 A 
HETATM   40  C28 UNL     1     -93.307 -21.173  10.063  1.00  0.00     0.000 A 
HETATM   41  C29 UNL     1     -92.107 -20.893   9.457  1.00  0.00     0.001 A 
HETATM   42  C30 UNL     1     -91.386 -19.742   9.783  1.00  0.00     0.009 A 
ENDBRANCH  36  37
ENDBRANCH  19  36
TORSDOF 6
ENDMDL
MODEL 2
REMARK VINA RESULT: -9.780124897      2.803      4.211
REMARK  6 active torsions:
REMARK  status: ('A' for Active; 'I' for Inactive)
REMARK    1  A    between atoms: C10_15  and  O2_16 
REMARK    2  A    between atoms: N3_18  and  C11_19 
REMARK    3  A    between atoms: C16_24  and  O3_25 
REMARK    4  A    between atoms: O3_25  and  C17_26 
REMARK    5  A    between atoms: N4_35  and  C24_36 
REMARK    6  A    between atoms: C24_36  and  C25_37 
ROOT
HETATM    1  O1  UNL     1     -89.757 -17.117   9.772  1.00  0.00    -0.267 OA
HETATM    2  C1  UNL     1     -89.519 -17.253  10.999  1.00  0.00     0.270 A 
HETATM    3  C2  UNL     1     -88.159 -17.186  11.359  1.00  0.00     0.128 A 
HETATM    4  C3  UNL     1     -87.143 -16.976  10.355  1.00  0.00     0.126 A 
HETATM    5  N1  UNL     1     -87.417 -16.832   9.024  1.00  0.00    -0.340 N 
ATOM      6  H1  UNL     1     -88.354 -16.860   8.623  1.00  0.00     0.167 HD
HETATM    7  C4  UNL     1     -86.311 -16.653   8.325  1.00  0.00     0.060 A 
HETATM    8  C5  UNL     1     -85.984 -16.460   6.990  1.00  0.00     0.032 A 
HETATM    9  C6  UNL     1     -84.661 -16.300   6.586  1.00  0.00     0.002 A 
HETATM   10  C7  UNL     1     -83.639 -16.331   7.509  1.00  0.00     0.002 A 
HETATM   11  C8  UNL     1     -83.955 -16.522   8.836  1.00  0.00     0.032 A 
HETATM   12  C9  UNL     1     -85.271 -16.679   9.215  1.00  0.00     0.060 A 
HETATM   13  N2  UNL     1     -85.831 -16.879  10.442  1.00  0.00    -0.340 N 
ATOM     14  H2  UNL     1     -85.304 -16.944  11.313  1.00  0.00     0.167 HD
HETATM   15  C10 UNL     1     -87.907 -17.332  12.699  1.00  0.00     0.171 A 
HETATM   16  N3  UNL     1     -88.893 -17.527  13.605  1.00  0.00    -0.240 N 
HETATM   17  C23 UNL     1     -90.159 -17.578  13.170  1.00  0.00     0.338 A 
HETATM   18  O4  UNL     1     -91.047 -17.755  14.018  1.00  0.00    -0.246 OA
HETATM   19  N4  UNL     1     -90.517 -17.445  11.871  1.00  0.00    -0.261 N 
ENDROOT
BRANCH  16  20
HETATM   20  C11 UNL     1     -88.517 -17.666  14.970  1.00  0.00     0.080 A 
HETATM   21  C12 UNL     1     -88.392 -16.583  15.816  1.00  0.00     0.033 A 
HETATM   22  C13 UNL     1     -88.033 -16.670  17.135  1.00  0.00     0.002 A 
HETATM   23  C14 UNL     1     -87.776 -17.913  17.671  1.00  0.00     0.003 A 
HETATM   24  C15 UNL     1     -87.890 -19.041  16.853  1.00  0.00     0.039 A 
HETATM   25  C16 UNL     1     -88.253 -18.913  15.530  1.00  0.00     0.103 A 
BRANCH  25  26
HETATM   26  O3  UNL     1     -88.364 -20.037  14.723  1.00  0.00    -0.308 OA
BRANCH  26  27
HETATM   27  C17 UNL     1     -87.843 -21.263  15.050  1.00  0.00     0.076 A 
HETATM   28  C18 UNL     1     -88.559 -22.140  15.823  1.00  0.00     0.040 A 
HETATM   29  C19 UNL     1     -88.057 -23.393  16.170  1.00  0.00     0.045 A 
HETATM   30  C20 UNL     1     -86.796 -23.736  15.707  1.00  0.00     0.116 A 
HETATM   31  F1  UNL     1     -86.323 -24.967  16.060  1.00  0.00    -0.206 F 
HETATM   32  C21 UNL     1     -86.051 -22.872  14.926  1.00  0.00     0.045 A 
HETATM   33  C22 UNL     1     -86.598 -21.625  14.603  1.00  0.00     0.040 A 
ENDBRANCH  26  27
ENDBRANCH  25  26
ENDBRANCH  16  20
BRANCH  15  34
HETATM   34  O2  UNL     1     -86.623 -17.284  13.153  1.00  0.00    -0.345 OA
ATOM     35  H2  UNL     1     -85.904 -17.380  12.539  1.00  0.00     0.219 HD
ENDBRANCH  15  34
BRANCH  19  36
HETATM   36  C24 UNL     1     -91.893 -17.504  11.438  1.00  0.00     0.175 C 
BRANCH  36  37
HETATM   37  C25 UNL     1     -92.363 -18.833  10.995  1.00  0.00    -0.040 A 
HETATM   38  C26 UNL     1     -93.598 -19.320  11.364  1.00  0.00     0.009 A 
HETATM   39  C27 UNL     1     -94.059 -20.574  10.958  1.00  0.00     0.001 A 
HETATM   40  C28 UNL     1     -93.285 -21.383  10.160  1.00  0.00     0.000 A 
HETATM   41  C29 UNL     1     -92.050 -20.915   9.782  1.00  0.00     0.001 A 
HETATM   42  C30 UNL     1     -91.597 -19.660  10.193  1.00  0.00     0.009 A 
ENDBRANCH  36  37
ENDBRANCH  19  36
TORSDOF 6
ENDMDL
MODEL 3
REMARK VINA RESULT: -9.771009472      2.731      8.151
REMARK  6 active torsions:
REMARK  status: ('A' for Active; 'I' for Inactive)
REMARK    1  A    between atoms: C10_15  and  O2_16 
REMARK    2  A    between atoms: N3_18  and  C11_19 
REMARK    3  A    between atoms: C16_24  and  O3_25 
REMARK    4  A    between atoms: O3_25  and  C17_26 
REMARK    5  A    between atoms: N4_35  and  C24_36 
REMARK    6  A    between atoms: C24_36  and  C25_37 
ROOT
HETATM    1  O1  UNL     1     -86.098 -17.178  14.104  1.00  0.00    -0.267 OA
HETATM    2  C1  UNL     1     -87.064 -17.243  13.301  1.00  0.00     0.270 A 
HETATM    3  C2  UNL     1     -87.738 -18.478  13.270  1.00  0.00     0.128 A 
HETATM    4  C3  UNL     1     -87.314 -19.569  14.116  1.00  0.00     0.126 A 
HETATM    5  N1  UNL     1     -86.259 -19.484  14.981  1.00  0.00    -0.340 N 
ATOM      6  H1  UNL     1     -85.683 -18.653  15.107  1.00  0.00     0.167 HD
HETATM    7  C4  UNL     1     -86.084 -20.620  15.633  1.00  0.00     0.060 A 
HETATM    8  C5  UNL     1     -85.209 -21.103  16.596  1.00  0.00     0.032 A 
HETATM    9  C6  UNL     1     -85.315 -22.405  17.080  1.00  0.00     0.002 A 
HETATM   10  C7  UNL     1     -86.298 -23.248  16.611  1.00  0.00     0.002 A 
HETATM   11  C8  UNL     1     -87.171 -22.775  15.656  1.00  0.00     0.032 A 
HETATM   12  C9  UNL     1     -87.049 -21.484  15.189  1.00  0.00     0.060 A 
HETATM   13  N2  UNL     1     -87.774 -20.795  14.263  1.00  0.00    -0.340 N 
ATOM     14  H2  UNL     1     -88.570 -21.178  13.752  1.00  0.00     0.167 HD
HETATM   15  C10 UNL     1     -88.793 -18.541  12.395  1.00  0.00     0.171 A 
HETATM   16  N3  UNL     1     -89.156 -17.492  11.621  1.00  0.00    -0.240 N 
HETATM   17  C23 UNL     1     -88.454 -16.354  11.719  1.00  0.00     0.338 A 
HETATM   18  O4  UNL     1     -88.805 -15.405  11.002  1.00  0.00    -0.246 OA
HETATM   19  N4  UNL     1     -87.398 -16.187  12.548  1.00  0.00    -0.261 N 
ENDROOT
BRANCH  16  20
HETATM   20  C11 UNL     1     -90.266 -17.667  10.749  1.00  0.00     0.080 A 
HETATM   21  C12 UNL     1     -91.558 -17.365  11.128  1.00  0.00     0.033 A 
HETATM   22  C13 UNL     1     -92.655 -17.518  10.323  1.00  0.00     0.002 A 
HETATM   23  C14 UNL     1     -92.476 -18.004   9.046  1.00  0.00     0.003 A 
HETATM   24  C15 UNL     1     -91.186 -18.325   8.616  1.00  0.00     0.039 A 
HETATM   25  C16 UNL     1     -90.106 -18.157   9.456  1.00  0.00     0.103 A 
BRANCH  25  26
HETATM   26  O3  UNL     1     -88.827 -18.477   9.023  1.00  0.00    -0.308 OA
BRANCH  26  27
HETATM   27  C17 UNL     1     -88.115 -17.722   8.126  1.00  0.00     0.076 A 
HETATM   28  C18 UNL     1     -86.771 -17.516   8.301  1.00  0.00     0.040 A 
HETATM   29  C19 UNL     1     -86.022 -16.755   7.406  1.00  0.00     0.045 A 
HETATM   30  C20 UNL     1     -86.679 -16.204   6.317  1.00  0.00     0.116 A 
HETATM   31  F1  UNL     1     -85.926 -15.461   5.453  1.00  0.00    -0.206 F 
HETATM   32  C21 UNL     1     -88.033 -16.395   6.115  1.00  0.00     0.045 A 
HETATM   33  C22 UNL     1     -88.743 -17.168   7.041  1.00  0.00     0.040 A 
ENDBRANCH  26  27
ENDBRANCH  25  26
ENDBRANCH  16  20
BRANCH  15  34
HETATM   34  O2  UNL     1     -89.512 -19.693  12.287  1.00  0.00    -0.345 OA
ATOM     35  H2  UNL     1     -90.143 -19.918  12.962  1.00  0.00     0.219 HD
ENDBRANCH  15  34
BRANCH  19  36
HETATM   36  C24 UNL     1     -86.666 -14.945  12.628  1.00  0.00     0.175 C 
BRANCH  36  37
HETATM   37  C25 UNL     1     -85.376 -14.921  11.907  1.00  0.00    -0.040 A 
HETATM   38  C26 UNL     1     -85.320 -14.913  10.530  1.00  0.00     0.009 A 
HETATM   39  C27 UNL     1     -84.111 -14.893   9.831  1.00  0.00     0.001 A 
HETATM   40  C28 UNL     1     -82.912 -14.881  10.502  1.00  0.00     0.000 A 
HETATM   41  C29 UNL     1     -82.946 -14.889  11.875  1.00  0.00     0.001 A 
HETATM   42  C30 UNL     1     -84.159 -14.909  12.566  1.00  0.00     0.009 A 
ENDBRANCH  36  37
ENDBRANCH  19  36
TORSDOF 6
ENDMDL
MODEL 4
REMARK VINA RESULT: -9.722125691      2.571      3.720
REMARK  6 active torsions:
REMARK  status: ('A' for Active; 'I' for Inactive)
REMARK    1  A    between atoms: C10_15  and  O2_16 
REMARK    2  A    between atoms: N3_18  and  C11_19 
REMARK    3  A    between atoms: C16_24  and  O3_25 
REMARK    4  A    between atoms: O3_25  and  C17_26 
REMARK    5  A    between atoms: N4_35  and  C24_36 
REMARK    6  A    between atoms: C24_36  and  C25_37 
ROOT
HETATM    1  O1  UNL     1     -89.506 -17.082   8.159  1.00  0.00    -0.267 OA
HETATM    2  C1  UNL     1     -89.308 -17.036   9.401  1.00  0.00     0.270 A 
HETATM    3  C2  UNL     1     -87.975 -16.807   9.789  1.00  0.00     0.128 A 
HETATM    4  C3  UNL     1     -86.938 -16.644   8.798  1.00  0.00     0.126 A 
HETATM    5  N1  UNL     1     -87.168 -16.700   7.451  1.00  0.00    -0.340 N 
ATOM      6  H1  UNL     1     -88.082 -16.859   7.029  1.00  0.00     0.167 HD
HETATM    7  C4  UNL     1     -86.051 -16.520   6.768  1.00  0.00     0.060 A 
HETATM    8  C5  UNL     1     -85.687 -16.476   5.430  1.00  0.00     0.032 A 
HETATM    9  C6  UNL     1     -84.365 -16.258   5.049  1.00  0.00     0.002 A 
HETATM   10  C7  UNL     1     -83.383 -16.081   5.998  1.00  0.00     0.002 A 
HETATM   11  C8  UNL     1     -83.737 -16.123   7.329  1.00  0.00     0.032 A 
HETATM   12  C9  UNL     1     -85.051 -16.340   7.685  1.00  0.00     0.060 A 
HETATM   13  N2  UNL     1     -85.643 -16.425   8.910  1.00  0.00    -0.340 N 
ATOM     14  H2  UNL     1     -85.149 -16.330   9.798  1.00  0.00     0.167 HD
HETATM   15  C10 UNL     1     -87.767 -16.754  11.144  1.00  0.00     0.171 A 
HETATM   16  N3  UNL     1     -88.771 -16.912  12.038  1.00  0.00    -0.240 N 
HETATM   17  C23 UNL     1     -90.010 -17.127  11.574  1.00  0.00     0.338 A 
HETATM   18  O4  UNL     1     -90.915 -17.266  12.411  1.00  0.00    -0.246 OA
HETATM   19  N4  UNL     1     -90.323 -17.197  10.259  1.00  0.00    -0.261 N 
ENDROOT
BRANCH  16  20
HETATM   20  C11 UNL     1     -88.443 -16.839  13.420  1.00  0.00     0.080 A 
HETATM   21  C12 UNL     1     -88.684 -15.711  14.177  1.00  0.00     0.033 A 
HETATM   22  C13 UNL     1     -88.384 -15.596  15.509  1.00  0.00     0.002 A 
HETATM   23  C14 UNL     1     -87.802 -16.667  16.152  1.00  0.00     0.003 A 
HETATM   24  C15 UNL     1     -87.538 -17.832  15.426  1.00  0.00     0.039 A 
HETATM   25  C16 UNL     1     -87.854 -17.910  14.087  1.00  0.00     0.103 A 
BRANCH  25  26
HETATM   26  O3  UNL     1     -87.589 -19.069  13.371  1.00  0.00    -0.308 OA
BRANCH  26  27
HETATM   27  C17 UNL     1     -87.048 -20.200  13.928  1.00  0.00     0.076 A 
HETATM   28  C18 UNL     1     -87.849 -21.118  14.558  1.00  0.00     0.040 A 
HETATM   29  C19 UNL     1     -87.329 -22.276  15.131  1.00  0.00     0.045 A 
HETATM   30  C20 UNL     1     -85.961 -22.482  15.047  1.00  0.00     0.116 A 
HETATM   31  F1  UNL     1     -85.472 -23.623  15.616  1.00  0.00    -0.206 F 
HETATM   32  C21 UNL     1     -85.129 -21.575  14.418  1.00  0.00     0.045 A 
HETATM   33  C22 UNL     1     -85.698 -20.425  13.856  1.00  0.00     0.040 A 
ENDBRANCH  26  27
ENDBRANCH  25  26
ENDBRANCH  16  20
BRANCH  15  34
HETATM   34  O2  UNL     1     -86.511 -16.538  11.626  1.00  0.00    -0.345 OA
ATOM     35  H2  UNL     1     -85.994 -17.272  11.936  1.00  0.00     0.219 HD
ENDBRANCH  15  34
BRANCH  19  36
HETATM   36  C24 UNL     1     -91.671 -17.429   9.797  1.00  0.00     0.175 C 
BRANCH  36  37
HETATM   37  C25 UNL     1     -92.067 -18.847   9.681  1.00  0.00    -0.040 A 
HETATM   38  C26 UNL     1     -92.960 -19.420  10.561  1.00  0.00     0.009 A 
HETATM   39  C27 UNL     1     -93.345 -20.759  10.470  1.00  0.00     0.001 A 
HETATM   40  C28 UNL     1     -92.839 -21.570   9.483  1.00  0.00     0.000 A 
HETATM   41  C29 UNL     1     -91.947 -21.018   8.595  1.00  0.00     0.001 A 
HETATM   42  C30 UNL     1     -91.568 -19.679   8.694  1.00  0.00     0.009 A 
ENDBRANCH  36  37
ENDBRANCH  19  36
TORSDOF 6
ENDMDL
MODEL 5
REMARK VINA RESULT: -9.454632112      1.595      5.838
REMARK  6 active torsions:
REMARK  status: ('A' for Active; 'I' for Inactive)
REMARK    1  A    between atoms: C10_15  and  O2_16 
REMARK    2  A    between atoms: N3_18  and  C11_19 
REMARK    3  A    between atoms: C16_24  and  O3_25 
REMARK    4  A    between atoms: O3_25  and  C17_26 
REMARK    5  A    between atoms: N4_35  and  C24_36 
REMARK    6  A    between atoms: C24_36  and  C25_37 
ROOT
HETATM    1  O1  UNL     1     -89.667 -19.110  12.809  1.00  0.00    -0.267 OA
HETATM    2  C1  UNL     1     -88.782 -18.606  12.070  1.00  0.00     0.270 A 
HETATM    3  C2  UNL     1     -87.458 -18.774  12.517  1.00  0.00     0.128 A 
HETATM    4  C3  UNL     1     -87.180 -19.480  13.745  1.00  0.00     0.126 A 
HETATM    5  N1  UNL     1     -88.152 -20.020  14.539  1.00  0.00    -0.340 N 
ATOM      6  H1  UNL     1     -89.151 -19.974  14.339  1.00  0.00     0.167 HD
HETATM    7  C4  UNL     1     -87.629 -20.610  15.600  1.00  0.00     0.060 A 
HETATM    8  C5  UNL     1     -88.107 -21.298  16.706  1.00  0.00     0.032 A 
HETATM    9  C6  UNL     1     -87.240 -21.805  17.671  1.00  0.00     0.002 A 
HETATM   10  C7  UNL     1     -85.879 -21.634  17.548  1.00  0.00     0.002 A 
HETATM   11  C8  UNL     1     -85.397 -20.952  16.452  1.00  0.00     0.032 A 
HETATM   12  C9  UNL     1     -86.272 -20.457  15.509  1.00  0.00     0.060 A 
HETATM   13  N2  UNL     1     -86.048 -19.760  14.358  1.00  0.00    -0.340 N 
ATOM     14  H2  UNL     1     -85.125 -19.491  14.017  1.00  0.00     0.167 HD
HETATM   15  C10 UNL     1     -86.499 -18.224  11.704  1.00  0.00     0.171 A 
HETATM   16  N3  UNL     1     -86.806 -17.570  10.560  1.00  0.00    -0.240 N 
HETATM   17  C23 UNL     1     -88.097 -17.459  10.215  1.00  0.00     0.338 A 
HETATM   18  O4  UNL     1     -88.355 -16.858   9.161  1.00  0.00    -0.246 OA
HETATM   19  N4  UNL     1     -89.119 -17.964  10.944  1.00  0.00    -0.261 N 
ENDROOT
BRANCH  16  20
HETATM   20  C11 UNL     1     -85.732 -17.040   9.793  1.00  0.00     0.080 A 
HETATM   21  C12 UNL     1     -85.038 -17.796   8.871  1.00  0.00     0.033 A 
HETATM   22  C13 UNL     1     -83.998 -17.327   8.113  1.00  0.00     0.002 A 
HETATM   23  C14 UNL     1     -83.605 -16.016   8.267  1.00  0.00     0.003 A 
HETATM   24  C15 UNL     1     -84.277 -15.210   9.189  1.00  0.00     0.039 A 
HETATM   25  C16 UNL     1     -85.319 -15.717   9.934  1.00  0.00     0.103 A 
BRANCH  25  26
HETATM   26  O3  UNL     1     -85.983 -14.912  10.850  1.00  0.00    -0.308 OA
BRANCH  26  27
HETATM   27  C17 UNL     1     -85.654 -14.841  12.179  1.00  0.00     0.076 A 
HETATM   28  C18 UNL     1     -86.621 -14.973  13.144  1.00  0.00     0.040 A 
HETATM   29  C19 UNL     1     -86.317 -14.906  14.502  1.00  0.00     0.045 A 
HETATM   30  C20 UNL     1     -84.994 -14.701  14.860  1.00  0.00     0.116 A 
HETATM   31  F1  UNL     1     -84.719 -14.638  16.196  1.00  0.00    -0.206 F 
HETATM   32  C21 UNL     1     -83.999 -14.565  13.911  1.00  0.00     0.045 A 
HETATM   33  C22 UNL     1     -84.352 -14.639  12.558  1.00  0.00     0.040 A 
ENDBRANCH  26  27
ENDBRANCH  25  26
ENDBRANCH  16  20
BRANCH  15  34
HETATM   34  O2  UNL     1     -85.184 -18.330  12.046  1.00  0.00    -0.345 OA
ATOM     35  H2  UNL     1     -84.876 -17.936  12.854  1.00  0.00     0.219 HD
ENDBRANCH  15  34
BRANCH  19  36
HETATM   36  C24 UNL     1     -90.498 -17.827  10.540  1.00  0.00     0.175 C 
BRANCH  36  37
HETATM   37  C25 UNL     1     -91.115 -19.039   9.964  1.00  0.00    -0.040 A 
HETATM   38  C26 UNL     1     -92.294 -19.553  10.459  1.00  0.00     0.009 A 
HETATM   39  C27 UNL     1     -92.891 -20.699   9.930  1.00  0.00     0.001 A 
HETATM   40  C28 UNL     1     -92.314 -21.370   8.878  1.00  0.00     0.000 A 
HETATM   41  C29 UNL     1     -91.138 -20.874   8.370  1.00  0.00     0.001 A 
HETATM   42  C30 UNL     1     -90.549 -19.728   8.905  1.00  0.00     0.009 A 
ENDBRANCH  36  37
ENDBRANCH  19  36
TORSDOF 6
ENDMDL
