MODEL 1
REMARK VINA RESULT: -9.829920215      0.000      0.000
REMARK  6 active torsions:
REMARK  status: ('A' for Active; 'I' for Inactive)
REMARK    1  A    between atoms: O1_2  and  C2_3 
REMARK    2  A    between atoms: C5_6  and  C6_7 
REMARK    3  A    between atoms: C8_13  and  S1_14 
REMARK    4  A    between atoms: C10_23  and  C11_24 
REMARK    5  A    between atoms: C14_27  and  O5_28 
REMARK    6  A    between atoms: O5_28  and  C15_29 
ROOT
HETATM    1  C11 UNL     1     -87.476 -17.032  10.462  1.00  0.00    -0.020 A 
HETATM    2  C12 UNL     1     -86.845 -17.964  11.243  1.00  0.00     0.015 A 
HETATM    3  C13 UNL     1     -86.840 -17.847  12.612  1.00  0.00     0.040 A 
HETATM    4  C14 UNL     1     -87.470 -16.783  13.277  1.00  0.00     0.097 A 
HETATM    5  C21 UNL     1     -88.104 -15.845  12.499  1.00  0.00     0.079 A 
HETATM    6  C22 UNL     1     -88.769 -14.717  13.089  1.00  0.00     0.102 C 
HETATM    7  N5  UNL     1     -89.296 -13.804  13.543  1.00  0.00    -0.191 NA
HETATM    8  C23 UNL     1     -88.095 -15.986  11.106  1.00  0.00     0.038 A 
ENDROOT
BRANCH   4   9
HETATM    9  O5  UNL     1     -87.394 -16.778  14.626  1.00  0.00    -0.306 OA
BRANCH   9  10
HETATM   10  C15 UNL     1     -86.753 -15.971  15.501  1.00  0.00     0.114 A 
HETATM   11  C16 UNL     1     -85.678 -15.219  15.087  1.00  0.00     0.040 A 
HETATM   12  C17 UNL     1     -84.992 -14.382  15.933  1.00  0.00     0.003 A 
HETATM   13  C18 UNL     1     -85.388 -14.288  17.249  1.00  0.00     0.003 A 
HETATM   14  C19 UNL     1     -86.461 -15.037  17.671  1.00  0.00     0.045 A 
HETATM   15  C20 UNL     1     -87.144 -15.872  16.820  1.00  0.00     0.150 A 
HETATM   16  F1  UNL     1     -88.213 -16.600  17.295  1.00  0.00    -0.203 F 
ENDBRANCH   9  10
ENDBRANCH   4   9
BRANCH   1  17
HETATM   17  C10 UNL     1     -87.512 -17.111   9.002  1.00  0.00     0.034 A 
HETATM   18  C6  UNL     1     -88.566 -17.519   8.224  1.00  0.00     0.057 A 
HETATM   19  N1  UNL     1     -88.199 -17.448   6.929  1.00  0.00    -0.339 N 
HETATM   20  C7  UNL     1     -86.934 -17.004   6.817  1.00  0.00     0.137 A 
ATOM     21  H1  UNL     1     -88.798 -17.697   6.142  1.00  0.00     0.167 HD
HETATM   22  N2  UNL     1     -86.114 -16.762   5.756  1.00  0.00    -0.314 N 
HETATM   23  C9  UNL     1     -86.501 -16.793   8.112  1.00  0.00     0.105 A 
HETATM   24  C8  UNL     1     -84.867 -16.310   5.985  1.00  0.00     0.241 A 
ATOM     25  H2  UNL     1     -86.441 -16.920   4.803  1.00  0.00     0.170 HD
HETATM   26  N3  UNL     1     -84.450 -16.106   7.244  1.00  0.00    -0.273 N 
HETATM   27  N4  UNL     1     -85.245 -16.341   8.272  1.00  0.00    -0.294 N 
ATOM     28  H3  UNL     1     -83.504 -15.764   7.409  1.00  0.00     0.189 HD
ATOM     29  H4  UNL     1     -84.896 -16.173   9.216  1.00  0.00     0.187 HD
BRANCH  18  30
HETATM   30  C5  UNL     1     -89.861 -17.958   8.669  1.00  0.00    -0.008 A 
HETATM   31  C4  UNL     1     -90.963 -17.153   8.546  1.00  0.00     0.016 A 
HETATM   32  C3  UNL     1     -92.223 -17.551   8.968  1.00  0.00     0.037 A 
HETATM   33  C2  UNL     1     -92.385 -18.795   9.528  1.00  0.00     0.068 A 
HETATM   34  C25 UNL     1     -91.294 -19.618   9.660  1.00  0.00     0.037 A 
HETATM   35  C24 UNL     1     -90.029 -19.199   9.230  1.00  0.00     0.016 A 
BRANCH  33  36
HETATM   36  O1  UNL     1     -93.633 -19.246   9.970  1.00  0.00    -0.356 OA
HETATM   37  C1  UNL     1     -93.792 -19.756  11.258  1.00  0.00     0.210 C 
ENDBRANCH  33  36
ENDBRANCH  18  30
BRANCH  24  38
HETATM   38  S1  UNL     1     -83.740 -15.969   4.695  1.00  0.00     0.173 S 
HETATM   39  O2  UNL     1     -83.495 -17.211   3.876  1.00  0.00    -0.589 OA
HETATM   40  O3  UNL     1     -84.259 -14.877   3.801  1.00  0.00    -0.589 OA
HETATM   41  O4  UNL     1     -82.276 -15.533   5.385  1.00  0.00    -0.589 OA
ENDBRANCH  24  38
ENDBRANCH   1  17
TORSDOF 6
ENDMDL
MODEL 2
REMARK VINA RESULT: -9.813143668      2.840      3.749
REMARK  6 active torsions:
REMARK  status: ('A' for Active; 'I' for Inactive)
REMARK    1  A    between atoms: O1_2  and  C2_3 
REMARK    2  A    between atoms: C5_6  and  C6_7 
REMARK    3  A    between atoms: C8_13  and  S1_14 
REMARK    4  A    between atoms: C10_23  and  C11_24 
REMARK    5  A    between atoms: C14_27  and  O5_28 
REMARK    6  A    between atoms: O5_28  and  C15_29 
ROOT
HETATM    1  C11 UNL     1     -85.464 -17.035   8.509  1.00  0.00    -0.020 A 
HETATM    2  C12 UNL     1     -85.045 -18.264   8.944  1.00  0.00     0.015 A 
HETATM    3  C13 UNL     1     -85.019 -18.565  10.285  1.00  0.00     0.040 A 
HETATM    4  C14 UNL     1     -85.413 -17.646  11.269  1.00  0.00     0.097 A 
HETATM    5  C21 UNL     1     -85.834 -16.410  10.839  1.00  0.00     0.079 A 
HETATM    6  C22 UNL     1     -86.249 -15.401  11.773  1.00  0.00     0.102 C 
HETATM    7  N5  UNL     1     -86.574 -14.579  12.505  1.00  0.00    -0.191 NA
HETATM    8  C23 UNL     1     -85.851 -16.127   9.469  1.00  0.00     0.038 A 
ENDROOT
BRANCH   4   9
HETATM    9  O5  UNL     1     -85.341 -18.060  12.553  1.00  0.00    -0.306 OA
BRANCH   9  10
HETATM   10  C15 UNL     1     -85.950 -19.062  13.224  1.00  0.00     0.114 A 
HETATM   11  C16 UNL     1     -85.212 -20.122  13.700  1.00  0.00     0.040 A 
HETATM   12  C17 UNL     1     -85.779 -21.166  14.389  1.00  0.00     0.003 A 
HETATM   13  C18 UNL     1     -87.137 -21.161  14.617  1.00  0.00     0.003 A 
HETATM   14  C19 UNL     1     -87.881 -20.105  14.145  1.00  0.00     0.045 A 
HETATM   15  C20 UNL     1     -87.309 -19.063  13.456  1.00  0.00     0.150 A 
HETATM   16  F1  UNL     1     -88.101 -18.030  13.006  1.00  0.00    -0.203 F 
ENDBRANCH   9  10
ENDBRANCH   4   9
BRANCH   1  17
HETATM   17  C10 UNL     1     -85.511 -16.665   7.096  1.00  0.00     0.034 A 
HETATM   18  C6  UNL     1     -86.627 -16.584   6.302  1.00  0.00     0.057 A 
HETATM   19  N1  UNL     1     -86.249 -16.211   5.063  1.00  0.00    -0.339 N 
HETATM   20  C7  UNL     1     -84.916 -16.038   5.004  1.00  0.00     0.137 A 
ATOM     21  H1  UNL     1     -86.886 -16.077   4.278  1.00  0.00     0.167 HD
HETATM   22  N2  UNL     1     -84.059 -15.673   4.011  1.00  0.00    -0.314 N 
HETATM   23  C9  UNL     1     -84.451 -16.322   6.275  1.00  0.00     0.105 A 
HETATM   24  C8  UNL     1     -82.744 -15.591   4.280  1.00  0.00     0.241 A 
ATOM     25  H2  UNL     1     -84.410 -15.465   3.076  1.00  0.00     0.170 HD
HETATM   26  N3  UNL     1     -82.296 -15.867   5.515  1.00  0.00    -0.273 N 
HETATM   27  N4  UNL     1     -83.127 -16.220   6.479  1.00  0.00    -0.294 N 
ATOM     28  H3  UNL     1     -81.297 -15.803   5.712  1.00  0.00     0.189 HD
ATOM     29  H4  UNL     1     -82.752 -16.422   7.406  1.00  0.00     0.187 HD
BRANCH  18  30
HETATM   30  C5  UNL     1     -87.990 -16.845   6.681  1.00  0.00    -0.008 A 
HETATM   31  C4  UNL     1     -88.286 -17.619   7.772  1.00  0.00     0.016 A 
HETATM   32  C3  UNL     1     -89.590 -17.888   8.158  1.00  0.00     0.037 A 
HETATM   33  C2  UNL     1     -90.631 -17.363   7.432  1.00  0.00     0.068 A 
HETATM   34  C25 UNL     1     -90.357 -16.583   6.335  1.00  0.00     0.037 A 
HETATM   35  C24 UNL     1     -89.033 -16.324   5.958  1.00  0.00     0.016 A 
BRANCH  33  36
HETATM   36  O1  UNL     1     -91.965 -17.602   7.779  1.00  0.00    -0.356 OA
HETATM   37  C1  UNL     1     -92.393 -17.470   9.100  1.00  0.00     0.210 C 
ENDBRANCH  33  36
ENDBRANCH  18  30
BRANCH  24  38
HETATM   38  S1  UNL     1     -81.563 -15.132   3.077  1.00  0.00     0.173 S 
HETATM   39  O2  UNL     1     -80.214 -15.709   3.425  1.00  0.00    -0.589 OA
HETATM   40  O3  UNL     1     -81.973 -15.612   1.712  1.00  0.00    -0.589 OA
HETATM   41  O4  UNL     1     -81.412 -13.464   3.106  1.00  0.00    -0.589 OA
ENDBRANCH  24  38
ENDBRANCH   1  17
TORSDOF 6
ENDMDL
MODEL 3
REMARK VINA RESULT: -9.810147667      2.697      6.617
REMARK  6 active torsions:
REMARK  status: ('A' for Active; 'I' for Inactive)
REMARK    1  A    between atoms: O1_2  and  C2_3 
REMARK    2  A    between atoms: C5_6  and  C6_7 
REMARK    3  A    between atoms: C8_13  and  S1_14 
REMARK    4  A    between atoms: C10_23  and  C11_24 
REMARK    5  A    between atoms: C14_27  and  O5_28 
REMARK    6  A    between atoms: O5_28  and  C15_29 
ROOT
HETATM    1  C11 UNL     1     -86.860 -16.837   9.083  1.00  0.00    -0.020 A 
HETATM    2  C12 UNL     1     -87.426 -17.763   9.918  1.00  0.00     0.015 A 
HETATM    3  C13 UNL     1     -88.607 -18.383   9.585  1.00  0.00     0.040 A 
HETATM    4  C14 UNL     1     -89.289 -18.107   8.390  1.00  0.00     0.097 A 
HETATM    5  C21 UNL     1     -88.726 -17.178   7.547  1.00  0.00     0.079 A 
HETATM    6  C22 UNL     1     -89.355 -16.825   6.305  1.00  0.00     0.102 C 
HETATM    7  N5  UNL     1     -89.848 -16.522   5.314  1.00  0.00    -0.191 NA
HETATM    8  C23 UNL     1     -87.523 -16.561   7.909  1.00  0.00     0.038 A 
ENDROOT
BRANCH   4   9
HETATM    9  O5  UNL     1     -90.440 -18.780   8.176  1.00  0.00    -0.306 OA
BRANCH   9  10
HETATM   10  C15 UNL     1     -91.501 -19.049   8.969  1.00  0.00     0.114 A 
HETATM   11  C16 UNL     1     -91.747 -20.340   9.378  1.00  0.00     0.040 A 
HETATM   12  C17 UNL     1     -92.809 -20.669  10.184  1.00  0.00     0.003 A 
HETATM   13  C18 UNL     1     -93.666 -19.676  10.603  1.00  0.00     0.003 A 
HETATM   14  C19 UNL     1     -93.427 -18.384  10.199  1.00  0.00     0.045 A 
HETATM   15  C20 UNL     1     -92.363 -18.060   9.392  1.00  0.00     0.150 A 
HETATM   16  F1  UNL     1     -92.169 -16.749   9.017  1.00  0.00    -0.203 F 
ENDBRANCH   9  10
ENDBRANCH   4   9
BRANCH   1  17
HETATM   17  C10 UNL     1     -85.606 -16.151   9.389  1.00  0.00     0.034 A 
HETATM   18  C6  UNL     1     -85.247 -15.586  10.587  1.00  0.00     0.057 A 
HETATM   19  N1  UNL     1     -84.015 -15.054  10.460  1.00  0.00    -0.339 N 
HETATM   20  C7  UNL     1     -83.539 -15.247   9.217  1.00  0.00     0.137 A 
ATOM     21  H1  UNL     1     -83.513 -14.571  11.205  1.00  0.00     0.167 HD
HETATM   22  N2  UNL     1     -82.374 -14.912   8.595  1.00  0.00    -0.314 N 
HETATM   23  C9  UNL     1     -84.532 -15.933   8.544  1.00  0.00     0.105 A 
HETATM   24  C8  UNL     1     -82.198 -15.260   7.307  1.00  0.00     0.241 A 
ATOM     25  H2  UNL     1     -81.646 -14.406   9.099  1.00  0.00     0.170 HD
HETATM   26  N3  UNL     1     -83.165 -15.926   6.657  1.00  0.00    -0.273 N 
HETATM   27  N4  UNL     1     -84.294 -16.251   7.260  1.00  0.00    -0.294 N 
ATOM     28  H3  UNL     1     -83.025 -16.186   5.681  1.00  0.00     0.189 HD
ATOM     29  H4  UNL     1     -85.007 -16.759   6.736  1.00  0.00     0.187 HD
BRANCH  18  30
HETATM   30  C5  UNL     1     -86.021 -15.541  11.798  1.00  0.00    -0.008 A 
HETATM   31  C4  UNL     1     -85.777 -16.412  12.827  1.00  0.00     0.016 A 
HETATM   32  C3  UNL     1     -86.508 -16.392  14.005  1.00  0.00     0.037 A 
HETATM   33  C2  UNL     1     -87.514 -15.470  14.158  1.00  0.00     0.068 A 
HETATM   34  C25 UNL     1     -87.776 -14.587  13.140  1.00  0.00     0.037 A 
HETATM   35  C24 UNL     1     -87.028 -14.623  11.956  1.00  0.00     0.016 A 
BRANCH  33  36
HETATM   36  O1  UNL     1     -88.282 -15.406  15.326  1.00  0.00    -0.356 OA
HETATM   37  C1  UNL     1     -88.035 -16.273  16.391  1.00  0.00     0.210 C 
ENDBRANCH  33  36
ENDBRANCH  18  30
BRANCH  24  38
HETATM   38  S1  UNL     1     -80.743 -14.878   6.420  1.00  0.00     0.173 S 
HETATM   39  O2  UNL     1     -79.702 -14.307   7.349  1.00  0.00    -0.589 OA
HETATM   40  O3  UNL     1     -80.189 -16.102   5.743  1.00  0.00    -0.589 OA
HETATM   41  O4  UNL     1     -81.113 -13.689   5.299  1.00  0.00    -0.589 OA
ENDBRANCH  24  38
ENDBRANCH   1  17
TORSDOF 6
ENDMDL
MODEL 4
REMARK VINA RESULT: -9.775995928      2.664      6.516
REMARK  6 active torsions:
REMARK  status: ('A' for Active; 'I' for Inactive)
REMARK    1  A    between atoms: O1_2  and  C2_3 
REMARK    2  A    between atoms: C5_6  and  C6_7 
REMARK    3  A    between atoms: C8_13  and  S1_14 
REMARK    4  A    between atoms: C10_23  and  C11_24 
REMARK    5  A    between atoms: C14_27  and  O5_28 
REMARK    6  A    between atoms: O5_28  and  C15_29 
ROOT
HETATM    1  C11 UNL     1     -86.948 -16.862   9.005  1.00  0.00    -0.020 A 
HETATM    2  C12 UNL     1     -87.501 -17.789   9.848  1.00  0.00     0.015 A 
HETATM    3  C13 UNL     1     -88.688 -18.407   9.533  1.00  0.00     0.040 A 
HETATM    4  C14 UNL     1     -89.390 -18.127   8.351  1.00  0.00     0.097 A 
HETATM    5  C21 UNL     1     -88.841 -17.196   7.501  1.00  0.00     0.079 A 
HETATM    6  C22 UNL     1     -89.491 -16.838   6.271  1.00  0.00     0.102 C 
HETATM    7  N5  UNL     1     -90.000 -16.532   5.290  1.00  0.00    -0.191 NA
HETATM    8  C23 UNL     1     -87.631 -16.581   7.844  1.00  0.00     0.038 A 
ENDROOT
BRANCH   4   9
HETATM    9  O5  UNL     1     -90.546 -18.797   8.155  1.00  0.00    -0.306 OA
BRANCH   9  10
HETATM   10  C15 UNL     1     -91.591 -19.073   8.967  1.00  0.00     0.114 A 
HETATM   11  C16 UNL     1     -91.833 -20.368   9.364  1.00  0.00     0.040 A 
HETATM   12  C17 UNL     1     -92.879 -20.704  10.189  1.00  0.00     0.003 A 
HETATM   13  C18 UNL     1     -93.722 -19.713  10.640  1.00  0.00     0.003 A 
HETATM   14  C19 UNL     1     -93.486 -18.416  10.248  1.00  0.00     0.045 A 
HETATM   15  C20 UNL     1     -92.438 -18.085   9.423  1.00  0.00     0.150 A 
HETATM   16  F1  UNL     1     -92.247 -16.770   9.062  1.00  0.00    -0.203 F 
ENDBRANCH   9  10
ENDBRANCH   4   9
BRANCH   1  17
HETATM   17  C10 UNL     1     -85.689 -16.178   9.292  1.00  0.00     0.034 A 
HETATM   18  C6  UNL     1     -85.318 -15.594  10.477  1.00  0.00     0.057 A 
HETATM   19  N1  UNL     1     -84.084 -15.072  10.334  1.00  0.00    -0.339 N 
HETATM   20  C7  UNL     1     -83.616 -15.290   9.091  1.00  0.00     0.137 A 
ATOM     21  H1  UNL     1     -83.574 -14.579  11.067  1.00  0.00     0.167 HD
HETATM   22  N2  UNL     1     -82.454 -14.973   8.457  1.00  0.00    -0.314 N 
HETATM   23  C9  UNL     1     -84.618 -15.982   8.436  1.00  0.00     0.105 A 
HETATM   24  C8  UNL     1     -82.288 -15.344   7.174  1.00  0.00     0.241 A 
ATOM     25  H2  UNL     1     -81.719 -14.463   8.946  1.00  0.00     0.170 HD
HETATM   26  N3  UNL     1     -83.263 -16.016   6.541  1.00  0.00    -0.273 N 
HETATM   27  N4  UNL     1     -84.390 -16.324   7.157  1.00  0.00    -0.294 N 
ATOM     28  H3  UNL     1     -83.131 -16.294   5.569  1.00  0.00     0.189 HD
ATOM     29  H4  UNL     1     -85.109 -16.836   6.646  1.00  0.00     0.187 HD
BRANCH  18  30
HETATM   30  C5  UNL     1     -86.084 -15.523  11.692  1.00  0.00    -0.008 A 
HETATM   31  C4  UNL     1     -87.111 -14.628  11.832  1.00  0.00     0.016 A 
HETATM   32  C3  UNL     1     -87.864 -14.538  12.993  1.00  0.00     0.037 A 
HETATM   33  C2  UNL     1     -87.582 -15.373  14.046  1.00  0.00     0.068 A 
HETATM   34  C25 UNL     1     -86.557 -16.279  13.928  1.00  0.00     0.037 A 
HETATM   35  C24 UNL     1     -85.806 -16.354  12.748  1.00  0.00     0.016 A 
BRANCH  33  36
HETATM   36  O1  UNL     1     -88.310 -15.325  15.239  1.00  0.00    -0.356 OA
HETATM   37  C1  UNL     1     -87.998 -16.175  16.301  1.00  0.00     0.210 C 
ENDBRANCH  33  36
ENDBRANCH  18  30
BRANCH  24  38
HETATM   38  S1  UNL     1     -80.836 -14.987   6.271  1.00  0.00     0.173 S 
HETATM   39  O2  UNL     1     -80.339 -16.228   5.574  1.00  0.00    -0.589 OA
HETATM   40  O3  UNL     1     -81.087 -13.910   5.252  1.00  0.00    -0.589 OA
HETATM   41  O4  UNL     1     -79.649 -14.520   7.358  1.00  0.00    -0.589 OA
ENDBRANCH  24  38
ENDBRANCH   1  17
TORSDOF 6
ENDMDL
MODEL 5
REMARK VINA RESULT: -9.696603520      1.141      1.566
REMARK  6 active torsions:
REMARK  status: ('A' for Active; 'I' for Inactive)
REMARK    1  A    between atoms: O1_2  and  C2_3 
REMARK    2  A    between atoms: C5_6  and  C6_7 
REMARK    3  A    between atoms: C8_13  and  S1_14 
REMARK    4  A    between atoms: C10_23  and  C11_24 
REMARK    5  A    between atoms: C14_27  and  O5_28 
REMARK    6  A    between atoms: O5_28  and  C15_29 
ROOT
HETATM    1  C11 UNL     1     -87.643 -16.834  10.500  1.00  0.00    -0.020 A 
HETATM    2  C12 UNL     1     -88.198 -15.748  11.121  1.00  0.00     0.015 A 
HETATM    3  C13 UNL     1     -88.180 -15.635  12.491  1.00  0.00     0.040 A 
HETATM    4  C14 UNL     1     -87.601 -16.610  13.317  1.00  0.00     0.097 A 
HETATM    5  C21 UNL     1     -87.043 -17.703  12.700  1.00  0.00     0.079 A 
HETATM    6  C22 UNL     1     -86.435 -18.757  13.463  1.00  0.00     0.102 C 
HETATM    7  N5  UNL     1     -85.953 -19.613  14.057  1.00  0.00    -0.191 NA
HETATM    8  C23 UNL     1     -87.074 -17.796  11.303  1.00  0.00     0.038 A 
ENDROOT
BRANCH   4   9
HETATM    9  O5  UNL     1     -87.648 -16.386  14.648  1.00  0.00    -0.306 OA
BRANCH   9  10
HETATM   10  C15 UNL     1     -86.840 -15.700  15.487  1.00  0.00     0.114 A 
HETATM   11  C16 UNL     1     -85.778 -14.980  14.989  1.00  0.00     0.040 A 
HETATM   12  C17 UNL     1     -84.927 -14.264  15.795  1.00  0.00     0.003 A 
HETATM   13  C18 UNL     1     -85.137 -14.263  17.156  1.00  0.00     0.003 A 
HETATM   14  C19 UNL     1     -86.195 -14.979  17.663  1.00  0.00     0.045 A 
HETATM   15  C20 UNL     1     -87.044 -15.693  16.851  1.00  0.00     0.150 A 
HETATM   16  F1  UNL     1     -88.089 -16.394  17.411  1.00  0.00    -0.203 F 
ENDBRANCH   9  10
ENDBRANCH   4   9
BRANCH   1  17
HETATM   17  C10 UNL     1     -87.635 -17.002   9.048  1.00  0.00     0.034 A 
HETATM   18  C6  UNL     1     -88.648 -17.502   8.269  1.00  0.00     0.057 A 
HETATM   19  N1  UNL     1     -88.249 -17.492   6.982  1.00  0.00    -0.339 N 
HETATM   20  C7  UNL     1     -87.001 -17.000   6.875  1.00  0.00     0.137 A 
ATOM     21  H1  UNL     1     -88.814 -17.814   6.197  1.00  0.00     0.167 HD
HETATM   22  N2  UNL     1     -86.164 -16.786   5.822  1.00  0.00    -0.314 N 
HETATM   23  C9  UNL     1     -86.613 -16.693   8.166  1.00  0.00     0.105 A 
HETATM   24  C8  UNL     1     -84.944 -16.266   6.054  1.00  0.00     0.241 A 
ATOM     25  H2  UNL     1     -86.457 -17.015   4.873  1.00  0.00     0.170 HD
HETATM   26  N3  UNL     1     -84.571 -15.969   7.308  1.00  0.00    -0.273 N 
HETATM   27  N4  UNL     1     -85.384 -16.177   8.329  1.00  0.00    -0.294 N 
ATOM     28  H3  UNL     1     -83.645 -15.576   7.476  1.00  0.00     0.189 HD
ATOM     29  H4  UNL     1     -85.068 -15.938   9.269  1.00  0.00     0.187 HD
BRANCH  18  30
HETATM   30  C5  UNL     1     -89.935 -17.971   8.707  1.00  0.00    -0.008 A 
HETATM   31  C4  UNL     1     -91.050 -17.181   8.604  1.00  0.00     0.016 A 
HETATM   32  C3  UNL     1     -92.302 -17.608   9.020  1.00  0.00     0.037 A 
HETATM   33  C2  UNL     1     -92.443 -18.865   9.554  1.00  0.00     0.068 A 
HETATM   34  C25 UNL     1     -91.339 -19.674   9.666  1.00  0.00     0.037 A 
HETATM   35  C24 UNL     1     -90.082 -19.226   9.242  1.00  0.00     0.016 A 
BRANCH  33  36
HETATM   36  O1  UNL     1     -93.683 -19.345   9.989  1.00  0.00    -0.356 OA
HETATM   37  C1  UNL     1     -93.816 -19.949  11.239  1.00  0.00     0.210 C 
ENDBRANCH  33  36
ENDBRANCH  18  30
BRANCH  24  38
HETATM   38  S1  UNL     1     -83.796 -15.953   4.774  1.00  0.00     0.173 S 
HETATM   39  O2  UNL     1     -83.490 -17.226   4.027  1.00  0.00    -0.589 OA
HETATM   40  O3  UNL     1     -84.330 -14.927   3.813  1.00  0.00    -0.589 OA
HETATM   41  O4  UNL     1     -82.366 -15.432   5.474  1.00  0.00    -0.589 OA
ENDBRANCH  24  38
ENDBRANCH   1  17
TORSDOF 6
ENDMDL
