MODEL 1
REMARK VINA RESULT: -9.895246813      0.000      0.000
REMARK  7 active torsions:
REMARK  status: ('A' for Active; 'I' for Inactive)
REMARK    1  A    between atoms: C2_2  and  C3_3 
REMARK    2  A    between atoms: C3_3  and  C4_4 
REMARK    3  A    between atoms: N3_17  and  C12_18 
REMARK    4  A    between atoms: C12_18  and  C13_19 
REMARK    5  A    between atoms: C16_22  and  C17_23 
REMARK    6  A    between atoms: N5_26  and  O1_27 
REMARK    7  A    between atoms: C19_30  and  C20_31 
ROOT
HETATM    1  C13 UNL     1     -88.814 -17.186   7.696  1.00  0.00    -0.040 A 
HETATM    2  C14 UNL     1     -87.573 -17.548   8.243  1.00  0.00     0.010 A 
HETATM    3  C15 UNL     1     -86.393 -17.223   7.585  1.00  0.00     0.014 A 
HETATM    4  C16 UNL     1     -86.401 -16.546   6.391  1.00  0.00    -0.007 A 
HETATM    5  C22 UNL     1     -87.610 -16.192   5.858  1.00  0.00     0.014 A 
HETATM    6  C23 UNL     1     -88.801 -16.508   6.502  1.00  0.00     0.010 A 
ENDROOT
BRANCH   1   7
HETATM    7  C12 UNL     1     -90.017 -17.572   8.454  1.00  0.00     0.170 C 
BRANCH   7   8
HETATM    8  N3  UNL     1     -89.780 -18.101   9.773  1.00  0.00    -0.317 N 
HETATM    9  C4  UNL     1     -89.906 -19.376  10.174  1.00  0.00     0.085 A 
HETATM   10  N1  UNL     1     -89.554 -19.394  11.497  1.00  0.00    -0.342 N 
HETATM   11  C5  UNL     1     -89.228 -18.157  11.880  1.00  0.00     0.085 A 
ATOM     12  H1  UNL     1     -89.544 -20.220  12.095  1.00  0.00     0.167 HD
HETATM   13  C6  UNL     1     -88.813 -17.651  13.111  1.00  0.00    -0.012 A 
HETATM   14  C11 UNL     1     -89.362 -17.306  10.802  1.00  0.00     0.137 A 
HETATM   15  C7  UNL     1     -88.673 -18.576  14.252  1.00  0.00     0.052 C 
HETATM   16  C8  UNL     1     -88.552 -16.304  13.191  1.00  0.00     0.041 A 
HETATM   17 BR1  UNL     1     -87.982 -15.629  14.886  1.00  0.00    -0.048 Br
HETATM   18  C9  UNL     1     -88.686 -15.453  12.114  1.00  0.00     0.025 A 
HETATM   19  C10 UNL     1     -88.394 -13.989  12.239  1.00  0.00     0.069 C 
HETATM   20  N2  UNL     1     -89.090 -15.996  10.954  1.00  0.00    -0.343 N 
ATOM     21  H2  UNL     1     -89.195 -15.383  10.145  1.00  0.00     0.167 HD
BRANCH   9  22
HETATM   22  C3  UNL     1     -90.363 -20.571   9.404  1.00  0.00     0.076 C 
BRANCH  22  23
HETATM   23  C2  UNL     1     -91.896 -20.649   9.434  1.00  0.00     0.003 C 
HETATM   24  C1  UNL     1     -92.396 -21.351   8.196  1.00  0.00     0.005 C 
ENDBRANCH  22  23
ENDBRANCH   9  22
ENDBRANCH   7   8
ENDBRANCH   1   7
BRANCH   4  25
HETATM   25  C17 UNL     1     -85.185 -16.209   5.706  1.00  0.00     0.074 A 
HETATM   26  N4  UNL     1     -85.064 -15.922   4.397  1.00  0.00    -0.273 N 
HETATM   27  N5  UNL     1     -83.812 -15.657   4.085  1.00  0.00    -0.174 N 
ATOM     28  H4  UNL     1     -85.839 -15.911   3.734  1.00  0.00     0.189 HD
HETATM   29  C18 UNL     1     -83.071 -15.768   5.205  1.00  0.00     0.159 A 
HETATM   30  C19 UNL     1     -83.912 -16.114   6.238  1.00  0.00     0.042 A 
BRANCH  27  31
HETATM   31  O1  UNL     1     -83.273 -15.318   2.850  1.00  0.00    -0.268 OA
ATOM     32  H1  UNL     1     -83.200 -15.848   2.064  1.00  0.00     0.247 HD
ENDBRANCH  27  31
BRANCH  30  33
HETATM   33  C20 UNL     1     -83.531 -16.338   7.635  1.00  0.00     0.080 A 
HETATM   34  C21 UNL     1     -83.543 -15.365   8.626  1.00  0.00     0.140 A 
HETATM   35  N6  UNL     1     -83.137 -15.927   9.769  1.00  0.00    -0.295 N 
HETATM   36  N7  UNL     1     -82.886 -17.199   9.489  1.00  0.00    -0.243 N 
ATOM     37  H6  UNL     1     -83.041 -15.470  10.675  1.00  0.00     0.187 HD
HETATM   38  N8  UNL     1     -83.116 -17.456   8.225  1.00  0.00    -0.284 N 
ATOM     39  H7  UNL     1     -82.557 -17.885  10.168  1.00  0.00     0.208 HD
ATOM     40  H8  UNL     1     -82.997 -18.362   7.771  1.00  0.00     0.188 HD
ENDBRANCH  30  33
ENDBRANCH   4  25
TORSDOF 7
ENDMDL
MODEL 2
REMARK VINA RESULT: -9.568384149      4.091      7.517
REMARK  7 active torsions:
REMARK  status: ('A' for Active; 'I' for Inactive)
REMARK    1  A    between atoms: C2_2  and  C3_3 
REMARK    2  A    between atoms: C3_3  and  C4_4 
REMARK    3  A    between atoms: N3_17  and  C12_18 
REMARK    4  A    between atoms: C12_18  and  C13_19 
REMARK    5  A    between atoms: C16_22  and  C17_23 
REMARK    6  A    between atoms: N5_26  and  O1_27 
REMARK    7  A    between atoms: C19_30  and  C20_31 
ROOT
HETATM    1  C13 UNL     1     -87.192 -16.980  10.343  1.00  0.00    -0.040 A 
HETATM    2  C14 UNL     1     -87.934 -16.779   9.169  1.00  0.00     0.010 A 
HETATM    3  C15 UNL     1     -89.039 -17.575   8.891  1.00  0.00     0.014 A 
HETATM    4  C16 UNL     1     -89.436 -18.573   9.744  1.00  0.00    -0.007 A 
HETATM    5  C22 UNL     1     -88.714 -18.769  10.890  1.00  0.00     0.014 A 
HETATM    6  C23 UNL     1     -87.606 -17.982  11.185  1.00  0.00     0.010 A 
ENDROOT
BRANCH   1   7
HETATM    7  C12 UNL     1     -86.032 -16.097  10.561  1.00  0.00     0.170 C 
BRANCH   7   8
HETATM    8  N3  UNL     1     -85.853 -15.626  11.910  1.00  0.00    -0.317 N 
HETATM    9  C4  UNL     1     -86.661 -14.806  12.601  1.00  0.00     0.085 A 
HETATM   10  N1  UNL     1     -86.089 -14.663  13.837  1.00  0.00    -0.342 N 
HETATM   11  C5  UNL     1     -84.963 -15.379  13.884  1.00  0.00     0.085 A 
ATOM     12  H1  UNL     1     -86.464 -14.099  14.600  1.00  0.00     0.167 HD
HETATM   13  C6  UNL     1     -84.026 -15.560  14.900  1.00  0.00    -0.012 A 
HETATM   14  C11 UNL     1     -84.783 -16.006  12.669  1.00  0.00     0.137 A 
HETATM   15  C7  UNL     1     -84.237 -14.883  16.194  1.00  0.00     0.052 C 
HETATM   16  C8  UNL     1     -82.947 -16.371  14.636  1.00  0.00     0.041 A 
HETATM   17 BR1  UNL     1     -81.674 -16.608  16.041  1.00  0.00    -0.048 Br
HETATM   18  C9  UNL     1     -82.766 -16.998  13.421  1.00  0.00     0.025 A 
HETATM   19  C10 UNL     1     -81.577 -17.873  13.168  1.00  0.00     0.069 C 
HETATM   20  N2  UNL     1     -83.700 -16.787  12.479  1.00  0.00    -0.343 N 
ATOM     21  H2  UNL     1     -83.585 -17.241  11.574  1.00  0.00     0.167 HD
BRANCH   9  22
HETATM   22  C3  UNL     1     -87.917 -14.125  12.166  1.00  0.00     0.076 C 
BRANCH  22  23
HETATM   23  C2  UNL     1     -88.934 -14.135  13.315  1.00  0.00     0.003 C 
HETATM   24  C1  UNL     1     -89.352 -15.553  13.616  1.00  0.00     0.005 C 
ENDBRANCH  22  23
ENDBRANCH   9  22
ENDBRANCH   7   8
ENDBRANCH   1   7
BRANCH   4  25
HETATM   25  C17 UNL     1     -90.576 -19.399   9.461  1.00  0.00     0.074 A 
HETATM   26  N4  UNL     1     -90.608 -20.448   8.620  1.00  0.00    -0.273 N 
HETATM   27  N5  UNL     1     -91.808 -20.991   8.586  1.00  0.00    -0.174 N 
ATOM     28  H4  UNL     1     -89.809 -20.779   8.080  1.00  0.00     0.189 HD
HETATM   29  C18 UNL     1     -92.604 -20.294   9.421  1.00  0.00     0.159 A 
HETATM   30  C19 UNL     1     -91.853 -19.289   9.984  1.00  0.00     0.042 A 
BRANCH  27  31
HETATM   31  O1  UNL     1     -92.252 -22.082   7.850  1.00  0.00    -0.268 OA
ATOM     32  H1  UNL     1     -93.104 -22.231   7.456  1.00  0.00     0.247 HD
ENDBRANCH  27  31
BRANCH  30  33
HETATM   33  C20 UNL     1     -92.316 -18.291  10.952  1.00  0.00     0.080 A 
HETATM   34  C21 UNL     1     -93.393 -17.437  10.756  1.00  0.00     0.140 A 
HETATM   35  N6  UNL     1     -93.522 -16.670  11.843  1.00  0.00    -0.295 N 
HETATM   36  N7  UNL     1     -92.559 -17.041  12.676  1.00  0.00    -0.243 N 
ATOM     37  H6  UNL     1     -94.222 -15.945  12.001  1.00  0.00     0.187 HD
HETATM   38  N8  UNL     1     -91.835 -18.003  12.159  1.00  0.00    -0.284 N 
ATOM     39  H7  UNL     1     -92.403 -16.631  13.597  1.00  0.00     0.208 HD
ATOM     40  H8  UNL     1     -91.038 -18.455  12.607  1.00  0.00     0.188 HD
ENDBRANCH  30  33
ENDBRANCH   4  25
TORSDOF 7
ENDMDL
MODEL 3
REMARK VINA RESULT: -9.470883894      3.462      6.509
REMARK  7 active torsions:
REMARK  status: ('A' for Active; 'I' for Inactive)
REMARK    1  A    between atoms: C2_2  and  C3_3 
REMARK    2  A    between atoms: C3_3  and  C4_4 
REMARK    3  A    between atoms: N3_17  and  C12_18 
REMARK    4  A    between atoms: C12_18  and  C13_19 
REMARK    5  A    between atoms: C16_22  and  C17_23 
REMARK    6  A    between atoms: N5_26  and  O1_27 
REMARK    7  A    between atoms: C19_30  and  C20_31 
ROOT
HETATM    1  C13 UNL     1     -86.821 -17.613  12.254  1.00  0.00    -0.040 A 
HETATM    2  C14 UNL     1     -87.731 -16.605  11.901  1.00  0.00     0.010 A 
HETATM    3  C15 UNL     1     -88.110 -16.434  10.575  1.00  0.00     0.014 A 
HETATM    4  C16 UNL     1     -87.613 -17.235   9.578  1.00  0.00    -0.007 A 
HETATM    5  C22 UNL     1     -86.727 -18.219   9.922  1.00  0.00     0.014 A 
HETATM    6  C23 UNL     1     -86.336 -18.405  11.243  1.00  0.00     0.010 A 
ENDROOT
BRANCH   1   7
HETATM    7  C12 UNL     1     -86.467 -17.725  13.680  1.00  0.00     0.170 C 
BRANCH   7   8
HETATM    8  N3  UNL     1     -87.331 -18.562  14.473  1.00  0.00    -0.317 N 
HETATM    9  C4  UNL     1     -88.405 -18.185  15.183  1.00  0.00     0.085 A 
HETATM   10  N1  UNL     1     -88.909 -19.326  15.746  1.00  0.00    -0.342 N 
HETATM   11  C5  UNL     1     -88.152 -20.365  15.382  1.00  0.00     0.085 A 
ATOM     12  H1  UNL     1     -89.731 -19.377  16.347  1.00  0.00     0.167 HD
HETATM   13  C6  UNL     1     -88.238 -21.722  15.688  1.00  0.00    -0.012 A 
HETATM   14  C11 UNL     1     -87.134 -19.911  14.569  1.00  0.00     0.137 A 
HETATM   15  C7  UNL     1     -89.333 -22.189  16.558  1.00  0.00     0.052 C 
HETATM   16  C8  UNL     1     -87.285 -22.557  15.153  1.00  0.00     0.041 A 
HETATM   17 BR1  UNL     1     -87.420 -24.415  15.583  1.00  0.00    -0.048 Br
HETATM   18  C9  UNL     1     -86.267 -22.104  14.341  1.00  0.00     0.025 A 
HETATM   19  C10 UNL     1     -85.246 -23.045  13.777  1.00  0.00     0.069 C 
HETATM   20  N2  UNL     1     -86.234 -20.787  14.080  1.00  0.00    -0.343 N 
ATOM     21  H2  UNL     1     -85.489 -20.432  13.481  1.00  0.00     0.167 HD
BRANCH   9  22
HETATM   22  C3  UNL     1     -88.970 -16.818  15.392  1.00  0.00     0.076 C 
BRANCH  22  23
HETATM   23  C2  UNL     1     -87.996 -15.980  16.232  1.00  0.00     0.003 C 
HETATM   24  C1  UNL     1     -87.938 -16.521  17.639  1.00  0.00     0.005 C 
ENDBRANCH  22  23
ENDBRANCH   9  22
ENDBRANCH   7   8
ENDBRANCH   1   7
BRANCH   4  25
HETATM   25  C17 UNL     1     -88.001 -17.062   8.206  1.00  0.00     0.074 A 
HETATM   26  N4  UNL     1     -87.257 -16.502   7.235  1.00  0.00    -0.273 N 
HETATM   27  N5  UNL     1     -87.905 -16.496   6.087  1.00  0.00    -0.174 N 
ATOM     28  H4  UNL     1     -86.316 -16.132   7.369  1.00  0.00     0.189 HD
HETATM   29  C18 UNL     1     -89.111 -17.061   6.287  1.00  0.00     0.159 A 
HETATM   30  C19 UNL     1     -89.196 -17.427   7.611  1.00  0.00     0.042 A 
BRANCH  27  31
HETATM   31  O1  UNL     1     -87.489 -16.011   4.853  1.00  0.00    -0.268 OA
ATOM     32  H1  UNL     1     -87.853 -16.180   3.992  1.00  0.00     0.247 HD
ENDBRANCH  27  31
BRANCH  30  33
HETATM   33  C20 UNL     1     -90.333 -18.077   8.266  1.00  0.00     0.080 A 
HETATM   34  C21 UNL     1     -90.264 -19.267   8.978  1.00  0.00     0.140 A 
HETATM   35  N6  UNL     1     -91.488 -19.555   9.432  1.00  0.00    -0.295 N 
HETATM   36  N7  UNL     1     -92.279 -18.577   9.012  1.00  0.00    -0.243 N 
ATOM     37  H6  UNL     1     -91.759 -20.365   9.989  1.00  0.00     0.187 HD
HETATM   38  N8  UNL     1     -91.607 -17.693   8.319  1.00  0.00    -0.284 N 
ATOM     39  H7  UNL     1     -93.280 -18.522   9.204  1.00  0.00     0.208 HD
ATOM     40  H8  UNL     1     -91.993 -16.851   7.892  1.00  0.00     0.188 HD
ENDBRANCH  30  33
ENDBRANCH   4  25
TORSDOF 7
ENDMDL
MODEL 4
REMARK VINA RESULT: -9.470571561      4.069      7.129
REMARK  7 active torsions:
REMARK  status: ('A' for Active; 'I' for Inactive)
REMARK    1  A    between atoms: C2_2  and  C3_3 
REMARK    2  A    between atoms: C3_3  and  C4_4 
REMARK    3  A    between atoms: N3_17  and  C12_18 
REMARK    4  A    between atoms: C12_18  and  C13_19 
REMARK    5  A    between atoms: C16_22  and  C17_23 
REMARK    6  A    between atoms: N5_26  and  O1_27 
REMARK    7  A    between atoms: C19_30  and  C20_31 
ROOT
HETATM    1  C13 UNL     1     -89.613 -17.480  13.860  1.00  0.00    -0.040 A 
HETATM    2  C14 UNL     1     -88.769 -18.451  13.300  1.00  0.00     0.010 A 
HETATM    3  C15 UNL     1     -89.132 -19.107  12.130  1.00  0.00     0.014 A 
HETATM    4  C16 UNL     1     -90.313 -18.831  11.490  1.00  0.00    -0.007 A 
HETATM    5  C22 UNL     1     -91.136 -17.883  12.034  1.00  0.00     0.014 A 
HETATM    6  C23 UNL     1     -90.791 -17.216  13.204  1.00  0.00     0.010 A 
ENDROOT
BRANCH   1   7
HETATM    7  C12 UNL     1     -89.158 -16.835  15.104  1.00  0.00     0.170 C 
BRANCH   7   8
HETATM    8  N3  UNL     1     -88.006 -15.979  14.977  1.00  0.00    -0.317 N 
HETATM    9  C4  UNL     1     -87.927 -14.810  14.321  1.00  0.00     0.085 A 
HETATM   10  N1  UNL     1     -86.646 -14.362  14.498  1.00  0.00    -0.342 N 
HETATM   11  C5  UNL     1     -85.972 -15.243  15.241  1.00  0.00     0.085 A 
ATOM     12  H1  UNL     1     -86.267 -13.493  14.122  1.00  0.00     0.167 HD
HETATM   13  C6  UNL     1     -84.653 -15.253  15.692  1.00  0.00    -0.012 A 
HETATM   14  C11 UNL     1     -86.812 -16.289  15.563  1.00  0.00     0.137 A 
HETATM   15  C7  UNL     1     -83.770 -14.125  15.338  1.00  0.00     0.052 C 
HETATM   16  C8  UNL     1     -84.247 -16.325  16.450  1.00  0.00     0.041 A 
HETATM   17 BR1  UNL     1     -82.435 -16.321  17.059  1.00  0.00    -0.048 Br
HETATM   18  C9  UNL     1     -85.086 -17.372  16.772  1.00  0.00     0.025 A 
HETATM   19  C10 UNL     1     -84.607 -18.524  17.601  1.00  0.00     0.069 C 
HETATM   20  N2  UNL     1     -86.345 -17.308  16.311  1.00  0.00    -0.343 N 
ATOM     21  H2  UNL     1     -86.982 -18.072  16.538  1.00  0.00     0.167 HD
BRANCH   9  22
HETATM   22  C3  UNL     1     -88.967 -14.105  13.514  1.00  0.00     0.076 C 
BRANCH  22  23
HETATM   23  C2  UNL     1     -88.436 -13.849  12.097  1.00  0.00     0.003 C 
HETATM   24  C1  UNL     1     -88.288 -15.158  11.363  1.00  0.00     0.005 C 
ENDBRANCH  22  23
ENDBRANCH   9  22
ENDBRANCH   7   8
ENDBRANCH   1   7
BRANCH   4  25
HETATM   25  C17 UNL     1     -90.694 -19.506  10.281  1.00  0.00     0.074 A 
HETATM   26  N4  UNL     1     -91.606 -20.489  10.173  1.00  0.00    -0.273 N 
HETATM   27  N5  UNL     1     -91.720 -20.895   8.925  1.00  0.00    -0.174 N 
ATOM     28  H4  UNL     1     -92.140 -20.869  10.954  1.00  0.00     0.189 HD
HETATM   29  C18 UNL     1     -90.865 -20.173   8.173  1.00  0.00     0.159 A 
HETATM   30  C19 UNL     1     -90.209 -19.292   9.003  1.00  0.00     0.042 A 
BRANCH  27  31
HETATM   31  O1  UNL     1     -92.544 -21.881   8.399  1.00  0.00    -0.268 OA
ATOM     32  H1  UNL     1     -93.397 -21.791   7.989  1.00  0.00     0.247 HD
ENDBRANCH  27  31
BRANCH  30  33
HETATM   33  C20 UNL     1     -89.192 -18.315   8.608  1.00  0.00     0.080 A 
HETATM   34  C21 UNL     1     -89.292 -17.464   7.515  1.00  0.00     0.140 A 
HETATM   35  N6  UNL     1     -88.185 -16.717   7.464  1.00  0.00    -0.295 N 
HETATM   36  N7  UNL     1     -87.433 -17.096   8.489  1.00  0.00    -0.243 N 
ATOM     37  H6  UNL     1     -87.962 -15.999   6.776  1.00  0.00     0.187 HD
HETATM   38  N8  UNL     1     -88.019 -18.044   9.177  1.00  0.00    -0.284 N 
ATOM     39  H7  UNL     1     -86.519 -16.701   8.712  1.00  0.00     0.208 HD
ATOM     40  H8  UNL     1     -87.641 -18.498  10.008  1.00  0.00     0.188 HD
ENDBRANCH  30  33
ENDBRANCH   4  25
TORSDOF 7
ENDMDL
MODEL 5
REMARK VINA RESULT: -9.285569831      3.945      7.473
REMARK  7 active torsions:
REMARK  status: ('A' for Active; 'I' for Inactive)
REMARK    1  A    between atoms: C2_2  and  C3_3 
REMARK    2  A    between atoms: C3_3  and  C4_4 
REMARK    3  A    between atoms: N3_17  and  C12_18 
REMARK    4  A    between atoms: C12_18  and  C13_19 
REMARK    5  A    between atoms: C16_22  and  C17_23 
REMARK    6  A    between atoms: N5_26  and  O1_27 
REMARK    7  A    between atoms: C19_30  and  C20_31 
ROOT
HETATM    1  C13 UNL     1     -87.318 -16.900  10.236  1.00  0.00    -0.040 A 
HETATM    2  C14 UNL     1     -88.011 -16.778   9.022  1.00  0.00     0.010 A 
HETATM    3  C15 UNL     1     -89.099 -17.599   8.750  1.00  0.00     0.014 A 
HETATM    4  C16 UNL     1     -89.527 -18.544   9.647  1.00  0.00    -0.007 A 
HETATM    5  C22 UNL     1     -88.852 -18.662  10.831  1.00  0.00     0.014 A 
HETATM    6  C23 UNL     1     -87.762 -17.850  11.122  1.00  0.00     0.010 A 
ENDROOT
BRANCH   1   7
HETATM    7  C12 UNL     1     -86.172 -15.996  10.446  1.00  0.00     0.170 C 
BRANCH   7   8
HETATM    8  N3  UNL     1     -84.992 -16.606  11.002  1.00  0.00    -0.317 N 
HETATM    9  C4  UNL     1     -84.172 -17.488  10.407  1.00  0.00     0.085 A 
HETATM   10  N1  UNL     1     -83.186 -17.762  11.315  1.00  0.00    -0.342 N 
HETATM   11  C5  UNL     1     -83.410 -17.062  12.430  1.00  0.00     0.085 A 
ATOM     12  H1  UNL     1     -82.403 -18.399  11.165  1.00  0.00     0.167 HD
HETATM   13  C6  UNL     1     -82.710 -16.994  13.634  1.00  0.00    -0.012 A 
HETATM   14  C11 UNL     1     -84.557 -16.313  12.263  1.00  0.00     0.137 A 
HETATM   15  C7  UNL     1     -81.485 -17.800  13.794  1.00  0.00     0.052 C 
HETATM   16  C8  UNL     1     -83.208 -16.167  14.614  1.00  0.00     0.041 A 
HETATM   17 BR1  UNL     1     -82.234 -16.086  16.257  1.00  0.00    -0.048 Br
HETATM   18  C9  UNL     1     -84.354 -15.419  14.448  1.00  0.00     0.025 A 
HETATM   19  C10 UNL     1     -84.866 -14.530  15.540  1.00  0.00     0.069 C 
HETATM   20  N2  UNL     1     -84.986 -15.525  13.268  1.00  0.00    -0.343 N 
ATOM     21  H2  UNL     1     -85.837 -14.980  13.125  1.00  0.00     0.167 HD
BRANCH   9  22
HETATM   22  C3  UNL     1     -84.274 -18.111   9.054  1.00  0.00     0.076 C 
BRANCH  22  23
HETATM   23  C2  UNL     1     -83.618 -17.193   8.012  1.00  0.00     0.003 C 
HETATM   24  C1  UNL     1     -84.682 -16.523   7.179  1.00  0.00     0.005 C 
ENDBRANCH  22  23
ENDBRANCH   9  22
ENDBRANCH   7   8
ENDBRANCH   1   7
BRANCH   4  25
HETATM   25  C17 UNL     1     -90.650 -19.395   9.370  1.00  0.00     0.074 A 
HETATM   26  N4  UNL     1     -90.659 -20.455   8.542  1.00  0.00    -0.273 N 
HETATM   27  N5  UNL     1     -91.848 -21.021   8.510  1.00  0.00    -0.174 N 
ATOM     28  H4  UNL     1     -89.851 -20.778   8.009  1.00  0.00     0.189 HD
HETATM   29  C18 UNL     1     -92.661 -20.329   9.332  1.00  0.00     0.159 A 
HETATM   30  C19 UNL     1     -91.931 -19.302   9.886  1.00  0.00     0.042 A 
BRANCH  27  31
HETATM   31  O1  UNL     1     -92.268 -22.130   7.786  1.00  0.00    -0.268 OA
ATOM     32  H1  UNL     1     -93.064 -22.639   7.882  1.00  0.00     0.247 HD
ENDBRANCH  27  31
BRANCH  30  33
HETATM   33  C20 UNL     1     -92.417 -18.301  10.839  1.00  0.00     0.080 A 
HETATM   34  C21 UNL     1     -93.418 -17.375  10.574  1.00  0.00     0.140 A 
HETATM   35  N6  UNL     1     -93.597 -16.629  11.669  1.00  0.00    -0.295 N 
HETATM   36  N7  UNL     1     -92.737 -17.081  12.571  1.00  0.00    -0.243 N 
ATOM     37  H6  UNL     1     -94.262 -15.865  11.787  1.00  0.00     0.187 HD
HETATM   38  N8  UNL     1     -92.030 -18.074  12.092  1.00  0.00    -0.284 N 
ATOM     39  H7  UNL     1     -92.639 -16.705  13.515  1.00  0.00     0.208 HD
ATOM     40  H8  UNL     1     -91.306 -18.587  12.594  1.00  0.00     0.188 HD
ENDBRANCH  30  33
ENDBRANCH   4  25
TORSDOF 7
ENDMDL
