MODEL 1
REMARK VINA RESULT: -7.587198688      0.000      0.000
REMARK  11 active torsions:
REMARK  status: ('A' for Active; 'I' for Inactive)
REMARK    1  A    between atoms: C2_2  and  C4_4 
REMARK    2  A    between atoms: C10_10  and  C11_11 
REMARK    3  A    between atoms: C11_11  and  C12_12 
REMARK    4  A    between atoms: C13_13  and  C14_14 
REMARK    5  A    between atoms: C14_14  and  C15_15 
REMARK    6  A    between atoms: C15_15  and  O1_16 
REMARK    7  A    between atoms: C18_21  and  O2_22 
REMARK    8  A    between atoms: O2_22  and  C19_23 
REMARK    9  A    between atoms: C19_23  and  C20_25 
REMARK   10  A    between atoms: C20_25  and  O3_28 
REMARK   11  A    between atoms: C23_30  and  O4_31 
ROOT
HETATM    1  C15 UNL     1     -86.388 -13.169   9.936  1.00  0.00     0.072 C 
HETATM    2  C16 UNL     1     -87.564 -12.486  10.596  1.00  0.00     0.061 C 
HETATM    3  C17 UNL     1     -86.999 -11.752  11.826  1.00  0.00     0.117 C 
HETATM    4 CL1  UNL     1     -88.125 -10.579  12.447  1.00  0.00    -0.122 Cl
HETATM    5  C18 UNL     1     -86.516 -12.800  12.752  1.00  0.00     0.177 C 
HETATM    6  C23 UNL     1     -85.268 -13.404  12.073  1.00  0.00     0.160 C 
HETATM    7  C24 UNL     1     -85.730 -14.163  10.833  1.00  0.00     0.012 C 
HETATM    8  C25 UNL     1     -86.550 -15.337  11.227  1.00  0.00     0.020 C 
HETATM    9  C26 UNL     1     -84.481 -14.666  10.126  1.00  0.00     0.020 C 
ENDROOT
BRANCH   1  10
HETATM   10  C14 UNL     1     -86.711 -13.665   8.557  1.00  0.00     0.065 C 
BRANCH  10  11
HETATM   11  C13 UNL     1     -88.123 -13.847   8.255  1.00  0.00    -0.028 C 
HETATM   12  C12 UNL     1     -88.704 -15.021   8.434  1.00  0.00    -0.030 C 
BRANCH  12  13
HETATM   13  C11 UNL     1     -90.141 -15.223   8.132  1.00  0.00     0.036 C 
BRANCH  13  14
HETATM   14  C10 UNL     1     -90.863 -15.995   9.184  1.00  0.00     0.020 C 
HETATM   15  C4  UNL     1     -92.316 -15.595   9.339  1.00  0.00     0.021 C 
HETATM   16  C5  UNL     1     -92.474 -14.188   9.801  1.00  0.00     0.014 C 
HETATM   17  C6  UNL     1     -91.558 -13.775  10.900  1.00  0.00     0.034 C 
HETATM   18  C7  UNL     1     -90.527 -14.743  11.282  1.00  0.00    -0.087 C 
HETATM   19  C8  UNL     1     -89.831 -14.548  12.612  1.00  0.00     0.043 C 
HETATM   20  C9  UNL     1     -90.214 -15.753  10.497  1.00  0.00    -0.019 C 
BRANCH  15  21
HETATM   21  C2  UNL     1     -93.010 -16.607  10.146  1.00  0.00    -0.088 C 
HETATM   22  C1  UNL     1     -93.747 -16.336  11.207  1.00  0.00     0.014 C 
HETATM   23  C3  UNL     1     -92.901 -18.062   9.772  1.00  0.00     0.043 C 
ENDBRANCH  15  21
ENDBRANCH  13  14
ENDBRANCH  12  13
ENDBRANCH  10  11
ENDBRANCH   1  10
BRANCH   1  24
HETATM   24  O1  UNL     1     -85.428 -12.142   9.730  1.00  0.00    -0.389 OA
ATOM     25  H1  UNL     1     -85.888 -11.339   9.944  1.00  0.00     0.210 HD
ENDBRANCH   1  24
BRANCH   6  26
HETATM   26  O4  UNL     1     -84.316 -12.445  11.800  1.00  0.00    -0.392 OA
ATOM     27  H4  UNL     1     -83.833 -12.193  12.578  1.00  0.00     0.210 HD
ENDBRANCH   6  26
BRANCH   5  28
HETATM   28  O2  UNL     1     -86.279 -12.486  14.065  1.00  0.00    -0.332 OA
BRANCH  28  29
HETATM   29  C19 UNL     1     -86.549 -13.137  15.228  1.00  0.00     0.147 C 
HETATM   30  S1  UNL     1     -85.355 -14.077  15.886  1.00  0.00    -0.054 SA
BRANCH  29  31
HETATM   31  C20 UNL     1     -87.808 -13.085  15.971  1.00  0.00     0.109 C 
HETATM   32  C21 UNL     1     -88.527 -14.391  16.129  1.00  0.00     0.053 C 
HETATM   33  C22 UNL     1     -87.571 -12.543  17.359  1.00  0.00     0.053 C 
BRANCH  31  34
HETATM   34  O3  UNL     1     -88.617 -12.130  15.320  1.00  0.00    -0.383 OA
ATOM     35  H3  UNL     1     -89.058 -12.588  14.614  1.00  0.00     0.211 HD
ENDBRANCH  31  34
ENDBRANCH  29  31
ENDBRANCH  28  29
ENDBRANCH   5  28
TORSDOF 11
ENDMDL
MODEL 2
REMARK VINA RESULT: -7.282385970      0.905      1.245
REMARK  11 active torsions:
REMARK  status: ('A' for Active; 'I' for Inactive)
REMARK    1  A    between atoms: C2_2  and  C4_4 
REMARK    2  A    between atoms: C10_10  and  C11_11 
REMARK    3  A    between atoms: C11_11  and  C12_12 
REMARK    4  A    between atoms: C13_13  and  C14_14 
REMARK    5  A    between atoms: C14_14  and  C15_15 
REMARK    6  A    between atoms: C15_15  and  O1_16 
REMARK    7  A    between atoms: C18_21  and  O2_22 
REMARK    8  A    between atoms: O2_22  and  C19_23 
REMARK    9  A    between atoms: C19_23  and  C20_25 
REMARK   10  A    between atoms: C20_25  and  O3_28 
REMARK   11  A    between atoms: C23_30  and  O4_31 
ROOT
HETATM    1  C15 UNL     1     -86.344 -12.996  10.350  1.00  0.00     0.072 C 
HETATM    2  C16 UNL     1     -87.570 -12.469  11.060  1.00  0.00     0.061 C 
HETATM    3  C17 UNL     1     -87.071 -11.855  12.381  1.00  0.00     0.117 C 
HETATM    4 CL1  UNL     1     -88.276 -10.835  13.111  1.00  0.00    -0.122 Cl
HETATM    5  C18 UNL     1     -86.537 -12.977  13.187  1.00  0.00     0.177 C 
HETATM    6  C23 UNL     1     -85.244 -13.419  12.469  1.00  0.00     0.160 C 
HETATM    7  C24 UNL     1     -85.639 -14.050  11.137  1.00  0.00     0.012 C 
HETATM    8  C25 UNL     1     -86.391 -15.309  11.370  1.00  0.00     0.020 C 
HETATM    9  C26 UNL     1     -84.351 -14.389  10.404  1.00  0.00     0.020 C 
ENDROOT
BRANCH   1  10
HETATM   10  C14 UNL     1     -86.614 -13.341   8.915  1.00  0.00     0.065 C 
BRANCH  10  11
HETATM   11  C13 UNL     1     -88.009 -13.566   8.561  1.00  0.00    -0.028 C 
HETATM   12  C12 UNL     1     -88.506 -14.790   8.531  1.00  0.00    -0.030 C 
BRANCH  12  13
HETATM   13  C11 UNL     1     -89.924 -15.037   8.173  1.00  0.00     0.036 C 
BRANCH  13  14
HETATM   14  C10 UNL     1     -90.630 -15.930   9.136  1.00  0.00     0.020 C 
HETATM   15  C4  UNL     1     -92.114 -15.645   9.251  1.00  0.00     0.021 C 
HETATM   16  C5  UNL     1     -92.392 -14.289   9.800  1.00  0.00     0.014 C 
HETATM   17  C6  UNL     1     -91.555 -13.892  10.966  1.00  0.00     0.034 C 
HETATM   18  C7  UNL     1     -90.472 -14.811  11.328  1.00  0.00    -0.087 C 
HETATM   19  C8  UNL     1     -89.847 -14.663  12.698  1.00  0.00     0.043 C 
HETATM   20  C9  UNL     1     -90.054 -15.737  10.490  1.00  0.00    -0.019 C 
BRANCH  15  21
HETATM   21  C2  UNL     1     -92.763 -16.758   9.954  1.00  0.00    -0.088 C 
HETATM   22  C1  UNL     1     -92.611 -18.030   9.636  1.00  0.00     0.014 C 
HETATM   23  C3  UNL     1     -93.670 -16.475  11.123  1.00  0.00     0.043 C 
ENDBRANCH  15  21
ENDBRANCH  13  14
ENDBRANCH  12  13
ENDBRANCH  10  11
ENDBRANCH   1  10
BRANCH   1  24
HETATM   24  O1  UNL     1     -85.446 -11.897  10.289  1.00  0.00    -0.389 OA
ATOM     25  H1  UNL     1     -86.009 -11.131  10.265  1.00  0.00     0.210 HD
ENDBRANCH   1  24
BRANCH   6  26
HETATM   26  O4  UNL     1     -84.349 -12.379  12.333  1.00  0.00    -0.392 OA
ATOM     27  H4  UNL     1     -83.641 -12.596  11.740  1.00  0.00     0.210 HD
ENDBRANCH   6  26
BRANCH   5  28
HETATM   28  O2  UNL     1     -86.341 -12.809  14.532  1.00  0.00    -0.332 OA
BRANCH  28  29
HETATM   29  C19 UNL     1     -86.232 -13.690  15.562  1.00  0.00     0.147 C 
HETATM   30  S1  UNL     1     -84.766 -13.816  16.323  1.00  0.00    -0.054 SA
BRANCH  29  31
HETATM   31  C20 UNL     1     -87.297 -14.551  16.075  1.00  0.00     0.109 C 
HETATM   32  C21 UNL     1     -88.667 -13.944  16.110  1.00  0.00     0.053 C 
HETATM   33  C22 UNL     1     -87.394 -15.809  15.245  1.00  0.00     0.053 C 
BRANCH  31  34
HETATM   34  O3  UNL     1     -86.888 -14.970  17.358  1.00  0.00    -0.383 OA
ATOM     35  H3  UNL     1     -85.951 -15.115  17.307  1.00  0.00     0.211 HD
ENDBRANCH  31  34
ENDBRANCH  29  31
ENDBRANCH  28  29
ENDBRANCH   5  28
TORSDOF 11
ENDMDL
MODEL 3
REMARK VINA RESULT: -7.274188174      1.139      2.138
REMARK  11 active torsions:
REMARK  status: ('A' for Active; 'I' for Inactive)
REMARK    1  A    between atoms: C2_2  and  C4_4 
REMARK    2  A    between atoms: C10_10  and  C11_11 
REMARK    3  A    between atoms: C11_11  and  C12_12 
REMARK    4  A    between atoms: C13_13  and  C14_14 
REMARK    5  A    between atoms: C14_14  and  C15_15 
REMARK    6  A    between atoms: C15_15  and  O1_16 
REMARK    7  A    between atoms: C18_21  and  O2_22 
REMARK    8  A    between atoms: O2_22  and  C19_23 
REMARK    9  A    between atoms: C19_23  and  C20_25 
REMARK   10  A    between atoms: C20_25  and  O3_28 
REMARK   11  A    between atoms: C23_30  and  O4_31 
ROOT
HETATM    1  C15 UNL     1     -85.896 -12.807  10.406  1.00  0.00     0.072 C 
HETATM    2  C16 UNL     1     -87.253 -12.514  11.006  1.00  0.00     0.061 C 
HETATM    3  C17 UNL     1     -86.984 -11.897  12.392  1.00  0.00     0.117 C 
HETATM    4 CL1  UNL     1     -88.401 -11.115  13.031  1.00  0.00    -0.122 Cl
HETATM    5  C18 UNL     1     -86.357 -12.961  13.208  1.00  0.00     0.177 C 
HETATM    6  C23 UNL     1     -84.948 -13.160  12.609  1.00  0.00     0.160 C 
HETATM    7  C24 UNL     1     -85.110 -13.777  11.224  1.00  0.00     0.012 C 
HETATM    8  C25 UNL     1     -85.670 -15.148  11.335  1.00  0.00     0.020 C 
HETATM    9  C26 UNL     1     -83.721 -13.874  10.613  1.00  0.00     0.020 C 
ENDROOT
BRANCH   1  10
HETATM   10  C14 UNL     1     -85.972 -13.118   8.940  1.00  0.00     0.065 C 
BRANCH  10  11
HETATM   11  C13 UNL     1     -86.982 -14.088   8.541  1.00  0.00    -0.028 C 
HETATM   12  C12 UNL     1     -88.185 -13.689   8.164  1.00  0.00    -0.030 C 
BRANCH  12  13
HETATM   13  C11 UNL     1     -89.225 -14.663   7.754  1.00  0.00     0.036 C 
BRANCH  13  14
HETATM   14  C10 UNL     1     -90.477 -14.565   8.559  1.00  0.00     0.020 C 
HETATM   15  C4  UNL     1     -90.236 -14.569  10.055  1.00  0.00     0.021 C 
HETATM   16  C5  UNL     1     -89.640 -15.848  10.532  1.00  0.00     0.014 C 
HETATM   17  C6  UNL     1     -90.245 -17.082   9.961  1.00  0.00     0.034 C 
HETATM   18  C7  UNL     1     -91.236 -16.886   8.900  1.00  0.00    -0.087 C 
HETATM   19  C8  UNL     1     -92.144 -18.047   8.555  1.00  0.00     0.043 C 
HETATM   20  C9  UNL     1     -91.337 -15.738   8.263  1.00  0.00    -0.019 C 
BRANCH  15  21
HETATM   21  C2  UNL     1     -91.465 -14.150  10.740  1.00  0.00    -0.088 C 
HETATM   22  C1  UNL     1     -91.778 -14.483  11.978  1.00  0.00     0.014 C 
HETATM   23  C3  UNL     1     -92.461 -13.279  10.020  1.00  0.00     0.043 C 
ENDBRANCH  15  21
ENDBRANCH  13  14
ENDBRANCH  12  13
ENDBRANCH  10  11
ENDBRANCH   1  10
BRANCH   1  24
HETATM   24  O1  UNL     1     -85.184 -11.580  10.474  1.00  0.00    -0.389 OA
ATOM     25  H1  UNL     1     -84.978 -11.475  11.396  1.00  0.00     0.210 HD
ENDBRANCH   1  24
BRANCH   6  26
HETATM   26  O4  UNL     1     -84.222 -11.988  12.601  1.00  0.00    -0.392 OA
ATOM     27  H4  UNL     1     -83.300 -12.144  12.439  1.00  0.00     0.210 HD
ENDBRANCH   6  26
BRANCH   5  28
HETATM   28  O2  UNL     1     -86.318 -12.832  14.571  1.00  0.00    -0.332 OA
BRANCH  28  29
HETATM   29  C19 UNL     1     -86.867 -13.561  15.579  1.00  0.00     0.147 C 
HETATM   30  S1  UNL     1     -85.926 -14.716  16.303  1.00  0.00    -0.054 SA
BRANCH  29  31
HETATM   31  C20 UNL     1     -88.227 -13.423  16.099  1.00  0.00     0.109 C 
HETATM   32  C21 UNL     1     -89.327 -13.838  15.168  1.00  0.00     0.053 C 
HETATM   33  C22 UNL     1     -88.387 -14.238  17.359  1.00  0.00     0.053 C 
BRANCH  31  34
HETATM   34  O3  UNL     1     -88.369 -12.077  16.492  1.00  0.00    -0.383 OA
ATOM     35  H3  UNL     1     -88.820 -12.087  17.329  1.00  0.00     0.211 HD
ENDBRANCH  31  34
ENDBRANCH  29  31
ENDBRANCH  28  29
ENDBRANCH   5  28
TORSDOF 11
ENDMDL
MODEL 4
REMARK VINA RESULT: -7.253412163      1.304      1.767
REMARK  11 active torsions:
REMARK  status: ('A' for Active; 'I' for Inactive)
REMARK    1  A    between atoms: C2_2  and  C4_4 
REMARK    2  A    between atoms: C10_10  and  C11_11 
REMARK    3  A    between atoms: C11_11  and  C12_12 
REMARK    4  A    between atoms: C13_13  and  C14_14 
REMARK    5  A    between atoms: C14_14  and  C15_15 
REMARK    6  A    between atoms: C15_15  and  O1_16 
REMARK    7  A    between atoms: C18_21  and  O2_22 
REMARK    8  A    between atoms: O2_22  and  C19_23 
REMARK    9  A    between atoms: C19_23  and  C20_25 
REMARK   10  A    between atoms: C20_25  and  O3_28 
REMARK   11  A    between atoms: C23_30  and  O4_31 
ROOT
HETATM    1  C15 UNL     1     -86.208 -12.889  10.473  1.00  0.00     0.072 C 
HETATM    2  C16 UNL     1     -87.497 -12.396  11.092  1.00  0.00     0.061 C 
HETATM    3  C17 UNL     1     -87.091 -11.584  12.337  1.00  0.00     0.117 C 
HETATM    4 CL1  UNL     1     -88.403 -10.600  12.916  1.00  0.00    -0.122 Cl
HETATM    5  C18 UNL     1     -86.482 -12.547  13.282  1.00  0.00     0.177 C 
HETATM    6  C23 UNL     1     -85.135 -12.952  12.645  1.00  0.00     0.160 C 
HETATM    7  C24 UNL     1     -85.434 -13.771  11.394  1.00  0.00     0.012 C 
HETATM    8  C25 UNL     1     -86.077 -15.057  11.766  1.00  0.00     0.020 C 
HETATM    9  C26 UNL     1     -84.102 -14.076  10.729  1.00  0.00     0.020 C 
ENDROOT
BRANCH   1  10
HETATM   10  C14 UNL     1     -86.407 -13.427   9.086  1.00  0.00     0.065 C 
BRANCH  10  11
HETATM   11  C13 UNL     1     -87.787 -13.620   8.664  1.00  0.00    -0.028 C 
HETATM   12  C12 UNL     1     -88.354 -14.811   8.742  1.00  0.00    -0.030 C 
BRANCH  12  13
HETATM   13  C11 UNL     1     -89.758 -15.025   8.317  1.00  0.00     0.036 C 
BRANCH  13  14
HETATM   14  C10 UNL     1     -90.545 -15.858   9.272  1.00  0.00     0.020 C 
HETATM   15  C4  UNL     1     -91.993 -15.429   9.400  1.00  0.00     0.021 C 
HETATM   16  C5  UNL     1     -92.132 -14.060   9.969  1.00  0.00     0.014 C 
HETATM   17  C6  UNL     1     -91.254 -13.765  11.135  1.00  0.00     0.034 C 
HETATM   18  C7  UNL     1     -90.266 -14.791  11.478  1.00  0.00    -0.087 C 
HETATM   19  C8  UNL     1     -89.623 -14.725  12.846  1.00  0.00     0.043 C 
HETATM   20  C9  UNL     1     -89.946 -15.742  10.625  1.00  0.00    -0.019 C 
BRANCH  15  21
HETATM   21  C2  UNL     1     -92.746 -16.482  10.092  1.00  0.00    -0.088 C 
HETATM   22  C1  UNL     1     -93.545 -16.271  11.122  1.00  0.00     0.014 C 
HETATM   23  C3  UNL     1     -92.631 -17.910   9.628  1.00  0.00     0.043 C 
ENDBRANCH  15  21
ENDBRANCH  13  14
ENDBRANCH  12  13
ENDBRANCH  10  11
ENDBRANCH   1  10
BRANCH   1  24
HETATM   24  O1  UNL     1     -85.412 -11.727  10.293  1.00  0.00    -0.389 OA
ATOM     25  H1  UNL     1     -85.821 -11.070  10.844  1.00  0.00     0.210 HD
ENDBRANCH   1  24
BRANCH   6  26
HETATM   26  O4  UNL     1     -84.333 -11.857  12.398  1.00  0.00    -0.392 OA
ATOM     27  H4  UNL     1     -83.805 -11.628  13.153  1.00  0.00     0.210 HD
ENDBRANCH   6  26
BRANCH   5  28
HETATM   28  O2  UNL     1     -86.339 -12.202  14.600  1.00  0.00    -0.332 OA
BRANCH  28  29
HETATM   29  C19 UNL     1     -85.341 -12.407  15.500  1.00  0.00     0.147 C 
HETATM   30  S1  UNL     1     -85.220 -13.906  16.196  1.00  0.00    -0.054 SA
BRANCH  29  31
HETATM   31  C20 UNL     1     -84.345 -11.423  15.921  1.00  0.00     0.109 C 
HETATM   32  C21 UNL     1     -84.407 -11.004  17.359  1.00  0.00     0.053 C 
HETATM   33  C22 UNL     1     -82.953 -11.954  15.678  1.00  0.00     0.053 C 
BRANCH  31  34
HETATM   34  O3  UNL     1     -84.488 -10.316  15.058  1.00  0.00    -0.383 OA
ATOM     35  H3  UNL     1     -83.691 -10.272  14.543  1.00  0.00     0.211 HD
ENDBRANCH  31  34
ENDBRANCH  29  31
ENDBRANCH  28  29
ENDBRANCH   5  28
TORSDOF 11
ENDMDL
MODEL 5
REMARK VINA RESULT: -7.056758028      1.297      2.324
REMARK  11 active torsions:
REMARK  status: ('A' for Active; 'I' for Inactive)
REMARK    1  A    between atoms: C2_2  and  C4_4 
REMARK    2  A    between atoms: C10_10  and  C11_11 
REMARK    3  A    between atoms: C11_11  and  C12_12 
REMARK    4  A    between atoms: C13_13  and  C14_14 
REMARK    5  A    between atoms: C14_14  and  C15_15 
REMARK    6  A    between atoms: C15_15  and  O1_16 
REMARK    7  A    between atoms: C18_21  and  O2_22 
REMARK    8  A    between atoms: O2_22  and  C19_23 
REMARK    9  A    between atoms: C19_23  and  C20_25 
REMARK   10  A    between atoms: C20_25  and  O3_28 
REMARK   11  A    between atoms: C23_30  and  O4_31 
ROOT
HETATM    1  C15 UNL     1     -85.995 -12.843  10.945  1.00  0.00     0.072 C 
HETATM    2  C16 UNL     1     -87.374 -12.401  11.381  1.00  0.00     0.061 C 
HETATM    3  C17 UNL     1     -87.220 -11.875  12.821  1.00  0.00     0.117 C 
HETATM    4 CL1  UNL     1     -88.603 -10.943  13.315  1.00  0.00    -0.122 Cl
HETATM    5  C18 UNL     1     -86.840 -13.040  13.652  1.00  0.00     0.177 C 
HETATM    6  C23 UNL     1     -85.399 -13.395  13.229  1.00  0.00     0.160 C 
HETATM    7  C24 UNL     1     -85.448 -13.934  11.803  1.00  0.00     0.012 C 
HETATM    8  C25 UNL     1     -86.180 -15.226  11.769  1.00  0.00     0.020 C 
HETATM    9  C26 UNL     1     -84.012 -14.185  11.370  1.00  0.00     0.020 C 
ENDROOT
BRANCH   1  10
HETATM   10  C14 UNL     1     -85.912 -13.087   9.467  1.00  0.00     0.065 C 
BRANCH  10  11
HETATM   11  C13 UNL     1     -86.847 -14.062   8.923  1.00  0.00    -0.028 C 
HETATM   12  C12 UNL     1     -88.020 -13.678   8.451  1.00  0.00    -0.030 C 
BRANCH  12  13
HETATM   13  C11 UNL     1     -88.984 -14.657   7.894  1.00  0.00     0.036 C 
BRANCH  13  14
HETATM   14  C10 UNL     1     -90.342 -14.563   8.504  1.00  0.00     0.020 C 
HETATM   15  C4  UNL     1     -90.324 -14.534  10.020  1.00  0.00     0.021 C 
HETATM   16  C5  UNL     1     -89.789 -15.794  10.607  1.00  0.00     0.014 C 
HETATM   17  C6  UNL     1     -90.288 -17.049   9.979  1.00  0.00     0.034 C 
HETATM   18  C7  UNL     1     -91.114 -16.889   8.780  1.00  0.00    -0.087 C 
HETATM   19  C8  UNL     1     -91.947 -18.070   8.331  1.00  0.00     0.043 C 
HETATM   20  C9  UNL     1     -91.135 -15.754   8.111  1.00  0.00    -0.019 C 
BRANCH  15  21
HETATM   21  C2  UNL     1     -91.645 -14.121  10.507  1.00  0.00    -0.088 C 
HETATM   22  C1  UNL     1     -92.420 -13.240   9.902  1.00  0.00     0.014 C 
HETATM   23  C3  UNL     1     -92.193 -14.718  11.777  1.00  0.00     0.043 C 
ENDBRANCH  15  21
ENDBRANCH  13  14
ENDBRANCH  12  13
ENDBRANCH  10  11
ENDBRANCH   1  10
BRANCH   1  24
HETATM   24  O1  UNL     1     -85.155 -11.720  11.169  1.00  0.00    -0.389 OA
ATOM     25  H1  UNL     1     -85.615 -11.205  11.821  1.00  0.00     0.210 HD
ENDBRANCH   1  24
BRANCH   6  26
HETATM   26  O4  UNL     1     -84.542 -12.325  13.376  1.00  0.00    -0.392 OA
ATOM     27  H4  UNL     1     -84.996 -11.494  13.304  1.00  0.00     0.210 HD
ENDBRANCH   6  26
BRANCH   5  28
HETATM   28  O2  UNL     1     -86.968 -12.968  15.014  1.00  0.00    -0.332 OA
BRANCH  28  29
HETATM   29  C19 UNL     1     -86.999 -13.918  15.986  1.00  0.00     0.147 C 
HETATM   30  S1  UNL     1     -85.739 -13.972  17.059  1.00  0.00    -0.054 SA
BRANCH  29  31
HETATM   31  C20 UNL     1     -88.053 -14.913  16.183  1.00  0.00     0.109 C 
HETATM   32  C21 UNL     1     -88.341 -15.801  15.011  1.00  0.00     0.053 C 
HETATM   33  C22 UNL     1     -87.706 -15.815  17.343  1.00  0.00     0.053 C 
BRANCH  31  34
HETATM   34  O3  UNL     1     -89.203 -14.201  16.583  1.00  0.00    -0.383 OA
ATOM     35  H3  UNL     1     -88.941 -13.657  17.316  1.00  0.00     0.211 HD
ENDBRANCH  31  34
ENDBRANCH  29  31
ENDBRANCH  28  29
ENDBRANCH   5  28
TORSDOF 11
ENDMDL
