MODEL 1
REMARK VINA RESULT: -7.764582518      0.000      0.000
REMARK  9 active torsions:
REMARK  status: ('A' for Active; 'I' for Inactive)
REMARK    1  A    between atoms: C2_2  and  C22_31 
REMARK    2  A    between atoms: C3_3  and  C4_4 
REMARK    3  A    between atoms: C5_5  and  C6_6 
REMARK    4  A    between atoms: C9_9  and  C10_10 
REMARK    5  A    between atoms: C19_22  and  O3_23 
REMARK    6  A    between atoms: C19_22  and  C20_25 
REMARK    7  A    between atoms: C20_25  and  O4_26 
REMARK    8  A    between atoms: C20_25  and  C21_28 
REMARK    9  A    between atoms: C21_28  and  O5_29 
ROOT
HETATM    1  C6  UNL     1     -89.705 -14.812  10.578  1.00  0.00     0.026 C 
HETATM    2  C7  UNL     1     -88.908 -15.999  11.020  1.00  0.00     0.018 C 
HETATM    3  C8  UNL     1     -88.073 -15.496  12.199  1.00  0.00     0.011 C 
HETATM    4  C9  UNL     1     -89.126 -14.711  12.942  1.00  0.00     0.030 C 
HETATM    5  C14 UNL     1     -89.871 -14.007  11.850  1.00  0.00    -0.021 C 
HETATM    6  C15 UNL     1     -89.349 -12.611  11.555  1.00  0.00     0.017 C 
HETATM    7  C16 UNL     1     -91.285 -13.832  12.302  1.00  0.00     0.018 C 
HETATM    8  C17 UNL     1     -92.214 -13.284  11.240  1.00  0.00     0.082 C 
HETATM    9  C18 UNL     1     -91.936 -14.048  10.003  1.00  0.00     0.165 C 
HETATM   10  O2  UNL     1     -92.409 -13.665   8.962  1.00  0.00    -0.294 OA
HETATM   11  C19 UNL     1     -91.094 -15.249  10.068  1.00  0.00     0.157 C 
ENDROOT
BRANCH  11  12
HETATM   12  O3  UNL     1     -91.555 -16.229  10.956  1.00  0.00    -0.378 OA
ATOM     13  H3  UNL     1     -92.462 -16.396  10.728  1.00  0.00     0.211 HD
ENDBRANCH  11  12
BRANCH  11  14
HETATM   14  C20 UNL     1     -90.992 -15.893   8.732  1.00  0.00     0.184 C 
BRANCH  14  15
HETATM   15  O4  UNL     1     -91.396 -15.016   7.724  1.00  0.00    -0.390 OA
ATOM     16  H4  UNL     1     -92.335 -15.068   7.585  1.00  0.00     0.210 HD
ENDBRANCH  14  15
BRANCH  14  17
HETATM   17  C21 UNL     1     -91.811 -17.154   8.582  1.00  0.00     0.199 C 
BRANCH  17  18
HETATM   18  O5  UNL     1     -90.867 -18.196   8.408  1.00  0.00    -0.398 OA
ATOM     19  H5  UNL     1     -91.129 -18.642   7.610  1.00  0.00     0.209 HD
ENDBRANCH  17  18
ENDBRANCH  14  17
ENDBRANCH  11  14
BRANCH   1  20
HETATM   20  C5  UNL     1     -88.955 -14.072   9.551  1.00  0.00    -0.013 C 
HETATM   21  C4  UNL     1     -88.003 -14.498   8.778  1.00  0.00    -0.003 C 
BRANCH  21  22
HETATM   22  C3  UNL     1     -87.323 -13.677   7.789  1.00  0.00     0.003 C 
HETATM   23  C2  UNL     1     -86.023 -13.487   7.824  1.00  0.00    -0.074 C 
HETATM   24  C1  UNL     1     -85.199 -14.125   8.905  1.00  0.00     0.044 C 
BRANCH  23  25
HETATM   25  C22 UNL     1     -85.323 -12.651   6.818  1.00  0.00     0.119 C 
HETATM   26  S1  UNL     1     -83.560 -13.069   6.804  1.00  0.00    -0.093 SA
ENDBRANCH  23  25
ENDBRANCH  21  22
ENDBRANCH   1  20
BRANCH   4  27
HETATM   27  C10 UNL     1     -88.600 -13.862  14.007  1.00  0.00    -0.028 A 
HETATM   28  C11 UNL     1     -89.311 -13.449  15.138  1.00  0.00     0.150 A 
HETATM   29  O1  UNL     1     -88.523 -12.707  15.874  1.00  0.00    -0.315 OA
HETATM   30  C12 UNL     1     -87.335 -12.578  15.342  1.00  0.00     0.121 A 
HETATM   31 BR1  UNL     1     -85.854 -11.578  16.071  1.00  0.00    -0.023 Br
HETATM   32  C13 UNL     1     -87.356 -13.294  14.168  1.00  0.00     0.054 A 
ENDBRANCH   4  27
TORSDOF 9
ENDMDL
MODEL 2
REMARK VINA RESULT: -7.621596390      4.141      7.250
REMARK  9 active torsions:
REMARK  status: ('A' for Active; 'I' for Inactive)
REMARK    1  A    between atoms: C2_2  and  C22_31 
REMARK    2  A    between atoms: C3_3  and  C4_4 
REMARK    3  A    between atoms: C5_5  and  C6_6 
REMARK    4  A    between atoms: C9_9  and  C10_10 
REMARK    5  A    between atoms: C19_22  and  O3_23 
REMARK    6  A    between atoms: C19_22  and  C20_25 
REMARK    7  A    between atoms: C20_25  and  O4_26 
REMARK    8  A    between atoms: C20_25  and  C21_28 
REMARK    9  A    between atoms: C21_28  and  O5_29 
ROOT
HETATM    1  C6  UNL     1     -87.934 -14.624  13.481  1.00  0.00     0.026 C 
HETATM    2  C7  UNL     1     -86.488 -14.242  13.518  1.00  0.00     0.018 C 
HETATM    3  C8  UNL     1     -86.008 -14.374  12.071  1.00  0.00     0.011 C 
HETATM    4  C9  UNL     1     -87.161 -13.712  11.359  1.00  0.00     0.030 C 
HETATM    5  C14 UNL     1     -88.364 -14.235  12.082  1.00  0.00    -0.021 C 
HETATM    6  C15 UNL     1     -88.968 -15.477  11.448  1.00  0.00     0.017 C 
HETATM    7  C16 UNL     1     -89.425 -13.183  12.022  1.00  0.00     0.018 C 
HETATM    8  C17 UNL     1     -90.652 -13.488  12.854  1.00  0.00     0.082 C 
HETATM    9  C18 UNL     1     -90.161 -13.950  14.172  1.00  0.00     0.165 C 
HETATM   10  O2  UNL     1     -90.944 -14.443  14.945  1.00  0.00    -0.294 OA
HETATM   11  C19 UNL     1     -88.740 -13.801  14.508  1.00  0.00     0.157 C 
ENDROOT
BRANCH  11  12
HETATM   12  O3  UNL     1     -88.264 -12.487  14.430  1.00  0.00    -0.378 OA
ATOM     13  H3  UNL     1     -88.149 -12.295  13.507  1.00  0.00     0.211 HD
ENDBRANCH  11  12
BRANCH  11  14
HETATM   14  C20 UNL     1     -88.475 -14.273  15.893  1.00  0.00     0.184 C 
BRANCH  14  15
HETATM   15  O4  UNL     1     -89.639 -14.235  16.663  1.00  0.00    -0.390 OA
ATOM     16  H4  UNL     1     -90.274 -13.636  16.288  1.00  0.00     0.210 HD
ENDBRANCH  14  15
BRANCH  14  17
HETATM   17  C21 UNL     1     -87.423 -13.480  16.633  1.00  0.00     0.199 C 
BRANCH  17  18
HETATM   18  O5  UNL     1     -88.104 -12.357  17.163  1.00  0.00    -0.398 OA
ATOM     19  H5  UNL     1     -88.426 -11.877  16.408  1.00  0.00     0.209 HD
ENDBRANCH  17  18
ENDBRANCH  14  17
ENDBRANCH  11  14
BRANCH   1  20
HETATM   20  C5  UNL     1     -88.067 -16.070  13.716  1.00  0.00    -0.013 C 
HETATM   21  C4  UNL     1     -87.273 -16.860  14.373  1.00  0.00    -0.003 C 
BRANCH  21  22
HETATM   22  C3  UNL     1     -87.499 -18.286  14.547  1.00  0.00     0.003 C 
HETATM   23  C2  UNL     1     -87.921 -18.785  15.688  1.00  0.00    -0.074 C 
HETATM   24  C1  UNL     1     -88.184 -17.877  16.854  1.00  0.00     0.044 C 
BRANCH  23  25
HETATM   25  C22 UNL     1     -88.154 -20.239  15.872  1.00  0.00     0.119 C 
HETATM   26  S1  UNL     1     -89.664 -20.492  16.842  1.00  0.00    -0.093 SA
ENDBRANCH  23  25
ENDBRANCH  21  22
ENDBRANCH   1  20
BRANCH   4  27
HETATM   27  C10 UNL     1     -87.157 -13.899   9.910  1.00  0.00    -0.028 A 
HETATM   28  C11 UNL     1     -86.267 -14.713   9.202  1.00  0.00     0.150 A 
HETATM   29  O1  UNL     1     -86.564 -14.640   7.929  1.00  0.00    -0.315 OA
HETATM   30  C12 UNL     1     -87.581 -13.846   7.708  1.00  0.00     0.121 A 
HETATM   31 BR1  UNL     1     -88.366 -13.439   5.993  1.00  0.00    -0.023 Br
HETATM   32  C13 UNL     1     -87.973 -13.367   8.936  1.00  0.00     0.054 A 
ENDBRANCH   4  27
TORSDOF 9
ENDMDL
MODEL 3
REMARK VINA RESULT: -7.257332926      3.766      5.776
REMARK  9 active torsions:
REMARK  status: ('A' for Active; 'I' for Inactive)
REMARK    1  A    between atoms: C2_2  and  C22_31 
REMARK    2  A    between atoms: C3_3  and  C4_4 
REMARK    3  A    between atoms: C5_5  and  C6_6 
REMARK    4  A    between atoms: C9_9  and  C10_10 
REMARK    5  A    between atoms: C19_22  and  O3_23 
REMARK    6  A    between atoms: C19_22  and  C20_25 
REMARK    7  A    between atoms: C20_25  and  O4_26 
REMARK    8  A    between atoms: C20_25  and  C21_28 
REMARK    9  A    between atoms: C21_28  and  O5_29 
ROOT
HETATM    1  C6  UNL     1     -88.324 -14.218  12.507  1.00  0.00     0.026 C 
HETATM    2  C7  UNL     1     -87.976 -13.264  13.605  1.00  0.00     0.018 C 
HETATM    3  C8  UNL     1     -86.521 -12.868  13.338  1.00  0.00     0.011 C 
HETATM    4  C9  UNL     1     -86.589 -12.640  11.848  1.00  0.00     0.030 C 
HETATM    5  C14 UNL     1     -87.441 -13.771  11.360  1.00  0.00    -0.021 C 
HETATM    6  C15 UNL     1     -86.648 -14.989  10.918  1.00  0.00     0.017 C 
HETATM    7  C16 UNL     1     -88.178 -13.296  10.150  1.00  0.00     0.018 C 
HETATM    8  C17 UNL     1     -89.215 -14.270   9.631  1.00  0.00     0.082 C 
HETATM    9  C18 UNL     1     -89.979 -14.737  10.809  1.00  0.00     0.165 C 
HETATM   10  O2  UNL     1     -90.732 -15.671  10.683  1.00  0.00    -0.294 OA
HETATM   11  C19 UNL     1     -89.804 -14.061  12.100  1.00  0.00     0.157 C 
ENDROOT
BRANCH  11  12
HETATM   12  O3  UNL     1     -90.067 -12.686  12.070  1.00  0.00    -0.378 OA
ATOM     13  H3  UNL     1     -90.219 -12.420  12.969  1.00  0.00     0.211 HD
ENDBRANCH  11  12
BRANCH  11  14
HETATM   14  C20 UNL     1     -90.704 -14.649  13.128  1.00  0.00     0.184 C 
BRANCH  14  15
HETATM   15  O4  UNL     1     -92.024 -14.679  12.676  1.00  0.00    -0.390 OA
ATOM     16  H4  UNL     1     -92.630 -14.511  13.389  1.00  0.00     0.210 HD
ENDBRANCH  14  15
BRANCH  14  17
HETATM   17  C21 UNL     1     -90.700 -13.921  14.451  1.00  0.00     0.199 C 
BRANCH  17  18
HETATM   18  O5  UNL     1     -91.518 -14.696  15.309  1.00  0.00    -0.398 OA
ATOM     19  H5  UNL     1     -91.360 -15.600  15.059  1.00  0.00     0.209 HD
ENDBRANCH  17  18
ENDBRANCH  14  17
ENDBRANCH  11  14
BRANCH   1  20
HETATM   20  C5  UNL     1     -88.018 -15.592  12.934  1.00  0.00    -0.013 C 
HETATM   21  C4  UNL     1     -87.621 -16.009  14.098  1.00  0.00    -0.003 C 
BRANCH  21  22
HETATM   22  C3  UNL     1     -87.345 -17.401  14.417  1.00  0.00     0.003 C 
HETATM   23  C2  UNL     1     -86.125 -17.888  14.382  1.00  0.00    -0.074 C 
HETATM   24  C1  UNL     1     -84.972 -17.004  14.006  1.00  0.00     0.044 C 
BRANCH  23  25
HETATM   25  C22 UNL     1     -85.836 -19.307  14.707  1.00  0.00     0.119 C 
HETATM   26  S1  UNL     1     -87.319 -20.309  14.418  1.00  0.00    -0.093 SA
ENDBRANCH  23  25
ENDBRANCH  21  22
ENDBRANCH   1  20
BRANCH   4  27
HETATM   27  C10 UNL     1     -85.286 -12.499  11.204  1.00  0.00    -0.028 A 
HETATM   28  C11 UNL     1     -84.063 -12.892  11.757  1.00  0.00     0.150 A 
HETATM   29  O1  UNL     1     -83.114 -12.619  10.898  1.00  0.00    -0.315 OA
HETATM   30  C12 UNL     1     -83.585 -12.073   9.805  1.00  0.00     0.121 A 
HETATM   31 BR1  UNL     1     -82.558 -11.508   8.272  1.00  0.00    -0.023 Br
HETATM   32  C13 UNL     1     -84.947 -11.986   9.971  1.00  0.00     0.054 A 
ENDBRANCH   4  27
TORSDOF 9
ENDMDL
MODEL 4
REMARK VINA RESULT: -7.122308567      3.820      6.157
REMARK  9 active torsions:
REMARK  status: ('A' for Active; 'I' for Inactive)
REMARK    1  A    between atoms: C2_2  and  C22_31 
REMARK    2  A    between atoms: C3_3  and  C4_4 
REMARK    3  A    between atoms: C5_5  and  C6_6 
REMARK    4  A    between atoms: C9_9  and  C10_10 
REMARK    5  A    between atoms: C19_22  and  O3_23 
REMARK    6  A    between atoms: C19_22  and  C20_25 
REMARK    7  A    between atoms: C20_25  and  O4_26 
REMARK    8  A    between atoms: C20_25  and  C21_28 
REMARK    9  A    between atoms: C21_28  and  O5_29 
ROOT
HETATM    1  C6  UNL     1     -87.509 -14.277  12.486  1.00  0.00     0.026 C 
HETATM    2  C7  UNL     1     -86.496 -15.376  12.428  1.00  0.00     0.018 C 
HETATM    3  C8  UNL     1     -85.726 -15.134  11.128  1.00  0.00     0.011 C 
HETATM    4  C9  UNL     1     -85.524 -13.642  11.225  1.00  0.00     0.030 C 
HETATM    5  C14 UNL     1     -86.842 -13.144  11.734  1.00  0.00    -0.021 C 
HETATM    6  C15 UNL     1     -87.803 -12.724  10.634  1.00  0.00     0.017 C 
HETATM    7  C16 UNL     1     -86.583 -11.917  12.547  1.00  0.00     0.018 C 
HETATM    8  C17 UNL     1     -87.799 -11.385  13.274  1.00  0.00     0.082 C 
HETATM    9  C18 UNL     1     -88.454 -12.551  13.908  1.00  0.00     0.165 C 
HETATM   10  O2  UNL     1     -89.556 -12.416  14.381  1.00  0.00    -0.294 OA
HETATM   11  C19 UNL     1     -87.755 -13.841  13.946  1.00  0.00     0.157 C 
ENDROOT
BRANCH  11  12
HETATM   12  O3  UNL     1     -86.501 -13.799  14.567  1.00  0.00    -0.378 OA
ATOM     13  H3  UNL     1     -86.367 -14.651  14.964  1.00  0.00     0.211 HD
ENDBRANCH  11  12
BRANCH  11  14
HETATM   14  C20 UNL     1     -88.563 -14.856  14.675  1.00  0.00     0.184 C 
BRANCH  14  15
HETATM   15  O4  UNL     1     -89.927 -14.593  14.545  1.00  0.00    -0.390 OA
ATOM     16  H4  UNL     1     -90.158 -14.444  13.635  1.00  0.00     0.210 HD
ENDBRANCH  14  15
BRANCH  14  17
HETATM   17  C21 UNL     1     -88.263 -14.948  16.153  1.00  0.00     0.199 C 
BRANCH  17  18
HETATM   18  O5  UNL     1     -89.323 -14.260  16.794  1.00  0.00    -0.398 OA
ATOM     19  H5  UNL     1     -90.082 -14.393  16.237  1.00  0.00     0.209 HD
ENDBRANCH  17  18
ENDBRANCH  14  17
ENDBRANCH  11  14
BRANCH   1  20
HETATM   20  C5  UNL     1     -88.751 -14.718  11.831  1.00  0.00    -0.013 C 
HETATM   21  C4  UNL     1     -88.961 -15.791  11.132  1.00  0.00    -0.003 C 
BRANCH  21  22
HETATM   22  C3  UNL     1     -90.236 -16.135  10.524  1.00  0.00     0.003 C 
HETATM   23  C2  UNL     1     -90.494 -15.870   9.263  1.00  0.00    -0.074 C 
HETATM   24  C1  UNL     1     -89.459 -15.197   8.409  1.00  0.00     0.044 C 
BRANCH  23  25
HETATM   25  C22 UNL     1     -91.793 -16.218   8.636  1.00  0.00     0.119 C 
HETATM   26  S1  UNL     1     -91.845 -17.998   8.298  1.00  0.00    -0.093 SA
ENDBRANCH  23  25
ENDBRANCH  21  22
ENDBRANCH   1  20
BRANCH   4  27
HETATM   27  C10 UNL     1     -85.039 -13.021   9.995  1.00  0.00    -0.028 A 
HETATM   28  C11 UNL     1     -84.531 -11.723   9.890  1.00  0.00     0.150 A 
HETATM   29  O1  UNL     1     -84.189 -11.513   8.644  1.00  0.00    -0.315 OA
HETATM   30  C12 UNL     1     -84.420 -12.557   7.890  1.00  0.00     0.121 A 
HETATM   31 BR1  UNL     1     -84.073 -12.703   5.997  1.00  0.00    -0.023 Br
HETATM   32  C13 UNL     1     -84.954 -13.520   8.714  1.00  0.00     0.054 A 
ENDBRANCH   4  27
TORSDOF 9
ENDMDL
MODEL 5
REMARK VINA RESULT: -7.064288894      3.432      5.758
REMARK  9 active torsions:
REMARK  status: ('A' for Active; 'I' for Inactive)
REMARK    1  A    between atoms: C2_2  and  C22_31 
REMARK    2  A    between atoms: C3_3  and  C4_4 
REMARK    3  A    between atoms: C5_5  and  C6_6 
REMARK    4  A    between atoms: C9_9  and  C10_10 
REMARK    5  A    between atoms: C19_22  and  O3_23 
REMARK    6  A    between atoms: C19_22  and  C20_25 
REMARK    7  A    between atoms: C20_25  and  O4_26 
REMARK    8  A    between atoms: C20_25  and  C21_28 
REMARK    9  A    between atoms: C21_28  and  O5_29 
ROOT
HETATM    1  C6  UNL     1     -89.761 -13.966  11.371  1.00  0.00     0.026 C 
HETATM    2  C7  UNL     1     -89.660 -12.505  11.674  1.00  0.00     0.018 C 
HETATM    3  C8  UNL     1     -88.189 -12.153  11.435  1.00  0.00     0.011 C 
HETATM    4  C9  UNL     1     -87.960 -12.887  10.137  1.00  0.00     0.030 C 
HETATM    5  C14 UNL     1     -88.674 -14.187  10.340  1.00  0.00    -0.021 C 
HETATM    6  C15 UNL     1     -87.784 -15.298  10.873  1.00  0.00     0.017 C 
HETATM    7  C16 UNL     1     -89.161 -14.652   9.005  1.00  0.00     0.018 C 
HETATM    8  C17 UNL     1     -90.053 -15.874   9.060  1.00  0.00     0.082 C 
HETATM    9  C18 UNL     1     -91.029 -15.634  10.146  1.00  0.00     0.165 C 
HETATM   10  O2  UNL     1     -91.723 -16.547  10.519  1.00  0.00    -0.294 OA
HETATM   11  C19 UNL     1     -91.131 -14.298  10.744  1.00  0.00     0.157 C 
ENDROOT
BRANCH  11  12
HETATM   12  O3  UNL     1     -91.409 -13.276   9.829  1.00  0.00    -0.378 OA
ATOM     13  H3  UNL     1     -92.275 -12.949  10.042  1.00  0.00     0.211 HD
ENDBRANCH  11  12
BRANCH  11  14
HETATM   14  C20 UNL     1     -92.208 -14.261  11.770  1.00  0.00     0.184 C 
BRANCH  14  15
HETATM   15  O4  UNL     1     -92.568 -15.552  12.160  1.00  0.00    -0.390 OA
ATOM     16  H4  UNL     1     -91.842 -16.155  12.047  1.00  0.00     0.210 HD
ENDBRANCH  14  15
BRANCH  14  17
HETATM   17  C21 UNL     1     -93.470 -13.560  11.325  1.00  0.00     0.199 C 
BRANCH  17  18
HETATM   18  O5  UNL     1     -94.123 -13.170  12.520  1.00  0.00    -0.398 OA
ATOM     19  H5  UNL     1     -94.065 -13.924  13.096  1.00  0.00     0.209 HD
ENDBRANCH  17  18
ENDBRANCH  14  17
ENDBRANCH  11  14
BRANCH   1  20
HETATM   20  C5  UNL     1     -89.521 -14.741  12.599  1.00  0.00    -0.013 C 
HETATM   21  C4  UNL     1     -89.365 -14.307  13.813  1.00  0.00    -0.003 C 
BRANCH  21  22
HETATM   22  C3  UNL     1     -89.131 -15.164  14.964  1.00  0.00     0.003 C 
HETATM   23  C2  UNL     1     -87.986 -15.159  15.608  1.00  0.00    -0.074 C 
HETATM   24  C1  UNL     1     -86.876 -14.251  15.162  1.00  0.00     0.044 C 
BRANCH  23  25
HETATM   25  C22 UNL     1     -87.740 -16.031  16.783  1.00  0.00     0.119 C 
HETATM   26  S1  UNL     1     -88.134 -17.748  16.356  1.00  0.00    -0.093 SA
ENDBRANCH  23  25
ENDBRANCH  21  22
ENDBRANCH   1  20
BRANCH   4  27
HETATM   27  C10 UNL     1     -86.556 -12.983   9.744  1.00  0.00    -0.028 A 
HETATM   28  C11 UNL     1     -85.468 -12.982  10.622  1.00  0.00     0.150 A 
HETATM   29  O1  UNL     1     -84.369 -13.090   9.919  1.00  0.00    -0.315 OA
HETATM   30  C12 UNL     1     -84.614 -13.166   8.636  1.00  0.00     0.121 A 
HETATM   31 BR1  UNL     1     -83.307 -13.335   7.226  1.00  0.00    -0.023 Br
HETATM   32  C13 UNL     1     -85.981 -13.101   8.498  1.00  0.00     0.054 A 
ENDBRANCH   4  27
TORSDOF 9
ENDMDL
