MODEL 1
REMARK VINA RESULT: -10.243618744      0.000      0.000
REMARK  5 active torsions:
REMARK  status: ('A' for Active; 'I' for Inactive)
REMARK    1  A    between atoms: C2_2  and  C3_3 
REMARK    2  A    between atoms: C4_6  and  N2_7 
REMARK    3  A    between atoms: N2_7  and  C5_9 
REMARK    4  A    between atoms: C16_31  and  O2_32 
REMARK    5  A    between atoms: O2_32  and  C17_33 
ROOT
HETATM    1  N2  UNL     1     -86.464 -14.961  10.244  1.00  0.00    -0.022 N 
ATOM      2  H2  UNL     1     -85.622 -15.489  10.016  1.00  0.00     0.203 HD
ENDROOT
BRANCH   1   3
HETATM    3  C4  UNL     1     -87.441 -14.734   9.252  1.00  0.00     0.699 A 
HETATM    4  N1  UNL     1     -87.422 -14.096   8.116  1.00  0.00    -0.191 N 
HETATM    5  C3  UNL     1     -88.662 -14.106   7.504  1.00  0.00     0.078 A 
ATOM      6  H1  UNL     1     -86.594 -13.645   7.726  1.00  0.00     0.184 HD
HETATM    7  C16 UNL     1     -89.502 -14.812   8.335  1.00  0.00     0.186 A 
HETATM    8  N7  UNL     1     -88.718 -15.182   9.395  1.00  0.00    -0.167 N 
ATOM      9  H7  UNL     1     -89.051 -15.725  10.192  1.00  0.00     0.186 HD
BRANCH   5  10
HETATM   10  C2  UNL     1     -88.885 -13.378   6.259  1.00  0.00     0.057 C 
HETATM   11  C1  UNL     1     -87.556 -13.242   5.506  1.00  0.00     0.011 C 
ENDBRANCH   5  10
BRANCH   7  12
HETATM   12  O2  UNL     1     -90.854 -15.072   8.128  1.00  0.00    -0.290 OA
BRANCH  12  13
HETATM   13  C17 UNL     1     -91.784 -15.629   8.988  1.00  0.00     0.089 A 
HETATM   14  C18 UNL     1     -92.614 -14.823   9.772  1.00  0.00    -0.026 A 
HETATM   15  C19 UNL     1     -92.443 -13.358   9.873  1.00  0.00     0.051 C 
HETATM   16  C20 UNL     1     -93.553 -15.462  10.589  1.00  0.00     0.033 A 
HETATM   17  C21 UNL     1     -93.711 -16.822  10.679  1.00  0.00     0.035 A 
HETATM   18 CL1  UNL     1     -94.908 -17.573  11.715  1.00  0.00    -0.084 Cl
HETATM   19  C22 UNL     1     -92.864 -17.578   9.892  1.00  0.00     0.033 A 
HETATM   20  C23 UNL     1     -91.901 -16.992   9.050  1.00  0.00    -0.026 A 
HETATM   21  C24 UNL     1     -90.950 -17.889   8.367  1.00  0.00     0.051 C 
ENDBRANCH  12  13
ENDBRANCH   7  12
ENDBRANCH   1   3
BRANCH   1  22
HETATM   22  C5  UNL     1     -86.629 -14.505  11.435  1.00  0.00     0.697 A 
HETATM   23  N3  UNL     1     -87.025 -15.286  12.414  1.00  0.00    -0.188 N 
HETATM   24  C6  UNL     1     -87.183 -14.909  13.741  1.00  0.00     0.087 A 
ATOM     25  H3  UNL     1     -87.237 -16.255  12.178  1.00  0.00     0.184 HD
HETATM   26  C7  UNL     1     -87.454 -15.961  14.669  1.00  0.00     0.066 A 
HETATM   27  C11 UNL     1     -86.912 -13.633  14.053  1.00  0.00     0.011 A 
HETATM   28  C8  UNL     1     -87.525 -15.920  16.034  1.00  0.00     0.049 A 
HETATM   29  N5  UNL     1     -87.546 -17.203  14.190  1.00  0.00    -0.306 N 
HETATM   30  C9  UNL     1     -87.690 -17.089  16.822  1.00  0.00     0.095 A 
HETATM   31  N4  UNL     1     -87.776 -18.298  16.218  1.00  0.00    -0.319 N 
HETATM   32  C10 UNL     1     -87.697 -18.328  14.856  1.00  0.00     0.324 A 
ATOM     33  H4  UNL     1     -87.895 -19.154  16.761  1.00  0.00     0.170 HD
HETATM   34  O1  UNL     1     -87.768 -19.439  14.312  1.00  0.00    -0.247 OA
ATOM     35  H5  UNL     1     -87.493 -17.292  13.175  1.00  0.00     0.170 HD
HETATM   36  C12 UNL     1     -87.223 -12.953  15.287  1.00  0.00    -0.074 C 
HETATM   37  C15 UNL     1     -86.485 -12.795  13.006  1.00  0.00     0.120 A 
HETATM   38  C13 UNL     1     -86.046 -12.472  16.123  1.00  0.00     0.044 C 
HETATM   39  C14 UNL     1     -88.547 -12.798  15.926  1.00  0.00     0.044 C 
HETATM   40  N6  UNL     1     -86.350 -13.230  11.725  1.00  0.00    -0.200 N 
ATOM     41  H6  UNL     1     -86.038 -12.591  10.993  1.00  0.00     0.183 HD
ENDBRANCH   1  22
TORSDOF 5
ENDMDL
MODEL 2
REMARK VINA RESULT: -10.201737096      0.184      1.470
REMARK  5 active torsions:
REMARK  status: ('A' for Active; 'I' for Inactive)
REMARK    1  A    between atoms: C2_2  and  C3_3 
REMARK    2  A    between atoms: C4_6  and  N2_7 
REMARK    3  A    between atoms: N2_7  and  C5_9 
REMARK    4  A    between atoms: C16_31  and  O2_32 
REMARK    5  A    between atoms: O2_32  and  C17_33 
ROOT
HETATM    1  N2  UNL     1     -86.410 -15.026  10.393  1.00  0.00    -0.022 N 
ATOM      2  H2  UNL     1     -85.577 -15.571  10.169  1.00  0.00     0.203 HD
ENDROOT
BRANCH   1   3
HETATM    3  C4  UNL     1     -87.369 -14.767   9.392  1.00  0.00     0.699 A 
HETATM    4  N1  UNL     1     -87.301 -14.196   8.223  1.00  0.00    -0.191 N 
HETATM    5  C3  UNL     1     -88.541 -14.128   7.614  1.00  0.00     0.078 A 
ATOM      6  H1  UNL     1     -86.439 -13.842   7.808  1.00  0.00     0.184 HD
HETATM    7  C16 UNL     1     -89.434 -14.711   8.483  1.00  0.00     0.186 A 
HETATM    8  N7  UNL     1     -88.680 -15.091   9.561  1.00  0.00    -0.167 N 
ATOM      9  H7  UNL     1     -89.055 -15.559  10.386  1.00  0.00     0.186 HD
BRANCH   5  10
HETATM   10  C2  UNL     1     -88.705 -13.452   6.331  1.00  0.00     0.057 C 
HETATM   11  C1  UNL     1     -87.325 -13.166   5.727  1.00  0.00     0.011 C 
ENDBRANCH   5  10
BRANCH   7  12
HETATM   12  O2  UNL     1     -90.806 -14.861   8.293  1.00  0.00    -0.290 OA
BRANCH  12  13
HETATM   13  C17 UNL     1     -91.735 -15.524   9.074  1.00  0.00     0.089 A 
HETATM   14  C18 UNL     1     -91.783 -16.920   9.107  1.00  0.00    -0.026 A 
HETATM   15  C19 UNL     1     -90.987 -17.770   8.196  1.00  0.00     0.051 C 
HETATM   16  C20 UNL     1     -92.728 -17.516   9.950  1.00  0.00     0.033 A 
HETATM   17  C21 UNL     1     -93.613 -16.825  10.740  1.00  0.00     0.035 A 
HETATM   18 CL1  UNL     1     -94.773 -17.620  11.785  1.00  0.00    -0.084 Cl
HETATM   19  C22 UNL     1     -93.532 -15.449  10.669  1.00  0.00     0.033 A 
HETATM   20  C23 UNL     1     -92.603 -14.793   9.842  1.00  0.00    -0.026 A 
HETATM   21  C24 UNL     1     -92.701 -13.325   9.727  1.00  0.00     0.051 C 
ENDBRANCH  12  13
ENDBRANCH   7  12
ENDBRANCH   1   3
BRANCH   1  22
HETATM   22  C5  UNL     1     -86.580 -14.579  11.586  1.00  0.00     0.697 A 
HETATM   23  N3  UNL     1     -87.002 -15.361  12.553  1.00  0.00    -0.188 N 
HETATM   24  C6  UNL     1     -87.167 -14.995  13.882  1.00  0.00     0.087 A 
ATOM     25  H3  UNL     1     -87.229 -16.324  12.305  1.00  0.00     0.184 HD
HETATM   26  C7  UNL     1     -87.469 -16.050  14.797  1.00  0.00     0.066 A 
HETATM   27  C11 UNL     1     -86.875 -13.727  14.210  1.00  0.00     0.011 A 
HETATM   28  C8  UNL     1     -87.554 -16.022  16.161  1.00  0.00     0.049 A 
HETATM   29  N5  UNL     1     -87.580 -17.285  14.304  1.00  0.00    -0.306 N 
HETATM   30  C9  UNL     1     -87.751 -17.194  16.935  1.00  0.00     0.095 A 
HETATM   31  N4  UNL     1     -87.854 -18.396  16.319  1.00  0.00    -0.319 N 
HETATM   32  C10 UNL     1     -87.760 -18.414  14.957  1.00  0.00     0.324 A 
ATOM     33  H4  UNL     1     -87.995 -19.254  16.852  1.00  0.00     0.170 HD
HETATM   34  O1  UNL     1     -87.847 -19.518  14.402  1.00  0.00    -0.247 OA
ATOM     35  H5  UNL     1     -87.517 -17.366  13.289  1.00  0.00     0.170 HD
HETATM   36  C12 UNL     1     -87.186 -13.053  15.447  1.00  0.00    -0.074 C 
HETATM   37  C15 UNL     1     -86.420 -12.888  13.176  1.00  0.00     0.120 A 
HETATM   38  C13 UNL     1     -86.010 -12.604  16.300  1.00  0.00     0.044 C 
HETATM   39  C14 UNL     1     -88.514 -12.878  16.073  1.00  0.00     0.044 C 
HETATM   40  N6  UNL     1     -86.278 -13.313  11.892  1.00  0.00    -0.200 N 
ATOM     41  H6  UNL     1     -85.946 -12.673  11.171  1.00  0.00     0.183 HD
ENDBRANCH   1  22
TORSDOF 5
ENDMDL
MODEL 3
REMARK VINA RESULT: -9.790116172      3.325      5.127
REMARK  5 active torsions:
REMARK  status: ('A' for Active; 'I' for Inactive)
REMARK    1  A    between atoms: C2_2  and  C3_3 
REMARK    2  A    between atoms: C4_6  and  N2_7 
REMARK    3  A    between atoms: N2_7  and  C5_9 
REMARK    4  A    between atoms: C16_31  and  O2_32 
REMARK    5  A    between atoms: O2_32  and  C17_33 
ROOT
HETATM    1  N2  UNL     1     -86.535 -13.239   7.048  1.00  0.00    -0.022 N 
ATOM      2  H2  UNL     1     -86.670 -13.057   6.054  1.00  0.00     0.203 HD
ENDROOT
BRANCH   1   3
HETATM    3  C4  UNL     1     -87.564 -13.847   7.797  1.00  0.00     0.699 A 
HETATM    4  N1  UNL     1     -87.610 -14.351   8.997  1.00  0.00    -0.191 N 
HETATM    5  C3  UNL     1     -88.853 -14.890   9.277  1.00  0.00     0.078 A 
ATOM      6  H1  UNL     1     -86.827 -14.349   9.650  1.00  0.00     0.184 HD
HETATM    7  C16 UNL     1     -89.626 -14.692   8.156  1.00  0.00     0.186 A 
HETATM    8  N7  UNL     1     -88.803 -14.049   7.270  1.00  0.00    -0.167 N 
ATOM      9  H7  UNL     1     -89.083 -13.759   6.334  1.00  0.00     0.186 HD
BRANCH   5  10
HETATM   10  C2  UNL     1     -89.099 -15.581  10.539  1.00  0.00     0.057 C 
HETATM   11  C1  UNL     1     -89.445 -14.552  11.622  1.00  0.00     0.011 C 
ENDBRANCH   5  10
BRANCH   7  12
HETATM   12  O2  UNL     1     -90.952 -15.079   7.978  1.00  0.00    -0.290 OA
BRANCH  12  13
HETATM   13  C17 UNL     1     -91.836 -15.632   8.887  1.00  0.00     0.089 A 
HETATM   14  C18 UNL     1     -92.651 -14.823   9.683  1.00  0.00    -0.026 A 
HETATM   15  C19 UNL     1     -92.507 -13.352   9.742  1.00  0.00     0.051 C 
HETATM   16  C20 UNL     1     -93.545 -15.459  10.551  1.00  0.00     0.033 A 
HETATM   17  C21 UNL     1     -93.671 -16.820  10.681  1.00  0.00     0.035 A 
HETATM   18 CL1  UNL     1     -94.812 -17.567  11.781  1.00  0.00    -0.084 Cl
HETATM   19  C22 UNL     1     -92.840 -17.578   9.880  1.00  0.00     0.033 A 
HETATM   20  C23 UNL     1     -91.923 -16.995   8.987  1.00  0.00    -0.026 A 
HETATM   21  C24 UNL     1     -90.980 -17.891   8.289  1.00  0.00     0.051 C 
ENDBRANCH  12  13
ENDBRANCH   7  12
ENDBRANCH   1   3
BRANCH   1  22
HETATM   22  C5  UNL     1     -85.426 -12.913   7.612  1.00  0.00     0.697 A 
HETATM   23  N3  UNL     1     -85.402 -12.399   8.820  1.00  0.00    -0.188 N 
HETATM   24  C6  UNL     1     -84.262 -12.064   9.538  1.00  0.00     0.087 A 
ATOM     25  H3  UNL     1     -86.301 -12.230   9.271  1.00  0.00     0.184 HD
HETATM   26  C7  UNL     1     -84.461 -11.683  10.901  1.00  0.00     0.066 A 
HETATM   27  C11 UNL     1     -83.078 -12.278   8.946  1.00  0.00     0.011 A 
HETATM   28  C8  UNL     1     -83.539 -11.431  11.878  1.00  0.00     0.049 A 
HETATM   29  N5  UNL     1     -85.713 -11.666  11.363  1.00  0.00    -0.306 N 
HETATM   30  C9  UNL     1     -83.908 -11.175  13.224  1.00  0.00     0.095 A 
HETATM   31  N4  UNL     1     -85.216 -11.181  13.574  1.00  0.00    -0.319 N 
HETATM   32  C10 UNL     1     -86.128 -11.439  12.592  1.00  0.00     0.324 A 
ATOM     33  H4  UNL     1     -85.509 -10.999  14.534  1.00  0.00     0.170 HD
HETATM   34  O1  UNL     1     -87.322 -11.451  12.921  1.00  0.00    -0.247 OA
ATOM     35  H5  UNL     1     -86.443 -11.854  10.676  1.00  0.00     0.170 HD
HETATM   36  C12 UNL     1     -81.787 -11.801   9.379  1.00  0.00    -0.074 C 
HETATM   37  C15 UNL     1     -83.101 -12.832   7.652  1.00  0.00     0.120 A 
HETATM   38  C13 UNL     1     -80.766 -12.852   9.787  1.00  0.00     0.044 C 
HETATM   39  C14 UNL     1     -81.376 -10.402   9.626  1.00  0.00     0.044 C 
HETATM   40  N6  UNL     1     -84.257 -13.140   7.005  1.00  0.00    -0.200 N 
ATOM     41  H6  UNL     1     -84.232 -13.539   6.067  1.00  0.00     0.183 HD
ENDBRANCH   1  22
TORSDOF 5
ENDMDL
MODEL 4
REMARK VINA RESULT: -9.671661880      2.924      4.820
REMARK  5 active torsions:
REMARK  status: ('A' for Active; 'I' for Inactive)
REMARK    1  A    between atoms: C2_2  and  C3_3 
REMARK    2  A    between atoms: C4_6  and  N2_7 
REMARK    3  A    between atoms: N2_7  and  C5_9 
REMARK    4  A    between atoms: C16_31  and  O2_32 
REMARK    5  A    between atoms: O2_32  and  C17_33 
ROOT
HETATM    1  N2  UNL     1     -91.008 -12.804  12.875  1.00  0.00    -0.022 N 
ATOM      2  H2  UNL     1     -91.825 -12.292  13.209  1.00  0.00     0.203 HD
ENDROOT
BRANCH   1   3
HETATM    3  C4  UNL     1     -91.145 -13.737  11.827  1.00  0.00     0.699 A 
HETATM    4  N1  UNL     1     -91.953 -14.740  11.631  1.00  0.00    -0.191 N 
HETATM    5  C3  UNL     1     -91.665 -15.407  10.454  1.00  0.00     0.078 A 
ATOM      6  H1  UNL     1     -92.707 -15.002  12.267  1.00  0.00     0.184 HD
HETATM    7  C16 UNL     1     -90.596 -14.751   9.887  1.00  0.00     0.186 A 
HETATM    8  N7  UNL     1     -90.306 -13.733  10.755  1.00  0.00    -0.167 N 
ATOM      9  H7  UNL     1     -89.555 -13.058  10.617  1.00  0.00     0.186 HD
BRANCH   5  10
HETATM   10  C2  UNL     1     -92.397 -16.613  10.081  1.00  0.00     0.057 C 
HETATM   11  C1  UNL     1     -93.589 -16.796  11.028  1.00  0.00     0.011 C 
ENDBRANCH   5  10
BRANCH   7  12
HETATM   12  O2  UNL     1     -89.957 -15.076   8.692  1.00  0.00    -0.290 OA
BRANCH  12  13
HETATM   13  C17 UNL     1     -88.920 -14.428   8.046  1.00  0.00     0.089 A 
HETATM   14  C18 UNL     1     -87.616 -14.479   8.543  1.00  0.00    -0.026 A 
HETATM   15  C19 UNL     1     -87.284 -15.063   9.860  1.00  0.00     0.051 C 
HETATM   16  C20 UNL     1     -86.617 -13.827   7.811  1.00  0.00     0.033 A 
HETATM   17  C21 UNL     1     -86.830 -13.137   6.644  1.00  0.00     0.035 A 
HETATM   18 CL1  UNL     1     -85.542 -12.342   5.761  1.00  0.00    -0.084 Cl
HETATM   19  C22 UNL     1     -88.136 -13.107   6.195  1.00  0.00     0.033 A 
HETATM   20  C23 UNL     1     -89.182 -13.744   6.887  1.00  0.00    -0.026 A 
HETATM   21  C24 UNL     1     -90.559 -13.526   6.404  1.00  0.00     0.051 C 
ENDBRANCH  12  13
ENDBRANCH   7  12
ENDBRANCH   1   3
BRANCH   1  22
HETATM   22  C5  UNL     1     -89.859 -12.594  13.412  1.00  0.00     0.697 A 
HETATM   23  N3  UNL     1     -89.330 -13.457  14.249  1.00  0.00    -0.188 N 
HETATM   24  C6  UNL     1     -88.079 -13.353  14.840  1.00  0.00     0.087 A 
ATOM     25  H3  UNL     1     -89.890 -14.277  14.486  1.00  0.00     0.184 HD
HETATM   26  C7  UNL     1     -87.632 -14.491  15.581  1.00  0.00     0.066 A 
HETATM   27  C11 UNL     1     -87.343 -12.273  14.537  1.00  0.00     0.011 A 
HETATM   28  C8  UNL     1     -86.415 -14.735  16.153  1.00  0.00     0.049 A 
HETATM   29  N5  UNL     1     -88.450 -15.543  15.654  1.00  0.00    -0.306 N 
HETATM   30  C9  UNL     1     -86.094 -15.977  16.758  1.00  0.00     0.095 A 
HETATM   31  N4  UNL     1     -87.012 -16.972  16.775  1.00  0.00    -0.319 N 
HETATM   32  C10 UNL     1     -88.222 -16.721  16.195  1.00  0.00     0.324 A 
ATOM     33  H4  UNL     1     -86.807 -17.875  17.204  1.00  0.00     0.170 HD
HETATM   34  O1  UNL     1     -89.053 -17.640  16.207  1.00  0.00    -0.247 OA
ATOM     35  H5  UNL     1     -89.373 -15.419  15.236  1.00  0.00     0.170 HD
HETATM   36  C12 UNL     1     -86.138 -11.826  15.193  1.00  0.00    -0.074 C 
HETATM   37  C15 UNL     1     -87.907 -11.348  13.638  1.00  0.00     0.120 A 
HETATM   38  C13 UNL     1     -84.864 -11.824  14.363  1.00  0.00     0.044 C 
HETATM   39  C14 UNL     1     -85.951 -11.514  16.626  1.00  0.00     0.044 C 
HETATM   40  N6  UNL     1     -89.141 -11.512  13.092  1.00  0.00    -0.200 N 
ATOM     41  H6  UNL     1     -89.515 -10.818  12.445  1.00  0.00     0.183 HD
ENDBRANCH   1  22
TORSDOF 5
ENDMDL
MODEL 5
REMARK VINA RESULT: -9.652350138      4.321      7.214
REMARK  5 active torsions:
REMARK  status: ('A' for Active; 'I' for Inactive)
REMARK    1  A    between atoms: C2_2  and  C3_3 
REMARK    2  A    between atoms: C4_6  and  N2_7 
REMARK    3  A    between atoms: N2_7  and  C5_9 
REMARK    4  A    between atoms: C16_31  and  O2_32 
REMARK    5  A    between atoms: O2_32  and  C17_33 
ROOT
HETATM    1  N2  UNL     1     -86.619 -13.215   6.747  1.00  0.00    -0.022 N 
ATOM      2  H2  UNL     1     -86.792 -13.071   5.752  1.00  0.00     0.203 HD
ENDROOT
BRANCH   1   3
HETATM    3  C4  UNL     1     -87.618 -13.797   7.555  1.00  0.00     0.699 A 
HETATM    4  N1  UNL     1     -87.616 -14.264   8.771  1.00  0.00    -0.191 N 
HETATM    5  C3  UNL     1     -88.848 -14.790   9.118  1.00  0.00     0.078 A 
ATOM      6  H1  UNL     1     -86.807 -14.244   9.391  1.00  0.00     0.184 HD
HETATM    7  C16 UNL     1     -89.665 -14.625   8.024  1.00  0.00     0.186 A 
HETATM    8  N7  UNL     1     -88.878 -14.012   7.086  1.00  0.00    -0.167 N 
ATOM      9  H7  UNL     1     -89.196 -13.750   6.153  1.00  0.00     0.186 HD
BRANCH   5  10
HETATM   10  C2  UNL     1     -89.043 -15.441  10.410  1.00  0.00     0.057 C 
HETATM   11  C1  UNL     1     -89.396 -14.384  11.463  1.00  0.00     0.011 C 
ENDBRANCH   5  10
BRANCH   7  12
HETATM   12  O2  UNL     1     -90.998 -15.014   7.912  1.00  0.00    -0.290 OA
BRANCH  12  13
HETATM   13  C17 UNL     1     -91.828 -15.590   8.856  1.00  0.00     0.089 A 
HETATM   14  C18 UNL     1     -92.627 -14.804   9.690  1.00  0.00    -0.026 A 
HETATM   15  C19 UNL     1     -92.516 -13.331   9.749  1.00  0.00     0.051 C 
HETATM   16  C20 UNL     1     -93.466 -15.465  10.594  1.00  0.00     0.033 A 
HETATM   17  C21 UNL     1     -93.553 -16.828  10.724  1.00  0.00     0.035 A 
HETATM   18 CL1  UNL     1     -94.626 -17.607  11.870  1.00  0.00    -0.084 Cl
HETATM   19  C22 UNL     1     -92.739 -17.564   9.885  1.00  0.00     0.033 A 
HETATM   20  C23 UNL     1     -91.877 -16.956   8.954  1.00  0.00    -0.026 A 
HETATM   21  C24 UNL     1     -90.944 -17.826   8.213  1.00  0.00     0.051 C 
ENDBRANCH  12  13
ENDBRANCH   7  12
ENDBRANCH   1   3
BRANCH   1  22
HETATM   22  C5  UNL     1     -85.492 -12.866   7.256  1.00  0.00     0.697 A 
HETATM   23  N3  UNL     1     -84.360 -13.098   6.632  1.00  0.00    -0.188 N 
HETATM   24  C6  UNL     1     -83.099 -12.717   7.066  1.00  0.00     0.087 A 
ATOM     25  H3  UNL     1     -84.414 -13.605   5.748  1.00  0.00     0.184 HD
HETATM   26  C7  UNL     1     -82.025 -12.917   6.146  1.00  0.00     0.066 A 
HETATM   27  C11 UNL     1     -83.024 -12.057   8.232  1.00  0.00     0.011 A 
HETATM   28  C8  UNL     1     -80.717 -12.527   6.235  1.00  0.00     0.049 A 
HETATM   29  N5  UNL     1     -82.315 -13.461   4.963  1.00  0.00    -0.306 N 
HETATM   30  C9  UNL     1     -79.796 -12.705   5.170  1.00  0.00     0.095 A 
HETATM   31  N4  UNL     1     -80.210 -13.275   4.014  1.00  0.00    -0.319 N 
HETATM   32  C10 UNL     1     -81.518 -13.656   3.933  1.00  0.00     0.324 A 
ATOM     33  H4  UNL     1     -79.568 -13.415   3.233  1.00  0.00     0.170 HD
HETATM   34  O1  UNL     1     -81.890 -14.169   2.869  1.00  0.00    -0.247 OA
ATOM     35  H5  UNL     1     -83.281 -13.766   4.839  1.00  0.00     0.170 HD
HETATM   36  C12 UNL     1     -81.836 -11.771   8.998  1.00  0.00    -0.074 C 
HETATM   37  C15 UNL     1     -84.236 -11.805   8.902  1.00  0.00     0.120 A 
HETATM   38  C13 UNL     1     -81.462 -10.307   9.168  1.00  0.00     0.044 C 
HETATM   39  C14 UNL     1     -80.839 -12.734   9.514  1.00  0.00     0.044 C 
HETATM   40  N6  UNL     1     -85.442 -12.205   8.418  1.00  0.00    -0.200 N 
ATOM     41  H6  UNL     1     -86.298 -12.004   8.934  1.00  0.00     0.183 HD
ENDBRANCH   1  22
TORSDOF 5
ENDMDL
