MODEL 1
REMARK VINA RESULT: -10.276359464      0.000      0.000
REMARK  9 active torsions:
REMARK  status: ('A' for Active; 'I' for Inactive)
REMARK    1  A    between atoms: O1_1  and  C1_3 
REMARK    2  A    between atoms: C1_3  and  C2_4 
REMARK    3  A    between atoms: C2_4  and  O2_5 
REMARK    4  A    between atoms: O2_5  and  C3_6 
REMARK    5  A    between atoms: C6_9  and  N1_10 
REMARK    6  A    between atoms: C7_13  and  C8_14 
REMARK    7  A    between atoms: C11_19  and  N4_20 
REMARK    8  A    between atoms: N4_20  and  C12_22 
REMARK    9  A    between atoms: C21_35  and  C22_36 
ROOT
HETATM    1  N1  UNL     1     -89.195 -17.346  10.631  1.00  0.00    -0.255 N 
HETATM    2  N2  UNL     1     -88.180 -16.758   9.931  1.00  0.00    -0.293 N 
ATOM      3  H2  UNL     1     -87.382 -16.279  10.349  1.00  0.00     0.187 HD
HETATM    4  C7  UNL     1     -88.381 -16.899   8.633  1.00  0.00     0.061 A 
HETATM    5  C20 UNL     1     -89.562 -17.598   8.524  1.00  0.00     0.064 A 
HETATM    6  C21 UNL     1     -90.076 -17.880   9.807  1.00  0.00     0.069 A 
ENDROOT
BRANCH   4   7
HETATM    7  C8  UNL     1     -87.587 -16.449   7.496  1.00  0.00    -0.003 A 
HETATM    8  C9  UNL     1     -88.098 -16.435   6.216  1.00  0.00     0.031 A 
HETATM    9  C10 UNL     1     -87.386 -16.022   5.121  1.00  0.00     0.090 A 
HETATM   10  N3  UNL     1     -86.131 -15.610   5.310  1.00  0.00    -0.352 N 
HETATM   11  C11 UNL     1     -85.564 -15.596   6.532  1.00  0.00     0.106 A 
ATOM     12  H3  UNL     1     -85.585 -15.298   4.506  1.00  0.00     0.166 HD
HETATM   13  C19 UNL     1     -86.285 -16.016   7.648  1.00  0.00     0.062 A 
BRANCH  11  14
HETATM   14  N4  UNL     1     -84.359 -15.203   6.737  1.00  0.00    -0.342 N 
ATOM     15  H4  UNL     1     -84.201 -14.484   7.442  1.00  0.00     0.167 HD
BRANCH  14  16
HETATM   16  C12 UNL     1     -83.236 -15.713   6.040  1.00  0.00     0.034 A 
HETATM   17  C13 UNL     1     -83.204 -15.916   4.677  1.00  0.00     0.032 A 
HETATM   18  C14 UNL     1     -82.103 -16.412   4.015  1.00  0.00     0.034 A 
HETATM   19  C15 UNL     1     -80.976 -16.722   4.747  1.00  0.00     0.059 A 
HETATM   20  N5  UNL     1     -79.754 -17.213   4.441  1.00  0.00    -0.300 N 
HETATM   21  C17 UNL     1     -80.974 -16.533   6.099  1.00  0.00     0.011 A 
HETATM   22  N6  UNL     1     -79.015 -17.332   5.523  1.00  0.00    -0.311 N 
ATOM     23  H5  UNL     1     -79.447 -17.458   3.500  1.00  0.00     0.187 HD
HETATM   24  C16 UNL     1     -79.743 -16.918   6.567  1.00  0.00     0.120 A 
ATOM     25  H6  UNL     1     -78.056 -17.678   5.559  1.00  0.00     0.186 HD
HETATM   26  C18 UNL     1     -82.092 -16.032   6.750  1.00  0.00     0.044 A 
ENDBRANCH  14  16
ENDBRANCH  11  14
ENDBRANCH   4   7
BRANCH   1  27
HETATM   27  C6  UNL     1     -89.143 -17.289  12.046  1.00  0.00     0.057 A 
HETATM   28  C5  UNL     1     -88.395 -18.208  12.790  1.00  0.00     0.034 A 
HETATM   29  C4  UNL     1     -88.360 -18.210  14.167  1.00  0.00     0.039 A 
HETATM   30  C3  UNL     1     -89.081 -17.280  14.887  1.00  0.00     0.069 A 
HETATM   31  C29 UNL     1     -89.825 -16.366  14.172  1.00  0.00     0.039 A 
HETATM   32  C28 UNL     1     -89.868 -16.353  12.796  1.00  0.00     0.034 A 
BRANCH  30  33
HETATM   33  O2  UNL     1     -89.081 -17.239  16.271  1.00  0.00    -0.349 OA
BRANCH  33  34
HETATM   34  C2  UNL     1     -87.941 -17.149  17.063  1.00  0.00     0.201 C 
BRANCH  34  35
HETATM   35  C1  UNL     1     -87.256 -15.832  16.782  1.00  0.00     0.190 C 
BRANCH  35  36
HETATM   36  O1  UNL     1     -87.971 -14.845  17.475  1.00  0.00    -0.399 OA
ATOM     37  H1  UNL     1     -88.053 -14.102  16.890  1.00  0.00     0.209 HD
ENDBRANCH  35  36
ENDBRANCH  34  35
ENDBRANCH  33  34
ENDBRANCH  30  33
ENDBRANCH   1  27
BRANCH   6  38
HETATM   38  C22 UNL     1     -91.305 -18.600  10.073  1.00  0.00    -0.007 A 
HETATM   39  C23 UNL     1     -92.326 -17.935  10.773  1.00  0.00     0.017 A 
HETATM   40  C24 UNL     1     -93.529 -18.507  11.081  1.00  0.00     0.043 A 
HETATM   41  C25 UNL     1     -93.791 -19.785  10.708  1.00  0.00     0.116 A 
HETATM   42  F1  UNL     1     -94.993 -20.330  11.026  1.00  0.00    -0.206 F 
HETATM   43  C26 UNL     1     -92.825 -20.482  10.020  1.00  0.00     0.043 A 
HETATM   44  C27 UNL     1     -91.592 -19.879   9.710  1.00  0.00     0.017 A 
ENDBRANCH   6  38
TORSDOF 9
ENDMDL
MODEL 2
REMARK VINA RESULT: -10.175232017      1.888      2.220
REMARK  9 active torsions:
REMARK  status: ('A' for Active; 'I' for Inactive)
REMARK    1  A    between atoms: O1_1  and  C1_3 
REMARK    2  A    between atoms: C1_3  and  C2_4 
REMARK    3  A    between atoms: C2_4  and  O2_5 
REMARK    4  A    between atoms: O2_5  and  C3_6 
REMARK    5  A    between atoms: C6_9  and  N1_10 
REMARK    6  A    between atoms: C7_13  and  C8_14 
REMARK    7  A    between atoms: C11_19  and  N4_20 
REMARK    8  A    between atoms: N4_20  and  C12_22 
REMARK    9  A    between atoms: C21_35  and  C22_36 
ROOT
HETATM    1  N1  UNL     1     -88.693 -17.256  10.848  1.00  0.00    -0.255 N 
HETATM    2  N2  UNL     1     -87.596 -16.712  10.242  1.00  0.00    -0.293 N 
ATOM      3  H2  UNL     1     -86.822 -16.262  10.730  1.00  0.00     0.187 HD
HETATM    4  C7  UNL     1     -87.684 -16.854   8.932  1.00  0.00     0.061 A 
HETATM    5  C20 UNL     1     -88.876 -17.508   8.717  1.00  0.00     0.064 A 
HETATM    6  C21 UNL     1     -89.516 -17.761   9.949  1.00  0.00     0.069 A 
ENDROOT
BRANCH   4   7
HETATM    7  C8  UNL     1     -86.772 -16.443   7.870  1.00  0.00    -0.003 A 
HETATM    8  C9  UNL     1     -87.234 -16.021   6.643  1.00  0.00     0.031 A 
HETATM    9  C10 UNL     1     -86.412 -15.628   5.619  1.00  0.00     0.090 A 
HETATM   10  N3  UNL     1     -85.095 -15.657   5.828  1.00  0.00    -0.352 N 
HETATM   11  C11 UNL     1     -84.570 -16.058   7.003  1.00  0.00     0.106 A 
ATOM     12  H3  UNL     1     -84.467 -15.367   5.078  1.00  0.00     0.166 HD
HETATM   13  C19 UNL     1     -85.403 -16.460   8.046  1.00  0.00     0.062 A 
BRANCH  11  14
HETATM   14  N4  UNL     1     -83.306 -16.093   7.226  1.00  0.00    -0.342 N 
ATOM     15  H4  UNL     1     -82.873 -17.000   7.397  1.00  0.00     0.167 HD
BRANCH  14  16
HETATM   16  C12 UNL     1     -82.480 -14.943   7.250  1.00  0.00     0.034 A 
HETATM   17  C13 UNL     1     -82.261 -14.176   8.375  1.00  0.00     0.032 A 
HETATM   18  C14 UNL     1     -81.453 -13.061   8.379  1.00  0.00     0.034 A 
HETATM   19  C15 UNL     1     -80.830 -12.690   7.206  1.00  0.00     0.059 A 
HETATM   20  N5  UNL     1     -79.996 -11.687   6.853  1.00  0.00    -0.300 N 
HETATM   21  C17 UNL     1     -81.025 -13.429   6.075  1.00  0.00     0.011 A 
HETATM   22  N6  UNL     1     -79.674 -11.773   5.580  1.00  0.00    -0.311 N 
ATOM     23  H5  UNL     1     -79.661 -10.962   7.488  1.00  0.00     0.187 HD
HETATM   24  C16 UNL     1     -80.296 -12.843   5.070  1.00  0.00     0.120 A 
ATOM     25  H6  UNL     1     -79.059 -11.137   5.073  1.00  0.00     0.186 HD
HETATM   26  C18 UNL     1     -81.843 -14.549   6.087  1.00  0.00     0.044 A 
ENDBRANCH  14  16
ENDBRANCH  11  14
ENDBRANCH   4   7
BRANCH   1  27
HETATM   27  C6  UNL     1     -88.768 -17.191  12.262  1.00  0.00     0.057 A 
HETATM   28  C5  UNL     1     -88.257 -18.212  13.071  1.00  0.00     0.034 A 
HETATM   29  C4  UNL     1     -88.354 -18.203  14.445  1.00  0.00     0.039 A 
HETATM   30  C3  UNL     1     -88.978 -17.159  15.095  1.00  0.00     0.069 A 
HETATM   31  C29 UNL     1     -89.490 -16.144  14.316  1.00  0.00     0.039 A 
HETATM   32  C28 UNL     1     -89.398 -16.140  12.942  1.00  0.00     0.034 A 
BRANCH  30  33
HETATM   33  O2  UNL     1     -89.104 -17.102  16.473  1.00  0.00    -0.349 OA
BRANCH  33  34
HETATM   34  C2  UNL     1     -88.046 -17.190  17.372  1.00  0.00     0.201 C 
BRANCH  34  35
HETATM   35  C1  UNL     1     -87.176 -15.964  17.222  1.00  0.00     0.190 C 
BRANCH  35  36
HETATM   36  O1  UNL     1     -87.993 -14.852  17.475  1.00  0.00    -0.399 OA
ATOM     37  H1  UNL     1     -88.426 -15.012  18.305  1.00  0.00     0.209 HD
ENDBRANCH  35  36
ENDBRANCH  34  35
ENDBRANCH  33  34
ENDBRANCH  30  33
ENDBRANCH   1  27
BRANCH   6  38
HETATM   38  C22 UNL     1     -90.792 -18.431  10.104  1.00  0.00    -0.007 A 
HETATM   39  C23 UNL     1     -91.802 -17.776  10.827  1.00  0.00     0.017 A 
HETATM   40  C24 UNL     1     -93.045 -18.304  11.039  1.00  0.00     0.043 A 
HETATM   41  C25 UNL     1     -93.360 -19.525  10.539  1.00  0.00     0.116 A 
HETATM   42  F1  UNL     1     -94.601 -20.028  10.763  1.00  0.00    -0.206 F 
HETATM   43  C26 UNL     1     -92.406 -20.210   9.822  1.00  0.00     0.043 A 
HETATM   44  C27 UNL     1     -91.132 -19.653   9.614  1.00  0.00     0.017 A 
ENDBRANCH   6  38
TORSDOF 9
ENDMDL
MODEL 3
REMARK VINA RESULT: -10.036526792      1.757      2.051
REMARK  9 active torsions:
REMARK  status: ('A' for Active; 'I' for Inactive)
REMARK    1  A    between atoms: O1_1  and  C1_3 
REMARK    2  A    between atoms: C1_3  and  C2_4 
REMARK    3  A    between atoms: C2_4  and  O2_5 
REMARK    4  A    between atoms: O2_5  and  C3_6 
REMARK    5  A    between atoms: C6_9  and  N1_10 
REMARK    6  A    between atoms: C7_13  and  C8_14 
REMARK    7  A    between atoms: C11_19  and  N4_20 
REMARK    8  A    between atoms: N4_20  and  C12_22 
REMARK    9  A    between atoms: C21_35  and  C22_36 
ROOT
HETATM    1  N1  UNL     1     -88.787 -17.374  10.967  1.00  0.00    -0.255 N 
HETATM    2  N2  UNL     1     -87.679 -16.822  10.389  1.00  0.00    -0.293 N 
ATOM      3  H2  UNL     1     -86.910 -16.387  10.899  1.00  0.00     0.187 HD
HETATM    4  C7  UNL     1     -87.748 -16.933   9.075  1.00  0.00     0.061 A 
HETATM    5  C20 UNL     1     -88.940 -17.575   8.828  1.00  0.00     0.064 A 
HETATM    6  C21 UNL     1     -89.599 -17.854  10.044  1.00  0.00     0.069 A 
ENDROOT
BRANCH   4   7
HETATM    7  C8  UNL     1     -86.819 -16.502   8.037  1.00  0.00    -0.003 A 
HETATM    8  C9  UNL     1     -87.261 -16.011   6.828  1.00  0.00     0.031 A 
HETATM    9  C10 UNL     1     -86.423 -15.597   5.827  1.00  0.00     0.090 A 
HETATM   10  N3  UNL     1     -85.108 -15.674   6.040  1.00  0.00    -0.352 N 
HETATM   11  C11 UNL     1     -84.602 -16.143   7.197  1.00  0.00     0.106 A 
ATOM     12  H3  UNL     1     -84.468 -15.369   5.306  1.00  0.00     0.166 HD
HETATM   13  C19 UNL     1     -85.452 -16.566   8.218  1.00  0.00     0.062 A 
BRANCH  11  14
HETATM   14  N4  UNL     1     -83.341 -16.225   7.424  1.00  0.00    -0.342 N 
ATOM     15  H4  UNL     1     -83.012 -16.963   8.045  1.00  0.00     0.167 HD
BRANCH  14  16
HETATM   16  C12 UNL     1     -82.382 -15.348   6.862  1.00  0.00     0.034 A 
HETATM   17  C13 UNL     1     -81.671 -15.621   5.712  1.00  0.00     0.032 A 
HETATM   18  C14 UNL     1     -80.741 -14.756   5.179  1.00  0.00     0.034 A 
HETATM   19  C15 UNL     1     -80.507 -13.558   5.821  1.00  0.00     0.059 A 
HETATM   20  N5  UNL     1     -79.694 -12.504   5.591  1.00  0.00    -0.300 N 
HETATM   21  C17 UNL     1     -81.194 -13.257   6.961  1.00  0.00     0.011 A 
HETATM   22  N6  UNL     1     -79.847 -11.584   6.519  1.00  0.00    -0.311 N 
ATOM     23  H5  UNL     1     -79.049 -12.430   4.803  1.00  0.00     0.187 HD
HETATM   24  C16 UNL     1     -80.770 -12.022   7.384  1.00  0.00     0.120 A 
ATOM     25  H6  UNL     1     -79.349 -10.695   6.571  1.00  0.00     0.186 HD
HETATM   26  C18 UNL     1     -82.127 -14.140   7.485  1.00  0.00     0.044 A 
ENDBRANCH  14  16
ENDBRANCH  11  14
ENDBRANCH   4   7
BRANCH   1  27
HETATM   27  C6  UNL     1     -88.883 -17.343  12.380  1.00  0.00     0.057 A 
HETATM   28  C5  UNL     1     -89.581 -16.329  13.046  1.00  0.00     0.034 A 
HETATM   29  C4  UNL     1     -89.655 -16.242  14.418  1.00  0.00     0.039 A 
HETATM   30  C3  UNL     1     -89.026 -17.177  15.213  1.00  0.00     0.069 A 
HETATM   31  C29 UNL     1     -88.332 -18.185  14.577  1.00  0.00     0.039 A 
HETATM   32  C28 UNL     1     -88.251 -18.283  13.206  1.00  0.00     0.034 A 
BRANCH  30  33
HETATM   33  O2  UNL     1     -89.068 -17.136  16.596  1.00  0.00    -0.349 OA
BRANCH  33  34
HETATM   34  C2  UNL     1     -87.954 -17.195  17.427  1.00  0.00     0.201 C 
BRANCH  34  35
HETATM   35  C1  UNL     1     -87.123 -15.951  17.217  1.00  0.00     0.190 C 
BRANCH  35  36
HETATM   36  O1  UNL     1     -87.958 -14.855  17.475  1.00  0.00    -0.399 OA
ATOM     37  H1  UNL     1     -87.837 -14.241  16.760  1.00  0.00     0.209 HD
ENDBRANCH  35  36
ENDBRANCH  34  35
ENDBRANCH  33  34
ENDBRANCH  30  33
ENDBRANCH   1  27
BRANCH   6  38
HETATM   38  C22 UNL     1     -90.880 -18.521  10.164  1.00  0.00    -0.007 A 
HETATM   39  C23 UNL     1     -91.895 -17.884  10.898  1.00  0.00     0.017 A 
HETATM   40  C24 UNL     1     -93.142 -18.411  11.081  1.00  0.00     0.043 A 
HETATM   41  C25 UNL     1     -93.459 -19.614  10.538  1.00  0.00     0.116 A 
HETATM   42  F1  UNL     1     -94.705 -20.116  10.733  1.00  0.00    -0.206 F 
HETATM   43  C26 UNL     1     -92.502 -20.281   9.808  1.00  0.00     0.043 A 
HETATM   44  C27 UNL     1     -91.223 -19.724   9.631  1.00  0.00     0.017 A 
ENDBRANCH   6  38
TORSDOF 9
ENDMDL
MODEL 4
REMARK VINA RESULT: -10.036462556      0.400      1.358
REMARK  9 active torsions:
REMARK  status: ('A' for Active; 'I' for Inactive)
REMARK    1  A    between atoms: O1_1  and  C1_3 
REMARK    2  A    between atoms: C1_3  and  C2_4 
REMARK    3  A    between atoms: C2_4  and  O2_5 
REMARK    4  A    between atoms: O2_5  and  C3_6 
REMARK    5  A    between atoms: C6_9  and  N1_10 
REMARK    6  A    between atoms: C7_13  and  C8_14 
REMARK    7  A    between atoms: C11_19  and  N4_20 
REMARK    8  A    between atoms: N4_20  and  C12_22 
REMARK    9  A    between atoms: C21_35  and  C22_36 
ROOT
HETATM    1  N1  UNL     1     -89.162 -17.438  10.772  1.00  0.00    -0.255 N 
HETATM    2  N2  UNL     1     -88.130 -16.850  10.098  1.00  0.00    -0.293 N 
ATOM      3  H2  UNL     1     -87.322 -16.408  10.537  1.00  0.00     0.187 HD
HETATM    4  C7  UNL     1     -88.330 -16.935   8.795  1.00  0.00     0.061 A 
HETATM    5  C20 UNL     1     -89.528 -17.598   8.655  1.00  0.00     0.064 A 
HETATM    6  C21 UNL     1     -90.054 -17.917   9.926  1.00  0.00     0.069 A 
ENDROOT
BRANCH   4   7
HETATM    7  C8  UNL     1     -87.520 -16.462   7.678  1.00  0.00    -0.003 A 
HETATM    8  C9  UNL     1     -87.989 -16.486   6.383  1.00  0.00     0.031 A 
HETATM    9  C10 UNL     1     -87.261 -16.052   5.306  1.00  0.00     0.090 A 
HETATM   10  N3  UNL     1     -86.033 -15.582   5.530  1.00  0.00    -0.352 N 
HETATM   11  C11 UNL     1     -85.507 -15.529   6.769  1.00  0.00     0.106 A 
ATOM     12  H3  UNL     1     -85.475 -15.254   4.741  1.00  0.00     0.166 HD
HETATM   13  C19 UNL     1     -86.244 -15.970   7.867  1.00  0.00     0.062 A 
BRANCH  11  14
HETATM   14  N4  UNL     1     -84.328 -15.080   7.008  1.00  0.00    -0.342 N 
ATOM     15  H4  UNL     1     -84.234 -14.292   7.648  1.00  0.00     0.167 HD
BRANCH  14  16
HETATM   16  C12 UNL     1     -83.151 -15.617   6.433  1.00  0.00     0.034 A 
HETATM   17  C13 UNL     1     -82.038 -15.984   7.160  1.00  0.00     0.032 A 
HETATM   18  C14 UNL     1     -80.901 -16.506   6.584  1.00  0.00     0.034 A 
HETATM   19  C15 UNL     1     -80.869 -16.672   5.215  1.00  0.00     0.059 A 
HETATM   20  N5  UNL     1     -79.952 -17.138   4.339  1.00  0.00    -0.300 N 
HETATM   21  C17 UNL     1     -81.954 -16.318   4.466  1.00  0.00     0.011 A 
HETATM   22  N6  UNL     1     -80.415 -17.090   3.108  1.00  0.00    -0.311 N 
ATOM     23  H5  UNL     1     -79.026 -17.481   4.597  1.00  0.00     0.187 HD
HETATM   24  C16 UNL     1     -81.654 -16.586   3.154  1.00  0.00     0.120 A 
ATOM     25  H6  UNL     1     -79.917 -17.384   2.268  1.00  0.00     0.186 HD
HETATM   26  C18 UNL     1     -83.092 -15.794   5.062  1.00  0.00     0.044 A 
ENDBRANCH  14  16
ENDBRANCH  11  14
ENDBRANCH   4   7
BRANCH   1  27
HETATM   27  C6  UNL     1     -89.115 -17.437  12.188  1.00  0.00     0.057 A 
HETATM   28  C5  UNL     1     -89.873 -16.539  12.947  1.00  0.00     0.034 A 
HETATM   29  C4  UNL     1     -89.815 -16.480  14.322  1.00  0.00     0.039 A 
HETATM   30  C3  UNL     1     -88.984 -17.327  15.024  1.00  0.00     0.069 A 
HETATM   31  C29 UNL     1     -88.227 -18.219  14.295  1.00  0.00     0.039 A 
HETATM   32  C28 UNL     1     -88.277 -18.288  12.921  1.00  0.00     0.034 A 
BRANCH  30  33
HETATM   33  O2  UNL     1     -88.888 -17.309  16.406  1.00  0.00    -0.349 OA
BRANCH  33  34
HETATM   34  C2  UNL     1     -87.702 -17.165  17.118  1.00  0.00     0.201 C 
BRANCH  34  35
HETATM   35  C1  UNL     1     -87.173 -15.766  16.906  1.00  0.00     0.190 C 
BRANCH  35  36
HETATM   36  O1  UNL     1     -88.110 -14.887  17.468  1.00  0.00    -0.399 OA
ATOM     37  H1  UNL     1     -87.626 -14.137  17.791  1.00  0.00     0.209 HD
ENDBRANCH  35  36
ENDBRANCH  34  35
ENDBRANCH  33  34
ENDBRANCH  30  33
ENDBRANCH   1  27
BRANCH   6  38
HETATM   38  C22 UNL     1     -91.303 -18.614  10.160  1.00  0.00    -0.007 A 
HETATM   39  C23 UNL     1     -92.319 -17.941  10.858  1.00  0.00     0.017 A 
HETATM   40  C24 UNL     1     -93.538 -18.491  11.138  1.00  0.00     0.043 A 
HETATM   41  C25 UNL     1     -93.823 -19.756  10.737  1.00  0.00     0.116 A 
HETATM   42  F1  UNL     1     -95.040 -20.280  11.026  1.00  0.00    -0.206 F 
HETATM   43  C26 UNL     1     -92.862 -20.461  10.049  1.00  0.00     0.043 A 
HETATM   44  C27 UNL     1     -91.612 -19.879   9.769  1.00  0.00     0.017 A 
ENDBRANCH   6  38
TORSDOF 9
ENDMDL
MODEL 5
REMARK VINA RESULT: -9.936757894      2.516      3.057
REMARK  9 active torsions:
REMARK  status: ('A' for Active; 'I' for Inactive)
REMARK    1  A    between atoms: O1_1  and  C1_3 
REMARK    2  A    between atoms: C1_3  and  C2_4 
REMARK    3  A    between atoms: C2_4  and  O2_5 
REMARK    4  A    between atoms: O2_5  and  C3_6 
REMARK    5  A    between atoms: C6_9  and  N1_10 
REMARK    6  A    between atoms: C7_13  and  C8_14 
REMARK    7  A    between atoms: C11_19  and  N4_20 
REMARK    8  A    between atoms: N4_20  and  C12_22 
REMARK    9  A    between atoms: C21_35  and  C22_36 
ROOT
HETATM    1  N1  UNL     1     -87.941 -16.426  10.040  1.00  0.00    -0.255 N 
HETATM    2  N2  UNL     1     -86.806 -15.947   9.449  1.00  0.00    -0.293 N 
ATOM      3  H2  UNL     1     -86.076 -15.420   9.927  1.00  0.00     0.187 HD
HETATM    4  C7  UNL     1     -86.791 -16.266   8.167  1.00  0.00     0.061 A 
HETATM    5  C20 UNL     1     -87.958 -16.966   7.955  1.00  0.00     0.064 A 
HETATM    6  C21 UNL     1     -88.687 -17.064   9.159  1.00  0.00     0.069 A 
ENDROOT
BRANCH   4   7
HETATM    7  C8  UNL     1     -85.805 -15.984   7.130  1.00  0.00    -0.003 A 
HETATM    8  C9  UNL     1     -86.161 -15.869   5.805  1.00  0.00     0.031 A 
HETATM    9  C10 UNL     1     -85.267 -15.606   4.800  1.00  0.00     0.090 A 
HETATM   10  N3  UNL     1     -83.983 -15.453   5.130  1.00  0.00    -0.352 N 
HETATM   11  C11 UNL     1     -83.561 -15.551   6.406  1.00  0.00     0.106 A 
ATOM     12  H3  UNL     1     -83.302 -15.256   4.396  1.00  0.00     0.166 HD
HETATM   13  C19 UNL     1     -84.468 -15.820   7.430  1.00  0.00     0.062 A 
BRANCH  11  14
HETATM   14  N4  UNL     1     -82.331 -15.407   6.747  1.00  0.00    -0.342 N 
ATOM     15  H4  UNL     1     -81.808 -16.238   7.020  1.00  0.00     0.167 HD
BRANCH  14  16
HETATM   16  C12 UNL     1     -81.661 -14.159   6.764  1.00  0.00     0.034 A 
HETATM   17  C13 UNL     1     -81.547 -13.363   7.883  1.00  0.00     0.032 A 
HETATM   18  C14 UNL     1     -80.891 -12.152   7.882  1.00  0.00     0.034 A 
HETATM   19  C15 UNL     1     -80.319 -11.711   6.707  1.00  0.00     0.059 A 
HETATM   20  N5  UNL     1     -79.622 -10.610   6.348  1.00  0.00    -0.300 N 
HETATM   21  C17 UNL     1     -80.414 -12.476   5.580  1.00  0.00     0.011 A 
HETATM   22  N6  UNL     1     -79.289 -10.662   5.076  1.00  0.00    -0.311 N 
ATOM     23  H5  UNL     1     -79.386  -9.843   6.979  1.00  0.00     0.187 HD
HETATM   24  C16 UNL     1     -79.766 -11.806   4.572  1.00  0.00     0.120 A 
ATOM     25  H6  UNL     1     -78.762  -9.954   4.565  1.00  0.00     0.186 HD
HETATM   26  C18 UNL     1     -81.079 -13.693   5.599  1.00  0.00     0.044 A 
ENDBRANCH  14  16
ENDBRANCH  11  14
ENDBRANCH   4   7
BRANCH   1  27
HETATM   27  C6  UNL     1     -88.125 -16.173  11.422  1.00  0.00     0.057 A 
HETATM   28  C5  UNL     1     -87.433 -16.898  12.399  1.00  0.00     0.034 A 
HETATM   29  C4  UNL     1     -87.623 -16.710  13.750  1.00  0.00     0.039 A 
HETATM   30  C3  UNL     1     -88.526 -15.774  14.206  1.00  0.00     0.069 A 
HETATM   31  C29 UNL     1     -89.219 -15.049  13.260  1.00  0.00     0.039 A 
HETATM   32  C28 UNL     1     -89.038 -15.227  11.906  1.00  0.00     0.034 A 
BRANCH  30  33
HETATM   33  O2  UNL     1     -88.755 -15.546  15.553  1.00  0.00    -0.349 OA
BRANCH  33  34
HETATM   34  C2  UNL     1     -87.760 -15.379  16.510  1.00  0.00     0.201 C 
BRANCH  34  35
HETATM   35  C1  UNL     1     -87.812 -16.542  17.474  1.00  0.00     0.190 C 
BRANCH  35  36
HETATM   36  O1  UNL     1     -89.130 -17.020  17.464  1.00  0.00    -0.399 OA
ATOM     37  H1  UNL     1     -89.495 -16.836  18.322  1.00  0.00     0.209 HD
ENDBRANCH  35  36
ENDBRANCH  34  35
ENDBRANCH  33  34
ENDBRANCH  30  33
ENDBRANCH   1  27
BRANCH   6  38
HETATM   38  C22 UNL     1     -89.965 -17.732   9.307  1.00  0.00    -0.007 A 
HETATM   39  C23 UNL     1     -89.968 -19.121   9.514  1.00  0.00     0.017 A 
HETATM   40  C24 UNL     1     -91.107 -19.861   9.669  1.00  0.00     0.043 A 
HETATM   41  C25 UNL     1     -92.322 -19.258   9.628  1.00  0.00     0.116 A 
HETATM   42  F1  UNL     1     -93.438 -20.014   9.785  1.00  0.00    -0.206 F 
HETATM   43  C26 UNL     1     -92.376 -17.897   9.428  1.00  0.00     0.043 A 
HETATM   44  C27 UNL     1     -91.194 -17.151   9.270  1.00  0.00     0.017 A 
ENDBRANCH   6  38
TORSDOF 9
ENDMDL
