MODEL 1
REMARK VINA RESULT: -7.874901629      0.000      0.000
REMARK  8 active torsions:
REMARK  status: ('A' for Active; 'I' for Inactive)
REMARK    1  A    between atoms: C7_8  and  S1_9 
REMARK    2  A    between atoms: S1_9  and  C8_10 
REMARK    3  A    between atoms: C8_10  and  C9_11 
REMARK    4  A    between atoms: C9_11  and  O1_12 
REMARK    5  A    between atoms: C9_11  and  C10_14 
REMARK    6  A    between atoms: C10_14  and  N2_15 
REMARK    7  A    between atoms: C12_17  and  C13_18 
REMARK    8  A    between atoms: C17_23  and  C18_24 
ROOT
HETATM    1  C10 UNL     1     -84.648 -17.740  13.743  1.00  0.00     0.182 C 
ENDROOT
BRANCH   1   2
HETATM    2  C9  UNL     1     -84.790 -16.662  14.778  1.00  0.00     0.147 C 
BRANCH   2   3
HETATM    3  C8  UNL     1     -84.826 -15.322  14.118  1.00  0.00     0.113 C 
BRANCH   3   4
HETATM    4  S1  UNL     1     -86.345 -14.465  14.650  1.00  0.00    -0.125 SA
BRANCH   4   5
HETATM    5  C7  UNL     1     -87.574 -14.634  13.393  1.00  0.00     0.028 A 
HETATM    6  C6  UNL     1     -88.741 -15.391  13.502  1.00  0.00     0.011 A 
HETATM    7  C5  UNL     1     -89.277 -16.175  14.507  1.00  0.00     0.041 A 
HETATM    8  C23 UNL     1     -89.377 -15.224  12.290  1.00  0.00     0.049 A 
HETATM    9  C4  UNL     1     -90.496 -16.824  14.312  1.00  0.00     0.047 A 
HETATM   10  C3  UNL     1     -91.141 -16.660  13.098  1.00  0.00     0.035 A 
HETATM   11  N1  UNL     1     -91.085 -17.636  15.308  1.00  0.00    -0.102 NA
HETATM   12  C2  UNL     1     -90.593 -15.876  12.107  1.00  0.00    -0.033 A 
HETATM   13  C1  UNL     1     -91.306 -15.728  10.833  1.00  0.00     0.050 C 
HETATM   14  N5  UNL     1     -88.634 -14.416  11.506  1.00  0.00    -0.363 N 
HETATM   15  C22 UNL     1     -87.525 -14.033  12.140  1.00  0.00     0.107 A 
ATOM     16  H5  UNL     1     -88.886 -14.136  10.558  1.00  0.00     0.165 HD
ENDBRANCH   4   5
ENDBRANCH   3   4
ENDBRANCH   2   3
BRANCH   2  17
HETATM   17  O1  UNL     1     -85.985 -16.895  15.491  1.00  0.00    -0.393 OA
ATOM     18  H1  UNL     1     -85.894 -16.617  16.395  1.00  0.00     0.210 HD
ENDBRANCH   2  17
ENDBRANCH   1   2
BRANCH   1  19
HETATM   19  N2  UNL     1     -85.888 -18.042  13.067  1.00  0.00    -0.284 N 
HETATM   20  C11 UNL     1     -86.238 -17.721  11.817  1.00  0.00     0.143 A 
HETATM   21  C12 UNL     1     -87.529 -18.201  11.565  1.00  0.00     0.076 A 
HETATM   22  N3  UNL     1     -87.911 -18.805  12.697  1.00  0.00    -0.284 N 
HETATM   23  N4  UNL     1     -86.940 -18.708  13.581  1.00  0.00    -0.240 N 
ATOM     24  H3  UNL     1     -88.809 -19.264  12.850  1.00  0.00     0.188 HD
ATOM     25  H4  UNL     1     -86.979 -19.086  14.528  1.00  0.00     0.208 HD
BRANCH  21  26
HETATM   26  C13 UNL     1     -88.258 -18.047  10.312  1.00  0.00    -0.005 A 
HETATM   27  C14 UNL     1     -87.788 -17.278   9.273  1.00  0.00     0.033 A 
HETATM   28  C15 UNL     1     -88.494 -17.141   8.085  1.00  0.00     0.012 A 
HETATM   29 BR1  UNL     1     -87.850 -16.080   6.648  1.00  0.00    -0.051 Br
HETATM   30  C16 UNL     1     -89.702 -17.790   7.928  1.00  0.00     0.026 A 
HETATM   31  C17 UNL     1     -90.186 -18.567   8.963  1.00  0.00    -0.053 A 
HETATM   32  C21 UNL     1     -89.464 -18.692  10.147  1.00  0.00     0.021 A 
BRANCH  31  33
HETATM   33  C18 UNL     1     -91.468 -19.288   8.863  1.00  0.00     0.010 C 
HETATM   34  C19 UNL     1     -91.170 -20.699   8.400  1.00  0.00     0.015 C 
HETATM   35  C20 UNL     1     -92.207 -19.319  10.190  1.00  0.00     0.015 C 
ENDBRANCH  31  33
ENDBRANCH  21  26
ENDBRANCH   1  19
TORSDOF 8
ENDMDL
MODEL 2
REMARK VINA RESULT: -7.679024391      3.617      5.553
REMARK  8 active torsions:
REMARK  status: ('A' for Active; 'I' for Inactive)
REMARK    1  A    between atoms: C7_8  and  S1_9 
REMARK    2  A    between atoms: S1_9  and  C8_10 
REMARK    3  A    between atoms: C8_10  and  C9_11 
REMARK    4  A    between atoms: C9_11  and  O1_12 
REMARK    5  A    between atoms: C9_11  and  C10_14 
REMARK    6  A    between atoms: C10_14  and  N2_15 
REMARK    7  A    between atoms: C12_17  and  C13_18 
REMARK    8  A    between atoms: C17_23  and  C18_24 
ROOT
HETATM    1  C10 UNL     1     -87.452 -16.392   5.809  1.00  0.00     0.182 C 
ENDROOT
BRANCH   1   2
HETATM    2  C9  UNL     1     -86.682 -15.294   6.485  1.00  0.00     0.147 C 
BRANCH   2   3
HETATM    3  C8  UNL     1     -85.295 -15.757   6.790  1.00  0.00     0.113 C 
BRANCH   3   4
HETATM    4  S1  UNL     1     -84.996 -15.531   8.574  1.00  0.00    -0.125 SA
BRANCH   4   5
HETATM    5  C7  UNL     1     -86.240 -16.396   9.482  1.00  0.00     0.028 A 
HETATM    6  C6  UNL     1     -87.098 -15.823  10.422  1.00  0.00     0.011 A 
HETATM    7  C5  UNL     1     -87.255 -14.540  10.910  1.00  0.00     0.041 A 
HETATM    8  C23 UNL     1     -87.880 -16.871  10.860  1.00  0.00     0.049 A 
HETATM    9  C4  UNL     1     -88.228 -14.273  11.873  1.00  0.00     0.047 A 
HETATM   10  C3  UNL     1     -89.017 -15.319  12.317  1.00  0.00     0.035 A 
HETATM   11  N1  UNL     1     -88.427 -12.977  12.403  1.00  0.00    -0.102 NA
HETATM   12  C2  UNL     1     -88.847 -16.592  11.822  1.00  0.00    -0.033 A 
HETATM   13  C1  UNL     1     -89.703 -17.676  12.318  1.00  0.00     0.050 C 
HETATM   14  N5  UNL     1     -87.510 -18.000  10.220  1.00  0.00    -0.363 N 
HETATM   15  C22 UNL     1     -86.512 -17.755   9.370  1.00  0.00     0.107 A 
ATOM     16  H5  UNL     1     -87.936 -18.915  10.366  1.00  0.00     0.165 HD
ENDBRANCH   4   5
ENDBRANCH   3   4
ENDBRANCH   2   3
BRANCH   2  17
HETATM   17  O1  UNL     1     -86.654 -14.183   5.617  1.00  0.00    -0.393 OA
ATOM     18  H1  UNL     1     -87.100 -14.384   4.803  1.00  0.00     0.210 HD
ENDBRANCH   2  17
ENDBRANCH   1   2
BRANCH   1  19
HETATM   19  N2  UNL     1     -88.832 -16.459   6.230  1.00  0.00    -0.284 N 
HETATM   20  C11 UNL     1     -89.311 -16.908   7.395  1.00  0.00     0.143 A 
HETATM   21  C12 UNL     1     -90.707 -16.802   7.387  1.00  0.00     0.076 A 
HETATM   22  N3  UNL     1     -91.018 -16.281   6.193  1.00  0.00    -0.284 N 
HETATM   23  N4  UNL     1     -89.908 -16.081   5.513  1.00  0.00    -0.240 N 
ATOM     24  H3  UNL     1     -91.961 -16.074   5.864  1.00  0.00     0.188 HD
ATOM     25  H4  UNL     1     -89.868 -15.693   4.570  1.00  0.00     0.208 HD
BRANCH  21  26
HETATM   26  C13 UNL     1     -91.591 -17.191   8.479  1.00  0.00    -0.005 A 
HETATM   27  C14 UNL     1     -92.358 -16.281   9.169  1.00  0.00     0.033 A 
HETATM   28  C15 UNL     1     -93.195 -16.666  10.208  1.00  0.00     0.012 A 
HETATM   29 BR1  UNL     1     -94.255 -15.413  11.164  1.00  0.00    -0.051 Br
HETATM   30  C16 UNL     1     -93.271 -17.996  10.568  1.00  0.00     0.026 A 
HETATM   31  C17 UNL     1     -92.508 -18.922   9.882  1.00  0.00    -0.053 A 
HETATM   32  C21 UNL     1     -91.674 -18.516   8.844  1.00  0.00     0.021 A 
BRANCH  31  33
HETATM   33  C18 UNL     1     -92.541 -20.358  10.214  1.00  0.00     0.010 C 
HETATM   34  C19 UNL     1     -93.707 -20.588  11.153  1.00  0.00     0.015 C 
HETATM   35  C20 UNL     1     -92.690 -21.224   8.975  1.00  0.00     0.015 C 
ENDBRANCH  31  33
ENDBRANCH  21  26
ENDBRANCH   1  19
TORSDOF 8
ENDMDL
MODEL 3
REMARK VINA RESULT: -7.653953998      1.840      2.417
REMARK  8 active torsions:
REMARK  status: ('A' for Active; 'I' for Inactive)
REMARK    1  A    between atoms: C7_8  and  S1_9 
REMARK    2  A    between atoms: S1_9  and  C8_10 
REMARK    3  A    between atoms: C8_10  and  C9_11 
REMARK    4  A    between atoms: C9_11  and  O1_12 
REMARK    5  A    between atoms: C9_11  and  C10_14 
REMARK    6  A    between atoms: C10_14  and  N2_15 
REMARK    7  A    between atoms: C12_17  and  C13_18 
REMARK    8  A    between atoms: C17_23  and  C18_24 
ROOT
HETATM    1  C10 UNL     1     -87.134 -19.304  14.825  1.00  0.00     0.182 C 
ENDROOT
BRANCH   1   2
HETATM    2  C9  UNL     1     -86.665 -18.499  16.003  1.00  0.00     0.147 C 
BRANCH   2   3
HETATM    3  C8  UNL     1     -87.758 -18.392  17.015  1.00  0.00     0.113 C 
BRANCH   3   4
HETATM    4  S1  UNL     1     -87.975 -16.631  17.436  1.00  0.00    -0.125 SA
BRANCH   4   5
HETATM    5  C7  UNL     1     -87.638 -15.649  16.007  1.00  0.00     0.028 A 
HETATM    6  C6  UNL     1     -88.442 -15.577  14.869  1.00  0.00     0.011 A 
HETATM    7  C5  UNL     1     -89.635 -16.173  14.507  1.00  0.00     0.041 A 
HETATM    8  C23 UNL     1     -87.782 -14.699  14.034  1.00  0.00     0.049 A 
HETATM    9  C4  UNL     1     -90.208 -15.893  13.267  1.00  0.00     0.047 A 
HETATM   10  C3  UNL     1     -89.552 -15.014  12.424  1.00  0.00     0.035 A 
HETATM   11  N1  UNL     1     -91.426 -16.478  12.851  1.00  0.00    -0.102 NA
HETATM   12  C2  UNL     1     -88.363 -14.428  12.799  1.00  0.00    -0.033 A 
HETATM   13  C1  UNL     1     -87.698 -13.501  11.877  1.00  0.00     0.050 C 
HETATM   14  N5  UNL     1     -86.653 -14.275  14.638  1.00  0.00    -0.363 N 
HETATM   15  C22 UNL     1     -86.526 -14.830  15.844  1.00  0.00     0.107 A 
ATOM     16  H5  UNL     1     -85.988 -13.619  14.229  1.00  0.00     0.165 HD
ENDBRANCH   4   5
ENDBRANCH   3   4
ENDBRANCH   2   3
BRANCH   2  17
HETATM   17  O1  UNL     1     -85.540 -19.147  16.555  1.00  0.00    -0.393 OA
ATOM     18  H1  UNL     1     -85.516 -19.030  17.497  1.00  0.00     0.210 HD
ENDBRANCH   2  17
ENDBRANCH   1   2
BRANCH   1  19
HETATM   19  N2  UNL     1     -87.016 -18.597  13.572  1.00  0.00    -0.284 N 
HETATM   20  C11 UNL     1     -87.864 -18.616  12.539  1.00  0.00     0.143 A 
HETATM   21  C12 UNL     1     -87.365 -17.795  11.521  1.00  0.00     0.076 A 
HETATM   22  N3  UNL     1     -86.212 -17.304  11.993  1.00  0.00    -0.284 N 
HETATM   23  N4  UNL     1     -86.010 -17.780  13.203  1.00  0.00    -0.240 N 
ATOM     24  H3  UNL     1     -85.592 -16.665  11.495  1.00  0.00     0.188 HD
ATOM     25  H4  UNL     1     -85.200 -17.561  13.784  1.00  0.00     0.208 HD
BRANCH  21  26
HETATM   26  C13 UNL     1     -88.007 -17.558  10.234  1.00  0.00    -0.005 A 
HETATM   27  C14 UNL     1     -87.347 -16.981   9.173  1.00  0.00     0.033 A 
HETATM   28  C15 UNL     1     -87.972 -16.760   7.953  1.00  0.00     0.012 A 
HETATM   29 BR1  UNL     1     -87.066 -15.964   6.487  1.00  0.00    -0.051 Br
HETATM   30  C16 UNL     1     -89.292 -17.127   7.784  1.00  0.00     0.026 A 
HETATM   31  C17 UNL     1     -89.967 -17.709   8.840  1.00  0.00    -0.053 A 
HETATM   32  C21 UNL     1     -89.324 -17.921  10.057  1.00  0.00     0.021 A 
BRANCH  31  33
HETATM   33  C18 UNL     1     -91.378 -18.124   8.729  1.00  0.00     0.010 C 
HETATM   34  C19 UNL     1     -91.561 -19.366   9.577  1.00  0.00     0.015 C 
HETATM   35  C20 UNL     1     -92.329 -17.033   9.190  1.00  0.00     0.015 C 
ENDBRANCH  31  33
ENDBRANCH  21  26
ENDBRANCH   1  19
TORSDOF 8
ENDMDL
MODEL 4
REMARK VINA RESULT: -7.546258339      2.139      3.506
REMARK  8 active torsions:
REMARK  status: ('A' for Active; 'I' for Inactive)
REMARK    1  A    between atoms: C7_8  and  S1_9 
REMARK    2  A    between atoms: S1_9  and  C8_10 
REMARK    3  A    between atoms: C8_10  and  C9_11 
REMARK    4  A    between atoms: C9_11  and  O1_12 
REMARK    5  A    between atoms: C9_11  and  C10_14 
REMARK    6  A    between atoms: C10_14  and  N2_15 
REMARK    7  A    between atoms: C12_17  and  C13_18 
REMARK    8  A    between atoms: C17_23  and  C18_24 
ROOT
HETATM    1  C10 UNL     1     -87.060 -19.166  15.483  1.00  0.00     0.182 C 
ENDROOT
BRANCH   1   2
HETATM    2  C9  UNL     1     -86.584 -18.230  16.557  1.00  0.00     0.147 C 
BRANCH   2   3
HETATM    3  C8  UNL     1     -87.754 -17.650  17.283  1.00  0.00     0.113 C 
BRANCH   3   4
HETATM    4  S1  UNL     1     -87.483 -15.856  17.460  1.00  0.00    -0.125 SA
BRANCH   4   5
HETATM    5  C7  UNL     1     -86.909 -15.203  15.923  1.00  0.00     0.028 A 
HETATM    6  C6  UNL     1     -87.667 -15.103  14.755  1.00  0.00     0.011 A 
HETATM    7  C5  UNL     1     -88.969 -15.438  14.434  1.00  0.00     0.041 A 
HETATM    8  C23 UNL     1     -86.809 -14.543  13.832  1.00  0.00     0.049 A 
HETATM    9  C4  UNL     1     -89.451 -15.210  13.145  1.00  0.00     0.047 A 
HETATM   10  C3  UNL     1     -88.596 -14.648  12.214  1.00  0.00     0.035 A 
HETATM   11  N1  UNL     1     -90.774 -15.534  12.768  1.00  0.00    -0.102 NA
HETATM   12  C2  UNL     1     -87.301 -14.321  12.549  1.00  0.00    -0.033 A 
HETATM   13  C1  UNL     1     -86.424 -13.727  11.534  1.00  0.00     0.050 C 
HETATM   14  N5  UNL     1     -85.612 -14.323  14.415  1.00  0.00    -0.363 N 
HETATM   15  C22 UNL     1     -85.629 -14.712  15.690  1.00  0.00     0.107 A 
ATOM     16  H5  UNL     1     -84.804 -13.915  13.944  1.00  0.00     0.165 HD
ENDBRANCH   4   5
ENDBRANCH   3   4
ENDBRANCH   2   3
BRANCH   2  17
HETATM   17  O1  UNL     1     -85.765 -18.963  17.443  1.00  0.00    -0.393 OA
ATOM     18  H1  UNL     1     -86.012 -18.792  18.344  1.00  0.00     0.210 HD
ENDBRANCH   2  17
ENDBRANCH   1   2
BRANCH   1  19
HETATM   19  N2  UNL     1     -86.879 -18.639  14.152  1.00  0.00    -0.284 N 
HETATM   20  C11 UNL     1     -87.769 -18.613  13.154  1.00  0.00     0.143 A 
HETATM   21  C12 UNL     1     -87.180 -18.020  12.031  1.00  0.00     0.076 A 
HETATM   22  N3  UNL     1     -85.934 -17.706  12.406  1.00  0.00    -0.284 N 
HETATM   23  N4  UNL     1     -85.760 -18.074  13.658  1.00  0.00    -0.240 N 
ATOM     24  H3  UNL     1     -85.233 -17.255  11.817  1.00  0.00     0.188 HD
ATOM     25  H4  UNL     1     -84.895 -17.948  14.184  1.00  0.00     0.208 HD
BRANCH  21  26
HETATM   26  C13 UNL     1     -87.834 -17.812  10.744  1.00  0.00    -0.005 A 
HETATM   27  C14 UNL     1     -89.174 -18.056  10.548  1.00  0.00     0.033 A 
HETATM   28  C15 UNL     1     -89.783 -17.853   9.317  1.00  0.00     0.012 A 
HETATM   29 BR1  UNL     1     -91.632 -18.189   9.041  1.00  0.00    -0.051 Br
HETATM   30  C16 UNL     1     -89.037 -17.393   8.252  1.00  0.00     0.026 A 
HETATM   31  C17 UNL     1     -87.690 -17.142   8.434  1.00  0.00    -0.053 A 
HETATM   32  C21 UNL     1     -87.097 -17.352   9.676  1.00  0.00     0.021 A 
BRANCH  31  33
HETATM   33  C18 UNL     1     -86.834 -16.649   7.340  1.00  0.00     0.010 C 
HETATM   34  C19 UNL     1     -87.716 -15.891   6.369  1.00  0.00     0.015 C 
HETATM   35  C20 UNL     1     -85.724 -15.746   7.850  1.00  0.00     0.015 C 
ENDBRANCH  31  33
ENDBRANCH  21  26
ENDBRANCH   1  19
TORSDOF 8
ENDMDL
MODEL 5
REMARK VINA RESULT: -7.518884170      4.473      5.703
REMARK  8 active torsions:
REMARK  status: ('A' for Active; 'I' for Inactive)
REMARK    1  A    between atoms: C7_8  and  S1_9 
REMARK    2  A    between atoms: S1_9  and  C8_10 
REMARK    3  A    between atoms: C8_10  and  C9_11 
REMARK    4  A    between atoms: C9_11  and  O1_12 
REMARK    5  A    between atoms: C9_11  and  C10_14 
REMARK    6  A    between atoms: C10_14  and  N2_15 
REMARK    7  A    between atoms: C12_17  and  C13_18 
REMARK    8  A    between atoms: C17_23  and  C18_24 
ROOT
HETATM    1  C10 UNL     1     -85.280 -17.887  13.925  1.00  0.00     0.182 C 
ENDROOT
BRANCH   1   2
HETATM    2  C9  UNL     1     -85.206 -19.297  14.438  1.00  0.00     0.147 C 
BRANCH   2   3
HETATM    3  C8  UNL     1     -86.552 -19.739  14.911  1.00  0.00     0.113 C 
BRANCH   3   4
HETATM    4  S1  UNL     1     -86.369 -20.425  16.591  1.00  0.00    -0.125 SA
BRANCH   4   5
HETATM    5  C7  UNL     1     -86.894 -22.111  16.587  1.00  0.00     0.028 A 
HETATM    6  C6  UNL     1     -88.221 -22.544  16.596  1.00  0.00     0.011 A 
HETATM    7  C5  UNL     1     -89.437 -21.886  16.611  1.00  0.00     0.041 A 
HETATM    8  C23 UNL     1     -88.137 -23.920  16.590  1.00  0.00     0.049 A 
HETATM    9  C4  UNL     1     -90.626 -22.615  16.618  1.00  0.00     0.047 A 
HETATM   10  C3  UNL     1     -90.549 -23.996  16.611  1.00  0.00     0.035 A 
HETATM   11  N1  UNL     1     -91.893 -21.988  16.633  1.00  0.00    -0.102 NA
HETATM   12  C2  UNL     1     -89.330 -24.637  16.597  1.00  0.00    -0.033 A 
HETATM   13  C1  UNL     1     -89.289 -26.103  16.590  1.00  0.00     0.050 C 
HETATM   14  N5  UNL     1     -86.838 -24.286  16.576  1.00  0.00    -0.363 N 
HETATM   15  C22 UNL     1     -86.046 -23.213  16.574  1.00  0.00     0.107 A 
ATOM     16  H5  UNL     1     -86.508 -25.250  16.569  1.00  0.00     0.165 HD
ENDBRANCH   4   5
ENDBRANCH   3   4
ENDBRANCH   2   3
BRANCH   2  17
HETATM   17  O1  UNL     1     -84.755 -20.121  13.385  1.00  0.00    -0.393 OA
ATOM     18  H1  UNL     1     -84.646 -21.015  13.685  1.00  0.00     0.210 HD
ENDBRANCH   2  17
ENDBRANCH   1   2
BRANCH   1  19
HETATM   19  N2  UNL     1     -85.465 -17.814  12.495  1.00  0.00    -0.284 N 
HETATM   20  C11 UNL     1     -86.602 -17.592  11.827  1.00  0.00     0.143 A 
HETATM   21  C12 UNL     1     -86.337 -17.609  10.453  1.00  0.00     0.076 A 
HETATM   22  N3  UNL     1     -85.023 -17.844  10.347  1.00  0.00    -0.284 N 
HETATM   23  N4  UNL     1     -84.513 -17.965  11.554  1.00  0.00    -0.240 N 
ATOM     24  H3  UNL     1     -84.502 -17.917   9.473  1.00  0.00     0.188 HD
ATOM     25  H4  UNL     1     -83.529 -18.149  11.751  1.00  0.00     0.208 HD
BRANCH  21  26
HETATM   26  C13 UNL     1     -87.323 -17.406   9.398  1.00  0.00    -0.005 A 
HETATM   27  C14 UNL     1     -86.994 -16.879   8.170  1.00  0.00     0.033 A 
HETATM   28  C15 UNL     1     -87.944 -16.691   7.176  1.00  0.00     0.012 A 
HETATM   29 BR1  UNL     1     -87.496 -15.964   5.480  1.00  0.00    -0.051 Br
HETATM   30  C16 UNL     1     -89.259 -17.038   7.411  1.00  0.00     0.026 A 
HETATM   31  C17 UNL     1     -89.604 -17.570   8.639  1.00  0.00    -0.053 A 
HETATM   32  C21 UNL     1     -88.637 -17.750   9.624  1.00  0.00     0.021 A 
BRANCH  31  33
HETATM   33  C18 UNL     1     -90.989 -17.963   8.957  1.00  0.00     0.010 C 
HETATM   34  C19 UNL     1     -90.992 -18.558  10.350  1.00  0.00     0.015 C 
HETATM   35  C20 UNL     1     -91.943 -16.782   8.893  1.00  0.00     0.015 C 
ENDBRANCH  31  33
ENDBRANCH  21  26
ENDBRANCH   1  19
TORSDOF 8
ENDMDL
