MODEL 1
REMARK VINA RESULT: -8.945979114      0.000      0.000
REMARK  8 active torsions:
REMARK  status: ('A' for Active; 'I' for Inactive)
REMARK    1  A    between atoms: C4_4  and  C5_5 
REMARK    2  A    between atoms: C5_5  and  O1_6 
REMARK    3  A    between atoms: O1_6  and  C6_7 
REMARK    4  A    between atoms: C11_12  and  O2_13 
REMARK    5  A    between atoms: N1_15  and  C12_16 
REMARK    6  A    between atoms: C12_16  and  C14_18 
REMARK    7  A    between atoms: C24_32  and  C25_33 
REMARK    8  A    between atoms: C25_33  and  C26_34 
ROOT
HETATM    1  C6  UNL     1     -90.738 -16.922  13.167  1.00  0.00     0.104 A 
HETATM    2  C7  UNL     1     -89.669 -17.001  12.329  1.00  0.00     0.071 A 
HETATM    3  C8  UNL     1     -88.390 -17.353  12.756  1.00  0.00     0.059 A 
HETATM    4  C9  UNL     1     -88.177 -17.636  14.072  1.00  0.00     0.071 A 
HETATM    5  C10 UNL     1     -89.224 -17.570  14.929  1.00  0.00     0.071 A 
HETATM    6  C11 UNL     1     -90.511 -17.215  14.494  1.00  0.00     0.101 A 
HETATM    7  N1  UNL     1     -86.906 -18.105  14.601  1.00  0.00    -0.282 N 
HETATM    8  C23 UNL     1     -85.937 -18.228  13.530  1.00  0.00     0.251 C 
HETATM    9  O3  UNL     1     -85.068 -19.102  13.573  1.00  0.00    -0.270 OA
HETATM   10  C24 UNL     1     -85.955 -17.301  12.335  1.00  0.00     0.175 C 
HETATM   11  N4  UNL     1     -87.310 -17.366  11.814  1.00  0.00    -0.375 N 
ATOM     12  H4  UNL     1     -87.486 -17.418  10.811  1.00  0.00     0.160 HD
ENDROOT
BRANCH   7  13
HETATM   13  C12 UNL     1     -86.640 -18.484  15.943  1.00  0.00     0.029 C 
HETATM   14  C13 UNL     1     -86.243 -17.455  16.954  1.00  0.00     0.070 C 
BRANCH  13  15
HETATM   15  C14 UNL     1     -86.659 -19.906  16.325  1.00  0.00     0.028 A 
HETATM   16  C15 UNL     1     -87.907 -20.560  16.452  1.00  0.00     0.047 A 
HETATM   17  C16 UNL     1     -88.000 -21.951  16.638  1.00  0.00     0.047 A 
HETATM   18  C17 UNL     1     -86.854 -22.722  16.706  1.00  0.00     0.019 A 
HETATM   19  N3  UNL     1     -89.084 -22.772  16.778  1.00  0.00    -0.359 N 
HETATM   20  C18 UNL     1     -85.673 -22.073  16.587  1.00  0.00     0.059 A 
HETATM   21  C20 UNL     1     -87.260 -24.031  16.894  1.00  0.00     0.074 A 
HETATM   22  C19 UNL     1     -85.577 -20.733  16.405  1.00  0.00     0.129 A 
HETATM   23  F1  UNL     1     -84.338 -20.229  16.411  1.00  0.00    -0.205 F 
HETATM   24  N2  UNL     1     -86.406 -25.153  16.996  1.00  0.00    -0.100 NA
HETATM   25  C21 UNL     1     -88.632 -24.019  16.932  1.00  0.00     0.118 A 
HETATM   26  C22 UNL     1     -90.493 -22.318  16.771  1.00  0.00     0.156 C 
ENDBRANCH  13  15
ENDBRANCH   7  13
BRANCH  10  27
HETATM   27  C25 UNL     1     -84.990 -17.837  11.342  1.00  0.00     0.038 C 
BRANCH  27  28
HETATM   28  C26 UNL     1     -84.583 -17.026  10.192  1.00  0.00    -0.020 C 
HETATM   29  C27 UNL     1     -84.683 -15.549  10.238  1.00  0.00     0.009 C 
HETATM   30  C28 UNL     1     -85.405 -17.558   8.981  1.00  0.00     0.009 C 
ENDBRANCH  27  28
ENDBRANCH  10  27
BRANCH   6  31
HETATM   31  O2  UNL     1     -91.551 -17.167  15.377  1.00  0.00    -0.358 OA
ATOM     32  H2  UNL     1     -91.588 -17.797  16.086  1.00  0.00     0.217 HD
ENDBRANCH   6  31
BRANCH   1  33
HETATM   33  O1  UNL     1     -92.045 -16.574  12.775  1.00  0.00    -0.345 OA
BRANCH  33  34
HETATM   34  C5  UNL     1     -92.399 -16.694  11.344  1.00  0.00     0.203 C 
BRANCH  34  35
HETATM   35  C4  UNL     1     -93.097 -18.009  11.308  1.00  0.00     0.001 C 
HETATM   36  C2  UNL     1     -92.700 -19.069  10.652  1.00  0.00    -0.089 C 
HETATM   37  C1  UNL     1     -91.497 -19.177   9.836  1.00  0.00     0.042 C 
HETATM   38  C3  UNL     1     -93.590 -20.308  10.715  1.00  0.00     0.042 C 
ENDBRANCH  34  35
ENDBRANCH  33  34
ENDBRANCH   1  33
TORSDOF 8
ENDMDL
MODEL 2
REMARK VINA RESULT: -8.763788973      3.849      5.380
REMARK  8 active torsions:
REMARK  status: ('A' for Active; 'I' for Inactive)
REMARK    1  A    between atoms: C4_4  and  C5_5 
REMARK    2  A    between atoms: C5_5  and  O1_6 
REMARK    3  A    between atoms: O1_6  and  C6_7 
REMARK    4  A    between atoms: C11_12  and  O2_13 
REMARK    5  A    between atoms: N1_15  and  C12_16 
REMARK    6  A    between atoms: C12_16  and  C14_18 
REMARK    7  A    between atoms: C24_32  and  C25_33 
REMARK    8  A    between atoms: C25_33  and  C26_34 
ROOT
HETATM    1  C6  UNL     1     -91.322 -16.666  11.397  1.00  0.00     0.104 A 
HETATM    2  C7  UNL     1     -90.597 -16.577  10.249  1.00  0.00     0.071 A 
HETATM    3  C8  UNL     1     -89.210 -16.707  10.211  1.00  0.00     0.059 A 
HETATM    4  C9  UNL     1     -88.525 -16.933  11.368  1.00  0.00     0.071 A 
HETATM    5  C10 UNL     1     -89.222 -17.032  12.525  1.00  0.00     0.071 A 
HETATM    6  C11 UNL     1     -90.620 -16.901  12.558  1.00  0.00     0.101 A 
HETATM    7  N1  UNL     1     -87.093 -17.179  11.423  1.00  0.00    -0.282 N 
HETATM    8  C23 UNL     1     -86.532 -17.152  10.087  1.00  0.00     0.251 C 
HETATM    9  O3  UNL     1     -85.570 -17.870   9.800  1.00  0.00    -0.270 OA
HETATM   10  C24 UNL     1     -87.098 -16.256   9.007  1.00  0.00     0.175 C 
HETATM   11  N4  UNL     1     -88.520 -16.551   8.964  1.00  0.00    -0.375 N 
ATOM     12  H4  UNL     1     -89.011 -16.644   8.075  1.00  0.00     0.160 HD
ENDROOT
BRANCH   7  13
HETATM   13  C12 UNL     1     -86.336 -17.492  12.583  1.00  0.00     0.029 C 
HETATM   14  C13 UNL     1     -86.181 -18.914  13.022  1.00  0.00     0.070 C 
BRANCH  13  15
HETATM   15  C14 UNL     1     -85.778 -16.412  13.413  1.00  0.00     0.028 A 
HETATM   16  C15 UNL     1     -86.390 -16.122  14.655  1.00  0.00     0.047 A 
HETATM   17  C16 UNL     1     -85.813 -15.232  15.577  1.00  0.00     0.047 A 
HETATM   18  C17 UNL     1     -84.615 -14.608  15.284  1.00  0.00     0.019 A 
HETATM   19  N3  UNL     1     -86.227 -14.819  16.813  1.00  0.00    -0.359 N 
HETATM   20  C18 UNL     1     -84.050 -14.897  14.090  1.00  0.00     0.059 A 
HETATM   21  C20 UNL     1     -84.306 -13.801  16.365  1.00  0.00     0.074 A 
HETATM   22  C19 UNL     1     -84.601 -15.756  13.197  1.00  0.00     0.129 A 
HETATM   23  F1  UNL     1     -83.976 -15.857  12.019  1.00  0.00    -0.205 F 
HETATM   24  N2  UNL     1     -83.149 -12.999  16.492  1.00  0.00    -0.100 NA
HETATM   25  C21 UNL     1     -85.317 -13.959  17.279  1.00  0.00     0.118 A 
HETATM   26  C22 UNL     1     -87.476 -15.257  17.474  1.00  0.00     0.156 C 
ENDBRANCH  13  15
ENDBRANCH   7  13
BRANCH  10  27
HETATM   27  C25 UNL     1     -86.448 -16.637   7.728  1.00  0.00     0.038 C 
BRANCH  27  28
HETATM   28  C26 UNL     1     -86.687 -15.852   6.514  1.00  0.00    -0.020 C 
HETATM   29  C27 UNL     1     -87.628 -16.336   5.477  1.00  0.00     0.009 C 
HETATM   30  C28 UNL     1     -85.287 -15.626   5.870  1.00  0.00     0.009 C 
ENDBRANCH  27  28
ENDBRANCH  10  27
BRANCH   6  31
HETATM   31  O2  UNL     1     -91.297 -17.016  13.738  1.00  0.00    -0.358 OA
ATOM     32  H2  UNL     1     -91.102 -17.742  14.318  1.00  0.00     0.217 HD
ENDBRANCH   6  31
BRANCH   1  33
HETATM   33  O1  UNL     1     -92.722 -16.545  11.477  1.00  0.00    -0.345 OA
BRANCH  33  34
HETATM   34  C5  UNL     1     -93.539 -17.184  10.422  1.00  0.00     0.203 C 
BRANCH  34  35
HETATM   35  C4  UNL     1     -93.889 -18.488  11.051  1.00  0.00     0.001 C 
HETATM   36  C2  UNL     1     -93.387 -19.652  10.731  1.00  0.00    -0.089 C 
HETATM   37  C1  UNL     1     -92.383 -19.905   9.705  1.00  0.00     0.042 C 
HETATM   38  C3  UNL     1     -93.919 -20.875  11.475  1.00  0.00     0.042 C 
ENDBRANCH  34  35
ENDBRANCH  33  34
ENDBRANCH   1  33
TORSDOF 8
ENDMDL
MODEL 3
REMARK VINA RESULT: -8.680430851      3.536      5.525
REMARK  8 active torsions:
REMARK  status: ('A' for Active; 'I' for Inactive)
REMARK    1  A    between atoms: C4_4  and  C5_5 
REMARK    2  A    between atoms: C5_5  and  O1_6 
REMARK    3  A    between atoms: O1_6  and  C6_7 
REMARK    4  A    between atoms: C11_12  and  O2_13 
REMARK    5  A    between atoms: N1_15  and  C12_16 
REMARK    6  A    between atoms: C12_16  and  C14_18 
REMARK    7  A    between atoms: C24_32  and  C25_33 
REMARK    8  A    between atoms: C25_33  and  C26_34 
ROOT
HETATM    1  C6  UNL     1     -91.316 -16.648  11.082  1.00  0.00     0.104 A 
HETATM    2  C7  UNL     1     -90.424 -16.553  10.059  1.00  0.00     0.071 A 
HETATM    3  C8  UNL     1     -89.059 -16.785  10.215  1.00  0.00     0.059 A 
HETATM    4  C9  UNL     1     -88.571 -17.123  11.443  1.00  0.00     0.071 A 
HETATM    5  C10 UNL     1     -89.438 -17.230  12.478  1.00  0.00     0.071 A 
HETATM    6  C11 UNL     1     -90.813 -16.996  12.316  1.00  0.00     0.101 A 
HETATM    7  N1  UNL     1     -87.183 -17.478  11.690  1.00  0.00    -0.282 N 
HETATM    8  C23 UNL     1     -86.428 -17.423  10.454  1.00  0.00     0.251 C 
HETATM    9  O3  UNL     1     -85.484 -18.195  10.265  1.00  0.00    -0.270 OA
HETATM   10  C24 UNL     1     -86.766 -16.431   9.363  1.00  0.00     0.175 C 
HETATM   11  N4  UNL     1     -88.181 -16.616   9.094  1.00  0.00    -0.375 N 
ATOM     12  H4  UNL     1     -88.539 -16.625   8.139  1.00  0.00     0.160 HD
ENDROOT
BRANCH   7  13
HETATM   13  C12 UNL     1     -86.630 -17.908  12.925  1.00  0.00     0.029 C 
HETATM   14  C13 UNL     1     -86.525 -19.367  13.239  1.00  0.00     0.070 C 
BRANCH  13  15
HETATM   15  C14 UNL     1     -86.245 -16.918  13.945  1.00  0.00     0.028 A 
HETATM   16  C15 UNL     1     -85.188 -16.022  13.660  1.00  0.00     0.047 A 
HETATM   17  C16 UNL     1     -84.882 -14.942  14.506  1.00  0.00     0.047 A 
HETATM   18  C17 UNL     1     -85.618 -14.729  15.656  1.00  0.00     0.019 A 
HETATM   19  N3  UNL     1     -83.923 -13.971  14.419  1.00  0.00    -0.359 N 
HETATM   20  C18 UNL     1     -86.622 -15.601  15.910  1.00  0.00     0.059 A 
HETATM   21  C20 UNL     1     -85.088 -13.611  16.273  1.00  0.00     0.074 A 
HETATM   22  C19 UNL     1     -86.922 -16.643  15.097  1.00  0.00     0.129 A 
HETATM   23  F1  UNL     1     -87.872 -17.475  15.539  1.00  0.00    -0.205 F 
HETATM   24  N2  UNL     1     -85.558 -13.029  17.472  1.00  0.00    -0.100 NA
HETATM   25  C21 UNL     1     -84.052 -13.176  15.484  1.00  0.00     0.118 A 
HETATM   26  C22 UNL     1     -82.926 -13.865  13.330  1.00  0.00     0.156 C 
ENDBRANCH  13  15
ENDBRANCH   7  13
BRANCH  10  27
HETATM   27  C25 UNL     1     -85.959 -16.792   8.170  1.00  0.00     0.038 C 
BRANCH  27  28
HETATM   28  C26 UNL     1     -85.559 -15.762   7.207  1.00  0.00    -0.020 C 
HETATM   29  C27 UNL     1     -86.270 -15.622   5.915  1.00  0.00     0.009 C 
HETATM   30  C28 UNL     1     -84.044 -15.998   6.935  1.00  0.00     0.009 C 
ENDBRANCH  27  28
ENDBRANCH  10  27
BRANCH   6  31
HETATM   31  O2  UNL     1     -91.665 -17.122  13.375  1.00  0.00    -0.358 OA
ATOM     32  H2  UNL     1     -91.880 -16.356  13.893  1.00  0.00     0.217 HD
ENDBRANCH   6  31
BRANCH   1  33
HETATM   33  O1  UNL     1     -92.702 -16.427  10.965  1.00  0.00    -0.345 OA
BRANCH  33  34
HETATM   34  C5  UNL     1     -93.452 -17.214   9.962  1.00  0.00     0.203 C 
BRANCH  34  35
HETATM   35  C4  UNL     1     -93.840 -18.420  10.745  1.00  0.00     0.001 C 
HETATM   36  C2  UNL     1     -93.347 -19.622  10.594  1.00  0.00    -0.089 C 
HETATM   37  C1  UNL     1     -92.317 -20.019   9.642  1.00  0.00     0.042 C 
HETATM   38  C3  UNL     1     -93.918 -20.731  11.475  1.00  0.00     0.042 C 
ENDBRANCH  34  35
ENDBRANCH  33  34
ENDBRANCH   1  33
TORSDOF 8
ENDMDL
MODEL 4
REMARK VINA RESULT: -8.661916713      1.825      2.568
REMARK  8 active torsions:
REMARK  status: ('A' for Active; 'I' for Inactive)
REMARK    1  A    between atoms: C4_4  and  C5_5 
REMARK    2  A    between atoms: C5_5  and  O1_6 
REMARK    3  A    between atoms: O1_6  and  C6_7 
REMARK    4  A    between atoms: C11_12  and  O2_13 
REMARK    5  A    between atoms: N1_15  and  C12_16 
REMARK    6  A    between atoms: C12_16  and  C14_18 
REMARK    7  A    between atoms: C24_32  and  C25_33 
REMARK    8  A    between atoms: C25_33  and  C26_34 
ROOT
HETATM    1  C6  UNL     1     -91.077 -16.531  11.048  1.00  0.00     0.104 A 
HETATM    2  C7  UNL     1     -90.032 -16.601  10.180  1.00  0.00     0.071 A 
HETATM    3  C8  UNL     1     -88.721 -16.850  10.583  1.00  0.00     0.059 A 
HETATM    4  C9  UNL     1     -88.450 -17.034  11.907  1.00  0.00     0.071 A 
HETATM    5  C10 UNL     1     -89.472 -16.975  12.794  1.00  0.00     0.071 A 
HETATM    6  C11 UNL     1     -90.792 -16.724  12.382  1.00  0.00     0.101 A 
HETATM    7  N1  UNL     1     -87.138 -17.393  12.419  1.00  0.00    -0.282 N 
HETATM    8  C23 UNL     1     -86.196 -17.527  11.325  1.00  0.00     0.251 C 
HETATM    9  O3  UNL     1     -85.275 -18.345  11.392  1.00  0.00    -0.270 OA
HETATM   10  C24 UNL     1     -86.308 -16.682  10.075  1.00  0.00     0.175 C 
HETATM   11  N4  UNL     1     -87.672 -16.859   9.607  1.00  0.00    -0.375 N 
ATOM     12  H4  UNL     1     -87.876 -16.986   8.616  1.00  0.00     0.160 HD
ENDROOT
BRANCH   7  13
HETATM   13  C12 UNL     1     -86.807 -17.669  13.772  1.00  0.00     0.029 C 
HETATM   14  C13 UNL     1     -85.837 -16.796  14.506  1.00  0.00     0.070 C 
BRANCH  13  15
HETATM   15  C14 UNL     1     -87.343 -18.871  14.432  1.00  0.00     0.028 A 
HETATM   16  C15 UNL     1     -86.767 -20.127  14.131  1.00  0.00     0.047 A 
HETATM   17  C16 UNL     1     -87.103 -21.289  14.848  1.00  0.00     0.047 A 
HETATM   18  C17 UNL     1     -88.021 -21.228  15.879  1.00  0.00     0.019 A 
HETATM   19  N3  UNL     1     -86.671 -22.581  14.727  1.00  0.00    -0.359 N 
HETATM   20  C18 UNL     1     -88.562 -20.017  16.146  1.00  0.00     0.059 A 
HETATM   21  C20 UNL     1     -88.146 -22.510  16.384  1.00  0.00     0.074 A 
HETATM   22  C19 UNL     1     -88.241 -18.893  15.459  1.00  0.00     0.129 A 
HETATM   23  F1  UNL     1     -88.939 -17.796  15.773  1.00  0.00    -0.205 F 
HETATM   24  N2  UNL     1     -88.970 -22.894  17.467  1.00  0.00    -0.100 NA
HETATM   25  C21 UNL     1     -87.302 -23.308  15.653  1.00  0.00     0.118 A 
HETATM   26  C22 UNL     1     -85.689 -23.052  13.725  1.00  0.00     0.156 C 
ENDBRANCH  13  15
ENDBRANCH   7  13
BRANCH  10  27
HETATM   27  C25 UNL     1     -85.344 -17.223   9.085  1.00  0.00     0.038 C 
BRANCH  27  28
HETATM   28  C26 UNL     1     -84.360 -16.342   8.450  1.00  0.00    -0.020 C 
HETATM   29  C27 UNL     1     -83.581 -15.375   9.259  1.00  0.00     0.009 C 
HETATM   30  C28 UNL     1     -85.131 -15.575   7.336  1.00  0.00     0.009 C 
ENDBRANCH  27  28
ENDBRANCH  10  27
BRANCH   6  31
HETATM   31  O2  UNL     1     -91.804 -16.681  13.297  1.00  0.00    -0.358 OA
ATOM     32  H2  UNL     1     -91.683 -17.090  14.145  1.00  0.00     0.217 HD
ENDBRANCH   6  31
BRANCH   1  33
HETATM   33  O1  UNL     1     -92.414 -16.287  10.682  1.00  0.00    -0.345 OA
BRANCH  33  34
HETATM   34  C5  UNL     1     -93.036 -17.177   9.677  1.00  0.00     0.203 C 
BRANCH  34  35
HETATM   35  C4  UNL     1     -93.554 -18.286  10.527  1.00  0.00     0.001 C 
HETATM   36  C2  UNL     1     -93.202 -19.542  10.444  1.00  0.00    -0.089 C 
HETATM   37  C1  UNL     1     -92.231 -20.107   9.515  1.00  0.00     0.042 C 
HETATM   38  C3  UNL     1     -93.890 -20.528  11.386  1.00  0.00     0.042 C 
ENDBRANCH  34  35
ENDBRANCH  33  34
ENDBRANCH   1  33
TORSDOF 8
ENDMDL
MODEL 5
REMARK VINA RESULT: -8.427439953      2.095      3.156
REMARK  8 active torsions:
REMARK  status: ('A' for Active; 'I' for Inactive)
REMARK    1  A    between atoms: C4_4  and  C5_5 
REMARK    2  A    between atoms: C5_5  and  O1_6 
REMARK    3  A    between atoms: O1_6  and  C6_7 
REMARK    4  A    between atoms: C11_12  and  O2_13 
REMARK    5  A    between atoms: N1_15  and  C12_16 
REMARK    6  A    between atoms: C12_16  and  C14_18 
REMARK    7  A    between atoms: C24_32  and  C25_33 
REMARK    8  A    between atoms: C25_33  and  C26_34 
ROOT
HETATM    1  C6  UNL     1     -91.264 -16.395  11.099  1.00  0.00     0.104 A 
HETATM    2  C7  UNL     1     -90.277 -16.406  10.162  1.00  0.00     0.071 A 
HETATM    3  C8  UNL     1     -88.923 -16.482  10.482  1.00  0.00     0.059 A 
HETATM    4  C9  UNL     1     -88.545 -16.548  11.790  1.00  0.00     0.071 A 
HETATM    5  C10 UNL     1     -89.506 -16.544  12.744  1.00  0.00     0.071 A 
HETATM    6  C11 UNL     1     -90.870 -16.468  12.417  1.00  0.00     0.101 A 
HETATM    7  N1  UNL     1     -87.169 -16.726  12.224  1.00  0.00    -0.282 N 
HETATM    8  C23 UNL     1     -86.293 -16.827  11.073  1.00  0.00     0.251 C 
HETATM    9  O3  UNL     1     -85.282 -17.532  11.119  1.00  0.00    -0.270 OA
HETATM   10  C24 UNL     1     -86.584 -16.083   9.789  1.00  0.00     0.175 C 
HETATM   11  N4  UNL     1     -87.947 -16.440   9.433  1.00  0.00    -0.375 N 
ATOM     12  H4  UNL     1     -88.200 -16.653   8.468  1.00  0.00     0.160 HD
ENDROOT
BRANCH   7  13
HETATM   13  C12 UNL     1     -86.720 -16.875  13.563  1.00  0.00     0.029 C 
HETATM   14  C13 UNL     1     -86.384 -15.670  14.385  1.00  0.00     0.070 C 
BRANCH  13  15
HETATM   15  C14 UNL     1     -86.490 -18.218  14.119  1.00  0.00     0.028 A 
HETATM   16  C15 UNL     1     -85.528 -18.376  15.144  1.00  0.00     0.047 A 
HETATM   17  C16 UNL     1     -85.380 -19.587  15.843  1.00  0.00     0.047 A 
HETATM   18  C17 UNL     1     -86.183 -20.669  15.537  1.00  0.00     0.019 A 
HETATM   19  N3  UNL     1     -84.532 -19.948  16.853  1.00  0.00    -0.359 N 
HETATM   20  C18 UNL     1     -87.093 -20.497  14.550  1.00  0.00     0.059 A 
HETATM   21  C20 UNL     1     -85.807 -21.702  16.377  1.00  0.00     0.074 A 
HETATM   22  C19 UNL     1     -87.241 -19.331  13.874  1.00  0.00     0.129 A 
HETATM   23  F1  UNL     1     -88.110 -19.351  12.857  1.00  0.00    -0.205 F 
HETATM   24  N2  UNL     1     -86.389 -22.989  16.415  1.00  0.00    -0.100 NA
HETATM   25  C21 UNL     1     -84.794 -21.220  17.168  1.00  0.00     0.118 A 
HETATM   26  C22 UNL     1     -83.509 -19.063  17.452  1.00  0.00     0.156 C 
ENDBRANCH  13  15
ENDBRANCH   7  13
BRANCH  10  27
HETATM   27  C25 UNL     1     -85.632 -16.579   8.763  1.00  0.00     0.038 C 
BRANCH  27  28
HETATM   28  C26 UNL     1     -85.243 -15.724   7.638  1.00  0.00    -0.020 C 
HETATM   29  C27 UNL     1     -86.080 -15.656   6.418  1.00  0.00     0.009 C 
HETATM   30  C28 UNL     1     -83.801 -16.163   7.247  1.00  0.00     0.009 C 
ENDBRANCH  27  28
ENDBRANCH  10  27
BRANCH   6  31
HETATM   31  O2  UNL     1     -91.818 -16.477  13.400  1.00  0.00    -0.358 OA
ATOM     32  H2  UNL     1     -91.724 -17.074  14.132  1.00  0.00     0.217 HD
ENDBRANCH   6  31
BRANCH   1  33
HETATM   33  O1  UNL     1     -92.641 -16.325  10.819  1.00  0.00    -0.345 OA
BRANCH  33  34
HETATM   34  C5  UNL     1     -93.186 -17.215   9.771  1.00  0.00     0.203 C 
BRANCH  34  35
HETATM   35  C4  UNL     1     -93.637 -18.390  10.569  1.00  0.00     0.001 C 
HETATM   36  C2  UNL     1     -93.162 -19.605  10.478  1.00  0.00    -0.089 C 
HETATM   37  C1  UNL     1     -92.096 -20.050   9.589  1.00  0.00     0.042 C 
HETATM   38  C3  UNL     1     -93.797 -20.676  11.363  1.00  0.00     0.042 C 
ENDBRANCH  34  35
ENDBRANCH  33  34
ENDBRANCH   1  33
TORSDOF 8
ENDMDL
