MODEL 1
REMARK VINA RESULT: -8.241474238      0.000      0.000
REMARK  12 active torsions:
REMARK  status: ('A' for Active; 'I' for Inactive)
REMARK    1  A    between atoms: C9_9  and  O1_10 
REMARK    2  A    between atoms: C11_13  and  O2_14 
REMARK    3  A    between atoms: C13_17  and  O3_18 
REMARK    4  A    between atoms: C17_24  and  C18_25 
REMARK    5  A    between atoms: C18_25  and  O4_26 
REMARK    6  A    between atoms: C18_25  and  C19_28 
REMARK    7  A    between atoms: C19_28  and  C20_29 
REMARK    8  A    between atoms: C20_29  and  C21_30 
REMARK    9  A    between atoms: C21_30  and  C22_31 
REMARK   10  A    between atoms: C22_31  and  O6_33 
REMARK   11  A    between atoms: O6_33  and  C23_34 
REMARK   12  A    between atoms: C23_34  and  C24_35 
ROOT
HETATM    1  C1  UNL     1     -84.857 -16.580   9.667  1.00  0.00     0.016 C 
HETATM    2  C2  UNL     1     -86.186 -16.287  10.313  1.00  0.00    -0.034 C 
HETATM    3  C3  UNL     1     -86.743 -17.327  11.205  1.00  0.00     0.011 C 
HETATM    4  C4  UNL     1     -86.077 -17.406  12.565  1.00  0.00     0.014 C 
HETATM    5  C5  UNL     1     -85.867 -16.103  13.222  1.00  0.00    -0.001 C 
HETATM    6  C6  UNL     1     -84.374 -15.750  13.098  1.00  0.00     0.019 C 
HETATM    7  C7  UNL     1     -86.688 -15.062  12.442  1.00  0.00     0.004 C 
HETATM    8  C8  UNL     1     -86.564 -13.746  13.145  1.00  0.00     0.038 C 
HETATM    9  C9  UNL     1     -87.444 -13.840  14.400  1.00  0.00     0.128 C 
HETATM   10  C10 UNL     1     -87.603 -15.253  14.850  1.00  0.00     0.086 C 
HETATM   11  C11 UNL     1     -87.709 -15.368  16.377  1.00  0.00     0.130 C 
HETATM   12  C12 UNL     1     -86.686 -16.396  16.816  1.00  0.00     0.067 C 
HETATM   13  C13 UNL     1     -86.458 -17.142  15.481  1.00  0.00     0.161 C 
HETATM   14  C14 UNL     1     -86.248 -15.943  14.626  1.00  0.00     0.145 C 
HETATM   15  F1  UNL     1     -85.388 -15.094  15.354  1.00  0.00    -0.239 F 
HETATM   16  C15 UNL     1     -86.315 -14.959  10.999  1.00  0.00    -0.001 C 
HETATM   17  C16 UNL     1     -87.587 -14.724  10.176  1.00  0.00     0.013 C 
HETATM   18  C17 UNL     1     -87.128 -15.786   9.242  1.00  0.00     0.023 C 
ENDROOT
BRANCH  18  19
HETATM   19  C18 UNL     1     -88.145 -16.760   8.748  1.00  0.00     0.123 C 
BRANCH  19  20
HETATM   20  O4  UNL     1     -87.870 -16.978   7.377  1.00  0.00    -0.395 OA
ATOM     21  H4  UNL     1     -87.871 -16.126   6.957  1.00  0.00     0.210 HD
ENDBRANCH  19  20
BRANCH  19  22
HETATM   22  C19 UNL     1     -89.552 -16.277   8.850  1.00  0.00     0.032 C 
BRANCH  22  23
HETATM   23  C20 UNL     1     -90.574 -17.267   8.408  1.00  0.00     0.012 C 
BRANCH  23  24
HETATM   24  C21 UNL     1     -90.261 -18.664   8.897  1.00  0.00     0.111 C 
BRANCH  24  25
HETATM   25  C22 UNL     1     -91.505 -19.490   8.955  1.00  0.00     0.259 C 
HETATM   26  O5  UNL     1     -91.585 -20.480   8.194  1.00  0.00    -0.265 OA
BRANCH  25  27
HETATM   27  O6  UNL     1     -92.542 -19.200   9.804  1.00  0.00    -0.317 OA
BRANCH  27  28
HETATM   28  C23 UNL     1     -92.388 -19.139  11.185  1.00  0.00     0.217 C 
BRANCH  28  29
HETATM   29  C24 UNL     1     -91.737 -17.919  11.694  1.00  0.00    -0.034 A 
HETATM   30  C25 UNL     1     -90.570 -17.881  12.403  1.00  0.00     0.009 A 
HETATM   31  C26 UNL     1     -90.035 -16.709  12.837  1.00  0.00     0.001 A 
HETATM   32  C27 UNL     1     -90.664 -15.500  12.569  1.00  0.00     0.000 A 
HETATM   33  C28 UNL     1     -91.835 -15.518  11.859  1.00  0.00     0.001 A 
HETATM   34  C29 UNL     1     -92.364 -16.712  11.427  1.00  0.00     0.009 A 
ENDBRANCH  28  29
ENDBRANCH  27  28
ENDBRANCH  25  27
ENDBRANCH  24  25
ENDBRANCH  23  24
ENDBRANCH  22  23
ENDBRANCH  19  22
ENDBRANCH  18  19
BRANCH   9  35
HETATM   35  O1  UNL     1     -88.652 -13.175  14.221  1.00  0.00    -0.395 OA
ATOM     36  H1  UNL     1     -89.386 -13.711  14.495  1.00  0.00     0.210 HD
ENDBRANCH   9  35
BRANCH  13  37
HETATM   37  O3  UNL     1     -87.725 -17.747  15.296  1.00  0.00    -0.392 OA
ATOM     38  H3  UNL     1     -87.616 -18.129  14.433  1.00  0.00     0.210 HD
ENDBRANCH  13  37
BRANCH  11  39
HETATM   39  O2  UNL     1     -87.469 -14.146  16.992  1.00  0.00    -0.395 OA
ATOM     40  H2  UNL     1     -87.982 -14.054  17.787  1.00  0.00     0.210 HD
ENDBRANCH  11  39
TORSDOF 12
ENDMDL
MODEL 2
REMARK VINA RESULT: -8.080705966      1.985      5.255
REMARK  12 active torsions:
REMARK  status: ('A' for Active; 'I' for Inactive)
REMARK    1  A    between atoms: C9_9  and  O1_10 
REMARK    2  A    between atoms: C11_13  and  O2_14 
REMARK    3  A    between atoms: C13_17  and  O3_18 
REMARK    4  A    between atoms: C17_24  and  C18_25 
REMARK    5  A    between atoms: C18_25  and  O4_26 
REMARK    6  A    between atoms: C18_25  and  C19_28 
REMARK    7  A    between atoms: C19_28  and  C20_29 
REMARK    8  A    between atoms: C20_29  and  C21_30 
REMARK    9  A    between atoms: C21_30  and  C22_31 
REMARK   10  A    between atoms: C22_31  and  O6_33 
REMARK   11  A    between atoms: O6_33  and  C23_34 
REMARK   12  A    between atoms: C23_34  and  C24_35 
ROOT
HETATM    1  C1  UNL     1     -92.154 -16.759  11.487  1.00  0.00     0.016 C 
HETATM    2  C2  UNL     1     -90.661 -16.662  11.313  1.00  0.00    -0.034 C 
HETATM    3  C3  UNL     1     -90.036 -15.352  11.601  1.00  0.00     0.011 C 
HETATM    4  C4  UNL     1     -89.906 -15.033  13.077  1.00  0.00     0.014 C 
HETATM    5  C5  UNL     1     -89.384 -16.140  13.901  1.00  0.00    -0.001 C 
HETATM    6  C6  UNL     1     -90.568 -16.745  14.677  1.00  0.00     0.019 C 
HETATM    7  C7  UNL     1     -88.830 -17.202  12.937  1.00  0.00     0.004 C 
HETATM    8  C8  UNL     1     -88.211 -18.296  13.752  1.00  0.00     0.038 C 
HETATM    9  C9  UNL     1     -86.878 -17.743  14.279  1.00  0.00     0.128 C 
HETATM   10  C10 UNL     1     -86.905 -16.256  14.378  1.00  0.00     0.086 C 
HETATM   11  C11 UNL     1     -86.070 -15.737  15.556  1.00  0.00     0.130 C 
HETATM   12  C12 UNL     1     -86.961 -14.806  16.355  1.00  0.00     0.067 C 
HETATM   13  C13 UNL     1     -88.032 -14.475  15.291  1.00  0.00     0.161 C 
HETATM   14  C14 UNL     1     -88.313 -15.871  14.861  1.00  0.00     0.145 C 
HETATM   15  F1  UNL     1     -88.409 -16.629  16.047  1.00  0.00    -0.239 F 
HETATM   16  C15 UNL     1     -89.842 -17.731  11.975  1.00  0.00    -0.001 C 
HETATM   17  C16 UNL     1     -89.162 -17.964  10.621  1.00  0.00     0.013 C 
HETATM   18  C17 UNL     1     -90.304 -17.265   9.975  1.00  0.00     0.023 C 
ENDROOT
BRANCH  18  19
HETATM   19  C18 UNL     1     -89.994 -16.303   8.877  1.00  0.00     0.123 C 
BRANCH  19  20
HETATM   20  O4  UNL     1     -91.118 -16.286   8.017  1.00  0.00    -0.395 OA
ATOM     21  H4  UNL     1     -90.859 -15.811   7.236  1.00  0.00     0.210 HD
ENDBRANCH  19  20
BRANCH  19  22
HETATM   22  C19 UNL     1     -88.808 -16.677   8.054  1.00  0.00     0.032 C 
BRANCH  22  23
HETATM   23  C20 UNL     1     -88.599 -15.819   6.853  1.00  0.00     0.012 C 
BRANCH  23  24
HETATM   24  C21 UNL     1     -87.273 -16.096   6.181  1.00  0.00     0.111 C 
BRANCH  24  25
HETATM   25  C22 UNL     1     -86.482 -14.835   6.043  1.00  0.00     0.259 C 
HETATM   26  O5  UNL     1     -87.088 -13.803   5.678  1.00  0.00    -0.265 OA
BRANCH  25  27
HETATM   27  O6  UNL     1     -85.137 -14.779   6.302  1.00  0.00    -0.317 OA
BRANCH  27  28
HETATM   28  C23 UNL     1     -84.624 -14.390   7.534  1.00  0.00     0.217 C 
BRANCH  28  29
HETATM   29  C24 UNL     1     -85.031 -15.225   8.678  1.00  0.00    -0.034 A 
HETATM   30  C25 UNL     1     -85.974 -14.890   9.608  1.00  0.00     0.009 A 
HETATM   31  C26 UNL     1     -86.292 -15.721  10.636  1.00  0.00     0.001 A 
HETATM   32  C27 UNL     1     -85.662 -16.950  10.774  1.00  0.00     0.000 A 
HETATM   33  C28 UNL     1     -84.714 -17.305   9.852  1.00  0.00     0.001 A 
HETATM   34  C29 UNL     1     -84.403 -16.453   8.818  1.00  0.00     0.009 A 
ENDBRANCH  28  29
ENDBRANCH  27  28
ENDBRANCH  25  27
ENDBRANCH  24  25
ENDBRANCH  23  24
ENDBRANCH  22  23
ENDBRANCH  19  22
ENDBRANCH  18  19
BRANCH   9  35
HETATM   35  O1  UNL     1     -85.804 -18.232  13.544  1.00  0.00    -0.395 OA
ATOM     36  H1  UNL     1     -84.982 -18.090  13.998  1.00  0.00     0.210 HD
ENDBRANCH   9  35
BRANCH  13  37
HETATM   37  O3  UNL     1     -87.260 -13.744  14.355  1.00  0.00    -0.392 OA
ATOM     38  H3  UNL     1     -87.169 -14.385  13.660  1.00  0.00     0.210 HD
ENDBRANCH  13  37
BRANCH  11  39
HETATM   39  O2  UNL     1     -85.617 -16.781  16.352  1.00  0.00    -0.395 OA
ATOM     40  H2  UNL     1     -85.870 -16.658  17.259  1.00  0.00     0.210 HD
ENDBRANCH  11  39
TORSDOF 12
ENDMDL
MODEL 3
REMARK VINA RESULT: -7.964488888      2.234      4.638
REMARK  12 active torsions:
REMARK  status: ('A' for Active; 'I' for Inactive)
REMARK    1  A    between atoms: C9_9  and  O1_10 
REMARK    2  A    between atoms: C11_13  and  O2_14 
REMARK    3  A    between atoms: C13_17  and  O3_18 
REMARK    4  A    between atoms: C17_24  and  C18_25 
REMARK    5  A    between atoms: C18_25  and  O4_26 
REMARK    6  A    between atoms: C18_25  and  C19_28 
REMARK    7  A    between atoms: C19_28  and  C20_29 
REMARK    8  A    between atoms: C20_29  and  C21_30 
REMARK    9  A    between atoms: C21_30  and  C22_31 
REMARK   10  A    between atoms: C22_31  and  O6_33 
REMARK   11  A    between atoms: O6_33  and  C23_34 
REMARK   12  A    between atoms: C23_34  and  C24_35 
ROOT
HETATM    1  C1  UNL     1     -89.116 -14.110  13.557  1.00  0.00     0.016 C 
HETATM    2  C2  UNL     1     -89.203 -15.606  13.708  1.00  0.00    -0.034 C 
HETATM    3  C3  UNL     1     -88.281 -16.419  12.883  1.00  0.00     0.011 C 
HETATM    4  C4  UNL     1     -86.847 -16.431  13.377  1.00  0.00     0.014 C 
HETATM    5  C5  UNL     1     -86.700 -16.646  14.828  1.00  0.00    -0.001 C 
HETATM    6  C6  UNL     1     -86.353 -15.290  15.470  1.00  0.00     0.019 C 
HETATM    7  C7  UNL     1     -88.066 -17.109  15.361  1.00  0.00     0.004 C 
HETATM    8  C8  UNL     1     -87.918 -17.422  16.818  1.00  0.00     0.038 C 
HETATM    9  C9  UNL     1     -87.172 -18.762  16.900  1.00  0.00     0.128 C 
HETATM   10  C10 UNL     1     -86.328 -18.991  15.693  1.00  0.00     0.086 C 
HETATM   11  C11 UNL     1     -85.042 -19.762  16.021  1.00  0.00     0.130 C 
HETATM   12  C12 UNL     1     -83.888 -18.966  15.446  1.00  0.00     0.067 C 
HETATM   13  C13 UNL     1     -84.642 -18.103  14.408  1.00  0.00     0.161 C 
HETATM   14  C14 UNL     1     -85.728 -17.628  15.308  1.00  0.00     0.145 C 
HETATM   15  F1  UNL     1     -85.096 -17.260  16.515  1.00  0.00    -0.239 F 
HETATM   16  C15 UNL     1     -89.172 -16.137  15.111  1.00  0.00    -0.001 C 
HETATM   17  C16 UNL     1     -90.449 -16.917  14.779  1.00  0.00     0.013 C 
HETATM   18  C17 UNL     1     -90.658 -16.003  13.626  1.00  0.00     0.023 C 
ENDROOT
BRANCH  18  19
HETATM   19  C18 UNL     1     -91.108 -16.607  12.337  1.00  0.00     0.123 C 
BRANCH  19  20
HETATM   20  O4  UNL     1     -92.277 -15.912  11.945  1.00  0.00    -0.395 OA
ATOM     21  H4  UNL     1     -92.696 -16.437  11.273  1.00  0.00     0.210 HD
ENDBRANCH  19  20
BRANCH  19  22
HETATM   22  C19 UNL     1     -91.458 -18.053  12.430  1.00  0.00     0.032 C 
BRANCH  22  23
HETATM   23  C20 UNL     1     -91.738 -18.702  11.117  1.00  0.00     0.012 C 
BRANCH  23  24
HETATM   24  C21 UNL     1     -90.484 -18.870  10.288  1.00  0.00     0.111 C 
BRANCH  24  25
HETATM   25  C22 UNL     1     -90.824 -18.958   8.836  1.00  0.00     0.259 C 
HETATM   26  O5  UNL     1     -90.801 -20.087   8.298  1.00  0.00    -0.265 OA
BRANCH  25  27
HETATM   27  O6  UNL     1     -91.156 -17.856   8.090  1.00  0.00    -0.317 OA
BRANCH  27  28
HETATM   28  C23 UNL     1     -90.699 -16.578   8.393  1.00  0.00     0.217 C 
BRANCH  28  29
HETATM   29  C24 UNL     1     -89.496 -16.148   7.658  1.00  0.00    -0.034 A 
HETATM   30  C25 UNL     1     -88.209 -16.289   8.092  1.00  0.00     0.009 A 
HETATM   31  C26 UNL     1     -87.152 -15.863   7.349  1.00  0.00     0.001 A 
HETATM   32  C27 UNL     1     -87.351 -15.267   6.111  1.00  0.00     0.000 A 
HETATM   33  C28 UNL     1     -88.634 -15.117   5.658  1.00  0.00     0.001 A 
HETATM   34  C29 UNL     1     -89.693 -15.552   6.421  1.00  0.00     0.009 A 
ENDBRANCH  28  29
ENDBRANCH  27  28
ENDBRANCH  25  27
ENDBRANCH  24  25
ENDBRANCH  23  24
ENDBRANCH  22  23
ENDBRANCH  19  22
ENDBRANCH  18  19
BRANCH   9  35
HETATM   35  O1  UNL     1     -88.044 -19.809  17.176  1.00  0.00    -0.395 OA
ATOM     36  H1  UNL     1     -87.571 -20.609  17.371  1.00  0.00     0.210 HD
ENDBRANCH   9  35
BRANCH  13  37
HETATM   37  O3  UNL     1     -85.067 -19.098  13.494  1.00  0.00    -0.392 OA
ATOM     38  H3  UNL     1     -85.803 -19.470  13.965  1.00  0.00     0.210 HD
ENDBRANCH  13  37
BRANCH  11  39
HETATM   39  O2  UNL     1     -84.887 -19.924  17.391  1.00  0.00    -0.395 OA
ATOM     40  H2  UNL     1     -84.854 -20.844  17.628  1.00  0.00     0.210 HD
ENDBRANCH  11  39
TORSDOF 12
ENDMDL
MODEL 4
REMARK VINA RESULT: -7.954862633      1.467      2.579
REMARK  12 active torsions:
REMARK  status: ('A' for Active; 'I' for Inactive)
REMARK    1  A    between atoms: C9_9  and  O1_10 
REMARK    2  A    between atoms: C11_13  and  O2_14 
REMARK    3  A    between atoms: C13_17  and  O3_18 
REMARK    4  A    between atoms: C17_24  and  C18_25 
REMARK    5  A    between atoms: C18_25  and  O4_26 
REMARK    6  A    between atoms: C18_25  and  C19_28 
REMARK    7  A    between atoms: C19_28  and  C20_29 
REMARK    8  A    between atoms: C20_29  and  C21_30 
REMARK    9  A    between atoms: C21_30  and  C22_31 
REMARK   10  A    between atoms: C22_31  and  O6_33 
REMARK   11  A    between atoms: O6_33  and  C23_34 
REMARK   12  A    between atoms: C23_34  and  C24_35 
ROOT
HETATM    1  C1  UNL     1     -84.616 -17.429   9.946  1.00  0.00     0.016 C 
HETATM    2  C2  UNL     1     -85.807 -16.617  10.384  1.00  0.00    -0.034 C 
HETATM    3  C3  UNL     1     -86.842 -17.317  11.177  1.00  0.00     0.011 C 
HETATM    4  C4  UNL     1     -86.457 -17.571  12.621  1.00  0.00     0.014 C 
HETATM    5  C5  UNL     1     -85.857 -16.412  13.309  1.00  0.00    -0.001 C 
HETATM    6  C6  UNL     1     -84.342 -16.662  13.414  1.00  0.00     0.019 C 
HETATM    7  C7  UNL     1     -86.094 -15.181  12.419  1.00  0.00     0.004 C 
HETATM    8  C8  UNL     1     -85.575 -13.975  13.139  1.00  0.00     0.038 C 
HETATM    9  C9  UNL     1     -86.592 -13.659  14.246  1.00  0.00     0.128 C 
HETATM   10  C10 UNL     1     -87.344 -14.878  14.659  1.00  0.00     0.086 C 
HETATM   11  C11 UNL     1     -87.700 -14.862  16.152  1.00  0.00     0.130 C 
HETATM   12  C12 UNL     1     -87.225 -16.177  16.737  1.00  0.00     0.067 C 
HETATM   13  C13 UNL     1     -87.116 -17.024  15.448  1.00  0.00     0.161 C 
HETATM   14  C14 UNL     1     -86.341 -16.044  14.640  1.00  0.00     0.145 C 
HETATM   15  F1  UNL     1     -85.334 -15.549  15.494  1.00  0.00    -0.239 F 
HETATM   16  C15 UNL     1     -85.511 -15.306  11.050  1.00  0.00    -0.001 C 
HETATM   17  C16 UNL     1     -86.464 -14.649  10.045  1.00  0.00     0.013 C 
HETATM   18  C17 UNL     1     -86.321 -15.854   9.186  1.00  0.00     0.023 C 
ENDROOT
BRANCH  18  19
HETATM   19  C18 UNL     1     -87.554 -16.392   8.539  1.00  0.00     0.123 C 
BRANCH  19  20
HETATM   20  O4  UNL     1     -87.244 -16.596   7.173  1.00  0.00    -0.395 OA
ATOM     21  H4  UNL     1     -86.901 -15.773   6.843  1.00  0.00     0.210 HD
ENDBRANCH  19  20
BRANCH  19  22
HETATM   22  C19 UNL     1     -88.726 -15.471   8.597  1.00  0.00     0.032 C 
BRANCH  22  23
HETATM   23  C20 UNL     1     -89.791 -15.894   9.550  1.00  0.00     0.012 C 
BRANCH  23  24
HETATM   24  C21 UNL     1     -89.757 -15.093  10.833  1.00  0.00     0.111 C 
BRANCH  24  25
HETATM   25  C22 UNL     1     -90.493 -15.810  11.918  1.00  0.00     0.259 C 
HETATM   26  O5  UNL     1     -91.472 -15.231  12.440  1.00  0.00    -0.265 OA
BRANCH  25  27
HETATM   27  O6  UNL     1     -90.135 -17.062  12.347  1.00  0.00    -0.317 OA
BRANCH  27  28
HETATM   28  C23 UNL     1     -91.018 -18.136  12.356  1.00  0.00     0.217 C 
BRANCH  28  29
HETATM   29  C24 UNL     1     -91.227 -18.790  11.052  1.00  0.00    -0.034 A 
HETATM   30  C25 UNL     1     -92.431 -19.201  10.556  1.00  0.00     0.009 A 
HETATM   31  C26 UNL     1     -92.537 -19.799   9.339  1.00  0.00     0.001 A 
HETATM   32  C27 UNL     1     -91.412 -20.012   8.554  1.00  0.00     0.000 A 
HETATM   33  C28 UNL     1     -90.195 -19.607   9.034  1.00  0.00     0.001 A 
HETATM   34  C29 UNL     1     -90.105 -19.004  10.267  1.00  0.00     0.009 A 
ENDBRANCH  28  29
ENDBRANCH  27  28
ENDBRANCH  25  27
ENDBRANCH  24  25
ENDBRANCH  23  24
ENDBRANCH  22  23
ENDBRANCH  19  22
ENDBRANCH  18  19
BRANCH   9  35
HETATM   35  O1  UNL     1     -87.411 -12.595  13.888  1.00  0.00    -0.395 OA
ATOM     36  H1  UNL     1     -87.017 -11.762  14.120  1.00  0.00     0.210 HD
ENDBRANCH   9  35
BRANCH  13  37
HETATM   37  O3  UNL     1     -88.478 -17.109  15.070  1.00  0.00    -0.392 OA
ATOM     38  H3  UNL     1     -88.544 -16.375  14.472  1.00  0.00     0.210 HD
ENDBRANCH  13  37
BRANCH  11  39
HETATM   39  O2  UNL     1     -87.099 -13.793  16.802  1.00  0.00    -0.395 OA
ATOM     40  H2  UNL     1     -87.734 -13.287  17.295  1.00  0.00     0.210 HD
ENDBRANCH  11  39
TORSDOF 12
ENDMDL
MODEL 5
REMARK VINA RESULT: -7.931665624      1.999      5.103
REMARK  12 active torsions:
REMARK  status: ('A' for Active; 'I' for Inactive)
REMARK    1  A    between atoms: C9_9  and  O1_10 
REMARK    2  A    between atoms: C11_13  and  O2_14 
REMARK    3  A    between atoms: C13_17  and  O3_18 
REMARK    4  A    between atoms: C17_24  and  C18_25 
REMARK    5  A    between atoms: C18_25  and  O4_26 
REMARK    6  A    between atoms: C18_25  and  C19_28 
REMARK    7  A    between atoms: C19_28  and  C20_29 
REMARK    8  A    between atoms: C20_29  and  C21_30 
REMARK    9  A    between atoms: C21_30  and  C22_31 
REMARK   10  A    between atoms: C22_31  and  O6_33 
REMARK   11  A    between atoms: O6_33  and  C23_34 
REMARK   12  A    between atoms: C23_34  and  C24_35 
ROOT
HETATM    1  C1  UNL     1     -92.231 -17.086  11.355  1.00  0.00     0.016 C 
HETATM    2  C2  UNL     1     -90.761 -16.818  11.165  1.00  0.00    -0.034 C 
HETATM    3  C3  UNL     1     -90.277 -15.461  11.502  1.00  0.00     0.011 C 
HETATM    4  C4  UNL     1     -90.156 -15.192  12.989  1.00  0.00     0.014 C 
HETATM    5  C5  UNL     1     -89.501 -16.268  13.755  1.00  0.00    -0.001 C 
HETATM    6  C6  UNL     1     -90.597 -17.032  14.520  1.00  0.00     0.019 C 
HETATM    7  C7  UNL     1     -88.852 -17.222  12.738  1.00  0.00     0.004 C 
HETATM    8  C8  UNL     1     -88.103 -18.274  13.496  1.00  0.00     0.038 C 
HETATM    9  C9  UNL     1     -86.829 -17.601  14.028  1.00  0.00     0.128 C 
HETATM   10  C10 UNL     1     -87.016 -16.132  14.192  1.00  0.00     0.086 C 
HETATM   11  C11 UNL     1     -86.221 -15.574  15.381  1.00  0.00     0.130 C 
HETATM   12  C12 UNL     1     -87.193 -14.782  16.232  1.00  0.00     0.067 C 
HETATM   13  C13 UNL     1     -88.314 -14.525  15.199  1.00  0.00     0.161 C 
HETATM   14  C14 UNL     1     -88.448 -15.924  14.711  1.00  0.00     0.145 C 
HETATM   15  F1  UNL     1     -88.439 -16.738  15.864  1.00  0.00    -0.239 F 
HETATM   16  C15 UNL     1     -89.819 -17.817  11.768  1.00  0.00    -0.001 C 
HETATM   17  C16 UNL     1     -89.142 -17.917  10.396  1.00  0.00     0.013 C 
HETATM   18  C17 UNL     1     -90.365 -17.321   9.797  1.00  0.00     0.023 C 
ENDROOT
BRANCH  18  19
HETATM   19  C18 UNL     1     -90.182 -16.285   8.738  1.00  0.00     0.123 C 
BRANCH  19  20
HETATM   20  O4  UNL     1     -91.425 -16.154   8.074  1.00  0.00    -0.395 OA
ATOM     21  H4  UNL     1     -91.510 -16.906   7.499  1.00  0.00     0.210 HD
ENDBRANCH  19  20
BRANCH  19  22
HETATM   22  C19 UNL     1     -89.161 -16.636   7.710  1.00  0.00     0.032 C 
BRANCH  22  23
HETATM   23  C20 UNL     1     -88.818 -15.522   6.781  1.00  0.00     0.012 C 
BRANCH  23  24
HETATM   24  C21 UNL     1     -87.629 -15.857   5.908  1.00  0.00     0.111 C 
BRANCH  24  25
HETATM   25  C22 UNL     1     -86.506 -14.905   6.165  1.00  0.00     0.259 C 
HETATM   26  O5  UNL     1     -86.638 -13.726   5.769  1.00  0.00    -0.265 OA
BRANCH  25  27
HETATM   27  O6  UNL     1     -85.356 -15.281   6.811  1.00  0.00    -0.317 OA
BRANCH  27  28
HETATM   28  C23 UNL     1     -85.363 -15.938   8.037  1.00  0.00     0.217 C 
BRANCH  28  29
HETATM   29  C24 UNL     1     -85.662 -15.090   9.204  1.00  0.00    -0.034 A 
HETATM   30  C25 UNL     1     -86.805 -15.142   9.949  1.00  0.00     0.009 A 
HETATM   31  C26 UNL     1     -87.002 -14.322  11.016  1.00  0.00     0.001 A 
HETATM   32  C27 UNL     1     -86.036 -13.396  11.385  1.00  0.00     0.000 A 
HETATM   33  C28 UNL     1     -84.882 -13.328  10.651  1.00  0.00     0.001 A 
HETATM   34  C29 UNL     1     -84.698 -14.165   9.574  1.00  0.00     0.009 A 
ENDBRANCH  28  29
ENDBRANCH  27  28
ENDBRANCH  25  27
ENDBRANCH  24  25
ENDBRANCH  23  24
ENDBRANCH  22  23
ENDBRANCH  19  22
ENDBRANCH  18  19
BRANCH   9  35
HETATM   35  O1  UNL     1     -85.721 -17.938  13.257  1.00  0.00    -0.395 OA
ATOM     36  H1  UNL     1     -85.838 -17.676  12.352  1.00  0.00     0.210 HD
ENDBRANCH   9  35
BRANCH  13  37
HETATM   37  O3  UNL     1     -87.643 -13.676  14.286  1.00  0.00    -0.392 OA
ATOM     38  H3  UNL     1     -86.797 -13.591  14.708  1.00  0.00     0.210 HD
ENDBRANCH  13  37
BRANCH  11  39
HETATM   39  O2  UNL     1     -85.642 -16.595  16.123  1.00  0.00    -0.395 OA
ATOM     40  H2  UNL     1     -86.275 -17.001  16.704  1.00  0.00     0.210 HD
ENDBRANCH  11  39
TORSDOF 12
ENDMDL
