MODEL 1
REMARK VINA RESULT: -7.762984774      0.000      0.000
REMARK  9 active torsions:
REMARK  status: ('A' for Active; 'I' for Inactive)
REMARK    1  A    between atoms: C5_5  and  C6_6 
REMARK    2  A    between atoms: C6_6  and  C7_8 
REMARK    3  A    between atoms: C7_8  and  C8_9 
REMARK    4  A    between atoms: C8_9  and  O2_10 
REMARK    5  A    between atoms: C9_12  and  C10_13 
REMARK    6  A    between atoms: C10_13  and  C11_14 
REMARK    7  A    between atoms: C15_20  and  O5_21 
REMARK    8  A    between atoms: C22_30  and  C23_31 
REMARK    9  A    between atoms: C24_32  and  O7_33 
ROOT
HETATM    1  C1  UNL     1     -85.285 -15.061  10.723  1.00  0.00     0.016 C 
HETATM    2  C2  UNL     1     -86.051 -16.356  11.039  1.00  0.00    -0.036 C 
HETATM    3  C3  UNL     1     -84.908 -17.398  10.995  1.00  0.00     0.011 C 
HETATM    4  C4  UNL     1     -83.956 -17.098  12.123  1.00  0.00     0.013 C 
HETATM    5  C5  UNL     1     -84.732 -17.425  13.367  1.00  0.00     0.061 C 
HETATM    6  C9  UNL     1     -86.198 -17.215  13.360  1.00  0.00     0.016 C 
HETATM    7  C12 UNL     1     -86.765 -16.322  12.321  1.00  0.00    -0.025 C 
HETATM    8  C13 UNL     1     -86.715 -14.935  12.985  1.00  0.00     0.017 C 
HETATM    9  C14 UNL     1     -88.274 -16.650  12.094  1.00  0.00     0.033 C 
HETATM   10  C15 UNL     1     -88.537 -18.105  11.934  1.00  0.00     0.124 C 
HETATM   11  C16 UNL     1     -89.542 -18.554  10.955  1.00  0.00     0.042 C 
HETATM   12  C17 UNL     1     -90.744 -17.619  10.774  1.00  0.00    -0.023 C 
HETATM   13  C18 UNL     1     -91.878 -18.293  11.439  1.00  0.00     0.016 C 
HETATM   14  C19 UNL     1     -91.130 -17.712   9.279  1.00  0.00     0.088 C 
HETATM   15  C20 UNL     1     -91.132 -16.338   8.766  1.00  0.00     0.128 C 
HETATM   16  O6  UNL     1     -91.046 -15.966   7.615  1.00  0.00    -0.298 OA
HETATM   17  C21 UNL     1     -91.261 -15.573   9.972  1.00  0.00     0.093 C 
HETATM   18  C22 UNL     1     -90.425 -16.219  11.114  1.00  0.00     0.001 C 
HETATM   19  C25 UNL     1     -88.949 -15.854  11.027  1.00  0.00    -0.025 C 
HETATM   20  C26 UNL     1     -88.936 -14.377  11.121  1.00  0.00     0.016 C 
HETATM   21  C27 UNL     1     -88.228 -16.131   9.752  1.00  0.00     0.011 C 
HETATM   22  C28 UNL     1     -86.842 -16.696   9.838  1.00  0.00     0.011 C 
ENDROOT
BRANCH   5  23
HETATM   23  C6  UNL     1     -84.356 -18.860  13.645  1.00  0.00     0.133 C 
HETATM   24  O1  UNL     1     -83.244 -19.087  14.016  1.00  0.00    -0.297 OA
BRANCH  23  25
HETATM   25  C7  UNL     1     -85.302 -19.974  13.480  1.00  0.00     0.104 C 
BRANCH  25  26
HETATM   26  C8  UNL     1     -85.042 -21.103  14.456  1.00  0.00     0.171 C 
BRANCH  26  27
HETATM   27  O2  UNL     1     -84.672 -20.628  15.717  1.00  0.00    -0.400 OA
ATOM     28  H2  UNL     1     -84.414 -21.332  16.300  1.00  0.00     0.209 HD
ENDBRANCH  26  27
ENDBRANCH  25  26
ENDBRANCH  23  25
ENDBRANCH   5  23
BRANCH   6  29
HETATM   29  C10 UNL     1     -86.538 -16.759  14.787  1.00  0.00     0.119 C 
BRANCH  29  30
HETATM   30  C11 UNL     1     -87.325 -17.729  15.560  1.00  0.00     0.172 C 
HETATM   31  O3  UNL     1     -86.722 -18.624  16.197  1.00  0.00    -0.648 OA
HETATM   32  O4  UNL     1     -88.696 -17.698  15.609  1.00  0.00    -0.648 OA
ENDBRANCH  29  30
ENDBRANCH   6  29
BRANCH  10  33
HETATM   33  O5  UNL     1     -88.898 -18.771  13.139  1.00  0.00    -0.395 OA
ATOM     34  H5  UNL     1     -88.351 -19.517  13.352  1.00  0.00     0.210 HD
ENDBRANCH  10  33
BRANCH  18  35
HETATM   35  C23 UNL     1     -91.043 -15.517  12.262  1.00  0.00     0.009 C 
HETATM   36  C24 UNL     1     -90.837 -15.571  13.678  1.00  0.00     0.128 C 
BRANCH  36  37
HETATM   37  O7  UNL     1     -91.042 -16.758  14.377  1.00  0.00    -0.373 OA
ATOM     38  H7  UNL     1     -90.697 -16.866  15.256  1.00  0.00     0.216 HD
ENDBRANCH  36  37
ENDBRANCH  18  35
TORSDOF 9
ENDMDL
MODEL 2
REMARK VINA RESULT: -7.694906838      2.706      6.410
REMARK  9 active torsions:
REMARK  status: ('A' for Active; 'I' for Inactive)
REMARK    1  A    between atoms: C5_5  and  C6_6 
REMARK    2  A    between atoms: C6_6  and  C7_8 
REMARK    3  A    between atoms: C7_8  and  C8_9 
REMARK    4  A    between atoms: C8_9  and  O2_10 
REMARK    5  A    between atoms: C9_12  and  C10_13 
REMARK    6  A    between atoms: C10_13  and  C11_14 
REMARK    7  A    between atoms: C15_20  and  O5_21 
REMARK    8  A    between atoms: C22_30  and  C23_31 
REMARK    9  A    between atoms: C24_32  and  O7_33 
ROOT
HETATM    1  C1  UNL     1     -90.580 -16.530  11.615  1.00  0.00     0.016 C 
HETATM    2  C2  UNL     1     -89.100 -16.948  11.601  1.00  0.00    -0.036 C 
HETATM    3  C3  UNL     1     -88.978 -17.570  10.190  1.00  0.00     0.011 C 
HETATM    4  C4  UNL     1     -89.194 -16.478   9.175  1.00  0.00     0.013 C 
HETATM    5  C5  UNL     1     -87.988 -15.594   9.315  1.00  0.00     0.061 C 
HETATM    6  C9  UNL     1     -87.363 -15.457  10.650  1.00  0.00     0.016 C 
HETATM    7  C12 UNL     1     -88.170 -15.837  11.835  1.00  0.00    -0.025 C 
HETATM    8  C13 UNL     1     -88.895 -14.530  12.200  1.00  0.00     0.017 C 
HETATM    9  C14 UNL     1     -87.235 -16.177  13.038  1.00  0.00     0.033 C 
HETATM   10  C15 UNL     1     -86.121 -17.092  12.671  1.00  0.00     0.124 C 
HETATM   11  C16 UNL     1     -85.704 -18.138  13.620  1.00  0.00     0.042 C 
HETATM   12  C17 UNL     1     -85.819 -17.762  15.102  1.00  0.00    -0.023 C 
HETATM   13  C18 UNL     1     -84.433 -17.544  15.568  1.00  0.00     0.016 C 
HETATM   14  C19 UNL     1     -86.218 -19.063  15.838  1.00  0.00     0.088 C 
HETATM   15  C20 UNL     1     -87.435 -18.752  16.597  1.00  0.00     0.128 C 
HETATM   16  O6  UNL     1     -88.265 -19.521  17.034  1.00  0.00    -0.298 OA
HETATM   17  C21 UNL     1     -87.374 -17.322  16.678  1.00  0.00     0.093 C 
HETATM   18  C22 UNL     1     -86.842 -16.726  15.343  1.00  0.00     0.001 C 
HETATM   19  C25 UNL     1     -87.927 -16.631  14.280  1.00  0.00    -0.025 C 
HETATM   20  C26 UNL     1     -88.953 -15.754  14.888  1.00  0.00     0.016 C 
HETATM   21  C27 UNL     1     -88.684 -17.867  13.931  1.00  0.00     0.011 C 
HETATM   22  C28 UNL     1     -88.975 -18.127  12.484  1.00  0.00     0.011 C 
ENDROOT
BRANCH   5  23
HETATM   23  C6  UNL     1     -87.032 -16.142   8.284  1.00  0.00     0.133 C 
HETATM   24  O1  UNL     1     -86.006 -16.619   8.667  1.00  0.00    -0.297 OA
BRANCH  23  25
HETATM   25  C7  UNL     1     -87.319 -16.114   6.842  1.00  0.00     0.104 C 
BRANCH  25  26
HETATM   26  C8  UNL     1     -86.700 -14.915   6.152  1.00  0.00     0.171 C 
BRANCH  26  27
HETATM   27  O2  UNL     1     -87.322 -14.636   4.932  1.00  0.00    -0.400 OA
ATOM     28  H2  UNL     1     -86.723 -14.241   4.310  1.00  0.00     0.209 HD
ENDBRANCH  26  27
ENDBRANCH  25  26
ENDBRANCH  23  25
ENDBRANCH   5  23
BRANCH   6  29
HETATM   29  C10 UNL     1     -86.869 -14.004  10.708  1.00  0.00     0.119 C 
BRANCH  29  30
HETATM   30  C11 UNL     1     -85.407 -13.860  10.676  1.00  0.00     0.172 C 
HETATM   31  O3  UNL     1     -84.785 -13.779  11.760  1.00  0.00    -0.648 OA
HETATM   32  O4  UNL     1     -84.695 -13.808   9.504  1.00  0.00    -0.648 OA
ENDBRANCH  29  30
ENDBRANCH   6  29
BRANCH  10  33
HETATM   33  O5  UNL     1     -84.911 -16.431  12.322  1.00  0.00    -0.395 OA
ATOM     34  H5  UNL     1     -84.139 -16.775  12.755  1.00  0.00     0.210 HD
ENDBRANCH  10  33
BRANCH  18  35
HETATM   35  C23 UNL     1     -86.501 -15.369  15.828  1.00  0.00     0.009 C 
HETATM   36  C24 UNL     1     -85.960 -14.203  15.198  1.00  0.00     0.128 C 
BRANCH  36  37
HETATM   37  O7  UNL     1     -84.696 -14.239  14.613  1.00  0.00    -0.373 OA
ATOM     38  H7  UNL     1     -84.313 -13.452  14.245  1.00  0.00     0.216 HD
ENDBRANCH  36  37
ENDBRANCH  18  35
TORSDOF 9
ENDMDL
MODEL 3
REMARK VINA RESULT: -7.606484442      1.025      1.208
REMARK  9 active torsions:
REMARK  status: ('A' for Active; 'I' for Inactive)
REMARK    1  A    between atoms: C5_5  and  C6_6 
REMARK    2  A    between atoms: C6_6  and  C7_8 
REMARK    3  A    between atoms: C7_8  and  C8_9 
REMARK    4  A    between atoms: C8_9  and  O2_10 
REMARK    5  A    between atoms: C9_12  and  C10_13 
REMARK    6  A    between atoms: C10_13  and  C11_14 
REMARK    7  A    between atoms: C15_20  and  O5_21 
REMARK    8  A    between atoms: C22_30  and  C23_31 
REMARK    9  A    between atoms: C24_32  and  O7_33 
ROOT
HETATM    1  C1  UNL     1     -84.641 -15.493  11.685  1.00  0.00     0.016 C 
HETATM    2  C2  UNL     1     -85.616 -16.666  11.875  1.00  0.00    -0.036 C 
HETATM    3  C3  UNL     1     -84.636 -17.818  12.205  1.00  0.00     0.011 C 
HETATM    4  C4  UNL     1     -83.973 -17.506  13.522  1.00  0.00     0.013 C 
HETATM    5  C5  UNL     1     -85.075 -17.631  14.535  1.00  0.00     0.061 C 
HETATM    6  C9  UNL     1     -86.452 -17.275  14.128  1.00  0.00     0.016 C 
HETATM    7  C12 UNL     1     -86.623 -16.435  12.918  1.00  0.00    -0.025 C 
HETATM    8  C13 UNL     1     -86.573 -15.002  13.475  1.00  0.00     0.017 C 
HETATM    9  C14 UNL     1     -88.052 -16.630  12.322  1.00  0.00     0.033 C 
HETATM   10  C15 UNL     1     -88.443 -18.060  12.198  1.00  0.00     0.124 C 
HETATM   11  C16 UNL     1     -89.213 -18.498  11.022  1.00  0.00     0.042 C 
HETATM   12  C17 UNL     1     -90.205 -17.469  10.467  1.00  0.00    -0.023 C 
HETATM   13  C18 UNL     1     -91.545 -17.956  10.853  1.00  0.00     0.016 C 
HETATM   14  C19 UNL     1     -90.206 -17.668   8.932  1.00  0.00     0.088 C 
HETATM   15  C20 UNL     1     -89.908 -16.357   8.345  1.00  0.00     0.128 C 
HETATM   16  O6  UNL     1     -89.487 -16.110   7.235  1.00  0.00    -0.298 OA
HETATM   17  C21 UNL     1     -90.245 -15.469   9.419  1.00  0.00     0.093 C 
HETATM   18  C22 UNL     1     -89.813 -16.082  10.782  1.00  0.00     0.001 C 
HETATM   19  C25 UNL     1     -88.331 -15.877  11.064  1.00  0.00    -0.025 C 
HETATM   20  C26 UNL     1     -88.161 -14.407  11.057  1.00  0.00     0.016 C 
HETATM   21  C27 UNL     1     -87.348 -16.349  10.046  1.00  0.00     0.011 C 
HETATM   22  C28 UNL     1     -86.110 -17.041  10.533  1.00  0.00     0.011 C 
ENDROOT
BRANCH   5  23
HETATM   23  C6  UNL     1     -84.961 -19.062  14.999  1.00  0.00     0.133 C 
HETATM   24  O1  UNL     1     -84.071 -19.341  15.747  1.00  0.00    -0.297 OA
BRANCH  23  25
HETATM   25  C7  UNL     1     -85.898 -20.111  14.572  1.00  0.00     0.104 C 
BRANCH  25  26
HETATM   26  C8  UNL     1     -85.568 -21.462  15.173  1.00  0.00     0.171 C 
BRANCH  26  27
HETATM   27  O2  UNL     1     -85.223 -22.399  14.194  1.00  0.00    -0.400 OA
ATOM     28  H2  UNL     1     -84.678 -22.019  13.515  1.00  0.00     0.209 HD
ENDBRANCH  26  27
ENDBRANCH  25  26
ENDBRANCH  23  25
ENDBRANCH   5  23
BRANCH   6  29
HETATM   29  C10 UNL     1     -87.086 -16.650  15.380  1.00  0.00     0.119 C 
BRANCH  29  30
HETATM   30  C11 UNL     1     -88.297 -17.335  15.850  1.00  0.00     0.172 C 
HETATM   31  O3  UNL     1     -89.391 -16.726  15.805  1.00  0.00    -0.648 OA
HETATM   32  O4  UNL     1     -88.279 -18.616  16.342  1.00  0.00    -0.648 OA
ENDBRANCH  29  30
ENDBRANCH   6  29
BRANCH  10  33
HETATM   33  O5  UNL     1     -89.177 -18.565  13.307  1.00  0.00    -0.395 OA
ATOM     34  H5  UNL     1     -90.095 -18.728  13.127  1.00  0.00     0.210 HD
ENDBRANCH  10  33
BRANCH  18  35
HETATM   35  C23 UNL     1     -90.612 -15.213  11.677  1.00  0.00     0.009 C 
HETATM   36  C24 UNL     1     -90.769 -15.138  13.097  1.00  0.00     0.128 C 
BRANCH  36  37
HETATM   37  O7  UNL     1     -91.273 -16.223  13.811  1.00  0.00    -0.373 OA
ATOM     38  H7  UNL     1     -91.647 -16.968  13.355  1.00  0.00     0.216 HD
ENDBRANCH  36  37
ENDBRANCH  18  35
TORSDOF 9
ENDMDL
MODEL 4
REMARK VINA RESULT: -7.518084588      2.966      4.890
REMARK  9 active torsions:
REMARK  status: ('A' for Active; 'I' for Inactive)
REMARK    1  A    between atoms: C5_5  and  C6_6 
REMARK    2  A    between atoms: C6_6  and  C7_8 
REMARK    3  A    between atoms: C7_8  and  C8_9 
REMARK    4  A    between atoms: C8_9  and  O2_10 
REMARK    5  A    between atoms: C9_12  and  C10_13 
REMARK    6  A    between atoms: C10_13  and  C11_14 
REMARK    7  A    between atoms: C15_20  and  O5_21 
REMARK    8  A    between atoms: C22_30  and  C23_31 
REMARK    9  A    between atoms: C24_32  and  O7_33 
ROOT
HETATM    1  C1  UNL     1     -87.944 -18.406  14.676  1.00  0.00     0.016 C 
HETATM    2  C2  UNL     1     -88.491 -17.090  14.100  1.00  0.00    -0.036 C 
HETATM    3  C3  UNL     1     -88.223 -16.116  15.272  1.00  0.00     0.011 C 
HETATM    4  C4  UNL     1     -86.732 -15.996  15.451  1.00  0.00     0.013 C 
HETATM    5  C5  UNL     1     -86.264 -15.266  14.225  1.00  0.00     0.061 C 
HETATM    6  C9  UNL     1     -86.993 -15.480  12.954  1.00  0.00     0.016 C 
HETATM    7  C12 UNL     1     -87.851 -16.684  12.842  1.00  0.00    -0.025 C 
HETATM    8  C13 UNL     1     -86.887 -17.754  12.301  1.00  0.00     0.017 C 
HETATM    9  C14 UNL     1     -88.938 -16.471  11.742  1.00  0.00     0.033 C 
HETATM   10  C15 UNL     1     -89.639 -15.164  11.861  1.00  0.00     0.124 C 
HETATM   11  C16 UNL     1     -91.085 -15.093  11.588  1.00  0.00     0.042 C 
HETATM   12  C17 UNL     1     -91.594 -16.045  10.499  1.00  0.00    -0.023 C 
HETATM   13  C18 UNL     1     -91.878 -15.194   9.325  1.00  0.00     0.016 C 
HETATM   14  C19 UNL     1     -93.010 -16.481  10.947  1.00  0.00     0.088 C 
HETATM   15  C20 UNL     1     -93.006 -17.948  10.960  1.00  0.00     0.128 C 
HETATM   16  O6  UNL     1     -93.758 -18.695  11.548  1.00  0.00    -0.298 OA
HETATM   17  C21 UNL     1     -91.895 -18.247  10.104  1.00  0.00     0.093 C 
HETATM   18  C22 UNL     1     -90.737 -17.237  10.347  1.00  0.00     0.001 C 
HETATM   19  C25 UNL     1     -89.905 -17.595  11.571  1.00  0.00    -0.025 C 
HETATM   20  C26 UNL     1     -89.384 -18.947  11.271  1.00  0.00     0.016 C 
HETATM   21  C27 UNL     1     -90.608 -17.770  12.874  1.00  0.00     0.011 C 
HETATM   22  C28 UNL     1     -89.965 -17.196  14.101  1.00  0.00     0.011 C 
ENDROOT
BRANCH   5  23
HETATM   23  C6  UNL     1     -86.271 -13.820  14.657  1.00  0.00     0.133 C 
HETATM   24  O1  UNL     1     -87.140 -13.113  14.243  1.00  0.00    -0.297 OA
BRANCH  23  25
HETATM   25  C7  UNL     1     -85.258 -13.259  15.564  1.00  0.00     0.104 C 
BRANCH  25  26
HETATM   26  C8  UNL     1     -84.018 -12.791  14.828  1.00  0.00     0.171 C 
BRANCH  26  27
HETATM   27  O2  UNL     1     -84.301 -12.423  13.510  1.00  0.00    -0.400 OA
ATOM     28  H2  UNL     1     -84.089 -13.115  12.895  1.00  0.00     0.209 HD
ENDBRANCH  26  27
ENDBRANCH  25  26
ENDBRANCH  23  25
ENDBRANCH   5  23
BRANCH   6  29
HETATM   29  C10 UNL     1     -85.913 -15.416  11.864  1.00  0.00     0.119 C 
BRANCH  29  30
HETATM   30  C11 UNL     1     -86.108 -14.340  10.883  1.00  0.00     0.172 C 
HETATM   31  O3  UNL     1     -86.305 -14.645   9.684  1.00  0.00    -0.648 OA
HETATM   32  O4  UNL     1     -86.079 -13.012  11.226  1.00  0.00    -0.648 OA
ENDBRANCH  29  30
ENDBRANCH   6  29
BRANCH  10  33
HETATM   33  O5  UNL     1     -89.080 -14.125  11.065  1.00  0.00    -0.395 OA
ATOM     34  H5  UNL     1     -88.269 -14.360  10.630  1.00  0.00     0.210 HD
ENDBRANCH  10  33
BRANCH  18  35
HETATM   35  C23 UNL     1     -89.953 -17.502   9.119  1.00  0.00     0.009 C 
HETATM   36  C24 UNL     1     -88.719 -16.989   8.606  1.00  0.00     0.128 C 
BRANCH  36  37
HETATM   37  O7  UNL     1     -88.582 -15.632   8.321  1.00  0.00    -0.373 OA
ATOM     38  H7  UNL     1     -88.171 -15.349   7.513  1.00  0.00     0.216 HD
ENDBRANCH  36  37
ENDBRANCH  18  35
TORSDOF 9
ENDMDL
MODEL 5
REMARK VINA RESULT: -7.444771067      2.621      6.021
REMARK  9 active torsions:
REMARK  status: ('A' for Active; 'I' for Inactive)
REMARK    1  A    between atoms: C5_5  and  C6_6 
REMARK    2  A    between atoms: C6_6  and  C7_8 
REMARK    3  A    between atoms: C7_8  and  C8_9 
REMARK    4  A    between atoms: C8_9  and  O2_10 
REMARK    5  A    between atoms: C9_12  and  C10_13 
REMARK    6  A    between atoms: C10_13  and  C11_14 
REMARK    7  A    between atoms: C15_20  and  O5_21 
REMARK    8  A    between atoms: C22_30  and  C23_31 
REMARK    9  A    between atoms: C24_32  and  O7_33 
ROOT
HETATM    1  C1  UNL     1     -90.282 -16.496  11.551  1.00  0.00     0.016 C 
HETATM    2  C2  UNL     1     -88.791 -16.860  11.646  1.00  0.00    -0.036 C 
HETATM    3  C3  UNL     1     -88.528 -17.416  10.227  1.00  0.00     0.011 C 
HETATM    4  C4  UNL     1     -88.701 -16.289   9.242  1.00  0.00     0.013 C 
HETATM    5  C5  UNL     1     -87.546 -15.370   9.518  1.00  0.00     0.061 C 
HETATM    6  C9  UNL     1     -87.041 -15.269  10.906  1.00  0.00     0.016 C 
HETATM    7  C12 UNL     1     -87.927 -15.728  12.002  1.00  0.00    -0.025 C 
HETATM    8  C13 UNL     1     -88.730 -14.465  12.356  1.00  0.00     0.017 C 
HETATM    9  C14 UNL     1     -87.083 -16.085  13.265  1.00  0.00     0.033 C 
HETATM   10  C15 UNL     1     -85.908 -16.944  12.958  1.00  0.00     0.124 C 
HETATM   11  C16 UNL     1     -85.531 -18.014  13.897  1.00  0.00     0.042 C 
HETATM   12  C17 UNL     1     -85.783 -17.706  15.377  1.00  0.00    -0.023 C 
HETATM   13  C18 UNL     1     -84.451 -17.460  15.967  1.00  0.00     0.016 C 
HETATM   14  C19 UNL     1     -86.191 -19.051  16.025  1.00  0.00     0.088 C 
HETATM   15  C20 UNL     1     -87.478 -18.816  16.689  1.00  0.00     0.128 C 
HETATM   16  O6  UNL     1     -88.311 -19.632  17.023  1.00  0.00    -0.298 OA
HETATM   17  C21 UNL     1     -87.480 -17.389  16.833  1.00  0.00     0.093 C 
HETATM   18  C22 UNL     1     -86.862 -16.719  15.572  1.00  0.00     0.001 C 
HETATM   19  C25 UNL     1     -87.858 -16.616  14.425  1.00  0.00    -0.025 C 
HETATM   20  C26 UNL     1     -88.964 -15.803  14.978  1.00  0.00     0.016 C 
HETATM   21  C27 UNL     1     -88.534 -17.863  13.965  1.00  0.00     0.011 C 
HETATM   22  C28 UNL     1     -88.694 -18.071  12.489  1.00  0.00     0.011 C 
ENDROOT
BRANCH   5  23
HETATM   23  C6  UNL     1     -86.487 -15.839   8.551  1.00  0.00     0.133 C 
HETATM   24  O1  UNL     1     -86.474 -15.360   7.456  1.00  0.00    -0.297 OA
BRANCH  23  25
HETATM   25  C7  UNL     1     -85.481 -16.851   8.906  1.00  0.00     0.104 C 
BRANCH  25  26
HETATM   26  C8  UNL     1     -84.064 -16.345   8.727  1.00  0.00     0.171 C 
BRANCH  26  27
HETATM   27  O2  UNL     1     -83.342 -16.379   9.923  1.00  0.00    -0.400 OA
ATOM     28  H2  UNL     1     -82.832 -15.588  10.052  1.00  0.00     0.209 HD
ENDBRANCH  26  27
ENDBRANCH  25  26
ENDBRANCH  23  25
ENDBRANCH   5  23
BRANCH   6  29
HETATM   29  C10 UNL     1     -86.610 -13.803  11.064  1.00  0.00     0.119 C 
BRANCH  29  30
HETATM   30  C11 UNL     1     -85.155 -13.602  11.113  1.00  0.00     0.172 C 
HETATM   31  O3  UNL     1     -84.588 -13.571  12.229  1.00  0.00    -0.648 OA
HETATM   32  O4  UNL     1     -84.392 -13.442   9.984  1.00  0.00    -0.648 OA
ENDBRANCH  29  30
ENDBRANCH   6  29
BRANCH  10  33
HETATM   33  O5  UNL     1     -84.699 -16.226  12.739  1.00  0.00    -0.395 OA
ATOM     34  H5  UNL     1     -84.455 -16.140  11.825  1.00  0.00     0.210 HD
ENDBRANCH  10  33
BRANCH  18  35
HETATM   35  C23 UNL     1     -86.616 -15.372  16.138  1.00  0.00     0.009 C 
HETATM   36  C24 UNL     1     -86.067 -14.163  15.604  1.00  0.00     0.128 C 
BRANCH  36  37
HETATM   37  O7  UNL     1     -84.757 -14.131  15.130  1.00  0.00    -0.373 OA
ATOM     38  H7  UNL     1     -84.473 -14.737  14.457  1.00  0.00     0.216 HD
ENDBRANCH  36  37
ENDBRANCH  18  35
TORSDOF 9
ENDMDL
