MODEL 1
REMARK VINA RESULT: -8.727628403      0.000      0.000
REMARK  12 active torsions:
REMARK  status: ('A' for Active; 'I' for Inactive)
REMARK    1  A    between atoms: O1_2  and  C2_3 
REMARK    2  A    between atoms: C2_3  and  C3_4 
REMARK    3  A    between atoms: C3_4  and  O2_5 
REMARK    4  A    between atoms: C3_4  and  C4_7 
REMARK    5  A    between atoms: C4_7  and  N1_8 
REMARK    6  A    between atoms: N1_8  and  C5_10 
REMARK    7  A    between atoms: C7_12  and  C8_13 
REMARK    8  A    between atoms: C12_20  and  C13_21 
REMARK    9  A    between atoms: C16_24  and  C17_25 
REMARK   10  A    between atoms: C18_26  and  C19_27 
REMARK   11  A    between atoms: C24_32  and  C25_33 
REMARK   12  A    between atoms: C28_36  and  N3_37 
ROOT
HETATM    1  C8  UNL     1     -91.412 -17.643  11.633  1.00  0.00     0.057 A 
HETATM    2  N2  UNL     1     -92.578 -18.196  12.058  1.00  0.00    -0.332 N 
ATOM      3  H2  UNL     1     -92.970 -17.863  12.939  1.00  0.00     0.168 HD
HETATM    4  C9  UNL     1     -93.244 -19.147  11.396  1.00  0.00     0.188 A 
HETATM    5  F1  UNL     1     -94.404 -19.685  11.833  1.00  0.00    -0.186 F 
HETATM    6  C10 UNL     1     -92.730 -19.602  10.211  1.00  0.00     0.062 A 
HETATM    7  C11 UNL     1     -91.559 -19.080   9.737  1.00  0.00     0.020 A 
HETATM    8  C12 UNL     1     -90.889 -18.083  10.461  1.00  0.00     0.018 A 
ENDROOT
BRANCH   8   9
HETATM    9  C13 UNL     1     -89.638 -17.544   9.927  1.00  0.00     0.046 A 
HETATM   10  C14 UNL     1     -89.580 -16.992   8.652  1.00  0.00     0.032 A 
HETATM   11  C15 UNL     1     -88.417 -16.482   8.115  1.00  0.00     0.027 A 
HETATM   12  C16 UNL     1     -87.238 -16.504   8.852  1.00  0.00     0.061 A 
HETATM   13  C28 UNL     1     -87.327 -17.058  10.111  1.00  0.00     0.118 A 
HETATM   14  N4  UNL     1     -88.478 -17.549  10.609  1.00  0.00    -0.341 N 
ATOM     15  H4  UNL     1     -88.469 -17.944  11.549  1.00  0.00     0.167 HD
BRANCH  12  16
HETATM   16  C17 UNL     1     -86.009 -15.980   8.315  1.00  0.00    -0.058 C 
HETATM   17  C18 UNL     1     -84.970 -15.562   7.864  1.00  0.00    -0.061 C 
BRANCH  17  18
HETATM   18  C19 UNL     1     -83.744 -15.081   7.306  1.00  0.00     0.024 A 
HETATM   19  C20 UNL     1     -83.500 -14.913   5.963  1.00  0.00     0.021 A 
HETATM   20  C21 UNL     1     -82.292 -14.439   5.467  1.00  0.00     0.002 A 
HETATM   21  C22 UNL     1     -81.303 -14.126   6.369  1.00  0.00     0.001 A 
HETATM   22  C23 UNL     1     -81.506 -14.279   7.719  1.00  0.00     0.009 A 
HETATM   23  C24 UNL     1     -82.701 -14.746   8.182  1.00  0.00    -0.036 A 
BRANCH  23  24
HETATM   24  C25 UNL     1     -82.926 -14.921   9.641  1.00  0.00     0.012 C 
HETATM   25  C26 UNL     1     -83.446 -13.611  10.197  1.00  0.00     0.015 C 
HETATM   26  C27 UNL     1     -81.603 -15.222  10.338  1.00  0.00     0.015 C 
ENDBRANCH  23  24
ENDBRANCH  17  18
ENDBRANCH  12  16
BRANCH  13  27
HETATM   27  N3  UNL     1     -86.225 -17.084  10.811  1.00  0.00    -0.384 N 
ATOM     28  H32 UNL     1     -86.041 -17.836  11.476  1.00  0.00     0.157 HD
ATOM     29  H31 UNL     1     -85.570 -16.318  10.652  1.00  0.00     0.157 HD
ENDBRANCH  13  27
ENDBRANCH   8   9
BRANCH   1  30
HETATM   30  C7  UNL     1     -90.736 -16.612  12.398  1.00  0.00    -0.004 A 
HETATM   31  C6  UNL     1     -90.231 -16.880  13.659  1.00  0.00     0.062 A 
HETATM   32  C5  UNL     1     -89.588 -15.883  14.395  1.00  0.00     0.101 A 
HETATM   33  N5  UNL     1     -89.434 -14.640  13.915  1.00  0.00    -0.353 N 
HETATM   34  C30 UNL     1     -89.916 -14.363  12.697  1.00  0.00     0.090 A 
ATOM     35  H5  UNL     1     -88.960 -13.923  14.465  1.00  0.00     0.166 HD
HETATM   36  C29 UNL     1     -90.563 -15.327  11.935  1.00  0.00     0.031 A 
BRANCH  32  37
HETATM   37  N1  UNL     1     -89.128 -16.160  15.563  1.00  0.00    -0.374 N 
ATOM     38  H1  UNL     1     -89.741 -16.114  16.377  1.00  0.00     0.161 HD
BRANCH  37  39
HETATM   39  C4  UNL     1     -87.756 -16.532  15.719  1.00  0.00     0.155 C 
BRANCH  39  40
HETATM   40  C3  UNL     1     -86.911 -15.382  16.235  1.00  0.00     0.159 C 
BRANCH  40  41
HETATM   41  C2  UNL     1     -85.817 -15.031  15.227  1.00  0.00     0.200 C 
BRANCH  41  42
HETATM   42  O1  UNL     1     -86.370 -15.187  13.963  1.00  0.00    -0.393 OA
HETATM   43  C1  UNL     1     -85.954 -14.197  13.080  1.00  0.00     0.201 C 
ENDBRANCH  41  42
ENDBRANCH  40  41
BRANCH  40  44
HETATM   44  O2  UNL     1     -87.685 -14.279  16.512  1.00  0.00    -0.392 OA
ATOM     45  H2  UNL     1     -87.739 -14.136  17.450  1.00  0.00     0.210 HD
ENDBRANCH  40  44
ENDBRANCH  39  40
ENDBRANCH  37  39
ENDBRANCH  32  37
ENDBRANCH   1  30
TORSDOF 12
ENDMDL
MODEL 2
REMARK VINA RESULT: -8.658804171      1.150      1.990
REMARK  12 active torsions:
REMARK  status: ('A' for Active; 'I' for Inactive)
REMARK    1  A    between atoms: O1_2  and  C2_3 
REMARK    2  A    between atoms: C2_3  and  C3_4 
REMARK    3  A    between atoms: C3_4  and  O2_5 
REMARK    4  A    between atoms: C3_4  and  C4_7 
REMARK    5  A    between atoms: C4_7  and  N1_8 
REMARK    6  A    between atoms: N1_8  and  C5_10 
REMARK    7  A    between atoms: C7_12  and  C8_13 
REMARK    8  A    between atoms: C12_20  and  C13_21 
REMARK    9  A    between atoms: C16_24  and  C17_25 
REMARK   10  A    between atoms: C18_26  and  C19_27 
REMARK   11  A    between atoms: C24_32  and  C25_33 
REMARK   12  A    between atoms: C28_36  and  N3_37 
ROOT
HETATM    1  C8  UNL     1     -90.738 -17.542  11.902  1.00  0.00     0.057 A 
HETATM    2  N2  UNL     1     -91.892 -18.169  12.249  1.00  0.00    -0.332 N 
ATOM      3  H2  UNL     1     -92.290 -17.964  13.165  1.00  0.00     0.168 HD
HETATM    4  C9  UNL     1     -92.540 -19.037  11.465  1.00  0.00     0.188 A 
HETATM    5  F1  UNL     1     -93.688 -19.652  11.825  1.00  0.00    -0.186 F 
HETATM    6  C10 UNL     1     -92.018 -19.321  10.231  1.00  0.00     0.062 A 
HETATM    7  C11 UNL     1     -90.858 -18.717   9.832  1.00  0.00     0.020 A 
HETATM    8  C12 UNL     1     -90.208 -17.812  10.683  1.00  0.00     0.018 A 
ENDROOT
BRANCH   8   9
HETATM    9  C13 UNL     1     -88.968 -17.182  10.227  1.00  0.00     0.046 A 
HETATM   10  C14 UNL     1     -88.965 -16.292   9.158  1.00  0.00     0.032 A 
HETATM   11  C15 UNL     1     -87.816 -15.686   8.698  1.00  0.00     0.027 A 
HETATM   12  C16 UNL     1     -86.594 -15.953   9.306  1.00  0.00     0.061 A 
HETATM   13  C28 UNL     1     -86.629 -16.838  10.362  1.00  0.00     0.118 A 
HETATM   14  N4  UNL     1     -87.768 -17.415  10.789  1.00  0.00    -0.341 N 
ATOM     15  H4  UNL     1     -87.718 -18.061  11.577  1.00  0.00     0.167 HD
BRANCH  12  16
HETATM   16  C17 UNL     1     -85.378 -15.335   8.845  1.00  0.00    -0.058 C 
HETATM   17  C18 UNL     1     -84.365 -14.797   8.466  1.00  0.00    -0.061 C 
BRANCH  17  18
HETATM   18  C19 UNL     1     -83.162 -14.151   8.042  1.00  0.00     0.024 A 
HETATM   19  C20 UNL     1     -82.397 -13.318   8.823  1.00  0.00     0.021 A 
HETATM   20  C21 UNL     1     -81.231 -12.714   8.369  1.00  0.00     0.002 A 
HETATM   21  C22 UNL     1     -80.834 -12.968   7.077  1.00  0.00     0.001 A 
HETATM   22  C23 UNL     1     -81.570 -13.795   6.263  1.00  0.00     0.009 A 
HETATM   23  C24 UNL     1     -82.711 -14.377   6.733  1.00  0.00    -0.036 A 
BRANCH  23  24
HETATM   24  C25 UNL     1     -83.518 -15.267   5.857  1.00  0.00     0.012 C 
HETATM   25  C26 UNL     1     -82.659 -15.666   4.675  1.00  0.00     0.015 C 
HETATM   26  C27 UNL     1     -84.722 -14.506   5.312  1.00  0.00     0.015 C 
ENDBRANCH  23  24
ENDBRANCH  17  18
ENDBRANCH  12  16
BRANCH  13  27
HETATM   27  N3  UNL     1     -85.486 -17.096  10.939  1.00  0.00    -0.384 N 
ATOM     28  H32 UNL     1     -85.260 -18.036  11.263  1.00  0.00     0.157 HD
ATOM     29  H31 UNL     1     -84.845 -16.309  11.043  1.00  0.00     0.157 HD
ENDBRANCH  13  27
ENDBRANCH   8   9
BRANCH   1  30
HETATM   30  C7  UNL     1     -90.083 -16.607  12.798  1.00  0.00    -0.004 A 
HETATM   31  C6  UNL     1     -89.329 -17.060  13.867  1.00  0.00     0.062 A 
HETATM   32  C5  UNL     1     -88.705 -16.158  14.732  1.00  0.00     0.101 A 
HETATM   33  N5  UNL     1     -88.809 -14.832  14.562  1.00  0.00    -0.353 N 
HETATM   34  C30 UNL     1     -89.535 -14.375  13.533  1.00  0.00     0.090 A 
ATOM     35  H5  UNL     1     -88.347 -14.185  15.201  1.00  0.00     0.166 HD
HETATM   36  C29 UNL     1     -90.171 -15.241  12.653  1.00  0.00     0.031 A 
BRANCH  32  37
HETATM   37  N1  UNL     1     -88.011 -16.606  15.716  1.00  0.00    -0.374 N 
ATOM     38  H1  UNL     1     -87.352 -17.371  15.570  1.00  0.00     0.161 HD
BRANCH  37  39
HETATM   39  C4  UNL     1     -88.163 -16.030  17.016  1.00  0.00     0.155 C 
BRANCH  39  40
HETATM   40  C3  UNL     1     -87.008 -15.112  17.369  1.00  0.00     0.159 C 
BRANCH  40  41
HETATM   41  C2  UNL     1     -85.750 -15.521  16.604  1.00  0.00     0.200 C 
BRANCH  41  42
HETATM   42  O1  UNL     1     -85.662 -14.686  15.499  1.00  0.00    -0.393 OA
HETATM   43  C1  UNL     1     -84.910 -15.245  14.473  1.00  0.00     0.201 C 
ENDBRANCH  41  42
ENDBRANCH  40  41
BRANCH  40  44
HETATM   44  O2  UNL     1     -87.321 -13.796  17.120  1.00  0.00    -0.392 OA
ATOM     45  H2  UNL     1     -87.075 -13.248  17.856  1.00  0.00     0.210 HD
ENDBRANCH  40  44
ENDBRANCH  39  40
ENDBRANCH  37  39
ENDBRANCH  32  37
ENDBRANCH   1  30
TORSDOF 12
ENDMDL
MODEL 3
REMARK VINA RESULT: -8.625934289      1.324      2.492
REMARK  12 active torsions:
REMARK  status: ('A' for Active; 'I' for Inactive)
REMARK    1  A    between atoms: O1_2  and  C2_3 
REMARK    2  A    between atoms: C2_3  and  C3_4 
REMARK    3  A    between atoms: C3_4  and  O2_5 
REMARK    4  A    between atoms: C3_4  and  C4_7 
REMARK    5  A    between atoms: C4_7  and  N1_8 
REMARK    6  A    between atoms: N1_8  and  C5_10 
REMARK    7  A    between atoms: C7_12  and  C8_13 
REMARK    8  A    between atoms: C12_20  and  C13_21 
REMARK    9  A    between atoms: C16_24  and  C17_25 
REMARK   10  A    between atoms: C18_26  and  C19_27 
REMARK   11  A    between atoms: C24_32  and  C25_33 
REMARK   12  A    between atoms: C28_36  and  N3_37 
ROOT
HETATM    1  C8  UNL     1     -90.898 -17.657  11.939  1.00  0.00     0.057 A 
HETATM    2  N2  UNL     1     -92.062 -18.286  12.248  1.00  0.00    -0.332 N 
ATOM      3  H2  UNL     1     -92.460 -18.127  13.173  1.00  0.00     0.168 HD
HETATM    4  C9  UNL     1     -92.719 -19.100  11.416  1.00  0.00     0.188 A 
HETATM    5  F1  UNL     1     -93.877 -19.718  11.739  1.00  0.00    -0.186 F 
HETATM    6  C10 UNL     1     -92.197 -19.323  10.170  1.00  0.00     0.062 A 
HETATM    7  C11 UNL     1     -91.027 -18.714   9.808  1.00  0.00     0.020 A 
HETATM    8  C12 UNL     1     -90.367 -17.866  10.709  1.00  0.00     0.018 A 
ENDROOT
BRANCH   8   9
HETATM    9  C13 UNL     1     -89.118 -17.230  10.291  1.00  0.00     0.046 A 
HETATM   10  C14 UNL     1     -89.078 -16.374   9.195  1.00  0.00     0.032 A 
HETATM   11  C15 UNL     1     -87.918 -15.763   8.771  1.00  0.00     0.027 A 
HETATM   12  C16 UNL     1     -86.722 -15.989   9.443  1.00  0.00     0.061 A 
HETATM   13  C28 UNL     1     -86.793 -16.842  10.524  1.00  0.00     0.118 A 
HETATM   14  N4  UNL     1     -87.942 -17.424  10.915  1.00  0.00    -0.341 N 
ATOM     15  H4  UNL     1     -87.919 -18.044  11.725  1.00  0.00     0.167 HD
BRANCH  12  16
HETATM   16  C17 UNL     1     -85.495 -15.365   9.021  1.00  0.00    -0.058 C 
HETATM   17  C18 UNL     1     -84.478 -14.822   8.661  1.00  0.00    -0.061 C 
BRANCH  17  18
HETATM   18  C19 UNL     1     -83.276 -14.161   8.256  1.00  0.00     0.024 A 
HETATM   19  C20 UNL     1     -82.521 -13.338   9.057  1.00  0.00     0.021 A 
HETATM   20  C21 UNL     1     -81.357 -12.718   8.620  1.00  0.00     0.002 A 
HETATM   21  C22 UNL     1     -80.951 -12.946   7.326  1.00  0.00     0.001 A 
HETATM   22  C23 UNL     1     -81.678 -13.763   6.493  1.00  0.00     0.009 A 
HETATM   23  C24 UNL     1     -82.818 -14.361   6.946  1.00  0.00    -0.036 A 
BRANCH  23  24
HETATM   24  C25 UNL     1     -83.613 -15.239   6.049  1.00  0.00     0.012 C 
HETATM   25  C26 UNL     1     -82.750 -15.602   4.859  1.00  0.00     0.015 C 
HETATM   26  C27 UNL     1     -84.826 -14.480   5.521  1.00  0.00     0.015 C 
ENDBRANCH  23  24
ENDBRANCH  17  18
ENDBRANCH  12  16
BRANCH  13  27
HETATM   27  N3  UNL     1     -85.675 -17.061  11.162  1.00  0.00    -0.384 N 
ATOM     28  H32 UNL     1     -84.779 -16.766  10.771  1.00  0.00     0.157 HD
ATOM     29  H31 UNL     1     -85.753 -17.538  12.060  1.00  0.00     0.157 HD
ENDBRANCH  13  27
ENDBRANCH   8   9
BRANCH   1  30
HETATM   30  C7  UNL     1     -90.233 -16.782  12.887  1.00  0.00    -0.004 A 
HETATM   31  C6  UNL     1     -90.037 -15.443  12.600  1.00  0.00     0.062 A 
HETATM   32  C5  UNL     1     -89.389 -14.606  13.512  1.00  0.00     0.101 A 
HETATM   33  N5  UNL     1     -88.939 -15.062  14.690  1.00  0.00    -0.353 N 
HETATM   34  C30 UNL     1     -89.120 -16.355  14.985  1.00  0.00     0.090 A 
ATOM     35  H5  UNL     1     -88.469 -14.438  15.347  1.00  0.00     0.166 HD
HETATM   36  C29 UNL     1     -89.758 -17.218  14.104  1.00  0.00     0.031 A 
BRANCH  32  37
HETATM   37  N1  UNL     1     -89.221 -13.366  13.219  1.00  0.00    -0.374 N 
ATOM     38  H1  UNL     1     -89.896 -12.670  13.536  1.00  0.00     0.161 HD
BRANCH  37  39
HETATM   39  C4  UNL     1     -88.085 -12.964  12.448  1.00  0.00     0.155 C 
BRANCH  39  40
HETATM   40  C3  UNL     1     -86.786 -13.480  13.040  1.00  0.00     0.159 C 
BRANCH  40  41
HETATM   41  C2  UNL     1     -85.633 -13.269  12.059  1.00  0.00     0.200 C 
BRANCH  41  42
HETATM   42  O1  UNL     1     -84.757 -14.332  12.235  1.00  0.00    -0.393 OA
HETATM   43  C1  UNL     1     -83.487 -13.911  12.610  1.00  0.00     0.201 C 
ENDBRANCH  41  42
ENDBRANCH  40  41
BRANCH  40  44
HETATM   44  O2  UNL     1     -86.513 -12.877  14.246  1.00  0.00    -0.392 OA
ATOM     45  H2  UNL     1     -86.681 -11.943  14.199  1.00  0.00     0.210 HD
ENDBRANCH  40  44
ENDBRANCH  39  40
ENDBRANCH  37  39
ENDBRANCH  32  37
ENDBRANCH   1  30
TORSDOF 12
ENDMDL
MODEL 4
REMARK VINA RESULT: -8.455182559      0.930      1.124
REMARK  12 active torsions:
REMARK  status: ('A' for Active; 'I' for Inactive)
REMARK    1  A    between atoms: O1_2  and  C2_3 
REMARK    2  A    between atoms: C2_3  and  C3_4 
REMARK    3  A    between atoms: C3_4  and  O2_5 
REMARK    4  A    between atoms: C3_4  and  C4_7 
REMARK    5  A    between atoms: C4_7  and  N1_8 
REMARK    6  A    between atoms: N1_8  and  C5_10 
REMARK    7  A    between atoms: C7_12  and  C8_13 
REMARK    8  A    between atoms: C12_20  and  C13_21 
REMARK    9  A    between atoms: C16_24  and  C17_25 
REMARK   10  A    between atoms: C18_26  and  C19_27 
REMARK   11  A    between atoms: C24_32  and  C25_33 
REMARK   12  A    between atoms: C28_36  and  N3_37 
ROOT
HETATM    1  C8  UNL     1     -91.410 -17.645  11.686  1.00  0.00     0.057 A 
HETATM    2  N2  UNL     1     -92.608 -18.162  12.064  1.00  0.00    -0.332 N 
ATOM      3  H2  UNL     1     -93.021 -17.824  12.934  1.00  0.00     0.168 HD
HETATM    4  C9  UNL     1     -93.280 -19.086  11.371  1.00  0.00     0.188 A 
HETATM    5  F1  UNL     1     -94.471 -19.590  11.761  1.00  0.00    -0.186 F 
HETATM    6  C10 UNL     1     -92.738 -19.549  10.201  1.00  0.00     0.062 A 
HETATM    7  C11 UNL     1     -91.534 -19.061   9.774  1.00  0.00     0.020 A 
HETATM    8  C12 UNL     1     -90.860 -18.092  10.530  1.00  0.00     0.018 A 
ENDROOT
BRANCH   8   9
HETATM    9  C13 UNL     1     -89.573 -17.590  10.046  1.00  0.00     0.046 A 
HETATM   10  C14 UNL     1     -89.439 -17.084   8.757  1.00  0.00     0.032 A 
HETATM   11  C15 UNL     1     -88.241 -16.609   8.267  1.00  0.00     0.027 A 
HETATM   12  C16 UNL     1     -87.103 -16.621   9.067  1.00  0.00     0.061 A 
HETATM   13  C28 UNL     1     -87.269 -17.129  10.337  1.00  0.00     0.118 A 
HETATM   14  N4  UNL     1     -88.452 -17.586  10.789  1.00  0.00    -0.341 N 
ATOM     15  H4  UNL     1     -88.500 -17.948  11.741  1.00  0.00     0.167 HD
BRANCH  12  16
HETATM   16  C17 UNL     1     -85.840 -16.133   8.579  1.00  0.00    -0.058 C 
HETATM   17  C18 UNL     1     -84.769 -15.742   8.180  1.00  0.00    -0.061 C 
BRANCH  17  18
HETATM   18  C19 UNL     1     -83.499 -15.302   7.692  1.00  0.00     0.024 A 
HETATM   19  C20 UNL     1     -83.166 -15.170   6.366  1.00  0.00     0.021 A 
HETATM   20  C21 UNL     1     -81.917 -14.735   5.938  1.00  0.00     0.002 A 
HETATM   21  C22 UNL     1     -80.980 -14.426   6.895  1.00  0.00     0.001 A 
HETATM   22  C23 UNL     1     -81.272 -14.544   8.233  1.00  0.00     0.009 A 
HETATM   23  C24 UNL     1     -82.506 -14.973   8.627  1.00  0.00    -0.036 A 
BRANCH  23  24
HETATM   24  C25 UNL     1     -82.828 -15.111  10.072  1.00  0.00     0.012 C 
HETATM   25  C26 UNL     1     -83.268 -13.756  10.587  1.00  0.00     0.015 C 
HETATM   26  C27 UNL     1     -81.576 -15.511  10.846  1.00  0.00     0.015 C 
ENDBRANCH  23  24
ENDBRANCH  17  18
ENDBRANCH  12  16
BRANCH  13  27
HETATM   27  N3  UNL     1     -86.206 -17.146  11.096  1.00  0.00    -0.384 N 
ATOM     28  H32 UNL     1     -86.157 -17.746  11.920  1.00  0.00     0.157 HD
ATOM     29  H31 UNL     1     -85.441 -16.531  10.816  1.00  0.00     0.157 HD
ENDBRANCH  13  27
ENDBRANCH   8   9
BRANCH   1  30
HETATM   30  C7  UNL     1     -90.730 -16.641  12.484  1.00  0.00    -0.004 A 
HETATM   31  C6  UNL     1     -90.238 -16.949  13.741  1.00  0.00     0.062 A 
HETATM   32  C5  UNL     1     -89.590 -15.979  14.509  1.00  0.00     0.101 A 
HETATM   33  N5  UNL     1     -89.420 -14.725  14.064  1.00  0.00    -0.353 N 
HETATM   34  C30 UNL     1     -89.890 -14.410  12.850  1.00  0.00     0.090 A 
ATOM     35  H5  UNL     1     -88.943 -14.028  14.636  1.00  0.00     0.166 HD
HETATM   36  C29 UNL     1     -90.540 -15.346  12.058  1.00  0.00     0.031 A 
BRANCH  32  37
HETATM   37  N1  UNL     1     -89.143 -16.292  15.672  1.00  0.00    -0.374 N 
ATOM     38  H1  UNL     1     -89.669 -16.932  16.267  1.00  0.00     0.161 HD
BRANCH  37  39
HETATM   39  C4  UNL     1     -87.905 -15.742  16.132  1.00  0.00     0.155 C 
BRANCH  39  40
HETATM   40  C3  UNL     1     -86.800 -16.782  16.166  1.00  0.00     0.159 C 
BRANCH  40  41
HETATM   41  C2  UNL     1     -85.983 -16.734  14.875  1.00  0.00     0.200 C 
BRANCH  41  42
HETATM   42  O1  UNL     1     -86.650 -17.523  13.948  1.00  0.00    -0.393 OA
HETATM   43  C1  UNL     1     -86.826 -18.827  14.395  1.00  0.00     0.201 C 
ENDBRANCH  41  42
ENDBRANCH  40  41
BRANCH  40  44
HETATM   44  O2  UNL     1     -85.986 -16.609  17.261  1.00  0.00    -0.392 OA
ATOM     45  H2  UNL     1     -86.416 -16.071  17.916  1.00  0.00     0.210 HD
ENDBRANCH  40  44
ENDBRANCH  39  40
ENDBRANCH  37  39
ENDBRANCH  32  37
ENDBRANCH   1  30
TORSDOF 12
ENDMDL
MODEL 5
REMARK VINA RESULT: -8.391521521      3.475      8.298
REMARK  12 active torsions:
REMARK  status: ('A' for Active; 'I' for Inactive)
REMARK    1  A    between atoms: O1_2  and  C2_3 
REMARK    2  A    between atoms: C2_3  and  C3_4 
REMARK    3  A    between atoms: C3_4  and  O2_5 
REMARK    4  A    between atoms: C3_4  and  C4_7 
REMARK    5  A    between atoms: C4_7  and  N1_8 
REMARK    6  A    between atoms: N1_8  and  C5_10 
REMARK    7  A    between atoms: C7_12  and  C8_13 
REMARK    8  A    between atoms: C12_20  and  C13_21 
REMARK    9  A    between atoms: C16_24  and  C17_25 
REMARK   10  A    between atoms: C18_26  and  C19_27 
REMARK   11  A    between atoms: C24_32  and  C25_33 
REMARK   12  A    between atoms: C28_36  and  N3_37 
ROOT
HETATM    1  C8  UNL     1     -82.965 -13.963   8.480  1.00  0.00     0.057 A 
HETATM    2  N2  UNL     1     -81.812 -13.406   8.028  1.00  0.00    -0.332 N 
ATOM      3  H2  UNL     1     -81.269 -12.838   8.678  1.00  0.00     0.168 HD
HETATM    4  C9  UNL     1     -81.343 -13.553   6.785  1.00  0.00     0.188 A 
HETATM    5  F1  UNL     1     -80.193 -12.992   6.351  1.00  0.00    -0.186 F 
HETATM    6  C10 UNL     1     -82.061 -14.313   5.900  1.00  0.00     0.062 A 
HETATM    7  C11 UNL     1     -83.230 -14.897   6.303  1.00  0.00     0.020 A 
HETATM    8  C12 UNL     1     -83.689 -14.719   7.616  1.00  0.00     0.018 A 
ENDROOT
BRANCH   8   9
HETATM    9  C13 UNL     1     -84.943 -15.357   8.018  1.00  0.00     0.046 A 
HETATM   10  C14 UNL     1     -84.983 -16.260   9.075  1.00  0.00     0.032 A 
HETATM   11  C15 UNL     1     -86.146 -16.884   9.475  1.00  0.00     0.027 A 
HETATM   12  C16 UNL     1     -87.342 -16.622   8.818  1.00  0.00     0.061 A 
HETATM   13  C28 UNL     1     -87.270 -15.724   7.774  1.00  0.00     0.118 A 
HETATM   14  N4  UNL     1     -86.120 -15.130   7.406  1.00  0.00    -0.341 N 
ATOM     15  H4  UNL     1     -86.141 -14.475   6.624  1.00  0.00     0.167 HD
BRANCH  12  16
HETATM   16  C17 UNL     1     -88.570 -17.261   9.213  1.00  0.00    -0.058 C 
HETATM   17  C18 UNL     1     -89.588 -17.812   9.559  1.00  0.00    -0.061 C 
BRANCH  17  18
HETATM   18  C19 UNL     1     -90.788 -18.457   9.994  1.00  0.00     0.024 A 
HETATM   19  C20 UNL     1     -91.475 -19.409   9.280  1.00  0.00     0.021 A 
HETATM   20  C21 UNL     1     -92.638 -20.012   9.745  1.00  0.00     0.002 A 
HETATM   21  C22 UNL     1     -93.112 -19.630  10.978  1.00  0.00     0.001 A 
HETATM   22  C23 UNL     1     -92.455 -18.682  11.724  1.00  0.00     0.009 A 
HETATM   23  C24 UNL     1     -91.315 -18.105  11.246  1.00  0.00    -0.036 A 
BRANCH  23  24
HETATM   24  C25 UNL     1     -90.602 -17.074  12.043  1.00  0.00     0.012 C 
HETATM   25  C26 UNL     1     -90.519 -17.560  13.475  1.00  0.00     0.015 C 
HETATM   26  C27 UNL     1     -91.403 -15.775  12.047  1.00  0.00     0.015 C 
ENDBRANCH  23  24
ENDBRANCH  17  18
ENDBRANCH  12  16
BRANCH  13  27
HETATM   27  N3  UNL     1     -88.389 -15.472   7.149  1.00  0.00    -0.384 N 
ATOM     28  H32 UNL     1     -89.266 -15.901   7.447  1.00  0.00     0.157 HD
ATOM     29  H31 UNL     1     -88.330 -14.831   6.358  1.00  0.00     0.157 HD
ENDBRANCH  13  27
ENDBRANCH   8   9
BRANCH   1  30
HETATM   30  C7  UNL     1     -83.421 -13.766   9.844  1.00  0.00    -0.004 A 
HETATM   31  C6  UNL     1     -84.692 -13.283  10.104  1.00  0.00     0.062 A 
HETATM   32  C5  UNL     1     -85.124 -13.087  11.418  1.00  0.00     0.101 A 
HETATM   33  N5  UNL     1     -84.335 -13.358  12.467  1.00  0.00    -0.353 N 
HETATM   34  C30 UNL     1     -83.102 -13.826  12.234  1.00  0.00     0.090 A 
ATOM     35  H5  UNL     1     -84.665 -13.211  13.421  1.00  0.00     0.166 HD
HETATM   36  C29 UNL     1     -82.636 -14.032  10.942  1.00  0.00     0.031 A 
BRANCH  32  37
HETATM   37  N1  UNL     1     -86.309 -12.638  11.630  1.00  0.00    -0.374 N 
ATOM     38  H1  UNL     1     -86.450 -11.651  11.848  1.00  0.00     0.161 HD
BRANCH  37  39
HETATM   39  C4  UNL     1     -87.430 -13.524  11.561  1.00  0.00     0.155 C 
BRANCH  39  40
HETATM   40  C3  UNL     1     -88.286 -13.455  12.813  1.00  0.00     0.159 C 
BRANCH  40  41
HETATM   41  C2  UNL     1     -87.777 -14.445  13.860  1.00  0.00     0.200 C 
BRANCH  41  42
HETATM   42  O1  UNL     1     -86.639 -13.884  14.424  1.00  0.00    -0.393 OA
HETATM   43  C1  UNL     1     -86.215 -14.574  15.553  1.00  0.00     0.201 C 
ENDBRANCH  41  42
ENDBRANCH  40  41
BRANCH  40  44
HETATM   44  O2  UNL     1     -88.317 -12.180  13.326  1.00  0.00    -0.392 OA
ATOM     45  H2  UNL     1     -88.905 -11.630  12.821  1.00  0.00     0.210 HD
ENDBRANCH  40  44
ENDBRANCH  39  40
ENDBRANCH  37  39
ENDBRANCH  32  37
ENDBRANCH   1  30
TORSDOF 12
ENDMDL
