MODEL 1
REMARK VINA RESULT: -8.251127561      0.000      0.000
REMARK  12 active torsions:
REMARK  status: ('A' for Active; 'I' for Inactive)
REMARK    1  A    between atoms: C3_3  and  C5_5 
REMARK    2  A    between atoms: C5_5  and  O1_6 
REMARK    3  A    between atoms: C14_16  and  O2_17 
REMARK    4  A    between atoms: C18_22  and  C19_23 
REMARK    5  A    between atoms: C19_23  and  C21_25 
REMARK    6  A    between atoms: C21_25  and  C22_26 
REMARK    7  A    between atoms: C23_27  and  C25_29 
REMARK    8  A    between atoms: C25_29  and  O3_30 
REMARK    9  A    between atoms: C26_32  and  C27_33 
REMARK   10  A    between atoms: C27_33  and  C28_34 
REMARK   11  A    between atoms: C32_39  and  O4_40 
REMARK   12  A    between atoms: C33_42  and  O5_43 
ROOT
HETATM    1  C5  UNL     1     122.530  13.739  53.145  1.00  0.00     0.133 C 
HETATM    2  C6  UNL     1     122.649  14.350  51.792  1.00  0.00    -0.033 C 
HETATM    3  C7  UNL     1     121.712  14.097  50.923  1.00  0.00    -0.019 C 
HETATM    4  C8  UNL     1     121.730  14.661  49.529  1.00  0.00     0.034 C 
HETATM    5  C9  UNL     1     123.157  14.958  49.186  1.00  0.00     0.015 C 
HETATM    6  C10 UNL     1     123.307  15.133  47.751  1.00  0.00    -0.015 C 
HETATM    7  C11 UNL     1     122.006  15.141  46.979  1.00  0.00     0.020 C 
HETATM    8  C12 UNL     1     124.050  13.946  47.078  1.00  0.00     0.016 C 
HETATM    9  C13 UNL     1     124.052  14.135  45.579  1.00  0.00     0.033 C 
HETATM   10  C14 UNL     1     124.533  15.446  45.074  1.00  0.00     0.122 C 
HETATM   11  C15 UNL     1     124.094  16.648  45.901  1.00  0.00     0.066 C 
HETATM   12  C16 UNL     1     124.190  16.244  47.337  1.00  0.00    -0.069 C 
HETATM   13  C17 UNL     1     125.027  16.728  48.204  1.00  0.00     0.007 C 
HETATM   14  C18 UNL     1     125.125  16.195  49.577  1.00  0.00    -0.065 C 
HETATM   15  C26 UNL     1     123.816  15.912  50.166  1.00  0.00     0.001 C 
HETATM   16  C29 UNL     1     123.908  15.162  51.520  1.00  0.00    -0.003 C 
HETATM   17  C30 UNL     1     124.036  16.141  52.628  1.00  0.00     0.021 C 
HETATM   18  C31 UNL     1     124.917  14.069  51.545  1.00  0.00     0.049 C 
HETATM   19  C32 UNL     1     125.013  13.480  52.941  1.00  0.00     0.151 C 
HETATM   20  C33 UNL     1     123.724  12.853  53.416  1.00  0.00     0.190 C 
ENDROOT
BRANCH  14  21
HETATM   21  C19 UNL     1     126.265  16.828  50.226  1.00  0.00     0.015 C 
HETATM   22  C20 UNL     1     127.514  16.217  49.514  1.00  0.00     0.015 C 
BRANCH  21  23
HETATM   23  C21 UNL     1     126.572  18.274  50.054  1.00  0.00     0.036 C 
BRANCH  23  24
HETATM   24  C22 UNL     1     127.979  18.530  50.404  1.00  0.00    -0.022 C 
HETATM   25  C23 UNL     1     128.892  19.136  49.704  1.00  0.00    -0.064 C 
HETATM   26  C24 UNL     1     130.287  19.288  50.263  1.00  0.00     0.045 C 
BRANCH  25  27
HETATM   27  C25 UNL     1     128.666  19.714  48.375  1.00  0.00     0.197 C 
BRANCH  27  28
HETATM   28  O3  UNL     1     129.869  20.145  47.780  1.00  0.00    -0.397 OA
ATOM     29  H3  UNL     1     129.999  19.754  46.925  1.00  0.00     0.209 HD
ENDBRANCH  27  28
ENDBRANCH  25  27
ENDBRANCH  23  24
ENDBRANCH  21  23
ENDBRANCH  14  21
BRANCH  15  30
HETATM   30  C27 UNL     1     122.888  17.031  50.430  1.00  0.00     0.030 C 
BRANCH  30  31
HETATM   31  C28 UNL     1     121.874  17.540  49.527  1.00  0.00     0.116 C 
HETATM   32 CL1  UNL     1     120.362  17.730  50.549  1.00  0.00    -0.130 Cl
ENDBRANCH  30  31
ENDBRANCH  15  30
BRANCH  10  33
HETATM   33  O2  UNL     1     125.916  15.467  44.846  1.00  0.00    -0.395 OA
ATOM     34  H2  UNL     1     126.141  15.325  43.934  1.00  0.00     0.210 HD
ENDBRANCH  10  33
BRANCH   1  35
HETATM   35  C3  UNL     1     121.298  12.976  53.416  1.00  0.00    -0.047 C 
HETATM   36  C2  UNL     1     121.128  11.684  53.127  1.00  0.00    -0.025 C 
HETATM   37  C1  UNL     1     119.795  11.073  53.488  1.00  0.00     0.036 C 
HETATM   38  C4  UNL     1     120.096  13.631  54.074  1.00  0.00     0.046 C 
ENDBRANCH   1  35
BRANCH   1  39
HETATM   39  O1  UNL     1     122.463  14.718  54.178  1.00  0.00    -0.378 OA
ATOM     40  H1  UNL     1     122.323  15.505  53.664  1.00  0.00     0.211 HD
ENDBRANCH   1  39
BRANCH  19  41
HETATM   41  O4  UNL     1     125.954  12.419  52.761  1.00  0.00    -0.393 OA
ATOM     42  H4  UNL     1     125.421  11.647  52.910  1.00  0.00     0.210 HD
ENDBRANCH  19  41
BRANCH  20  43
HETATM   43  O5  UNL     1     123.819  12.628  54.773  1.00  0.00    -0.389 OA
ATOM     44  H5  UNL     1     124.393  11.887  54.926  1.00  0.00     0.210 HD
ENDBRANCH  20  43
TORSDOF 12
ENDMDL
MODEL 2
REMARK VINA RESULT: -8.063802504      2.593      3.503
REMARK  12 active torsions:
REMARK  status: ('A' for Active; 'I' for Inactive)
REMARK    1  A    between atoms: C3_3  and  C5_5 
REMARK    2  A    between atoms: C5_5  and  O1_6 
REMARK    3  A    between atoms: C14_16  and  O2_17 
REMARK    4  A    between atoms: C18_22  and  C19_23 
REMARK    5  A    between atoms: C19_23  and  C21_25 
REMARK    6  A    between atoms: C21_25  and  C22_26 
REMARK    7  A    between atoms: C23_27  and  C25_29 
REMARK    8  A    between atoms: C25_29  and  O3_30 
REMARK    9  A    between atoms: C26_32  and  C27_33 
REMARK   10  A    between atoms: C27_33  and  C28_34 
REMARK   11  A    between atoms: C32_39  and  O4_40 
REMARK   12  A    between atoms: C33_42  and  O5_43 
ROOT
HETATM    1  C5  UNL     1     125.535  15.312  54.876  1.00  0.00     0.133 C 
HETATM    2  C6  UNL     1     125.420  15.753  53.458  1.00  0.00    -0.033 C 
HETATM    3  C7  UNL     1     124.271  16.214  53.053  1.00  0.00    -0.019 C 
HETATM    4  C8  UNL     1     124.041  16.688  51.645  1.00  0.00     0.034 C 
HETATM    5  C9  UNL     1     125.038  15.992  50.771  1.00  0.00     0.015 C 
HETATM    6  C10 UNL     1     124.643  16.087  49.376  1.00  0.00    -0.015 C 
HETATM    7  C11 UNL     1     123.449  16.980  49.120  1.00  0.00     0.020 C 
HETATM    8  C12 UNL     1     124.138  14.735  48.803  1.00  0.00     0.016 C 
HETATM    9  C13 UNL     1     123.625  14.941  47.397  1.00  0.00     0.033 C 
HETATM   10  C14 UNL     1     124.536  15.636  46.452  1.00  0.00     0.122 C 
HETATM   11  C15 UNL     1     125.320  16.793  47.057  1.00  0.00     0.066 C 
HETATM   12  C16 UNL     1     125.741  16.364  48.425  1.00  0.00    -0.069 C 
HETATM   13  C17 UNL     1     126.963  16.143  48.804  1.00  0.00     0.007 C 
HETATM   14  C18 UNL     1     127.280  15.617  50.147  1.00  0.00    -0.065 C 
HETATM   15  C26 UNL     1     126.474  16.236  51.200  1.00  0.00     0.001 C 
HETATM   16  C29 UNL     1     126.647  15.551  52.580  1.00  0.00    -0.003 C 
HETATM   17  C30 UNL     1     127.795  16.157  53.300  1.00  0.00     0.021 C 
HETATM   18  C31 UNL     1     126.671  14.065  52.525  1.00  0.00     0.049 C 
HETATM   19  C32 UNL     1     126.962  13.498  53.903  1.00  0.00     0.151 C 
HETATM   20  C33 UNL     1     125.913  13.849  54.930  1.00  0.00     0.190 C 
ENDROOT
BRANCH  14  21
HETATM   21  C19 UNL     1     128.705  15.318  50.189  1.00  0.00     0.015 C 
HETATM   22  C20 UNL     1     129.185  15.478  48.711  1.00  0.00     0.015 C 
BRANCH  21  23
HETATM   23  C21 UNL     1     129.683  16.218  50.860  1.00  0.00     0.036 C 
BRANCH  23  24
HETATM   24  C22 UNL     1     129.807  17.474  50.102  1.00  0.00    -0.022 C 
HETATM   25  C23 UNL     1     130.061  18.669  50.548  1.00  0.00    -0.064 C 
HETATM   26  C24 UNL     1     130.142  19.827  49.582  1.00  0.00     0.045 C 
BRANCH  25  27
HETATM   27  C25 UNL     1     130.294  18.991  51.959  1.00  0.00     0.197 C 
BRANCH  27  28
HETATM   28  O3  UNL     1     131.656  18.876  52.305  1.00  0.00    -0.397 OA
ATOM     29  H3  UNL     1     131.999  19.687  52.661  1.00  0.00     0.209 HD
ENDBRANCH  27  28
ENDBRANCH  25  27
ENDBRANCH  23  24
ENDBRANCH  21  23
ENDBRANCH  14  21
BRANCH  15  30
HETATM   30  C27 UNL     1     126.642  17.677  51.482  1.00  0.00     0.030 C 
BRANCH  30  31
HETATM   31  C28 UNL     1     125.870  18.762  50.910  1.00  0.00     0.116 C 
HETATM   32 CL1  UNL     1     126.895  19.419  49.536  1.00  0.00    -0.130 Cl
ENDBRANCH  30  31
ENDBRANCH  15  30
BRANCH  10  33
HETATM   33  O2  UNL     1     125.383  14.754  45.766  1.00  0.00    -0.395 OA
ATOM     34  H2  UNL     1     126.239  15.127  45.590  1.00  0.00     0.210 HD
ENDBRANCH  10  33
BRANCH   1  35
HETATM   35  C3  UNL     1     124.355  15.532  55.731  1.00  0.00    -0.047 C 
HETATM   36  C2  UNL     1     124.202  16.567  56.560  1.00  0.00    -0.025 C 
HETATM   37  C1  UNL     1     122.917  16.625  57.351  1.00  0.00     0.036 C 
HETATM   38  C4  UNL     1     123.186  14.562  55.722  1.00  0.00     0.046 C 
ENDBRANCH   1  35
BRANCH   1  39
HETATM   39  O1  UNL     1     126.520  16.049  55.594  1.00  0.00    -0.378 OA
ATOM     40  H1  UNL     1     127.306  15.575  55.349  1.00  0.00     0.211 HD
ENDBRANCH   1  39
BRANCH  19  41
HETATM   41  O4  UNL     1     126.874  12.089  53.678  1.00  0.00    -0.393 OA
ATOM     42  H4  UNL     1     127.455  11.740  54.344  1.00  0.00     0.210 HD
ENDBRANCH  19  41
BRANCH  20  43
HETATM   43  O5  UNL     1     126.409  13.558  56.183  1.00  0.00    -0.389 OA
ATOM     44  H5  UNL     1     126.612  12.632  56.229  1.00  0.00     0.210 HD
ENDBRANCH  20  43
TORSDOF 12
ENDMDL
MODEL 3
REMARK VINA RESULT: -8.021951328      2.640      5.057
REMARK  12 active torsions:
REMARK  status: ('A' for Active; 'I' for Inactive)
REMARK    1  A    between atoms: C3_3  and  C5_5 
REMARK    2  A    between atoms: C5_5  and  O1_6 
REMARK    3  A    between atoms: C14_16  and  O2_17 
REMARK    4  A    between atoms: C18_22  and  C19_23 
REMARK    5  A    between atoms: C19_23  and  C21_25 
REMARK    6  A    between atoms: C21_25  and  C22_26 
REMARK    7  A    between atoms: C23_27  and  C25_29 
REMARK    8  A    between atoms: C25_29  and  O3_30 
REMARK    9  A    between atoms: C26_32  and  C27_33 
REMARK   10  A    between atoms: C27_33  and  C28_34 
REMARK   11  A    between atoms: C32_39  and  O4_40 
REMARK   12  A    between atoms: C33_42  and  O5_43 
ROOT
HETATM    1  C5  UNL     1     120.129  15.770  49.368  1.00  0.00     0.133 C 
HETATM    2  C6  UNL     1     121.458  15.215  49.747  1.00  0.00    -0.033 C 
HETATM    3  C7  UNL     1     121.523  13.955  50.072  1.00  0.00    -0.019 C 
HETATM    4  C8  UNL     1     122.810  13.289  50.471  1.00  0.00     0.034 C 
HETATM    5  C9  UNL     1     123.721  14.356  50.997  1.00  0.00     0.015 C 
HETATM    6  C10 UNL     1     124.812  13.763  51.751  1.00  0.00    -0.015 C 
HETATM    7  C11 UNL     1     124.871  12.253  51.692  1.00  0.00     0.020 C 
HETATM    8  C12 UNL     1     124.682  14.002  53.281  1.00  0.00     0.016 C 
HETATM    9  C13 UNL     1     125.774  13.250  54.005  1.00  0.00     0.033 C 
HETATM   10  C14 UNL     1     127.162  13.471  53.528  1.00  0.00     0.122 C 
HETATM   11  C15 UNL     1     127.308  13.574  52.015  1.00  0.00     0.066 C 
HETATM   12  C16 UNL     1     126.142  14.367  51.520  1.00  0.00    -0.069 C 
HETATM   13  C17 UNL     1     126.204  15.551  50.991  1.00  0.00     0.007 C 
HETATM   14  C18 UNL     1     124.990  16.308  50.626  1.00  0.00    -0.065 C 
HETATM   15  C26 UNL     1     123.971  15.468  49.994  1.00  0.00     0.001 C 
HETATM   16  C29 UNL     1     122.618  16.198  49.796  1.00  0.00    -0.003 C 
HETATM   17  C30 UNL     1     122.624  16.920  48.499  1.00  0.00     0.021 C 
HETATM   18  C31 UNL     1     122.195  17.025  50.957  1.00  0.00     0.049 C 
HETATM   19  C32 UNL     1     120.927  17.788  50.620  1.00  0.00     0.151 C 
HETATM   20  C33 UNL     1     119.752  16.892  50.309  1.00  0.00     0.190 C 
ENDROOT
BRANCH  14  21
HETATM   21  C19 UNL     1     125.396  17.649  50.230  1.00  0.00     0.015 C 
HETATM   22  C20 UNL     1     126.087  18.243  51.498  1.00  0.00     0.015 C 
BRANCH  21  23
HETATM   23  C21 UNL     1     126.475  17.887  49.233  1.00  0.00     0.036 C 
BRANCH  23  24
HETATM   24  C22 UNL     1     127.701  18.325  49.919  1.00  0.00    -0.022 C 
HETATM   25  C23 UNL     1     128.636  19.118  49.484  1.00  0.00    -0.064 C 
HETATM   26  C24 UNL     1     129.821  19.434  50.366  1.00  0.00     0.045 C 
BRANCH  25  27
HETATM   27  C25 UNL     1     128.627  19.760  48.166  1.00  0.00     0.197 C 
BRANCH  27  28
HETATM   28  O3  UNL     1     129.918  20.167  47.773  1.00  0.00    -0.397 OA
ATOM     29  H3  UNL     1     130.260  19.625  47.072  1.00  0.00     0.209 HD
ENDBRANCH  27  28
ENDBRANCH  25  27
ENDBRANCH  23  24
ENDBRANCH  21  23
ENDBRANCH  14  21
BRANCH  15  30
HETATM   30  C27 UNL     1     124.256  14.860  48.678  1.00  0.00     0.030 C 
BRANCH  30  31
HETATM   31  C28 UNL     1     125.171  15.367  47.674  1.00  0.00     0.116 C 
HETATM   32 CL1  UNL     1     124.637  14.600  46.094  1.00  0.00    -0.130 Cl
ENDBRANCH  30  31
ENDBRANCH  15  30
BRANCH  10  33
HETATM   33  O2  UNL     1     127.794  14.545  54.172  1.00  0.00    -0.395 OA
ATOM     34  H2  UNL     1     128.725  14.405  54.295  1.00  0.00     0.210 HD
ENDBRANCH  10  33
BRANCH   1  35
HETATM   35  C3  UNL     1     119.012  14.812  49.296  1.00  0.00    -0.047 C 
HETATM   36  C2  UNL     1     118.591  14.221  48.176  1.00  0.00    -0.025 C 
HETATM   37  C1  UNL     1     117.433  13.260  48.303  1.00  0.00     0.036 C 
HETATM   38  C4  UNL     1     118.238  14.412  50.540  1.00  0.00     0.046 C 
ENDBRANCH   1  35
BRANCH   1  39
HETATM   39  O1  UNL     1     120.117  16.287  48.040  1.00  0.00    -0.378 OA
ATOM     40  H1  UNL     1     119.609  17.080  48.165  1.00  0.00     0.211 HD
ENDBRANCH   1  39
BRANCH  19  41
HETATM   41  O4  UNL     1     120.633  18.453  51.850  1.00  0.00    -0.393 OA
ATOM     42  H4  UNL     1     119.688  18.539  51.814  1.00  0.00     0.210 HD
ENDBRANCH  19  41
BRANCH  20  43
HETATM   43  O5  UNL     1     118.759  17.652  49.730  1.00  0.00    -0.389 OA
ATOM     44  H5  UNL     1     118.172  17.965  50.407  1.00  0.00     0.210 HD
ENDBRANCH  20  43
TORSDOF 12
ENDMDL
MODEL 4
REMARK VINA RESULT: -8.009287499      1.295      1.496
REMARK  12 active torsions:
REMARK  status: ('A' for Active; 'I' for Inactive)
REMARK    1  A    between atoms: C3_3  and  C5_5 
REMARK    2  A    between atoms: C5_5  and  O1_6 
REMARK    3  A    between atoms: C14_16  and  O2_17 
REMARK    4  A    between atoms: C18_22  and  C19_23 
REMARK    5  A    between atoms: C19_23  and  C21_25 
REMARK    6  A    between atoms: C21_25  and  C22_26 
REMARK    7  A    between atoms: C23_27  and  C25_29 
REMARK    8  A    between atoms: C25_29  and  O3_30 
REMARK    9  A    between atoms: C26_32  and  C27_33 
REMARK   10  A    between atoms: C27_33  and  C28_34 
REMARK   11  A    between atoms: C32_39  and  O4_40 
REMARK   12  A    between atoms: C33_42  and  O5_43 
ROOT
HETATM    1  C5  UNL     1     122.903  13.744  53.207  1.00  0.00     0.133 C 
HETATM    2  C6  UNL     1     123.002  14.389  51.869  1.00  0.00    -0.033 C 
HETATM    3  C7  UNL     1     121.990  14.271  51.057  1.00  0.00    -0.019 C 
HETATM    4  C8  UNL     1     121.980  14.881  49.683  1.00  0.00     0.034 C 
HETATM    5  C9  UNL     1     123.406  15.036  49.253  1.00  0.00     0.015 C 
HETATM    6  C10 UNL     1     123.482  15.247  47.818  1.00  0.00    -0.015 C 
HETATM    7  C11 UNL     1     122.144  15.424  47.136  1.00  0.00     0.020 C 
HETATM    8  C12 UNL     1     124.047  14.013  47.060  1.00  0.00     0.016 C 
HETATM    9  C13 UNL     1     123.974  14.257  45.571  1.00  0.00     0.033 C 
HETATM   10  C14 UNL     1     124.562  15.526  45.075  1.00  0.00     0.122 C 
HETATM   11  C15 UNL     1     124.312  16.737  45.966  1.00  0.00     0.066 C 
HETATM   12  C16 UNL     1     124.454  16.271  47.379  1.00  0.00    -0.069 C 
HETATM   13  C17 UNL     1     125.393  16.631  48.201  1.00  0.00     0.007 C 
HETATM   14  C18 UNL     1     125.519  16.039  49.548  1.00  0.00    -0.065 C 
HETATM   15  C26 UNL     1     124.227  15.876  50.216  1.00  0.00     0.001 C 
HETATM   16  C29 UNL     1     124.322  15.070  51.537  1.00  0.00    -0.003 C 
HETATM   17  C30 UNL     1     124.628  15.988  52.662  1.00  0.00     0.021 C 
HETATM   18  C31 UNL     1     125.206  13.876  51.460  1.00  0.00     0.049 C 
HETATM   19  C32 UNL     1     125.325  13.228  52.828  1.00  0.00     0.151 C 
HETATM   20  C33 UNL     1     124.008  12.726  53.371  1.00  0.00     0.190 C 
ENDROOT
BRANCH  14  21
HETATM   21  C19 UNL     1     126.761  16.521  50.137  1.00  0.00     0.015 C 
HETATM   22  C20 UNL     1     127.838  16.295  49.029  1.00  0.00     0.015 C 
BRANCH  21  23
HETATM   23  C21 UNL     1     126.998  17.964  50.414  1.00  0.00     0.036 C 
BRANCH  23  24
HETATM   24  C22 UNL     1     128.435  18.201  50.631  1.00  0.00    -0.022 C 
HETATM   25  C23 UNL     1     129.125  18.058  51.724  1.00  0.00    -0.064 C 
HETATM   26  C24 UNL     1     130.604  18.363  51.721  1.00  0.00     0.045 C 
BRANCH  25  27
HETATM   27  C25 UNL     1     128.566  17.599  53.000  1.00  0.00     0.197 C 
BRANCH  27  28
HETATM   28  O3  UNL     1     128.791  16.224  53.206  1.00  0.00    -0.397 OA
ATOM     29  H3  UNL     1     127.981  15.729  53.203  1.00  0.00     0.209 HD
ENDBRANCH  27  28
ENDBRANCH  25  27
ENDBRANCH  23  24
ENDBRANCH  21  23
ENDBRANCH  14  21
BRANCH  15  30
HETATM   30  C27 UNL     1     123.446  17.078  50.575  1.00  0.00     0.030 C 
BRANCH  30  31
HETATM   31  C28 UNL     1     122.252  17.560  49.909  1.00  0.00     0.116 C 
HETATM   32 CL1  UNL     1     121.102  18.041  51.256  1.00  0.00    -0.130 Cl
ENDBRANCH  30  31
ENDBRANCH  15  30
BRANCH  10  33
HETATM   33  O2  UNL     1     125.922  15.407  44.754  1.00  0.00    -0.395 OA
ATOM     34  H2  UNL     1     126.087  15.471  43.821  1.00  0.00     0.210 HD
ENDBRANCH  10  33
BRANCH   1  35
HETATM   35  C3  UNL     1     121.616  13.108  53.538  1.00  0.00    -0.047 C 
HETATM   36  C2  UNL     1     121.240  11.896  53.124  1.00  0.00    -0.025 C 
HETATM   37  C1  UNL     1     119.883  11.410  53.573  1.00  0.00     0.036 C 
HETATM   38  C4  UNL     1     120.592  13.813  54.411  1.00  0.00     0.046 C 
ENDBRANCH   1  35
BRANCH   1  39
HETATM   39  O1  UNL     1     123.010  14.686  54.272  1.00  0.00    -0.378 OA
ATOM     40  H1  UNL     1     123.865  15.058  54.090  1.00  0.00     0.211 HD
ENDBRANCH   1  39
BRANCH  19  41
HETATM   41  O4  UNL     1     126.131  12.080  52.553  1.00  0.00    -0.393 OA
ATOM     42  H4  UNL     1     126.200  11.671  53.408  1.00  0.00     0.210 HD
ENDBRANCH  19  41
BRANCH  20  43
HETATM   43  O5  UNL     1     124.165  12.441  54.711  1.00  0.00    -0.389 OA
ATOM     44  H5  UNL     1     124.573  13.184  55.140  1.00  0.00     0.210 HD
ENDBRANCH  20  43
TORSDOF 12
ENDMDL
MODEL 5
REMARK VINA RESULT: -7.927936719      1.865      2.578
REMARK  12 active torsions:
REMARK  status: ('A' for Active; 'I' for Inactive)
REMARK    1  A    between atoms: C3_3  and  C5_5 
REMARK    2  A    between atoms: C5_5  and  O1_6 
REMARK    3  A    between atoms: C14_16  and  O2_17 
REMARK    4  A    between atoms: C18_22  and  C19_23 
REMARK    5  A    between atoms: C19_23  and  C21_25 
REMARK    6  A    between atoms: C21_25  and  C22_26 
REMARK    7  A    between atoms: C23_27  and  C25_29 
REMARK    8  A    between atoms: C25_29  and  O3_30 
REMARK    9  A    between atoms: C26_32  and  C27_33 
REMARK   10  A    between atoms: C27_33  and  C28_34 
REMARK   11  A    between atoms: C32_39  and  O4_40 
REMARK   12  A    between atoms: C33_42  and  O5_43 
ROOT
HETATM    1  C5  UNL     1     124.415  14.057  54.049  1.00  0.00     0.133 C 
HETATM    2  C6  UNL     1     123.606  14.559  52.904  1.00  0.00    -0.033 C 
HETATM    3  C7  UNL     1     122.308  14.490  52.997  1.00  0.00    -0.019 C 
HETATM    4  C8  UNL     1     121.393  14.967  51.904  1.00  0.00     0.034 C 
HETATM    5  C9  UNL     1     122.163  14.907  50.619  1.00  0.00     0.015 C 
HETATM    6  C10 UNL     1     121.259  14.974  49.484  1.00  0.00    -0.015 C 
HETATM    7  C11 UNL     1     119.816  15.248  49.843  1.00  0.00     0.020 C 
HETATM    8  C12 UNL     1     121.132  13.616  48.739  1.00  0.00     0.016 C 
HETATM    9  C13 UNL     1     120.083  13.728  47.658  1.00  0.00     0.033 C 
HETATM   10  C14 UNL     1     120.220  14.865  46.714  1.00  0.00     0.122 C 
HETATM   11  C15 UNL     1     120.667  16.174  47.352  1.00  0.00     0.066 C 
HETATM   12  C16 UNL     1     121.711  15.828  48.365  1.00  0.00    -0.069 C 
HETATM   13  C17 UNL     1     122.968  16.145  48.292  1.00  0.00     0.007 C 
HETATM   14  C18 UNL     1     123.951  15.669  49.286  1.00  0.00    -0.065 C 
HETATM   15  C26 UNL     1     123.441  15.727  50.656  1.00  0.00     0.001 C 
HETATM   16  C29 UNL     1     124.377  15.041  51.684  1.00  0.00    -0.003 C 
HETATM   17  C30 UNL     1     125.386  16.015  52.170  1.00  0.00     0.021 C 
HETATM   18  C31 UNL     1     124.946  13.746  51.222  1.00  0.00     0.049 C 
HETATM   19  C32 UNL     1     125.936  13.218  52.244  1.00  0.00     0.151 C 
HETATM   20  C33 UNL     1     125.314  12.931  53.589  1.00  0.00     0.190 C 
ENDROOT
BRANCH  14  21
HETATM   21  C19 UNL     1     125.279  16.049  48.824  1.00  0.00     0.015 C 
HETATM   22  C20 UNL     1     125.292  15.674  47.308  1.00  0.00     0.015 C 
BRANCH  21  23
HETATM   23  C21 UNL     1     125.705  17.472  48.724  1.00  0.00     0.036 C 
BRANCH  23  24
HETATM   24  C22 UNL     1     126.998  17.654  49.405  1.00  0.00    -0.022 C 
HETATM   25  C23 UNL     1     127.865  18.611  49.257  1.00  0.00    -0.064 C 
HETATM   26  C24 UNL     1     129.141  18.598  50.066  1.00  0.00     0.045 C 
BRANCH  25  27
HETATM   27  C25 UNL     1     127.695  19.746  48.344  1.00  0.00     0.197 C 
BRANCH  27  28
HETATM   28  O3  UNL     1     128.925  20.362  48.039  1.00  0.00    -0.397 OA
ATOM     29  H3  UNL     1     128.824  21.054  47.396  1.00  0.00     0.209 HD
ENDBRANCH  27  28
ENDBRANCH  25  27
ENDBRANCH  23  24
ENDBRANCH  21  23
ENDBRANCH  14  21
BRANCH  15  30
HETATM   30  C27 UNL     1     123.138  17.043  51.257  1.00  0.00     0.030 C 
BRANCH  30  31
HETATM   31  C28 UNL     1     121.939  17.830  51.048  1.00  0.00     0.116 C 
HETATM   32 CL1  UNL     1     121.521  18.529  52.693  1.00  0.00    -0.130 Cl
ENDBRANCH  30  31
ENDBRANCH  15  30
BRANCH  10  33
HETATM   33  O2  UNL     1     121.005  14.553  45.596  1.00  0.00    -0.395 OA
ATOM     34  H2  UNL     1     121.915  14.806  45.701  1.00  0.00     0.210 HD
ENDBRANCH  10  33
BRANCH   1  35
HETATM   35  C3  UNL     1     123.668  13.615  55.239  1.00  0.00    -0.047 C 
HETATM   36  C2  UNL     1     122.979  12.475  55.323  1.00  0.00    -0.025 C 
HETATM   37  C1  UNL     1     122.283  12.190  56.632  1.00  0.00     0.036 C 
HETATM   38  C4  UNL     1     123.635  14.457  56.504  1.00  0.00     0.046 C 
ENDBRANCH   1  35
BRANCH   1  39
HETATM   39  O1  UNL     1     125.237  15.073  54.618  1.00  0.00    -0.378 OA
ATOM     40  H1  UNL     1     125.769  14.556  55.211  1.00  0.00     0.211 HD
ENDBRANCH   1  39
BRANCH  19  41
HETATM   41  O4  UNL     1     126.315  11.960  51.680  1.00  0.00    -0.393 OA
ATOM     42  H4  UNL     1     127.261  11.980  51.758  1.00  0.00     0.210 HD
ENDBRANCH  19  41
BRANCH  20  43
HETATM   43  O5  UNL     1     126.323  12.755  54.512  1.00  0.00    -0.389 OA
ATOM     44  H5  UNL     1     125.940  12.647  55.374  1.00  0.00     0.210 HD
ENDBRANCH  20  43
TORSDOF 12
ENDMDL
