MODEL 1
REMARK VINA RESULT: -7.559037984      0.000      0.000
REMARK  12 active torsions:
REMARK  status: ('A' for Active; 'I' for Inactive)
REMARK    1  A    between atoms: C2_2  and  O1_4 
REMARK    2  A    between atoms: C2_2  and  C4_6 
REMARK    3  A    between atoms: C4_6  and  C5_7 
REMARK    4  A    between atoms: C5_7  and  C6_8 
REMARK    5  A    between atoms: C6_8  and  C7_9 
REMARK    6  A    between atoms: C7_9  and  N1_10 
REMARK    7  A    between atoms: N1_10  and  C8_13 
REMARK    8  A    between atoms: C8_13  and  C9_14 
REMARK    9  A    between atoms: C11_17  and  C12_18 
REMARK   10  A    between atoms: C21_28  and  O3_29 
REMARK   11  A    between atoms: C24_33  and  O4_34 
REMARK   12  A    between atoms: C30_42  and  O5_43 
ROOT
HETATM    1  C9  UNL     1     126.542  16.206  50.967  1.00  0.00     0.089 C 
HETATM    2  C10 UNL     1     125.755  17.537  50.759  1.00  0.00     0.048 C 
HETATM    3  O2  UNL     1     127.844  16.656  50.886  1.00  0.00    -0.371 OA
HETATM    4  C11 UNL     1     128.251  17.746  51.530  1.00  0.00     0.145 C 
HETATM    5  C15 UNL     1     128.636  17.540  53.002  1.00  0.00     0.035 C 
HETATM    6  C16 UNL     1     127.653  16.724  53.738  1.00  0.00     0.012 C 
HETATM    7  C17 UNL     1     127.357  15.370  53.137  1.00  0.00    -0.030 C 
HETATM    8  C18 UNL     1     128.527  14.695  52.511  1.00  0.00     0.016 C 
HETATM    9  C19 UNL     1     127.048  14.514  54.379  1.00  0.00     0.003 C 
HETATM   10  C20 UNL     1     126.169  15.077  55.374  1.00  0.00     0.070 C 
HETATM   11  C21 UNL     1     124.730  14.537  55.453  1.00  0.00     0.047 C 
HETATM   12  C22 UNL     1     123.930  15.039  54.348  1.00  0.00    -0.037 C 
HETATM   13  C23 UNL     1     122.481  15.256  54.816  1.00  0.00     0.069 C 
HETATM   14  C24 UNL     1     121.595  14.096  54.681  1.00  0.00     0.122 C 
HETATM   15  C25 UNL     1     121.940  13.092  53.658  1.00  0.00     0.033 C 
HETATM   16  C26 UNL     1     122.889  13.488  52.608  1.00  0.00     0.020 C 
HETATM   17  C27 UNL     1     123.873  14.575  52.985  1.00  0.00     0.021 C 
HETATM   18  C28 UNL     1     123.212  15.782  52.250  1.00  0.00     0.024 C 
HETATM   19  C29 UNL     1     125.230  14.349  52.263  1.00  0.00     0.147 C 
HETATM   20  F1  UNL     1     124.716  13.873  51.051  1.00  0.00    -0.238 F 
HETATM   21  C30 UNL     1     125.798  13.027  52.818  1.00  0.00     0.160 C 
HETATM   22  C31 UNL     1     126.779  13.133  53.906  1.00  0.00     0.041 C 
HETATM   23  C32 UNL     1     126.139  15.480  52.202  1.00  0.00     0.073 C 
ENDROOT
BRANCH   1  24
HETATM   24  C8  UNL     1     126.257  15.537  49.662  1.00  0.00     0.270 C 
BRANCH  24  25
HETATM   25  N1  UNL     1     125.965  16.602  48.640  1.00  0.00    -0.072 N 
ATOM     26  H12 UNL     1     126.156  17.547  48.972  1.00  0.00     0.277 HD
ATOM     27  H11 UNL     1     124.969  16.731  48.462  1.00  0.00     0.277 HD
BRANCH  25  28
HETATM   28  C7  UNL     1     126.727  16.240  47.444  1.00  0.00     0.232 C 
BRANCH  28  29
HETATM   29  C6  UNL     1     125.834  15.561  46.392  1.00  0.00     0.027 C 
BRANCH  29  30
HETATM   30  C5  UNL     1     124.549  16.321  46.347  1.00  0.00     0.004 C 
BRANCH  30  31
HETATM   31  C4  UNL     1     123.270  15.637  46.514  1.00  0.00     0.037 C 
BRANCH  31  32
HETATM   32  C2  UNL     1     122.474  15.820  47.758  1.00  0.00     0.051 C 
HETATM   33  C1  UNL     1     121.001  16.034  47.557  1.00  0.00     0.045 C 
HETATM   34  C3  UNL     1     122.639  14.611  48.676  1.00  0.00     0.045 C 
BRANCH  32  35
HETATM   35  O1  UNL     1     123.008  16.901  48.526  1.00  0.00    -0.391 OA
ATOM     36  H1  UNL     1     123.437  17.518  47.944  1.00  0.00     0.210 HD
ENDBRANCH  32  35
ENDBRANCH  31  32
ENDBRANCH  30  31
ENDBRANCH  29  30
ENDBRANCH  28  29
ENDBRANCH  25  28
ENDBRANCH  24  25
ENDBRANCH   1  24
BRANCH   4  37
HETATM   37  C12 UNL     1     129.428  18.483  50.950  1.00  0.00     0.056 C 
HETATM   38  C13 UNL     1     130.162  19.412  51.870  1.00  0.00     0.035 C 
HETATM   39  C14 UNL     1     130.488  17.470  50.474  1.00  0.00     0.035 C 
HETATM   40 CL1  UNL     1     129.060  19.429  49.491  1.00  0.00    -0.117 Cl
ENDBRANCH   4  37
BRANCH  21  41
HETATM   41  O5  UNL     1     126.260  12.197  51.772  1.00  0.00    -0.392 OA
ATOM     42  H5  UNL     1     126.885  11.558  52.095  1.00  0.00     0.210 HD
ENDBRANCH  21  41
BRANCH  11  43
HETATM   43  O3  UNL     1     124.582  13.347  56.011  1.00  0.00    -0.365 OA
ATOM     44  H3  UNL     1     124.336  12.638  55.429  1.00  0.00     0.217 HD
ENDBRANCH  11  43
BRANCH  14  45
HETATM   45  O4  UNL     1     120.291  14.583  54.412  1.00  0.00    -0.395 OA
ATOM     46  H4  UNL     1     119.703  14.200  55.053  1.00  0.00     0.210 HD
ENDBRANCH  14  45
TORSDOF 12
ENDMDL
MODEL 2
REMARK VINA RESULT: -7.472031082      0.912      1.116
REMARK  12 active torsions:
REMARK  status: ('A' for Active; 'I' for Inactive)
REMARK    1  A    between atoms: C2_2  and  O1_4 
REMARK    2  A    between atoms: C2_2  and  C4_6 
REMARK    3  A    between atoms: C4_6  and  C5_7 
REMARK    4  A    between atoms: C5_7  and  C6_8 
REMARK    5  A    between atoms: C6_8  and  C7_9 
REMARK    6  A    between atoms: C7_9  and  N1_10 
REMARK    7  A    between atoms: N1_10  and  C8_13 
REMARK    8  A    between atoms: C8_13  and  C9_14 
REMARK    9  A    between atoms: C11_17  and  C12_18 
REMARK   10  A    between atoms: C21_28  and  O3_29 
REMARK   11  A    between atoms: C24_33  and  O4_34 
REMARK   12  A    between atoms: C30_42  and  O5_43 
ROOT
HETATM    1  C9  UNL     1     126.724  16.282  50.869  1.00  0.00     0.089 C 
HETATM    2  C10 UNL     1     125.938  17.608  50.624  1.00  0.00     0.048 C 
HETATM    3  O2  UNL     1     128.023  16.744  50.870  1.00  0.00    -0.371 OA
HETATM    4  C11 UNL     1     128.381  17.832  51.546  1.00  0.00     0.145 C 
HETATM    5  C15 UNL     1     128.679  17.617  53.037  1.00  0.00     0.035 C 
HETATM    6  C16 UNL     1     127.660  16.787  53.707  1.00  0.00     0.012 C 
HETATM    7  C17 UNL     1     127.414  15.436  53.078  1.00  0.00    -0.030 C 
HETATM    8  C18 UNL     1     128.625  14.776  52.519  1.00  0.00     0.016 C 
HETATM    9  C19 UNL     1     127.038  14.567  54.293  1.00  0.00     0.003 C 
HETATM   10  C20 UNL     1     126.096  15.115  55.237  1.00  0.00     0.070 C 
HETATM   11  C21 UNL     1     124.660  14.562  55.226  1.00  0.00     0.047 C 
HETATM   12  C22 UNL     1     123.923  15.066  54.079  1.00  0.00    -0.037 C 
HETATM   13  C23 UNL     1     122.447  15.267  54.460  1.00  0.00     0.069 C 
HETATM   14  C24 UNL     1     121.581  14.100  54.264  1.00  0.00     0.122 C 
HETATM   15  C25 UNL     1     121.995  13.108  53.255  1.00  0.00     0.033 C 
HETATM   16  C26 UNL     1     123.002  13.520  52.267  1.00  0.00     0.020 C 
HETATM   17  C27 UNL     1     123.952  14.613  52.711  1.00  0.00     0.021 C 
HETATM   18  C28 UNL     1     123.326  15.819  51.946  1.00  0.00     0.024 C 
HETATM   19  C29 UNL     1     125.352  14.404  52.071  1.00  0.00     0.147 C 
HETATM   20  F1  UNL     1     124.916  13.933  50.827  1.00  0.00    -0.238 F 
HETATM   21  C30 UNL     1     125.898  13.083  52.649  1.00  0.00     0.160 C 
HETATM   22  C31 UNL     1     126.811  13.188  53.795  1.00  0.00     0.041 C 
HETATM   23  C32 UNL     1     126.253  15.542  52.073  1.00  0.00     0.073 C 
ENDROOT
BRANCH   1  24
HETATM   24  C8  UNL     1     126.523  15.621  49.545  1.00  0.00     0.270 C 
BRANCH  24  25
HETATM   25  N1  UNL     1     126.472  16.690  48.487  1.00  0.00    -0.072 N 
ATOM     26  H12 UNL     1     127.393  16.998  48.176  1.00  0.00     0.277 HD
ATOM     27  H11 UNL     1     126.150  17.592  48.838  1.00  0.00     0.277 HD
BRANCH  25  28
HETATM   28  C7  UNL     1     125.642  16.156  47.406  1.00  0.00     0.232 C 
BRANCH  28  29
HETATM   29  C6  UNL     1     124.386  15.457  47.955  1.00  0.00     0.027 C 
BRANCH  29  30
HETATM   30  C5  UNL     1     123.312  16.490  48.050  1.00  0.00     0.004 C 
BRANCH  30  31
HETATM   31  C4  UNL     1     121.929  16.162  47.719  1.00  0.00     0.037 C 
BRANCH  31  32
HETATM   32  C2  UNL     1     120.822  16.554  48.634  1.00  0.00     0.051 C 
HETATM   33  C1  UNL     1     120.444  15.530  49.666  1.00  0.00     0.045 C 
HETATM   34  C3  UNL     1     121.178  17.840  49.377  1.00  0.00     0.045 C 
BRANCH  32  35
HETATM   35  O1  UNL     1     119.664  16.913  47.877  1.00  0.00    -0.391 OA
ATOM     36  H1  UNL     1     119.810  16.703  46.961  1.00  0.00     0.210 HD
ENDBRANCH  32  35
ENDBRANCH  31  32
ENDBRANCH  30  31
ENDBRANCH  29  30
ENDBRANCH  28  29
ENDBRANCH  25  28
ENDBRANCH  24  25
ENDBRANCH   1  24
BRANCH   4  37
HETATM   37  C12 UNL     1     129.584  18.584  51.043  1.00  0.00     0.056 C 
HETATM   38  C13 UNL     1     130.233  19.538  52.001  1.00  0.00     0.035 C 
HETATM   39  C14 UNL     1     130.694  17.584  50.660  1.00  0.00     0.035 C 
HETATM   40 CL1  UNL     1     129.308  19.504  49.548  1.00  0.00    -0.117 Cl
ENDBRANCH   4  37
BRANCH  21  41
HETATM   41  O5  UNL     1     126.428  12.264  51.626  1.00  0.00    -0.392 OA
ATOM     42  H5  UNL     1     126.246  11.347  51.795  1.00  0.00     0.210 HD
ENDBRANCH  21  41
BRANCH  11  43
HETATM   43  O3  UNL     1     124.489  13.366  55.765  1.00  0.00    -0.365 OA
ATOM     44  H3  UNL     1     123.676  12.923  55.554  1.00  0.00     0.217 HD
ENDBRANCH  11  43
BRANCH  14  45
HETATM   45  O4  UNL     1     120.290  14.579  53.920  1.00  0.00    -0.395 OA
ATOM     46  H4  UNL     1     119.690  13.845  53.967  1.00  0.00     0.210 HD
ENDBRANCH  14  45
TORSDOF 12
ENDMDL
MODEL 3
REMARK VINA RESULT: -7.433122141      1.138      1.193
REMARK  12 active torsions:
REMARK  status: ('A' for Active; 'I' for Inactive)
REMARK    1  A    between atoms: C2_2  and  O1_4 
REMARK    2  A    between atoms: C2_2  and  C4_6 
REMARK    3  A    between atoms: C4_6  and  C5_7 
REMARK    4  A    between atoms: C5_7  and  C6_8 
REMARK    5  A    between atoms: C6_8  and  C7_9 
REMARK    6  A    between atoms: C7_9  and  N1_10 
REMARK    7  A    between atoms: N1_10  and  C8_13 
REMARK    8  A    between atoms: C8_13  and  C9_14 
REMARK    9  A    between atoms: C11_17  and  C12_18 
REMARK   10  A    between atoms: C21_28  and  O3_29 
REMARK   11  A    between atoms: C24_33  and  O4_34 
REMARK   12  A    between atoms: C30_42  and  O5_43 
ROOT
HETATM    1  C9  UNL     1     125.805  16.041  50.942  1.00  0.00     0.089 C 
HETATM    2  C10 UNL     1     124.884  17.301  50.940  1.00  0.00     0.048 C 
HETATM    3  O2  UNL     1     126.965  16.563  50.410  1.00  0.00    -0.371 OA
HETATM    4  C11 UNL     1     127.468  17.723  50.825  1.00  0.00     0.145 C 
HETATM    5  C15 UNL     1     128.330  17.654  52.093  1.00  0.00     0.035 C 
HETATM    6  C16 UNL     1     127.715  16.837  53.156  1.00  0.00     0.012 C 
HETATM    7  C17 UNL     1     127.354  15.425  52.758  1.00  0.00    -0.030 C 
HETATM    8  C18 UNL     1     128.306  14.779  51.814  1.00  0.00     0.016 C 
HETATM    9  C19 UNL     1     127.542  14.649  54.074  1.00  0.00     0.003 C 
HETATM   10  C20 UNL     1     126.994  15.231  55.274  1.00  0.00     0.070 C 
HETATM   11  C21 UNL     1     125.712  14.610  55.856  1.00  0.00     0.047 C 
HETATM   12  C22 UNL     1     124.555  14.975  55.056  1.00  0.00    -0.037 C 
HETATM   13  C23 UNL     1     123.326  15.136  55.967  1.00  0.00     0.069 C 
HETATM   14  C24 UNL     1     122.546  13.917  56.195  1.00  0.00     0.122 C 
HETATM   15  C25 UNL     1     122.619  12.861  55.169  1.00  0.00     0.033 C 
HETATM   16  C26 UNL     1     123.134  13.234  53.844  1.00  0.00     0.020 C 
HETATM   17  C27 UNL     1     124.093  14.406  53.815  1.00  0.00     0.021 C 
HETATM   18  C28 UNL     1     123.128  15.509  53.281  1.00  0.00     0.024 C 
HETATM   19  C29 UNL     1     125.151  14.210  52.696  1.00  0.00     0.147 C 
HETATM   20  F1  UNL     1     124.310  13.612  51.750  1.00  0.00    -0.238 F 
HETATM   21  C30 UNL     1     125.979  12.973  53.097  1.00  0.00     0.160 C 
HETATM   22  C31 UNL     1     127.251  13.222  53.789  1.00  0.00     0.041 C 
HETATM   23  C32 UNL     1     125.891  15.387  52.277  1.00  0.00     0.073 C 
ENDROOT
BRANCH   1  24
HETATM   24  C8  UNL     1     125.165  15.257  49.843  1.00  0.00     0.270 C 
BRANCH  24  25
HETATM   25  N1  UNL     1     124.828  16.204  48.723  1.00  0.00    -0.072 N 
ATOM     26  H12 UNL     1     124.882  17.187  48.993  1.00  0.00     0.277 HD
ATOM     27  H11 UNL     1     123.840  16.198  48.471  1.00  0.00     0.277 HD
BRANCH  25  28
HETATM   28  C7  UNL     1     125.714  15.856  47.613  1.00  0.00     0.232 C 
BRANCH  28  29
HETATM   29  C6  UNL     1     125.006  16.016  46.257  1.00  0.00     0.027 C 
BRANCH  29  30
HETATM   30  C5  UNL     1     124.075  14.858  46.105  1.00  0.00     0.004 C 
BRANCH  30  31
HETATM   31  C4  UNL     1     122.649  15.071  45.881  1.00  0.00     0.037 C 
BRANCH  31  32
HETATM   32  C2  UNL     1     121.709  15.143  47.034  1.00  0.00     0.051 C 
HETATM   33  C1  UNL     1     120.250  15.066  46.683  1.00  0.00     0.045 C 
HETATM   34  C3  UNL     1     122.000  14.021  48.027  1.00  0.00     0.045 C 
BRANCH  32  35
HETATM   35  O1  UNL     1     121.951  16.333  47.789  1.00  0.00    -0.391 OA
ATOM     36  H1  UNL     1     122.876  16.387  48.002  1.00  0.00     0.210 HD
ENDBRANCH  32  35
ENDBRANCH  31  32
ENDBRANCH  30  31
ENDBRANCH  29  30
ENDBRANCH  28  29
ENDBRANCH  25  28
ENDBRANCH  24  25
ENDBRANCH   1  24
BRANCH   4  37
HETATM   37  C12 UNL     1     128.323  18.485  49.849  1.00  0.00     0.056 C 
HETATM   38  C13 UNL     1     129.500  19.221  50.415  1.00  0.00     0.035 C 
HETATM   39  C14 UNL     1     128.920  17.510  48.814  1.00  0.00     0.035 C 
HETATM   40 CL1  UNL     1     127.439  19.666  48.858  1.00  0.00    -0.117 Cl
ENDBRANCH   4  37
BRANCH  21  41
HETATM   41  O5  UNL     1     126.140  12.095  52.001  1.00  0.00    -0.392 OA
ATOM     42  H5  UNL     1     126.918  12.314  51.501  1.00  0.00     0.210 HD
ENDBRANCH  21  41
BRANCH  11  43
HETATM   43  O3  UNL     1     125.856  13.459  56.492  1.00  0.00    -0.365 OA
ATOM     44  H3  UNL     1     125.251  12.768  56.250  1.00  0.00     0.217 HD
ENDBRANCH  11  43
BRANCH  14  45
HETATM   45  O4  UNL     1     121.189  14.300  56.351  1.00  0.00    -0.395 OA
ATOM     46  H4  UNL     1     120.837  13.815  57.088  1.00  0.00     0.210 HD
ENDBRANCH  14  45
TORSDOF 12
ENDMDL
MODEL 4
REMARK VINA RESULT: -7.417652444      2.835      6.121
REMARK  12 active torsions:
REMARK  status: ('A' for Active; 'I' for Inactive)
REMARK    1  A    between atoms: C2_2  and  O1_4 
REMARK    2  A    between atoms: C2_2  and  C4_6 
REMARK    3  A    between atoms: C4_6  and  C5_7 
REMARK    4  A    between atoms: C5_7  and  C6_8 
REMARK    5  A    between atoms: C6_8  and  C7_9 
REMARK    6  A    between atoms: C7_9  and  N1_10 
REMARK    7  A    between atoms: N1_10  and  C8_13 
REMARK    8  A    between atoms: C8_13  and  C9_14 
REMARK    9  A    between atoms: C11_17  and  C12_18 
REMARK   10  A    between atoms: C21_28  and  O3_29 
REMARK   11  A    between atoms: C24_33  and  O4_34 
REMARK   12  A    between atoms: C30_42  and  O5_43 
ROOT
HETATM    1  C9  UNL     1     123.364  15.160  52.552  1.00  0.00     0.089 C 
HETATM    2  C10 UNL     1     123.140  14.030  51.500  1.00  0.00     0.048 C 
HETATM    3  O2  UNL     1     122.728  14.624  53.652  1.00  0.00    -0.371 OA
HETATM    4  C11 UNL     1     122.913  13.360  54.023  1.00  0.00     0.145 C 
HETATM    5  C15 UNL     1     124.161  13.097  54.879  1.00  0.00     0.035 C 
HETATM    6  C16 UNL     1     125.365  13.763  54.349  1.00  0.00     0.012 C 
HETATM    7  C17 UNL     1     125.241  15.255  54.146  1.00  0.00    -0.030 C 
HETATM    8  C18 UNL     1     124.422  15.959  55.170  1.00  0.00     0.016 C 
HETATM    9  C19 UNL     1     126.677  15.747  54.408  1.00  0.00     0.003 C 
HETATM   10  C20 UNL     1     127.755  15.014  53.792  1.00  0.00     0.070 C 
HETATM   11  C21 UNL     1     128.459  15.650  52.581  1.00  0.00     0.047 C 
HETATM   12  C22 UNL     1     127.621  15.568  51.396  1.00  0.00    -0.037 C 
HETATM   13  C23 UNL     1     128.503  15.374  50.151  1.00  0.00     0.069 C 
HETATM   14  C24 UNL     1     128.964  16.607  49.506  1.00  0.00     0.122 C 
HETATM   15  C25 UNL     1     128.151  17.821  49.701  1.00  0.00     0.033 C 
HETATM   16  C26 UNL     1     126.773  17.649  50.182  1.00  0.00     0.020 C 
HETATM   17  C27 UNL     1     126.514  16.405  51.007  1.00  0.00     0.021 C 
HETATM   18  C28 UNL     1     125.797  15.532  49.932  1.00  0.00     0.024 C 
HETATM   19  C29 UNL     1     125.437  16.691  52.089  1.00  0.00     0.147 C 
HETATM   20  F1  UNL     1     124.630  17.543  51.325  1.00  0.00    -0.238 F 
HETATM   21  C30 UNL     1     126.050  17.735  53.044  1.00  0.00     0.160 C 
HETATM   22  C31 UNL     1     126.667  17.225  54.275  1.00  0.00     0.041 C 
HETATM   23  C32 UNL     1     124.796  15.540  52.700  1.00  0.00     0.073 C 
ENDROOT
BRANCH   1  24
HETATM   24  C8  UNL     1     122.439  16.199  52.008  1.00  0.00     0.270 C 
BRANCH  24  25
HETATM   25  N1  UNL     1     121.933  15.728  50.672  1.00  0.00    -0.072 N 
ATOM     26  H12 UNL     1     121.140  15.091  50.740  1.00  0.00     0.277 HD
ATOM     27  H11 UNL     1     122.570  15.085  50.202  1.00  0.00     0.277 HD
BRANCH  25  28
HETATM   28  C7  UNL     1     121.646  16.934  49.895  1.00  0.00     0.232 C 
BRANCH  28  29
HETATM   29  C6  UNL     1     122.486  16.988  48.608  1.00  0.00     0.027 C 
BRANCH  29  30
HETATM   30  C5  UNL     1     122.180  15.750  47.830  1.00  0.00     0.004 C 
BRANCH  30  31
HETATM   31  C4  UNL     1     123.255  14.900  47.327  1.00  0.00     0.037 C 
BRANCH  31  32
HETATM   32  C2  UNL     1     123.598  14.898  45.878  1.00  0.00     0.051 C 
HETATM   33  C1  UNL     1     122.430  14.977  44.938  1.00  0.00     0.045 C 
HETATM   34  C3  UNL     1     124.526  16.066  45.552  1.00  0.00     0.045 C 
BRANCH  32  35
HETATM   35  O1  UNL     1     124.383  13.746  45.562  1.00  0.00    -0.391 OA
ATOM     36  H1  UNL     1     123.939  12.967  45.879  1.00  0.00     0.210 HD
ENDBRANCH  32  35
ENDBRANCH  31  32
ENDBRANCH  30  31
ENDBRANCH  29  30
ENDBRANCH  28  29
ENDBRANCH  25  28
ENDBRANCH  24  25
ENDBRANCH   1  24
BRANCH   4  37
HETATM   37  C12 UNL     1     121.801  12.705  54.797  1.00  0.00     0.056 C 
HETATM   38  C13 UNL     1     122.190  11.963  56.040  1.00  0.00     0.035 C 
HETATM   39  C14 UNL     1     120.799  13.778  55.268  1.00  0.00     0.035 C 
HETATM   40 CL1  UNL     1     120.804  11.580  53.848  1.00  0.00    -0.117 Cl
ENDBRANCH   4  37
BRANCH  21  41
HETATM   41  O5  UNL     1     125.135  18.779  53.307  1.00  0.00    -0.392 OA
ATOM     42  H5  UNL     1     125.572  19.623  53.306  1.00  0.00     0.210 HD
ENDBRANCH  21  41
BRANCH  11  43
HETATM   43  O3  UNL     1     129.296  16.640  52.844  1.00  0.00    -0.365 OA
ATOM     44  H3  UNL     1     128.984  17.516  52.654  1.00  0.00     0.217 HD
ENDBRANCH  11  43
BRANCH  14  45
HETATM   45  O4  UNL     1     129.064  16.350  48.115  1.00  0.00    -0.395 OA
ATOM     46  H4  UNL     1     129.351  15.450  48.010  1.00  0.00     0.210 HD
ENDBRANCH  14  45
TORSDOF 12
ENDMDL
MODEL 5
REMARK VINA RESULT: -7.394886885      1.443      2.077
REMARK  12 active torsions:
REMARK  status: ('A' for Active; 'I' for Inactive)
REMARK    1  A    between atoms: C2_2  and  O1_4 
REMARK    2  A    between atoms: C2_2  and  C4_6 
REMARK    3  A    between atoms: C4_6  and  C5_7 
REMARK    4  A    between atoms: C5_7  and  C6_8 
REMARK    5  A    between atoms: C6_8  and  C7_9 
REMARK    6  A    between atoms: C7_9  and  N1_10 
REMARK    7  A    between atoms: N1_10  and  C8_13 
REMARK    8  A    between atoms: C8_13  and  C9_14 
REMARK    9  A    between atoms: C11_17  and  C12_18 
REMARK   10  A    between atoms: C21_28  and  O3_29 
REMARK   11  A    between atoms: C24_33  and  O4_34 
REMARK   12  A    between atoms: C30_42  and  O5_43 
ROOT
HETATM    1  C9  UNL     1     125.673  15.926  50.989  1.00  0.00     0.089 C 
HETATM    2  C10 UNL     1     124.738  17.175  50.975  1.00  0.00     0.048 C 
HETATM    3  O2  UNL     1     126.816  16.448  50.421  1.00  0.00    -0.371 OA
HETATM    4  C11 UNL     1     127.314  17.622  50.798  1.00  0.00     0.145 C 
HETATM    5  C15 UNL     1     128.203  17.593  52.050  1.00  0.00     0.035 C 
HETATM    6  C16 UNL     1     127.618  16.795  53.144  1.00  0.00     0.012 C 
HETATM    7  C17 UNL     1     127.264  15.371  52.786  1.00  0.00    -0.030 C 
HETATM    8  C18 UNL     1     128.205  14.712  51.839  1.00  0.00     0.016 C 
HETATM    9  C19 UNL     1     127.487  14.628  54.117  1.00  0.00     0.003 C 
HETATM   10  C20 UNL     1     126.957  15.233  55.314  1.00  0.00     0.070 C 
HETATM   11  C21 UNL     1     125.694  14.612  55.936  1.00  0.00     0.047 C 
HETATM   12  C22 UNL     1     124.517  14.946  55.151  1.00  0.00    -0.037 C 
HETATM   13  C23 UNL     1     123.305  15.116  56.083  1.00  0.00     0.069 C 
HETATM   14  C24 UNL     1     122.543  13.894  56.356  1.00  0.00     0.122 C 
HETATM   15  C25 UNL     1     122.607  12.815  55.353  1.00  0.00     0.033 C 
HETATM   16  C26 UNL     1     123.092  13.161  54.009  1.00  0.00     0.020 C 
HETATM   17  C27 UNL     1     124.036  14.342  53.934  1.00  0.00     0.021 C 
HETATM   18  C28 UNL     1     123.049  15.422  53.393  1.00  0.00     0.024 C 
HETATM   19  C29 UNL     1     125.074  14.131  52.798  1.00  0.00     0.147 C 
HETATM   20  F1  UNL     1     124.222  13.501  51.884  1.00  0.00    -0.238 F 
HETATM   21  C30 UNL     1     125.924  12.912  53.211  1.00  0.00     0.160 C 
HETATM   22  C31 UNL     1     127.206  13.192  53.872  1.00  0.00     0.041 C 
HETATM   23  C32 UNL     1     125.793  15.305  52.337  1.00  0.00     0.073 C 
ENDROOT
BRANCH   1  24
HETATM   24  C8  UNL     1     125.019  15.110  49.922  1.00  0.00     0.270 C 
BRANCH  24  25
HETATM   25  N1  UNL     1     123.651  15.680  49.663  1.00  0.00    -0.072 N 
ATOM     26  H12 UNL     1     123.669  16.559  49.147  1.00  0.00     0.277 HD
ATOM     27  H11 UNL     1     123.196  16.037  50.503  1.00  0.00     0.277 HD
BRANCH  25  28
HETATM   28  C7  UNL     1     122.889  14.627  48.992  1.00  0.00     0.232 C 
BRANCH  28  29
HETATM   29  C6  UNL     1     121.933  15.210  47.938  1.00  0.00     0.027 C 
BRANCH  29  30
HETATM   30  C5  UNL     1     122.482  14.851  46.596  1.00  0.00     0.004 C 
BRANCH  30  31
HETATM   31  C4  UNL     1     123.877  14.449  46.444  1.00  0.00     0.037 C 
BRANCH  31  32
HETATM   32  C2  UNL     1     124.866  15.381  45.834  1.00  0.00     0.051 C 
HETATM   33  C1  UNL     1     124.564  16.843  46.001  1.00  0.00     0.045 C 
HETATM   34  C3  UNL     1     126.256  15.132  46.415  1.00  0.00     0.045 C 
BRANCH  32  35
HETATM   35  O1  UNL     1     125.023  15.086  44.444  1.00  0.00    -0.391 OA
ATOM     36  H1  UNL     1     124.820  15.861  43.933  1.00  0.00     0.210 HD
ENDBRANCH  32  35
ENDBRANCH  31  32
ENDBRANCH  30  31
ENDBRANCH  29  30
ENDBRANCH  28  29
ENDBRANCH  25  28
ENDBRANCH  24  25
ENDBRANCH   1  24
BRANCH   4  37
HETATM   37  C12 UNL     1     128.141  18.370  49.787  1.00  0.00     0.056 C 
HETATM   38  C13 UNL     1     129.365  19.068  50.300  1.00  0.00     0.035 C 
HETATM   39  C14 UNL     1     128.659  17.389  48.716  1.00  0.00     0.035 C 
HETATM   40 CL1  UNL     1     127.243  19.584  48.851  1.00  0.00    -0.117 Cl
ENDBRANCH   4  37
BRANCH  21  41
HETATM   41  O5  UNL     1     126.073  12.010  52.134  1.00  0.00    -0.392 OA
ATOM     42  H5  UNL     1     125.931  12.447  51.302  1.00  0.00     0.210 HD
ENDBRANCH  21  41
BRANCH  11  43
HETATM   43  O3  UNL     1     125.863  13.478  56.596  1.00  0.00    -0.365 OA
ATOM     44  H3  UNL     1     125.639  12.683  56.128  1.00  0.00     0.217 HD
ENDBRANCH  11  43
BRANCH  14  45
HETATM   45  O4  UNL     1     121.185  14.267  56.530  1.00  0.00    -0.395 OA
ATOM     46  H4  UNL     1     120.960  14.112  57.440  1.00  0.00     0.210 HD
ENDBRANCH  14  45
TORSDOF 12
ENDMDL
