MODEL 1
REMARK VINA RESULT: -8.102146118      0.000      0.000
REMARK  13 active torsions:
REMARK  status: ('A' for Active; 'I' for Inactive)
REMARK    1  A    between atoms: C2_2  and  C5_6 
REMARK    2  A    between atoms: C8_9  and  C10_11 
REMARK    3  A    between atoms: C10_11  and  C12_13 
REMARK    4  A    between atoms: C12_13  and  O1_14 
REMARK    5  A    between atoms: C12_13  and  C13_16 
REMARK    6  A    between atoms: C13_16  and  C14_17 
REMARK    7  A    between atoms: C14_17  and  C15_18 
REMARK    8  A    between atoms: C15_18  and  C16_19 
REMARK    9  A    between atoms: C15_18  and  C17_22 
REMARK   10  A    between atoms: C16_19  and  O2_20 
REMARK   11  A    between atoms: C22_27  and  O3_28 
REMARK   12  A    between atoms: C23_30  and  O4_32 
REMARK   13  A    between atoms: C25_34  and  O5_35 
ROOT
HETATM    1  C1  UNL     1     124.377  17.013  47.341  1.00  0.00     0.049 C 
HETATM    2  C2  UNL     1     123.867  15.651  47.556  1.00  0.00    -0.052 C 
HETATM    3  C3  UNL     1     124.356  14.721  46.696  1.00  0.00     0.100 C 
HETATM    4  C4  UNL     1     125.280  15.093  45.697  1.00  0.00     0.088 C 
HETATM    5  N1  UNL     1     126.033  15.377  44.868  1.00  0.00    -0.192 NA
ENDROOT
BRANCH   2   6
HETATM    6  C5  UNL     1     122.966  15.214  48.603  1.00  0.00     0.011 C 
HETATM    7  C6  UNL     1     123.155  14.783  49.813  1.00  0.00    -0.070 C 
HETATM    8  C7  UNL     1     124.470  14.652  50.430  1.00  0.00     0.047 C 
HETATM    9  C31 UNL     1     121.910  14.328  50.586  1.00  0.00    -0.013 C 
HETATM   10  C8  UNL     1     124.494  14.754  51.951  1.00  0.00    -0.008 C 
HETATM   11  C9  UNL     1     124.459  16.269  52.246  1.00  0.00     0.018 C 
HETATM   12  C25 UNL     1     123.298  14.182  52.611  1.00  0.00     0.133 C 
HETATM   13  C26 UNL     1     122.085  14.830  51.960  1.00  0.00     0.046 C 
HETATM   14  C27 UNL     1     120.890  14.771  52.869  1.00  0.00     0.090 C 
HETATM   15 CL1  UNL     1     120.638  13.208  53.640  1.00  0.00    -0.124 Cl
HETATM   16  C28 UNL     1     119.639  15.159  52.126  1.00  0.00     0.021 C 
HETATM   17  C29 UNL     1     119.482  14.437  50.836  1.00  0.00     0.002 C 
HETATM   18  C30 UNL     1     120.666  14.826  49.930  1.00  0.00     0.014 C 
HETATM   19  C32 UNL     1     121.945  12.821  50.455  1.00  0.00     0.021 C 
BRANCH  10  20
HETATM   20  C10 UNL     1     125.829  14.284  52.414  1.00  0.00     0.021 C 
HETATM   21  C11 UNL     1     126.292  12.982  51.806  1.00  0.00     0.013 C 
BRANCH  20  22
HETATM   22  C12 UNL     1     126.074  14.363  53.888  1.00  0.00     0.122 C 
BRANCH  22  23
HETATM   23  O1  UNL     1     125.854  13.163  54.548  1.00  0.00    -0.395 OA
ATOM     24  H1  UNL     1     126.152  12.404  54.061  1.00  0.00     0.210 HD
ENDBRANCH  22  23
BRANCH  22  25
HETATM   25  C13 UNL     1     127.516  14.778  54.227  1.00  0.00     0.032 C 
BRANCH  25  26
HETATM   26  C14 UNL     1     127.726  16.187  53.760  1.00  0.00     0.010 C 
BRANCH  26  27
HETATM   27  C15 UNL     1     128.863  16.347  52.800  1.00  0.00     0.016 C 
BRANCH  27  28
HETATM   28  C16 UNL     1     129.344  15.007  52.353  1.00  0.00     0.169 C 
BRANCH  28  29
HETATM   29  O2  UNL     1     130.738  14.928  52.352  1.00  0.00    -0.400 OA
ATOM     30  H2  UNL     1     131.135  15.697  51.961  1.00  0.00     0.209 HD
ENDBRANCH  28  29
ENDBRANCH  27  28
BRANCH  27  31
HETATM   31  C17 UNL     1     128.485  17.281  51.674  1.00  0.00     0.028 C 
HETATM   32  C18 UNL     1     127.693  16.611  50.577  1.00  0.00     0.009 C 
HETATM   33  C19 UNL     1     127.041  17.734  49.753  1.00  0.00     0.007 C 
HETATM   34  C20 UNL     1     128.139  18.532  49.104  1.00  0.00     0.013 C 
HETATM   35  C21 UNL     1     127.593  19.660  48.280  1.00  0.00     0.012 C 
HETATM   36  C22 UNL     1     129.016  19.119  50.193  1.00  0.00     0.156 C 
HETATM   37  C23 UNL     1     129.635  17.974  51.023  1.00  0.00     0.084 C 
HETATM   38  C24 UNL     1     130.624  18.594  51.953  1.00  0.00     0.049 C 
BRANCH  36  39
HETATM   39  O3  UNL     1     130.020  19.925  49.680  1.00  0.00    -0.392 OA
ATOM     40  H3  UNL     1     130.842  19.814  50.143  1.00  0.00     0.210 HD
ENDBRANCH  36  39
BRANCH  37  41
HETATM   41  O4  UNL     1     130.291  17.099  50.142  1.00  0.00    -0.387 OA
ATOM     42  H4  UNL     1     131.229  17.123  50.294  1.00  0.00     0.210 HD
ENDBRANCH  37  41
ENDBRANCH  27  31
ENDBRANCH  26  27
ENDBRANCH  25  26
ENDBRANCH  22  25
ENDBRANCH  20  22
ENDBRANCH  10  20
BRANCH  12  43
HETATM   43  O5  UNL     1     123.243  12.820  52.681  1.00  0.00    -0.394 OA
ATOM     44  H5  UNL     1     122.387  12.443  52.843  1.00  0.00     0.210 HD
ENDBRANCH  12  43
ENDBRANCH   2   6
TORSDOF 13
ENDMDL
MODEL 2
REMARK VINA RESULT: -7.660923287      2.418      4.439
REMARK  13 active torsions:
REMARK  status: ('A' for Active; 'I' for Inactive)
REMARK    1  A    between atoms: C2_2  and  C5_6 
REMARK    2  A    between atoms: C8_9  and  C10_11 
REMARK    3  A    between atoms: C10_11  and  C12_13 
REMARK    4  A    between atoms: C12_13  and  O1_14 
REMARK    5  A    between atoms: C12_13  and  C13_16 
REMARK    6  A    between atoms: C13_16  and  C14_17 
REMARK    7  A    between atoms: C14_17  and  C15_18 
REMARK    8  A    between atoms: C15_18  and  C16_19 
REMARK    9  A    between atoms: C15_18  and  C17_22 
REMARK   10  A    between atoms: C16_19  and  O2_20 
REMARK   11  A    between atoms: C22_27  and  O3_28 
REMARK   12  A    between atoms: C23_30  and  O4_32 
REMARK   13  A    between atoms: C25_34  and  O5_35 
ROOT
HETATM    1  C1  UNL     1     126.638  18.650  50.498  1.00  0.00     0.049 C 
HETATM    2  C2  UNL     1     126.551  17.993  49.185  1.00  0.00    -0.052 C 
HETATM    3  C3  UNL     1     127.547  18.320  48.322  1.00  0.00     0.100 C 
HETATM    4  C4  UNL     1     128.559  19.222  48.713  1.00  0.00     0.088 C 
HETATM    5  N1  UNL     1     129.394  19.963  49.010  1.00  0.00    -0.192 NA
ENDROOT
BRANCH   2   6
HETATM    6  C5  UNL     1     125.567  17.018  48.763  1.00  0.00     0.011 C 
HETATM    7  C6  UNL     1     124.456  16.594  49.286  1.00  0.00    -0.070 C 
HETATM    8  C7  UNL     1     123.915  17.089  50.546  1.00  0.00     0.047 C 
HETATM    9  C31 UNL     1     123.734  15.460  48.547  1.00  0.00    -0.013 C 
HETATM   10  C8  UNL     1     122.400  16.989  50.693  1.00  0.00    -0.008 C 
HETATM   11  C9  UNL     1     121.846  18.209  49.926  1.00  0.00     0.018 C 
HETATM   12  C25 UNL     1     121.811  15.796  50.043  1.00  0.00     0.133 C 
HETATM   13  C26 UNL     1     122.300  15.795  48.602  1.00  0.00     0.046 C 
HETATM   14  C27 UNL     1     121.377  15.003  47.719  1.00  0.00     0.090 C 
HETATM   15 CL1  UNL     1     120.881  13.452  48.392  1.00  0.00    -0.124 Cl
HETATM   16  C28 UNL     1     122.001  14.774  46.368  1.00  0.00     0.021 C 
HETATM   17  C29 UNL     1     123.390  14.253  46.451  1.00  0.00     0.002 C 
HETATM   18  C30 UNL     1     124.253  15.317  47.155  1.00  0.00     0.014 C 
HETATM   19  C32 UNL     1     124.125  14.225  49.329  1.00  0.00     0.021 C 
BRANCH  10  20
HETATM   20  C10 UNL     1     122.069  17.228  52.125  1.00  0.00     0.021 C 
HETATM   21  C11 UNL     1     120.968  18.232  52.366  1.00  0.00     0.013 C 
BRANCH  20  22
HETATM   22  C12 UNL     1     123.237  17.406  53.044  1.00  0.00     0.122 C 
BRANCH  22  23
HETATM   23  O1  UNL     1     123.168  18.565  53.804  1.00  0.00    -0.395 OA
ATOM     24  H1  UNL     1     123.757  18.563  54.549  1.00  0.00     0.210 HD
ENDBRANCH  22  23
BRANCH  22  25
HETATM   25  C13 UNL     1     123.386  16.247  54.044  1.00  0.00     0.032 C 
BRANCH  25  26
HETATM   26  C14 UNL     1     124.182  15.157  53.393  1.00  0.00     0.010 C 
BRANCH  26  27
HETATM   27  C15 UNL     1     125.571  15.012  53.933  1.00  0.00     0.016 C 
BRANCH  27  28
HETATM   28  C16 UNL     1     125.730  13.673  54.572  1.00  0.00     0.169 C 
BRANCH  28  29
HETATM   29  O2  UNL     1     126.381  13.759  55.804  1.00  0.00    -0.400 OA
ATOM     30  H2  UNL     1     126.903  12.985  55.982  1.00  0.00     0.209 HD
ENDBRANCH  28  29
ENDBRANCH  27  28
BRANCH  27  31
HETATM   31  C17 UNL     1     126.595  15.319  52.864  1.00  0.00     0.028 C 
HETATM   32  C18 UNL     1     126.913  14.138  51.979  1.00  0.00     0.009 C 
HETATM   33  C19 UNL     1     127.612  14.698  50.729  1.00  0.00     0.007 C 
HETATM   34  C20 UNL     1     128.916  15.311  51.162  1.00  0.00     0.013 C 
HETATM   35  C21 UNL     1     129.669  15.892  50.002  1.00  0.00     0.012 C 
HETATM   36  C22 UNL     1     128.621  16.428  52.145  1.00  0.00     0.156 C 
HETATM   37  C23 UNL     1     127.894  15.846  53.376  1.00  0.00     0.084 C 
HETATM   38  C24 UNL     1     127.792  16.942  54.383  1.00  0.00     0.049 C 
BRANCH  36  39
HETATM   39  O3  UNL     1     129.770  17.091  52.546  1.00  0.00    -0.392 OA
ATOM     40  H3  UNL     1     129.995  16.903  53.450  1.00  0.00     0.210 HD
ENDBRANCH  36  39
BRANCH  37  41
HETATM   41  O4  UNL     1     128.672  14.795  53.889  1.00  0.00    -0.387 OA
ATOM     42  H4  UNL     1     129.577  15.072  53.978  1.00  0.00     0.210 HD
ENDBRANCH  37  41
ENDBRANCH  27  31
ENDBRANCH  26  27
ENDBRANCH  25  26
ENDBRANCH  22  25
ENDBRANCH  20  22
ENDBRANCH  10  20
BRANCH  12  43
HETATM   43  O5  UNL     1     121.975  14.610  50.698  1.00  0.00    -0.394 OA
ATOM     44  H5  UNL     1     122.078  14.663  51.641  1.00  0.00     0.210 HD
ENDBRANCH  12  43
ENDBRANCH   2   6
TORSDOF 13
ENDMDL
MODEL 3
REMARK VINA RESULT: -7.660425023      2.891      5.708
REMARK  13 active torsions:
REMARK  status: ('A' for Active; 'I' for Inactive)
REMARK    1  A    between atoms: C2_2  and  C5_6 
REMARK    2  A    between atoms: C8_9  and  C10_11 
REMARK    3  A    between atoms: C10_11  and  C12_13 
REMARK    4  A    between atoms: C12_13  and  O1_14 
REMARK    5  A    between atoms: C12_13  and  C13_16 
REMARK    6  A    between atoms: C13_16  and  C14_17 
REMARK    7  A    between atoms: C14_17  and  C15_18 
REMARK    8  A    between atoms: C15_18  and  C16_19 
REMARK    9  A    between atoms: C15_18  and  C17_22 
REMARK   10  A    between atoms: C16_19  and  O2_20 
REMARK   11  A    between atoms: C22_27  and  O3_28 
REMARK   12  A    between atoms: C23_30  and  O4_32 
REMARK   13  A    between atoms: C25_34  and  O5_35 
ROOT
HETATM    1  C1  UNL     1     125.748  17.663  49.740  1.00  0.00     0.049 C 
HETATM    2  C2  UNL     1     125.675  16.827  48.531  1.00  0.00    -0.052 C 
HETATM    3  C3  UNL     1     126.878  16.539  47.970  1.00  0.00     0.100 C 
HETATM    4  C4  UNL     1     128.068  17.029  48.548  1.00  0.00     0.088 C 
HETATM    5  N1  UNL     1     129.055  17.424  49.002  1.00  0.00    -0.192 NA
ENDROOT
BRANCH   2   6
HETATM    6  C5  UNL     1     124.485  16.254  47.939  1.00  0.00     0.011 C 
HETATM    7  C6  UNL     1     123.277  16.066  48.379  1.00  0.00    -0.070 C 
HETATM    8  C7  UNL     1     122.832  16.455  49.712  1.00  0.00     0.047 C 
HETATM    9  C31 UNL     1     122.309  15.328  47.444  1.00  0.00    -0.013 C 
HETATM   10  C8  UNL     1     121.342  16.751  49.845  1.00  0.00    -0.008 C 
HETATM   11  C9  UNL     1     121.177  18.194  49.322  1.00  0.00     0.018 C 
HETATM   12  C25 UNL     1     120.482  15.904  48.986  1.00  0.00     0.133 C 
HETATM   13  C26 UNL     1     121.020  16.030  47.568  1.00  0.00     0.046 C 
HETATM   14  C27 UNL     1     119.959  15.696  46.557  1.00  0.00     0.090 C 
HETATM   15 CL1  UNL     1     119.029  14.247  46.931  1.00  0.00    -0.124 Cl
HETATM   16  C28 UNL     1     120.560  15.552  45.184  1.00  0.00     0.021 C 
HETATM   17  C29 UNL     1     121.750  14.662  45.162  1.00  0.00     0.002 C 
HETATM   18  C30 UNL     1     122.835  15.302  46.048  1.00  0.00     0.014 C 
HETATM   19  C32 UNL     1     122.313  13.913  47.981  1.00  0.00     0.021 C 
BRANCH  10  20
HETATM   20  C10 UNL     1     121.021  16.809  51.298  1.00  0.00     0.021 C 
HETATM   21  C11 UNL     1     119.756  17.556  51.643  1.00  0.00     0.013 C 
BRANCH  20  22
HETATM   22  C12 UNL     1     122.164  17.140  52.206  1.00  0.00     0.122 C 
BRANCH  22  23
HETATM   23  O1  UNL     1     122.083  18.413  52.751  1.00  0.00    -0.395 OA
ATOM     24  H1  UNL     1     121.482  18.472  53.484  1.00  0.00     0.210 HD
ENDBRANCH  22  23
BRANCH  22  25
HETATM   25  C13 UNL     1     122.275  16.172  53.396  1.00  0.00     0.032 C 
BRANCH  25  26
HETATM   26  C14 UNL     1     121.618  14.879  53.018  1.00  0.00     0.010 C 
BRANCH  26  27
HETATM   27  C15 UNL     1     122.517  13.686  53.118  1.00  0.00     0.016 C 
BRANCH  27  28
HETATM   28  C16 UNL     1     121.920  12.537  52.378  1.00  0.00     0.169 C 
BRANCH  28  29
HETATM   29  O2  UNL     1     120.785  12.915  51.658  1.00  0.00    -0.400 OA
ATOM     30  H2  UNL     1     120.972  13.020  50.732  1.00  0.00     0.209 HD
ENDBRANCH  28  29
ENDBRANCH  27  28
BRANCH  27  31
HETATM   31  C17 UNL     1     123.923  14.040  52.694  1.00  0.00     0.028 C 
HETATM   32  C18 UNL     1     124.295  13.497  51.334  1.00  0.00     0.009 C 
HETATM   33  C19 UNL     1     125.543  14.270  50.876  1.00  0.00     0.007 C 
HETATM   34  C20 UNL     1     126.666  13.944  51.824  1.00  0.00     0.013 C 
HETATM   35  C21 UNL     1     127.930  14.662  51.455  1.00  0.00     0.012 C 
HETATM   36  C22 UNL     1     126.261  14.379  53.219  1.00  0.00     0.156 C 
HETATM   37  C23 UNL     1     124.991  13.611  53.644  1.00  0.00     0.084 C 
HETATM   38  C24 UNL     1     124.743  13.937  55.079  1.00  0.00     0.049 C 
BRANCH  36  39
HETATM   39  O3  UNL     1     127.269  14.172  54.147  1.00  0.00    -0.392 OA
ATOM     40  H3  UNL     1     126.940  13.805  54.959  1.00  0.00     0.210 HD
ENDBRANCH  36  39
BRANCH  37  41
HETATM   41  O4  UNL     1     125.240  12.236  53.502  1.00  0.00    -0.387 OA
ATOM     42  H4  UNL     1     125.427  11.848  54.349  1.00  0.00     0.210 HD
ENDBRANCH  37  41
ENDBRANCH  27  31
ENDBRANCH  26  27
ENDBRANCH  25  26
ENDBRANCH  22  25
ENDBRANCH  20  22
ENDBRANCH  10  20
BRANCH  12  43
HETATM   43  O5  UNL     1     120.287  14.622  49.407  1.00  0.00    -0.394 OA
ATOM     44  H5  UNL     1     119.735  14.080  48.856  1.00  0.00     0.210 HD
ENDBRANCH  12  43
ENDBRANCH   2   6
TORSDOF 13
ENDMDL
MODEL 4
REMARK VINA RESULT: -7.602616886      2.657      6.574
REMARK  13 active torsions:
REMARK  status: ('A' for Active; 'I' for Inactive)
REMARK    1  A    between atoms: C2_2  and  C5_6 
REMARK    2  A    between atoms: C8_9  and  C10_11 
REMARK    3  A    between atoms: C10_11  and  C12_13 
REMARK    4  A    between atoms: C12_13  and  O1_14 
REMARK    5  A    between atoms: C12_13  and  C13_16 
REMARK    6  A    between atoms: C13_16  and  C14_17 
REMARK    7  A    between atoms: C14_17  and  C15_18 
REMARK    8  A    between atoms: C15_18  and  C16_19 
REMARK    9  A    between atoms: C15_18  and  C17_22 
REMARK   10  A    between atoms: C16_19  and  O2_20 
REMARK   11  A    between atoms: C22_27  and  O3_28 
REMARK   12  A    between atoms: C23_30  and  O4_32 
REMARK   13  A    between atoms: C25_34  and  O5_35 
ROOT
HETATM    1  C1  UNL     1     125.729  15.160  46.065  1.00  0.00     0.049 C 
HETATM    2  C2  UNL     1     125.356  16.169  47.069  1.00  0.00    -0.052 C 
HETATM    3  C3  UNL     1     124.019  16.296  47.273  1.00  0.00     0.100 C 
HETATM    4  C4  UNL     1     123.110  15.494  46.552  1.00  0.00     0.088 C 
HETATM    5  N1  UNL     1     122.348  14.851  45.968  1.00  0.00    -0.192 NA
ENDROOT
BRANCH   2   6
HETATM    6  C5  UNL     1     126.255  16.969  47.874  1.00  0.00     0.011 C 
HETATM    7  C6  UNL     1     126.712  16.846  49.083  1.00  0.00    -0.070 C 
HETATM    8  C7  UNL     1     126.374  15.735  49.966  1.00  0.00     0.047 C 
HETATM    9  C31 UNL     1     127.596  17.985  49.607  1.00  0.00    -0.013 C 
HETATM   10  C8  UNL     1     127.417  15.403  51.028  1.00  0.00    -0.008 C 
HETATM   11  C9  UNL     1     128.475  14.554  50.292  1.00  0.00     0.018 C 
HETATM   12  C25 UNL     1     128.136  16.586  51.555  1.00  0.00     0.133 C 
HETATM   13  C26 UNL     1     128.688  17.336  50.351  1.00  0.00     0.046 C 
HETATM   14  C27 UNL     1     129.858  18.195  50.741  1.00  0.00     0.090 C 
HETATM   15 CL1  UNL     1     129.616  19.126  52.217  1.00  0.00    -0.124 Cl
HETATM   16  C28 UNL     1     130.222  19.134  49.622  1.00  0.00     0.021 C 
HETATM   17  C29 UNL     1     129.053  19.875  49.082  1.00  0.00     0.002 C 
HETATM   18  C30 UNL     1     128.076  18.844  48.485  1.00  0.00     0.014 C 
HETATM   19  C32 UNL     1     126.649  18.803  50.459  1.00  0.00     0.021 C 
BRANCH  10  20
HETATM   20  C10 UNL     1     126.780  14.487  52.015  1.00  0.00     0.021 C 
HETATM   21  C11 UNL     1     127.655  14.096  53.180  1.00  0.00     0.013 C 
BRANCH  20  22
HETATM   22  C12 UNL     1     126.020  13.334  51.438  1.00  0.00     0.122 C 
BRANCH  22  23
HETATM   23  O1  UNL     1     126.348  12.116  52.015  1.00  0.00    -0.395 OA
ATOM     24  H1  UNL     1     126.900  11.574  51.463  1.00  0.00     0.210 HD
ENDBRANCH  22  23
BRANCH  22  25
HETATM   25  C13 UNL     1     124.498  13.487  51.601  1.00  0.00     0.032 C 
BRANCH  25  26
HETATM   26  C14 UNL     1     124.181  13.547  53.065  1.00  0.00     0.010 C 
BRANCH  26  27
HETATM   27  C15 UNL     1     123.425  14.773  53.474  1.00  0.00     0.016 C 
BRANCH  27  28
HETATM   28  C16 UNL     1     124.278  15.625  54.354  1.00  0.00     0.169 C 
BRANCH  28  29
HETATM   29  O2  UNL     1     124.926  14.873  55.337  1.00  0.00    -0.400 OA
ATOM     30  H2  UNL     1     125.858  14.800  55.169  1.00  0.00     0.209 HD
ENDBRANCH  28  29
ENDBRANCH  27  28
BRANCH  27  31
HETATM   31  C17 UNL     1     122.868  15.487  52.265  1.00  0.00     0.028 C 
HETATM   32  C18 UNL     1     123.472  16.853  52.042  1.00  0.00     0.009 C 
HETATM   33  C19 UNL     1     123.136  17.254  50.596  1.00  0.00     0.007 C 
HETATM   34  C20 UNL     1     121.641  17.390  50.488  1.00  0.00     0.013 C 
HETATM   35  C21 UNL     1     121.218  17.776  49.101  1.00  0.00     0.012 C 
HETATM   36  C22 UNL     1     121.010  16.052  50.823  1.00  0.00     0.156 C 
HETATM   37  C23 UNL     1     121.386  15.658  52.267  1.00  0.00     0.084 C 
HETATM   38  C24 UNL     1     120.597  14.437  52.607  1.00  0.00     0.049 C 
BRANCH  36  39
HETATM   39  O3  UNL     1     119.631  16.073  50.684  1.00  0.00    -0.392 OA
ATOM     40  H3  UNL     1     119.361  16.064  49.774  1.00  0.00     0.210 HD
ENDBRANCH  36  39
BRANCH  37  41
HETATM   41  O4  UNL     1     121.023  16.714  53.119  1.00  0.00    -0.387 OA
ATOM     42  H4  UNL     1     120.645  17.425  52.615  1.00  0.00     0.210 HD
ENDBRANCH  37  41
ENDBRANCH  27  31
ENDBRANCH  26  27
ENDBRANCH  25  26
ENDBRANCH  22  25
ENDBRANCH  20  22
ENDBRANCH  10  20
BRANCH  12  43
HETATM   43  O5  UNL     1     127.449  17.363  52.441  1.00  0.00    -0.394 OA
ATOM     44  H5  UNL     1     127.974  17.920  53.004  1.00  0.00     0.210 HD
ENDBRANCH  12  43
ENDBRANCH   2   6
TORSDOF 13
ENDMDL
MODEL 5
REMARK VINA RESULT: -7.561714383      1.822      3.107
REMARK  13 active torsions:
REMARK  status: ('A' for Active; 'I' for Inactive)
REMARK    1  A    between atoms: C2_2  and  C5_6 
REMARK    2  A    between atoms: C8_9  and  C10_11 
REMARK    3  A    between atoms: C10_11  and  C12_13 
REMARK    4  A    between atoms: C12_13  and  O1_14 
REMARK    5  A    between atoms: C12_13  and  C13_16 
REMARK    6  A    between atoms: C13_16  and  C14_17 
REMARK    7  A    between atoms: C14_17  and  C15_18 
REMARK    8  A    between atoms: C15_18  and  C16_19 
REMARK    9  A    between atoms: C15_18  and  C17_22 
REMARK   10  A    between atoms: C16_19  and  O2_20 
REMARK   11  A    between atoms: C22_27  and  O3_28 
REMARK   12  A    between atoms: C23_30  and  O4_32 
REMARK   13  A    between atoms: C25_34  and  O5_35 
ROOT
HETATM    1  C1  UNL     1     125.061  16.784  47.640  1.00  0.00     0.049 C 
HETATM    2  C2  UNL     1     124.073  15.824  47.124  1.00  0.00    -0.052 C 
HETATM    3  C3  UNL     1     124.537  15.008  46.141  1.00  0.00     0.100 C 
HETATM    4  C4  UNL     1     125.871  15.120  45.696  1.00  0.00     0.088 C 
HETATM    5  N1  UNL     1     126.958  15.198  45.311  1.00  0.00    -0.192 NA
ENDROOT
BRANCH   2   6
HETATM    6  C5  UNL     1     122.716  15.634  47.592  1.00  0.00     0.011 C 
HETATM    7  C6  UNL     1     122.212  15.075  48.650  1.00  0.00    -0.070 C 
HETATM    8  C7  UNL     1     123.015  14.467  49.704  1.00  0.00     0.047 C 
HETATM    9  C31 UNL     1     120.681  15.005  48.731  1.00  0.00    -0.013 C 
HETATM   10  C8  UNL     1     122.371  14.441  51.086  1.00  0.00    -0.008 C 
HETATM   11  C9  UNL     1     122.609  15.854  51.661  1.00  0.00     0.018 C 
HETATM   12  C25 UNL     1     120.903  14.251  51.061  1.00  0.00     0.133 C 
HETATM   13  C26 UNL     1     120.339  15.314  50.130  1.00  0.00     0.046 C 
HETATM   14  C27 UNL     1     118.894  15.589  50.437  1.00  0.00     0.090 C 
HETATM   15 CL1  UNL     1     117.915  14.145  50.682  1.00  0.00    -0.124 Cl
HETATM   16  C28 UNL     1     118.271  16.426  49.351  1.00  0.00     0.021 C 
HETATM   17  C29 UNL     1     118.532  15.898  47.988  1.00  0.00     0.002 C 
HETATM   18  C30 UNL     1     120.054  15.937  47.750  1.00  0.00     0.014 C 
HETATM   19  C32 UNL     1     120.371  13.586  48.304  1.00  0.00     0.021 C 
BRANCH  10  20
HETATM   20  C10 UNL     1     123.171  13.518  51.939  1.00  0.00     0.021 C 
HETATM   21  C11 UNL     1     123.715  12.303  51.229  1.00  0.00     0.013 C 
BRANCH  20  22
HETATM   22  C12 UNL     1     122.591  13.203  53.282  1.00  0.00     0.122 C 
BRANCH  22  23
HETATM   23  O1  UNL     1     121.822  12.048  53.292  1.00  0.00    -0.395 OA
ATOM     24  H1  UNL     1     120.890  12.216  53.365  1.00  0.00     0.210 HD
ENDBRANCH  22  23
BRANCH  22  25
HETATM   25  C13 UNL     1     123.669  13.008  54.362  1.00  0.00     0.032 C 
BRANCH  25  26
HETATM   26  C14 UNL     1     124.471  14.270  54.466  1.00  0.00     0.010 C 
BRANCH  26  27
HETATM   27  C15 UNL     1     125.929  14.091  54.178  1.00  0.00     0.016 C 
BRANCH  27  28
HETATM   28  C16 UNL     1     126.177  12.719  53.647  1.00  0.00     0.169 C 
BRANCH  28  29
HETATM   29  O2  UNL     1     127.421  12.225  54.043  1.00  0.00    -0.400 OA
ATOM     30  H2  UNL     1     128.100  12.886  53.982  1.00  0.00     0.209 HD
ENDBRANCH  28  29
ENDBRANCH  27  28
BRANCH  27  31
HETATM   31  C17 UNL     1     126.441  15.204  53.294  1.00  0.00     0.028 C 
HETATM   32  C18 UNL     1     126.614  14.794  51.851  1.00  0.00     0.009 C 
HETATM   33  C19 UNL     1     126.721  16.092  51.033  1.00  0.00     0.007 C 
HETATM   34  C20 UNL     1     127.974  16.809  51.460  1.00  0.00     0.013 C 
HETATM   35  C21 UNL     1     128.158  18.097  50.714  1.00  0.00     0.012 C 
HETATM   36  C22 UNL     1     127.866  17.127  52.939  1.00  0.00     0.156 C 
HETATM   37  C23 UNL     1     127.731  15.812  53.736  1.00  0.00     0.084 C 
HETATM   38  C24 UNL     1     127.813  16.166  55.183  1.00  0.00     0.049 C 
BRANCH  36  39
HETATM   39  O3  UNL     1     128.955  17.847  53.402  1.00  0.00    -0.392 OA
ATOM     40  H3  UNL     1     129.505  17.334  53.982  1.00  0.00     0.210 HD
ENDBRANCH  36  39
BRANCH  37  41
HETATM   41  O4  UNL     1     128.803  14.975  53.386  1.00  0.00    -0.387 OA
ATOM     42  H4  UNL     1     128.568  14.065  53.530  1.00  0.00     0.210 HD
ENDBRANCH  37  41
ENDBRANCH  27  31
ENDBRANCH  26  27
ENDBRANCH  25  26
ENDBRANCH  22  25
ENDBRANCH  20  22
ENDBRANCH  10  20
BRANCH  12  43
HETATM   43  O5  UNL     1     120.463  12.985  50.808  1.00  0.00    -0.394 OA
ATOM     44  H5  UNL     1     119.539  12.895  50.605  1.00  0.00     0.210 HD
ENDBRANCH  12  43
ENDBRANCH   2   6
TORSDOF 13
ENDMDL
