MODEL 1
REMARK VINA RESULT: -8.492470611      0.000      0.000
REMARK  12 active torsions:
REMARK  status: ('A' for Active; 'I' for Inactive)
REMARK    1  A    between atoms: C2_2  and  C4_4 
REMARK    2  A    between atoms: C4_4  and  C5_5 
REMARK    3  A    between atoms: C4_4  and  C29_39 
REMARK    4  A    between atoms: C5_5  and  C6_6 
REMARK    5  A    between atoms: C6_6  and  C7_7 
REMARK    6  A    between atoms: C7_7  and  C8_9 
REMARK    7  A    between atoms: C13_14  and  O1_15 
REMARK    8  A    between atoms: C20_23  and  O2_24 
REMARK    9  A    between atoms: C21_26  and  O3_27 
REMARK   10  A    between atoms: C28_36  and  O5_37 
REMARK   11  A    between atoms: C29_39  and  C30_40 
REMARK   12  A    between atoms: C30_40  and  O6_43 
ROOT
HETATM    1  C8  UNL     1     124.748  16.207  49.082  1.00  0.00     0.055 C 
HETATM    2  C9  UNL     1     123.985  16.993  50.102  1.00  0.00     0.011 C 
HETATM    3  C10 UNL     1     122.559  17.158  49.533  1.00  0.00     0.016 C 
HETATM    4  C11 UNL     1     122.362  15.827  48.874  1.00  0.00     0.019 C 
HETATM    5  C12 UNL     1     122.239  14.841  50.015  1.00  0.00     0.021 C 
HETATM    6  C13 UNL     1     123.703  15.784  48.159  1.00  0.00     0.074 C 
HETATM    7  C14 UNL     1     123.758  14.540  47.395  1.00  0.00     0.040 C 
HETATM    8  C15 UNL     1     122.737  14.638  46.257  1.00  0.00     0.011 C 
HETATM    9  C16 UNL     1     121.550  15.476  46.532  1.00  0.00     0.030 C 
HETATM   10  C17 UNL     1     120.402  14.999  45.653  1.00  0.00    -0.024 C 
HETATM   11  C18 UNL     1     121.075  15.000  44.273  1.00  0.00     0.016 C 
HETATM   12  C19 UNL     1     119.854  13.664  45.889  1.00  0.00     0.044 C 
HETATM   13  C20 UNL     1     119.004  13.338  44.637  1.00  0.00     0.148 C 
HETATM   14  C21 UNL     1     117.856  14.261  44.608  1.00  0.00     0.155 C 
HETATM   15  C22 UNL     1     118.107  15.708  44.905  1.00  0.00    -0.008 C 
HETATM   16  C23 UNL     1     118.222  16.494  43.587  1.00  0.00     0.018 C 
HETATM   17  C24 UNL     1     116.792  16.233  45.515  1.00  0.00     0.018 C 
HETATM   18  C25 UNL     1     119.280  16.003  45.750  1.00  0.00     0.074 C 
HETATM   19  C26 UNL     1     119.005  16.209  47.195  1.00  0.00     0.135 C 
HETATM   20  O4  UNL     1     117.982  16.002  47.777  1.00  0.00    -0.297 OA
HETATM   21  C27 UNL     1     120.156  16.740  48.026  1.00  0.00     0.117 C 
HETATM   22  C28 UNL     1     121.210  15.654  47.970  1.00  0.00     0.079 C 
ENDROOT
BRANCH   1  23
HETATM   23  C7  UNL     1     125.735  15.219  49.579  1.00  0.00     0.177 C 
HETATM   24  F1  UNL     1     125.322  14.395  50.596  1.00  0.00    -0.249 F 
BRANCH  23  25
HETATM   25  C6  UNL     1     126.934  15.992  50.261  1.00  0.00     0.038 C 
BRANCH  25  26
HETATM   26  C5  UNL     1     127.627  16.630  49.166  1.00  0.00     0.008 C 
BRANCH  26  27
HETATM   27  C4  UNL     1     128.507  17.880  49.446  1.00  0.00    -0.008 C 
BRANCH  27  28
HETATM   28  C2  UNL     1     128.299  18.931  48.458  1.00  0.00    -0.019 C 
HETATM   29  C1  UNL     1     129.392  20.005  48.414  1.00  0.00     0.010 C 
HETATM   30  C3  UNL     1     127.017  19.748  48.599  1.00  0.00     0.010 C 
ENDBRANCH  27  28
BRANCH  27  31
HETATM   31  C29 UNL     1     128.417  18.060  50.897  1.00  0.00     0.042 C 
BRANCH  31  32
HETATM   32  C30 UNL     1     129.399  17.844  51.938  1.00  0.00     0.051 C 
HETATM   33  C31 UNL     1     130.475  19.032  51.799  1.00  0.00     0.045 C 
HETATM   34  C32 UNL     1     130.360  16.658  51.784  1.00  0.00     0.045 C 
BRANCH  32  35
HETATM   35  O6  UNL     1     129.018  17.912  53.249  1.00  0.00    -0.391 OA
ATOM     36  H6  UNL     1     128.605  17.160  53.656  1.00  0.00     0.210 HD
ENDBRANCH  32  35
ENDBRANCH  31  32
ENDBRANCH  27  31
ENDBRANCH  26  27
ENDBRANCH  25  26
ENDBRANCH  23  25
ENDBRANCH   1  23
BRANCH   6  37
HETATM   37  O1  UNL     1     123.676  16.837  47.191  1.00  0.00    -0.388 OA
ATOM     38  H1  UNL     1     122.934  16.609  46.642  1.00  0.00     0.210 HD
ENDBRANCH   6  37
BRANCH  22  39
HETATM   39  O5  UNL     1     120.574  14.435  48.326  1.00  0.00    -0.388 OA
ATOM     40  H5  UNL     1     121.164  13.729  48.089  1.00  0.00     0.210 HD
ENDBRANCH  22  39
BRANCH  13  41
HETATM   41  O2  UNL     1     118.511  12.036  44.914  1.00  0.00    -0.393 OA
ATOM     42  H2  UNL     1     117.579  12.122  44.755  1.00  0.00     0.210 HD
ENDBRANCH  13  41
BRANCH  14  43
HETATM   43  O3  UNL     1     117.250  14.189  43.332  1.00  0.00    -0.392 OA
ATOM     44  H3  UNL     1     117.930  14.061  42.681  1.00  0.00     0.210 HD
ENDBRANCH  14  43
TORSDOF 12
ENDMDL
MODEL 2
REMARK VINA RESULT: -8.466692624      2.494     10.082
REMARK  12 active torsions:
REMARK  status: ('A' for Active; 'I' for Inactive)
REMARK    1  A    between atoms: C2_2  and  C4_4 
REMARK    2  A    between atoms: C4_4  and  C5_5 
REMARK    3  A    between atoms: C4_4  and  C29_39 
REMARK    4  A    between atoms: C5_5  and  C6_6 
REMARK    5  A    between atoms: C6_6  and  C7_7 
REMARK    6  A    between atoms: C7_7  and  C8_9 
REMARK    7  A    between atoms: C13_14  and  O1_15 
REMARK    8  A    between atoms: C20_23  and  O2_24 
REMARK    9  A    between atoms: C21_26  and  O3_27 
REMARK   10  A    between atoms: C28_36  and  O5_37 
REMARK   11  A    between atoms: C29_39  and  C30_40 
REMARK   12  A    between atoms: C30_40  and  O6_43 
ROOT
HETATM    1  C8  UNL     1     121.862  14.578  46.071  1.00  0.00     0.055 C 
HETATM    2  C9  UNL     1     121.183  14.144  47.332  1.00  0.00     0.011 C 
HETATM    3  C10 UNL     1     122.248  14.244  48.445  1.00  0.00     0.016 C 
HETATM    4  C11 UNL     1     122.983  15.479  48.023  1.00  0.00     0.019 C 
HETATM    5  C12 UNL     1     122.015  16.614  48.275  1.00  0.00     0.021 C 
HETATM    6  C13 UNL     1     123.131  15.104  46.557  1.00  0.00     0.074 C 
HETATM    7  C14 UNL     1     123.864  16.181  45.896  1.00  0.00     0.040 C 
HETATM    8  C15 UNL     1     125.301  16.171  46.425  1.00  0.00     0.011 C 
HETATM    9  C16 UNL     1     125.469  15.684  47.811  1.00  0.00     0.030 C 
HETATM   10  C17 UNL     1     126.739  16.293  48.391  1.00  0.00    -0.024 C 
HETATM   11  C18 UNL     1     127.755  15.941  47.294  1.00  0.00     0.016 C 
HETATM   12  C19 UNL     1     126.783  17.739  48.602  1.00  0.00     0.044 C 
HETATM   13  C20 UNL     1     128.277  18.080  48.823  1.00  0.00     0.148 C 
HETATM   14  C21 UNL     1     128.707  17.460  50.088  1.00  0.00     0.155 C 
HETATM   15  C22 UNL     1     128.281  16.051  50.364  1.00  0.00    -0.008 C 
HETATM   16  C23 UNL     1     129.423  15.085  50.000  1.00  0.00     0.018 C 
HETATM   17  C24 UNL     1     128.202  15.941  51.899  1.00  0.00     0.018 C 
HETATM   18  C25 UNL     1     127.041  15.606  49.700  1.00  0.00     0.074 C 
HETATM   19  C26 UNL     1     125.805  15.673  50.520  1.00  0.00     0.135 C 
HETATM   20  O4  UNL     1     125.667  16.195  51.587  1.00  0.00    -0.297 OA
HETATM   21  C27 UNL     1     124.576  15.006  49.936  1.00  0.00     0.117 C 
HETATM   22  C28 UNL     1     124.266  15.793  48.679  1.00  0.00     0.079 C 
ENDROOT
BRANCH   1  23
HETATM   23  C7  UNL     1     121.064  15.363  45.100  1.00  0.00     0.177 C 
HETATM   24  F1  UNL     1     119.940  15.983  45.587  1.00  0.00    -0.249 F 
BRANCH  23  25
HETATM   25  C6  UNL     1     120.446  14.376  44.029  1.00  0.00     0.038 C 
BRANCH  25  26
HETATM   26  C5  UNL     1     119.099  14.134  44.492  1.00  0.00     0.008 C 
BRANCH  26  27
HETATM   27  C4  UNL     1     118.688  12.698  44.921  1.00  0.00    -0.008 C 
BRANCH  27  28
HETATM   28  C2  UNL     1     117.791  12.704  46.070  1.00  0.00    -0.019 C 
HETATM   29  C1  UNL     1     117.561  14.080  46.706  1.00  0.00     0.010 C 
HETATM   30  C3  UNL     1     118.209  11.840  47.258  1.00  0.00     0.010 C 
ENDBRANCH  27  28
BRANCH  27  31
HETATM   31  C29 UNL     1     118.426  12.010  43.655  1.00  0.00     0.042 C 
BRANCH  31  32
HETATM   32  C30 UNL     1     117.564  10.888  43.352  1.00  0.00     0.051 C 
HETATM   33  C31 UNL     1     117.848  10.500  41.816  1.00  0.00     0.045 C 
HETATM   34  C32 UNL     1     116.056  11.150  43.237  1.00  0.00     0.045 C 
BRANCH  32  35
HETATM   35  O6  UNL     1     117.738   9.705  44.015  1.00  0.00    -0.391 OA
ATOM     36  H6  UNL     1     117.061   9.040  43.971  1.00  0.00     0.210 HD
ENDBRANCH  32  35
ENDBRANCH  31  32
ENDBRANCH  27  31
ENDBRANCH  26  27
ENDBRANCH  25  26
ENDBRANCH  23  25
ENDBRANCH   1  23
BRANCH   6  37
HETATM   37  O1  UNL     1     123.994  13.964  46.519  1.00  0.00    -0.388 OA
ATOM     38  H1  UNL     1     124.567  14.150  45.784  1.00  0.00     0.210 HD
ENDBRANCH   6  37
BRANCH  22  39
HETATM   39  O5  UNL     1     124.228  17.165  49.045  1.00  0.00    -0.388 OA
ATOM     40  H5  UNL     1     125.120  17.489  49.014  1.00  0.00     0.210 HD
ENDBRANCH  22  39
BRANCH  13  41
HETATM   41  O2  UNL     1     128.260  19.487  49.009  1.00  0.00    -0.393 OA
ATOM     42  H2  UNL     1     128.313  19.821  48.121  1.00  0.00     0.210 HD
ENDBRANCH  13  41
BRANCH  14  43
HETATM   43  O3  UNL     1     130.120  17.496  50.151  1.00  0.00    -0.392 OA
ATOM     44  H3  UNL     1     130.466  16.814  49.588  1.00  0.00     0.210 HD
ENDBRANCH  14  43
TORSDOF 12
ENDMDL
MODEL 3
REMARK VINA RESULT: -8.415439789      3.408      9.439
REMARK  12 active torsions:
REMARK  status: ('A' for Active; 'I' for Inactive)
REMARK    1  A    between atoms: C2_2  and  C4_4 
REMARK    2  A    between atoms: C4_4  and  C5_5 
REMARK    3  A    between atoms: C4_4  and  C29_39 
REMARK    4  A    between atoms: C5_5  and  C6_6 
REMARK    5  A    between atoms: C6_6  and  C7_7 
REMARK    6  A    between atoms: C7_7  and  C8_9 
REMARK    7  A    between atoms: C13_14  and  O1_15 
REMARK    8  A    between atoms: C20_23  and  O2_24 
REMARK    9  A    between atoms: C21_26  and  O3_27 
REMARK   10  A    between atoms: C28_36  and  O5_37 
REMARK   11  A    between atoms: C29_39  and  C30_40 
REMARK   12  A    between atoms: C30_40  and  O6_43 
ROOT
HETATM    1  C8  UNL     1     125.938  16.768  48.125  1.00  0.00     0.055 C 
HETATM    2  C9  UNL     1     126.946  17.869  48.238  1.00  0.00     0.011 C 
HETATM    3  C10 UNL     1     127.026  18.220  49.740  1.00  0.00     0.016 C 
HETATM    4  C11 UNL     1     126.885  16.862  50.355  1.00  0.00     0.019 C 
HETATM    5  C12 UNL     1     128.179  16.149  50.029  1.00  0.00     0.021 C 
HETATM    6  C13 UNL     1     125.699  16.410  49.518  1.00  0.00     0.074 C 
HETATM    7  C14 UNL     1     125.336  15.064  49.953  1.00  0.00     0.040 C 
HETATM    8  C15 UNL     1     124.767  15.163  51.371  1.00  0.00     0.011 C 
HETATM    9  C16 UNL     1     125.301  16.265  52.200  1.00  0.00     0.030 C 
HETATM   10  C17 UNL     1     125.159  15.885  53.668  1.00  0.00    -0.024 C 
HETATM   11  C18 UNL     1     123.675  15.493  53.723  1.00  0.00     0.016 C 
HETATM   12  C19 UNL     1     125.944  14.760  54.173  1.00  0.00     0.044 C 
HETATM   13  C20 UNL     1     125.312  14.395  55.539  1.00  0.00     0.148 C 
HETATM   14  C21 UNL     1     125.544  15.515  56.466  1.00  0.00     0.155 C 
HETATM   15  C22 UNL     1     125.319  16.908  55.961  1.00  0.00    -0.008 C 
HETATM   16  C23 UNL     1     123.927  17.397  56.397  1.00  0.00     0.018 C 
HETATM   17  C24 UNL     1     126.277  17.797  56.777  1.00  0.00     0.018 C 
HETATM   18  C25 UNL     1     125.467  17.101  54.506  1.00  0.00     0.074 C 
HETATM   19  C26 UNL     1     126.782  17.621  54.050  1.00  0.00     0.135 C 
HETATM   20  O4  UNL     1     127.780  17.742  54.696  1.00  0.00    -0.297 OA
HETATM   21  C27 UNL     1     126.867  18.043  52.597  1.00  0.00     0.117 C 
HETATM   22  C28 UNL     1     126.644  16.770  51.807  1.00  0.00     0.079 C 
ENDROOT
BRANCH   1  23
HETATM   23  C7  UNL     1     126.196  15.704  47.126  1.00  0.00     0.177 C 
HETATM   24  F1  UNL     1     127.377  15.787  46.432  1.00  0.00    -0.249 F 
BRANCH  23  25
HETATM   25  C6  UNL     1     125.132  15.826  45.962  1.00  0.00     0.038 C 
BRANCH  25  26
HETATM   26  C5  UNL     1     124.466  14.544  45.942  1.00  0.00     0.008 C 
BRANCH  26  27
HETATM   27  C4  UNL     1     122.955  14.466  46.296  1.00  0.00    -0.008 C 
BRANCH  27  28
HETATM   28  C2  UNL     1     122.691  14.877  47.669  1.00  0.00    -0.019 C 
HETATM   29  C1  UNL     1     121.927  13.854  48.517  1.00  0.00     0.010 C 
HETATM   30  C3  UNL     1     121.872  16.153  47.848  1.00  0.00     0.010 C 
ENDBRANCH  27  28
BRANCH  27  31
HETATM   31  C29 UNL     1     122.283  15.009  45.112  1.00  0.00     0.042 C 
BRANCH  31  32
HETATM   32  C30 UNL     1     121.096  14.564  44.414  1.00  0.00     0.051 C 
HETATM   33  C31 UNL     1     120.289  15.894  44.002  1.00  0.00     0.045 C 
HETATM   34  C32 UNL     1     119.993  13.882  45.234  1.00  0.00     0.045 C 
BRANCH  32  35
HETATM   35  O6  UNL     1     121.222  13.889  43.232  1.00  0.00    -0.391 OA
ATOM     36  H6  UNL     1     120.454  13.742  42.693  1.00  0.00     0.210 HD
ENDBRANCH  32  35
ENDBRANCH  31  32
ENDBRANCH  27  31
ENDBRANCH  26  27
ENDBRANCH  25  26
ENDBRANCH  23  25
ENDBRANCH   1  23
BRANCH   6  37
HETATM   37  O1  UNL     1     124.602  17.250  49.888  1.00  0.00    -0.388 OA
ATOM     38  H1  UNL     1     124.775  17.444  50.802  1.00  0.00     0.210 HD
ENDBRANCH   6  37
BRANCH  22  39
HETATM   39  O5  UNL     1     127.541  15.796  52.322  1.00  0.00    -0.388 OA
ATOM     40  H5  UNL     1     128.332  16.253  52.584  1.00  0.00     0.210 HD
ENDBRANCH  22  39
BRANCH  13  41
HETATM   41  O2  UNL     1     126.101  13.297  55.973  1.00  0.00    -0.393 OA
ATOM     42  H2  UNL     1     126.479  13.614  56.785  1.00  0.00     0.210 HD
ENDBRANCH  13  41
BRANCH  14  43
HETATM   43  O3  UNL     1     124.720  15.339  57.603  1.00  0.00    -0.392 OA
ATOM     44  H3  UNL     1     125.106  14.670  58.155  1.00  0.00     0.210 HD
ENDBRANCH  14  43
TORSDOF 12
ENDMDL
MODEL 4
REMARK VINA RESULT: -8.271726909      2.240      9.808
REMARK  12 active torsions:
REMARK  status: ('A' for Active; 'I' for Inactive)
REMARK    1  A    between atoms: C2_2  and  C4_4 
REMARK    2  A    between atoms: C4_4  and  C5_5 
REMARK    3  A    between atoms: C4_4  and  C29_39 
REMARK    4  A    between atoms: C5_5  and  C6_6 
REMARK    5  A    between atoms: C6_6  and  C7_7 
REMARK    6  A    between atoms: C7_7  and  C8_9 
REMARK    7  A    between atoms: C13_14  and  O1_15 
REMARK    8  A    between atoms: C20_23  and  O2_24 
REMARK    9  A    between atoms: C21_26  and  O3_27 
REMARK   10  A    between atoms: C28_36  and  O5_37 
REMARK   11  A    between atoms: C29_39  and  C30_40 
REMARK   12  A    between atoms: C30_40  and  O6_43 
ROOT
HETATM    1  C8  UNL     1     121.997  14.889  46.778  1.00  0.00     0.055 C 
HETATM    2  C9  UNL     1     121.412  14.316  48.032  1.00  0.00     0.011 C 
HETATM    3  C10 UNL     1     122.559  14.297  49.066  1.00  0.00     0.016 C 
HETATM    4  C11 UNL     1     123.266  15.574  48.727  1.00  0.00     0.019 C 
HETATM    5  C12 UNL     1     122.326  16.671  49.175  1.00  0.00     0.021 C 
HETATM    6  C13 UNL     1     123.301  15.363  47.222  1.00  0.00     0.074 C 
HETATM    7  C14 UNL     1     123.987  16.509  46.630  1.00  0.00     0.040 C 
HETATM    8  C15 UNL     1     125.460  16.445  47.044  1.00  0.00     0.011 C 
HETATM    9  C16 UNL     1     125.730  15.810  48.352  1.00  0.00     0.030 C 
HETATM   10  C17 UNL     1     127.043  16.355  48.897  1.00  0.00    -0.024 C 
HETATM   11  C18 UNL     1     127.971  16.130  47.695  1.00  0.00     0.016 C 
HETATM   12  C19 UNL     1     127.110  17.770  49.263  1.00  0.00     0.044 C 
HETATM   13  C20 UNL     1     128.618  18.089  49.406  1.00  0.00     0.148 C 
HETATM   14  C21 UNL     1     129.139  17.335  50.559  1.00  0.00     0.155 C 
HETATM   15  C22 UNL     1     128.728  15.902  50.710  1.00  0.00    -0.008 C 
HETATM   16  C23 UNL     1     129.835  14.986  50.157  1.00  0.00     0.018 C 
HETATM   17  C24 UNL     1     128.765  15.625  52.225  1.00  0.00     0.018 C 
HETATM   18  C25 UNL     1     127.439  15.530  50.096  1.00  0.00     0.074 C 
HETATM   19  C26 UNL     1     126.269  15.502  51.010  1.00  0.00     0.135 C 
HETATM   20  O4  UNL     1     126.215  15.902  52.135  1.00  0.00    -0.297 OA
HETATM   21  C27 UNL     1     124.997  14.898  50.450  1.00  0.00     0.117 C 
HETATM   22  C28 UNL     1     124.596  15.817  49.315  1.00  0.00     0.079 C 
ENDROOT
BRANCH   1  23
HETATM   23  C7  UNL     1     121.131  15.774  45.962  1.00  0.00     0.177 C 
HETATM   24  F1  UNL     1     119.937  16.153  46.524  1.00  0.00    -0.249 F 
BRANCH  23  25
HETATM   25  C6  UNL     1     120.644  14.977  44.686  1.00  0.00     0.038 C 
BRANCH  25  26
HETATM   26  C5  UNL     1     119.212  14.870  44.847  1.00  0.00     0.008 C 
BRANCH  26  27
HETATM   27  C4  UNL     1     118.527  13.487  44.669  1.00  0.00    -0.008 C 
BRANCH  27  28
HETATM   28  C2  UNL     1     118.734  12.939  43.334  1.00  0.00    -0.019 C 
HETATM   29  C1  UNL     1     118.154  13.780  42.191  1.00  0.00     0.010 C 
HETATM   30  C3  UNL     1     118.150  11.553  43.074  1.00  0.00     0.010 C 
ENDBRANCH  27  28
BRANCH  27  31
HETATM   31  C29 UNL     1     118.818  12.783  45.921  1.00  0.00     0.042 C 
BRANCH  31  32
HETATM   32  C30 UNL     1     117.985  11.923  46.734  1.00  0.00     0.051 C 
HETATM   33  C31 UNL     1     118.495  12.101  48.250  1.00  0.00     0.045 C 
HETATM   34  C32 UNL     1     118.183  10.406  46.613  1.00  0.00     0.045 C 
BRANCH  32  35
HETATM   35  O6  UNL     1     116.643  12.168  46.819  1.00  0.00    -0.391 OA
ATOM     36  H6  UNL     1     116.051  11.460  47.045  1.00  0.00     0.210 HD
ENDBRANCH  32  35
ENDBRANCH  31  32
ENDBRANCH  27  31
ENDBRANCH  26  27
ENDBRANCH  25  26
ENDBRANCH  23  25
ENDBRANCH   1  23
BRANCH   6  37
HETATM   37  O1  UNL     1     124.153  14.237  46.993  1.00  0.00    -0.388 OA
ATOM     38  H1  UNL     1     124.091  14.104  46.055  1.00  0.00     0.210 HD
ENDBRANCH   6  37
BRANCH  22  39
HETATM   39  O5  UNL     1     124.593  17.141  49.831  1.00  0.00    -0.388 OA
ATOM     40  H5  UNL     1     125.213  17.165  50.550  1.00  0.00     0.210 HD
ENDBRANCH  22  39
BRANCH  13  41
HETATM   41  O2  UNL     1     128.622  19.467  49.747  1.00  0.00    -0.393 OA
ATOM     42  H2  UNL     1     129.144  19.857  49.055  1.00  0.00     0.210 HD
ENDBRANCH  13  41
BRANCH  14  43
HETATM   43  O3  UNL     1     130.553  17.369  50.518  1.00  0.00    -0.392 OA
ATOM     44  H3  UNL     1     130.837  18.272  50.590  1.00  0.00     0.210 HD
ENDBRANCH  14  43
TORSDOF 12
ENDMDL
MODEL 5
REMARK VINA RESULT: -8.193432893      2.444      9.909
REMARK  12 active torsions:
REMARK  status: ('A' for Active; 'I' for Inactive)
REMARK    1  A    between atoms: C2_2  and  C4_4 
REMARK    2  A    between atoms: C4_4  and  C5_5 
REMARK    3  A    between atoms: C4_4  and  C29_39 
REMARK    4  A    between atoms: C5_5  and  C6_6 
REMARK    5  A    between atoms: C6_6  and  C7_7 
REMARK    6  A    between atoms: C7_7  and  C8_9 
REMARK    7  A    between atoms: C13_14  and  O1_15 
REMARK    8  A    between atoms: C20_23  and  O2_24 
REMARK    9  A    between atoms: C21_26  and  O3_27 
REMARK   10  A    between atoms: C28_36  and  O5_37 
REMARK   11  A    between atoms: C29_39  and  C30_40 
REMARK   12  A    between atoms: C30_40  and  O6_43 
ROOT
HETATM    1  C8  UNL     1     121.710  14.573  46.403  1.00  0.00     0.055 C 
HETATM    2  C9  UNL     1     121.104  14.094  47.686  1.00  0.00     0.011 C 
HETATM    3  C10 UNL     1     122.226  14.180  48.743  1.00  0.00     0.016 C 
HETATM    4  C11 UNL     1     122.921  15.437  48.317  1.00  0.00     0.019 C 
HETATM    5  C12 UNL     1     121.952  16.551  48.651  1.00  0.00     0.021 C 
HETATM    6  C13 UNL     1     122.995  15.105  46.836  1.00  0.00     0.074 C 
HETATM    7  C14 UNL     1     123.677  16.210  46.166  1.00  0.00     0.040 C 
HETATM    8  C15 UNL     1     125.140  16.207  46.618  1.00  0.00     0.011 C 
HETATM    9  C16 UNL     1     125.389  15.686  47.979  1.00  0.00     0.030 C 
HETATM   10  C17 UNL     1     126.679  16.298  48.508  1.00  0.00    -0.024 C 
HETATM   11  C18 UNL     1     127.640  15.991  47.349  1.00  0.00     0.016 C 
HETATM   12  C19 UNL     1     126.714  17.739  48.757  1.00  0.00     0.044 C 
HETATM   13  C20 UNL     1     128.213  18.096  48.907  1.00  0.00     0.148 C 
HETATM   14  C21 UNL     1     128.719  17.449  50.130  1.00  0.00     0.155 C 
HETATM   15  C22 UNL     1     128.328  16.026  50.389  1.00  0.00    -0.008 C 
HETATM   16  C23 UNL     1     129.461  15.088  49.938  1.00  0.00     0.018 C 
HETATM   17  C24 UNL     1     128.332  15.874  51.922  1.00  0.00     0.018 C 
HETATM   18  C25 UNL     1     127.060  15.581  49.779  1.00  0.00     0.074 C 
HETATM   19  C26 UNL     1     125.868  15.607  50.666  1.00  0.00     0.135 C 
HETATM   20  O4  UNL     1     125.781  16.097  51.752  1.00  0.00    -0.297 OA
HETATM   21  C27 UNL     1     124.620  14.937  50.129  1.00  0.00     0.117 C 
HETATM   22  C28 UNL     1     124.232  15.752  48.913  1.00  0.00     0.079 C 
ENDROOT
BRANCH   1  23
HETATM   23  C7  UNL     1     120.850  15.371  45.497  1.00  0.00     0.177 C 
HETATM   24  F1  UNL     1     119.885  16.147  46.092  1.00  0.00    -0.249 F 
BRANCH  23  25
HETATM   25  C6  UNL     1     119.974  14.387  44.623  1.00  0.00     0.038 C 
BRANCH  25  26
HETATM   26  C5  UNL     1     118.635  14.524  45.150  1.00  0.00     0.008 C 
BRANCH  26  27
HETATM   27  C4  UNL     1     118.023  13.364  45.983  1.00  0.00    -0.008 C 
BRANCH  27  28
HETATM   28  C2  UNL     1     117.100  13.848  47.002  1.00  0.00    -0.019 C 
HETATM   29  C1  UNL     1     117.029  15.373  47.140  1.00  0.00     0.010 C 
HETATM   30  C3  UNL     1     117.368  13.384  48.432  1.00  0.00     0.010 C 
ENDBRANCH  27  28
BRANCH  27  31
HETATM   31  C29 UNL     1     117.710  12.337  44.986  1.00  0.00     0.042 C 
BRANCH  31  32
HETATM   32  C30 UNL     1     117.085  11.040  45.133  1.00  0.00     0.051 C 
HETATM   33  C31 UNL     1     117.910  10.267  46.278  1.00  0.00     0.045 C 
HETATM   34  C32 UNL     1     117.272  10.020  44.002  1.00  0.00     0.045 C 
BRANCH  32  35
HETATM   35  O6  UNL     1     115.791  10.960  45.565  1.00  0.00    -0.391 OA
ATOM     36  H6  UNL     1     115.270  10.197  45.343  1.00  0.00     0.210 HD
ENDBRANCH  32  35
ENDBRANCH  31  32
ENDBRANCH  27  31
ENDBRANCH  26  27
ENDBRANCH  25  26
ENDBRANCH  23  25
ENDBRANCH   1  23
BRANCH   6  37
HETATM   37  O1  UNL     1     123.871  13.979  46.720  1.00  0.00    -0.388 OA
ATOM     38  H1  UNL     1     124.021  13.915  45.784  1.00  0.00     0.210 HD
ENDBRANCH   6  37
BRANCH  22  39
HETATM   39  O5  UNL     1     124.195  17.114  49.317  1.00  0.00    -0.388 OA
ATOM     40  H5  UNL     1     123.503  17.536  48.823  1.00  0.00     0.210 HD
ENDBRANCH  22  39
BRANCH  13  41
HETATM   41  O2  UNL     1     128.187  19.497  49.133  1.00  0.00    -0.393 OA
ATOM     42  H2  UNL     1     128.188  19.855  48.253  1.00  0.00     0.210 HD
ENDBRANCH  13  41
BRANCH  14  43
HETATM   43  O3  UNL     1     130.133  17.504  50.118  1.00  0.00    -0.392 OA
ATOM     44  H3  UNL     1     130.465  16.685  49.772  1.00  0.00     0.210 HD
ENDBRANCH  14  43
TORSDOF 12
ENDMDL
