MODEL 1
REMARK VINA RESULT: -8.098254117      0.000      0.000
REMARK  10 active torsions:
REMARK  status: ('A' for Active; 'I' for Inactive)
REMARK    1  A    between atoms: C2_2  and  C3_3 
REMARK    2  A    between atoms: C2_2  and  C11_15 
REMARK    3  A    between atoms: C3_3  and  C4_4 
REMARK    4  A    between atoms: C5_5  and  C6_6 
REMARK    5  A    between atoms: C6_6  and  C8_8 
REMARK    6  A    between atoms: C6_6  and  C9_11 
REMARK    7  A    between atoms: C9_11  and  O3_13 
REMARK    8  A    between atoms: C16_20  and  O4_21 
REMARK    9  A    between atoms: C22_28  and  O5_29 
REMARK   10  A    between atoms: C24_32  and  O6_33 
ROOT
HETATM    1  C11 UNL     1     121.213  15.402  49.637  1.00  0.00     0.005 C 
HETATM    2  C12 UNL     1     121.131  16.761  49.056  1.00  0.00     0.006 C 
HETATM    3  C13 UNL     1     122.663  17.037  49.026  1.00  0.00     0.007 C 
HETATM    4  C14 UNL     1     122.982  16.793  50.489  1.00  0.00     0.010 C 
HETATM    5  C15 UNL     1     124.395  16.734  50.828  1.00  0.00     0.044 C 
HETATM    6  C16 UNL     1     125.213  17.320  49.696  1.00  0.00     0.124 C 
HETATM    7  C17 UNL     1     126.631  17.494  50.266  1.00  0.00     0.038 C 
HETATM    8  C18 UNL     1     127.182  16.079  50.339  1.00  0.00     0.011 C 
HETATM    9  C19 UNL     1     128.645  16.168  50.521  1.00  0.00    -0.017 C 
HETATM   10  C20 UNL     1     129.414  14.928  50.114  1.00  0.00     0.018 C 
HETATM   11  C21 UNL     1     129.164  17.273  49.580  1.00  0.00     0.018 C 
HETATM   12  C22 UNL     1     129.044  16.646  51.911  1.00  0.00     0.128 C 
HETATM   13  C23 UNL     1     128.413  15.736  52.902  1.00  0.00     0.065 C 
HETATM   14  C24 UNL     1     126.939  15.666  52.799  1.00  0.00     0.131 C 
HETATM   15  C25 UNL     1     126.427  15.325  51.390  1.00  0.00     0.009 C 
HETATM   16  C26 UNL     1     126.743  13.817  51.306  1.00  0.00     0.020 C 
HETATM   17  C27 UNL     1     124.956  15.430  51.324  1.00  0.00     0.060 C 
HETATM   18 CL1  UNL     1     124.411  15.136  53.028  1.00  0.00    -0.117 Cl
HETATM   19  C28 UNL     1     124.230  14.354  50.547  1.00  0.00     0.106 C 
HETATM   20  C29 UNL     1     122.826  14.404  51.124  1.00  0.00     0.137 C 
HETATM   21  O7  UNL     1     122.361  13.498  51.750  1.00  0.00    -0.297 OA
HETATM   22  C30 UNL     1     122.073  15.650  50.860  1.00  0.00     0.025 C 
HETATM   23  C31 UNL     1     121.172  16.052  51.985  1.00  0.00     0.024 C 
ENDROOT
BRANCH   1  24
HETATM   24  C2  UNL     1     120.072  14.535  49.717  1.00  0.00    -0.010 C 
HETATM   25  C1  UNL     1     118.704  15.057  49.980  1.00  0.00     0.010 C 
BRANCH  24  26
HETATM   26  C3  UNL     1     120.004  13.488  48.644  1.00  0.00     0.031 C 
BRANCH  26  27
HETATM   27  C4  UNL     1     119.467  13.911  47.342  1.00  0.00    -0.029 C 
HETATM   28  C5  UNL     1     120.305  14.251  46.347  1.00  0.00    -0.008 C 
BRANCH  28  29
HETATM   29  C6  UNL     1     119.873  14.687  45.013  1.00  0.00     0.087 C 
HETATM   30  C7  UNL     1     119.188  16.034  45.040  1.00  0.00     0.034 C 
BRANCH  29  31
HETATM   31  C8  UNL     1     119.000  13.729  44.330  1.00  0.00     0.188 C 
HETATM   32  O1  UNL     1     118.012  14.113  43.660  1.00  0.00    -0.647 OA
HETATM   33  O2  UNL     1     119.222  12.340  44.390  1.00  0.00    -0.647 OA
ENDBRANCH  29  31
BRANCH  29  34
HETATM   34  C9  UNL     1     121.114  14.861  44.135  1.00  0.00     0.136 C 
HETATM   35  C10 UNL     1     122.363  14.973  44.976  1.00  0.00     0.041 C 
BRANCH  34  36
HETATM   36  O3  UNL     1     121.210  13.827  43.209  1.00  0.00    -0.394 OA
ATOM     37  H3  UNL     1     122.116  13.575  43.081  1.00  0.00     0.210 HD
ENDBRANCH  34  36
ENDBRANCH  29  34
ENDBRANCH  28  29
ENDBRANCH  26  27
ENDBRANCH  24  26
ENDBRANCH   1  24
BRANCH   6  38
HETATM   38  O4  UNL     1     125.388  16.512  48.608  1.00  0.00    -0.395 OA
ATOM     39  H4  UNL     1     126.187  16.653  48.113  1.00  0.00     0.210 HD
ENDBRANCH   6  38
BRANCH  14  40
HETATM   40  O6  UNL     1     126.344  16.806  53.309  1.00  0.00    -0.395 OA
ATOM     41  H6  UNL     1     125.653  17.121  52.737  1.00  0.00     0.210 HD
ENDBRANCH  14  40
BRANCH  12  42
HETATM   42  O5  UNL     1     130.415  16.646  51.999  1.00  0.00    -0.395 OA
ATOM     43  H5  UNL     1     130.664  16.946  52.865  1.00  0.00     0.210 HD
ENDBRANCH  12  42
TORSDOF 10
ENDMDL
MODEL 2
REMARK VINA RESULT: -8.032513201      2.338      8.434
REMARK  10 active torsions:
REMARK  status: ('A' for Active; 'I' for Inactive)
REMARK    1  A    between atoms: C2_2  and  C3_3 
REMARK    2  A    between atoms: C2_2  and  C11_15 
REMARK    3  A    between atoms: C3_3  and  C4_4 
REMARK    4  A    between atoms: C5_5  and  C6_6 
REMARK    5  A    between atoms: C6_6  and  C8_8 
REMARK    6  A    between atoms: C6_6  and  C9_11 
REMARK    7  A    between atoms: C9_11  and  O3_13 
REMARK    8  A    between atoms: C16_20  and  O4_21 
REMARK    9  A    between atoms: C22_28  and  O5_29 
REMARK   10  A    between atoms: C24_32  and  O6_33 
ROOT
HETATM    1  C11 UNL     1     122.941  14.802  51.448  1.00  0.00     0.005 C 
HETATM    2  C12 UNL     1     122.088  13.953  52.310  1.00  0.00     0.006 C 
HETATM    3  C13 UNL     1     121.132  13.457  51.184  1.00  0.00     0.007 C 
HETATM    4  C14 UNL     1     120.671  14.799  50.649  1.00  0.00     0.010 C 
HETATM    5  C15 UNL     1     119.916  14.761  49.407  1.00  0.00     0.044 C 
HETATM    6  C16 UNL     1     119.436  13.347  49.149  1.00  0.00     0.124 C 
HETATM    7  C17 UNL     1     118.412  13.467  48.007  1.00  0.00     0.038 C 
HETATM    8  C18 UNL     1     119.257  13.733  46.772  1.00  0.00     0.011 C 
HETATM    9  C19 UNL     1     118.413  13.498  45.584  1.00  0.00    -0.017 C 
HETATM   10  C20 UNL     1     119.176  13.216  44.306  1.00  0.00     0.018 C 
HETATM   11  C21 UNL     1     117.596  12.216  45.838  1.00  0.00     0.018 C 
HETATM   12  C22 UNL     1     117.356  14.577  45.381  1.00  0.00     0.128 C 
HETATM   13  C23 UNL     1     118.054  15.888  45.320  1.00  0.00     0.065 C 
HETATM   14  C24 UNL     1     118.861  16.195  46.521  1.00  0.00     0.131 C 
HETATM   15  C25 UNL     1     119.868  15.095  46.894  1.00  0.00     0.009 C 
HETATM   16  C26 UNL     1     120.956  15.297  45.819  1.00  0.00     0.020 C 
HETATM   17  C27 UNL     1     120.521  15.393  48.185  1.00  0.00     0.060 C 
HETATM   18 CL1  UNL     1     120.436  17.198  48.320  1.00  0.00    -0.117 Cl
HETATM   19  C28 UNL     1     122.005  15.116  48.278  1.00  0.00     0.106 C 
HETATM   20  C29 UNL     1     122.448  16.010  49.422  1.00  0.00     0.137 C 
HETATM   21  O7  UNL     1     123.187  16.936  49.259  1.00  0.00    -0.297 OA
HETATM   22  C30 UNL     1     121.903  15.661  50.752  1.00  0.00     0.025 C 
HETATM   23  C31 UNL     1     121.631  16.850  51.617  1.00  0.00     0.024 C 
ENDROOT
BRANCH   1  24
HETATM   24  C2  UNL     1     124.164  15.386  51.922  1.00  0.00    -0.010 C 
HETATM   25  C1  UNL     1     124.337  15.811  53.336  1.00  0.00     0.010 C 
BRANCH  24  26
HETATM   26  C3  UNL     1     125.410  14.689  51.458  1.00  0.00     0.031 C 
BRANCH  26  27
HETATM   27  C4  UNL     1     125.897  15.032  50.113  1.00  0.00    -0.029 C 
HETATM   28  C5  UNL     1     126.531  16.199  49.904  1.00  0.00    -0.008 C 
BRANCH  28  29
HETATM   29  C6  UNL     1     127.054  16.636  48.603  1.00  0.00     0.087 C 
HETATM   30  C7  UNL     1     126.088  16.364  47.473  1.00  0.00     0.034 C 
BRANCH  29  31
HETATM   31  C8  UNL     1     128.354  16.054  48.261  1.00  0.00     0.188 C 
HETATM   32  O1  UNL     1     128.623  15.712  47.085  1.00  0.00    -0.647 OA
HETATM   33  O2  UNL     1     129.360  15.852  49.224  1.00  0.00    -0.647 OA
ENDBRANCH  29  31
BRANCH  29  34
HETATM   34  C9  UNL     1     127.242  18.153  48.642  1.00  0.00     0.136 C 
HETATM   35  C10 UNL     1     126.970  18.700  50.023  1.00  0.00     0.041 C 
BRANCH  34  36
HETATM   36  O3  UNL     1     128.512  18.503  48.194  1.00  0.00    -0.394 OA
ATOM     37  H3  UNL     1     128.667  19.432  48.316  1.00  0.00     0.210 HD
ENDBRANCH  34  36
ENDBRANCH  29  34
ENDBRANCH  28  29
ENDBRANCH  26  27
ENDBRANCH  24  26
ENDBRANCH   1  24
BRANCH   6  38
HETATM   38  O4  UNL     1     120.375  12.480  48.665  1.00  0.00    -0.395 OA
ATOM     39  H4  UNL     1     120.054  11.816  48.066  1.00  0.00     0.210 HD
ENDBRANCH   6  38
BRANCH  14  40
HETATM   40  O6  UNL     1     118.058  16.551  47.590  1.00  0.00    -0.395 OA
ATOM     41  H6  UNL     1     118.302  16.079  48.378  1.00  0.00     0.210 HD
ENDBRANCH  14  40
BRANCH  12  42
HETATM   42  O5  UNL     1     116.661  14.300  44.230  1.00  0.00    -0.395 OA
ATOM     43  H5  UNL     1     117.204  14.527  43.484  1.00  0.00     0.210 HD
ENDBRANCH  12  42
TORSDOF 10
ENDMDL
MODEL 3
REMARK VINA RESULT: -7.852865138      1.735      2.239
REMARK  10 active torsions:
REMARK  status: ('A' for Active; 'I' for Inactive)
REMARK    1  A    between atoms: C2_2  and  C3_3 
REMARK    2  A    between atoms: C2_2  and  C11_15 
REMARK    3  A    between atoms: C3_3  and  C4_4 
REMARK    4  A    between atoms: C5_5  and  C6_6 
REMARK    5  A    between atoms: C6_6  and  C8_8 
REMARK    6  A    between atoms: C6_6  and  C9_11 
REMARK    7  A    between atoms: C9_11  and  O3_13 
REMARK    8  A    between atoms: C16_20  and  O4_21 
REMARK    9  A    between atoms: C22_28  and  O5_29 
REMARK   10  A    between atoms: C24_32  and  O6_33 
ROOT
HETATM    1  C11 UNL     1     120.972  15.572  49.020  1.00  0.00     0.005 C 
HETATM    2  C12 UNL     1     121.077  16.084  47.635  1.00  0.00     0.006 C 
HETATM    3  C13 UNL     1     122.633  16.092  47.564  1.00  0.00     0.007 C 
HETATM    4  C14 UNL     1     122.927  16.954  48.777  1.00  0.00     0.010 C 
HETATM    5  C15 UNL     1     124.321  17.013  49.189  1.00  0.00     0.044 C 
HETATM    6  C16 UNL     1     125.203  16.507  48.067  1.00  0.00     0.124 C 
HETATM    7  C17 UNL     1     126.636  16.891  48.471  1.00  0.00     0.038 C 
HETATM    8  C18 UNL     1     126.982  15.924  49.591  1.00  0.00     0.011 C 
HETATM    9  C19 UNL     1     128.445  15.965  49.793  1.00  0.00    -0.017 C 
HETATM   10  C20 UNL     1     129.027  14.746  50.478  1.00  0.00     0.018 C 
HETATM   11  C21 UNL     1     129.107  15.981  48.401  1.00  0.00     0.018 C 
HETATM   12  C22 UNL     1     128.920  17.258  50.445  1.00  0.00     0.128 C 
HETATM   13  C23 UNL     1     128.176  17.422  51.721  1.00  0.00     0.065 C 
HETATM   14  C24 UNL     1     126.705  17.452  51.559  1.00  0.00     0.131 C 
HETATM   15  C25 UNL     1     126.139  16.251  50.784  1.00  0.00     0.009 C 
HETATM   16  C26 UNL     1     126.237  15.131  51.840  1.00  0.00     0.020 C 
HETATM   17  C27 UNL     1     124.696  16.427  50.522  1.00  0.00     0.060 C 
HETATM   18 CL1  UNL     1     124.131  17.519  51.853  1.00  0.00    -0.117 Cl
HETATM   19  C28 UNL     1     123.818  15.206  50.690  1.00  0.00     0.106 C 
HETATM   20  C29 UNL     1     122.441  15.804  50.916  1.00  0.00     0.137 C 
HETATM   21  O7  UNL     1     121.858  15.690  51.954  1.00  0.00    -0.297 OA
HETATM   22  C30 UNL     1     121.869  16.539  49.767  1.00  0.00     0.025 C 
HETATM   23  C31 UNL     1     121.044  17.722  50.165  1.00  0.00     0.024 C 
ENDROOT
BRANCH   1  24
HETATM   24  C2  UNL     1     119.720  15.159  49.588  1.00  0.00    -0.010 C 
HETATM   25  C1  UNL     1     118.446  15.859  49.279  1.00  0.00     0.010 C 
BRANCH  24  26
HETATM   26  C3  UNL     1     119.486  13.676  49.575  1.00  0.00     0.031 C 
BRANCH  26  27
HETATM   27  C4  UNL     1     118.461  13.178  48.646  1.00  0.00    -0.029 C 
HETATM   28  C5  UNL     1     118.764  12.979  47.351  1.00  0.00    -0.008 C 
BRANCH  28  29
HETATM   29  C6  UNL     1     117.816  12.486  46.344  1.00  0.00     0.087 C 
HETATM   30  C7  UNL     1     116.483  13.194  46.413  1.00  0.00     0.034 C 
BRANCH  29  31
HETATM   31  C8  UNL     1     117.585  11.041  46.404  1.00  0.00     0.188 C 
HETATM   32  O1  UNL     1     116.493  10.542  46.042  1.00  0.00    -0.647 OA
HETATM   33  O2  UNL     1     118.567  10.145  46.865  1.00  0.00    -0.647 OA
ENDBRANCH  29  31
BRANCH  29  34
HETATM   34  C9  UNL     1     118.384  12.789  44.956  1.00  0.00     0.136 C 
HETATM   35  C10 UNL     1     119.473  13.833  45.030  1.00  0.00     0.041 C 
BRANCH  34  36
HETATM   36  O3  UNL     1     118.832  11.623  44.344  1.00  0.00    -0.394 OA
ATOM     37  H3  UNL     1     119.731  11.439  44.590  1.00  0.00     0.210 HD
ENDBRANCH  34  36
ENDBRANCH  29  34
ENDBRANCH  28  29
ENDBRANCH  26  27
ENDBRANCH  24  26
ENDBRANCH   1  24
BRANCH   6  38
HETATM   38  O4  UNL     1     125.253  15.149  47.916  1.00  0.00    -0.395 OA
ATOM     39  H4  UNL     1     125.945  14.821  47.354  1.00  0.00     0.210 HD
ENDBRANCH   6  38
BRANCH  14  40
HETATM   40  O6  UNL     1     126.282  18.660  51.033  1.00  0.00    -0.395 OA
ATOM     41  H6  UNL     1     125.502  18.975  51.476  1.00  0.00     0.210 HD
ENDBRANCH  14  40
BRANCH  12  42
HETATM   42  O5  UNL     1     130.278  17.179  50.637  1.00  0.00    -0.395 OA
ATOM     43  H5  UNL     1     130.664  18.022  50.429  1.00  0.00     0.210 HD
ENDBRANCH  12  42
TORSDOF 10
ENDMDL
MODEL 4
REMARK VINA RESULT: -7.835444828      2.519      7.777
REMARK  10 active torsions:
REMARK  status: ('A' for Active; 'I' for Inactive)
REMARK    1  A    between atoms: C2_2  and  C3_3 
REMARK    2  A    between atoms: C2_2  and  C11_15 
REMARK    3  A    between atoms: C3_3  and  C4_4 
REMARK    4  A    between atoms: C5_5  and  C6_6 
REMARK    5  A    between atoms: C6_6  and  C8_8 
REMARK    6  A    between atoms: C6_6  and  C9_11 
REMARK    7  A    between atoms: C9_11  and  O3_13 
REMARK    8  A    between atoms: C16_20  and  O4_21 
REMARK    9  A    between atoms: C22_28  and  O5_29 
REMARK   10  A    between atoms: C24_32  and  O6_33 
ROOT
HETATM    1  C11 UNL     1     125.380  14.057  52.608  1.00  0.00     0.005 C 
HETATM    2  C12 UNL     1     125.050  12.614  52.615  1.00  0.00     0.006 C 
HETATM    3  C13 UNL     1     123.859  12.697  51.615  1.00  0.00     0.007 C 
HETATM    4  C14 UNL     1     123.011  13.731  52.332  1.00  0.00     0.010 C 
HETATM    5  C15 UNL     1     121.884  14.257  51.580  1.00  0.00     0.044 C 
HETATM    6  C16 UNL     1     121.598  13.355  50.397  1.00  0.00     0.124 C 
HETATM    7  C17 UNL     1     120.231  13.812  49.858  1.00  0.00     0.038 C 
HETATM    8  C18 UNL     1     120.522  15.136  49.170  1.00  0.00     0.011 C 
HETATM    9  C19 UNL     1     119.366  15.468  48.314  1.00  0.00    -0.017 C 
HETATM   10  C20 UNL     1     119.662  16.443  47.193  1.00  0.00     0.018 C 
HETATM   11  C21 UNL     1     118.929  14.175  47.598  1.00  0.00     0.018 C 
HETATM   12  C22 UNL     1     118.135  15.885  49.111  1.00  0.00     0.128 C 
HETATM   13  C23 UNL     1     118.527  17.020  49.987  1.00  0.00     0.065 C 
HETATM   14  C24 UNL     1     119.641  16.711  50.909  1.00  0.00     0.131 C 
HETATM   15  C25 UNL     1     120.890  16.147  50.211  1.00  0.00     0.009 C 
HETATM   16  C26 UNL     1     121.472  17.415  49.552  1.00  0.00     0.020 C 
HETATM   17  C27 UNL     1     121.896  15.712  51.202  1.00  0.00     0.060 C 
HETATM   18 CL1  UNL     1     121.552  16.729  52.661  1.00  0.00    -0.117 Cl
HETATM   19  C28 UNL     1     123.340  16.039  50.894  1.00  0.00     0.106 C 
HETATM   20  C29 UNL     1     123.998  16.001  52.262  1.00  0.00     0.137 C 
HETATM   21  O7  UNL     1     124.458  16.977  52.777  1.00  0.00    -0.297 OA
HETATM   22  C30 UNL     1     124.030  14.675  52.916  1.00  0.00     0.025 C 
HETATM   23  C31 UNL     1     123.880  14.739  54.404  1.00  0.00     0.024 C 
ENDROOT
BRANCH   1  24
HETATM   24  C2  UNL     1     126.570  14.571  53.224  1.00  0.00    -0.010 C 
HETATM   25  C1  UNL     1     127.108  14.007  54.490  1.00  0.00     0.010 C 
BRANCH  24  26
HETATM   26  C3  UNL     1     127.704  14.830  52.275  1.00  0.00     0.031 C 
BRANCH  26  27
HETATM   27  C4  UNL     1     127.349  15.057  50.867  1.00  0.00    -0.029 C 
HETATM   28  C5  UNL     1     127.608  16.243  50.289  1.00  0.00    -0.008 C 
BRANCH  28  29
HETATM   29  C6  UNL     1     127.293  16.571  48.893  1.00  0.00     0.087 C 
HETATM   30  C7  UNL     1     125.919  16.091  48.484  1.00  0.00     0.034 C 
BRANCH  29  31
HETATM   31  C8  UNL     1     128.274  16.067  47.930  1.00  0.00     0.188 C 
HETATM   32  O1  UNL     1     129.460  15.839  48.269  1.00  0.00    -0.647 OA
HETATM   33  O2  UNL     1     127.942  15.814  46.586  1.00  0.00    -0.647 OA
ENDBRANCH  29  31
BRANCH  29  34
HETATM   34  C9  UNL     1     127.269  18.094  48.748  1.00  0.00     0.136 C 
HETATM   35  C10 UNL     1     126.992  18.763  50.073  1.00  0.00     0.041 C 
BRANCH  34  36
HETATM   36  O3  UNL     1     128.454  18.552  48.181  1.00  0.00    -0.394 OA
ATOM     37  H3  UNL     1     128.289  18.948  47.333  1.00  0.00     0.210 HD
ENDBRANCH  34  36
ENDBRANCH  29  34
ENDBRANCH  28  29
ENDBRANCH  26  27
ENDBRANCH  24  26
ENDBRANCH   1  24
BRANCH   6  38
HETATM   38  O4  UNL     1     122.439  13.491  49.328  1.00  0.00    -0.395 OA
ATOM     39  H4  UNL     1     122.263  12.921  48.589  1.00  0.00     0.210 HD
ENDBRANCH   6  38
BRANCH  14  40
HETATM   40  O6  UNL     1     119.221  15.909  51.955  1.00  0.00    -0.395 OA
ATOM     41  H6  UNL     1     119.511  15.011  51.841  1.00  0.00     0.210 HD
ENDBRANCH  14  40
BRANCH  12  42
HETATM   42  O5  UNL     1     117.136  16.222  48.231  1.00  0.00    -0.395 OA
ATOM     43  H5  UNL     1     116.585  15.461  48.091  1.00  0.00     0.210 HD
ENDBRANCH  12  42
TORSDOF 10
ENDMDL
MODEL 5
REMARK VINA RESULT: -7.822601499      1.640      2.254
REMARK  10 active torsions:
REMARK  status: ('A' for Active; 'I' for Inactive)
REMARK    1  A    between atoms: C2_2  and  C3_3 
REMARK    2  A    between atoms: C2_2  and  C11_15 
REMARK    3  A    between atoms: C3_3  and  C4_4 
REMARK    4  A    between atoms: C5_5  and  C6_6 
REMARK    5  A    between atoms: C6_6  and  C8_8 
REMARK    6  A    between atoms: C6_6  and  C9_11 
REMARK    7  A    between atoms: C9_11  and  O3_13 
REMARK    8  A    between atoms: C16_20  and  O4_21 
REMARK    9  A    between atoms: C22_28  and  O5_29 
REMARK   10  A    between atoms: C24_32  and  O6_33 
ROOT
HETATM    1  C11 UNL     1     121.289  15.475  49.062  1.00  0.00     0.005 C 
HETATM    2  C12 UNL     1     121.307  16.733  48.282  1.00  0.00     0.006 C 
HETATM    3  C13 UNL     1     122.847  16.961  48.343  1.00  0.00     0.007 C 
HETATM    4  C14 UNL     1     123.037  16.931  49.848  1.00  0.00     0.010 C 
HETATM    5  C15 UNL     1     124.415  16.885  50.311  1.00  0.00     0.044 C 
HETATM    6  C16 UNL     1     125.343  17.273  49.179  1.00  0.00     0.124 C 
HETATM    7  C17 UNL     1     126.717  17.492  49.836  1.00  0.00     0.038 C 
HETATM    8  C18 UNL     1     127.203  16.089  50.164  1.00  0.00     0.011 C 
HETATM    9  C19 UNL     1     128.649  16.165  50.455  1.00  0.00    -0.017 C 
HETATM   10  C20 UNL     1     129.399  14.859  50.303  1.00  0.00     0.018 C 
HETATM   11  C21 UNL     1     129.286  17.102  49.409  1.00  0.00     0.018 C 
HETATM   12  C22 UNL     1     128.954  16.837  51.789  1.00  0.00     0.128 C 
HETATM   13  C23 UNL     1     128.210  16.103  52.845  1.00  0.00     0.065 C 
HETATM   14  C24 UNL     1     126.747  16.058  52.628  1.00  0.00     0.131 C 
HETATM   15  C25 UNL     1     126.338  15.523  51.247  1.00  0.00     0.009 C 
HETATM   16  C26 UNL     1     126.600  14.011  51.413  1.00  0.00     0.020 C 
HETATM   17  C27 UNL     1     124.881  15.657  51.040  1.00  0.00     0.060 C 
HETATM   18 CL1  UNL     1     124.191  15.637  52.716  1.00  0.00    -0.117 Cl
HETATM   19  C28 UNL     1     124.179  14.496  50.371  1.00  0.00     0.106 C 
HETATM   20  C29 UNL     1     122.737  14.670  50.812  1.00  0.00     0.137 C 
HETATM   21  O7  UNL     1     122.187  13.881  51.523  1.00  0.00    -0.297 OA
HETATM   22  C30 UNL     1     122.057  15.882  50.305  1.00  0.00     0.025 C 
HETATM   23  C31 UNL     1     121.084  16.472  51.276  1.00  0.00     0.024 C 
ENDROOT
BRANCH   1  24
HETATM   24  C2  UNL     1     120.111  14.662  49.172  1.00  0.00    -0.010 C 
HETATM   25  C1  UNL     1     118.744  15.236  49.060  1.00  0.00     0.010 C 
BRANCH  24  26
HETATM   26  C3  UNL     1     120.169  13.370  48.409  1.00  0.00     0.031 C 
BRANCH  26  27
HETATM   27  C4  UNL     1     119.414  13.313  47.148  1.00  0.00    -0.029 C 
HETATM   28  C5  UNL     1     118.559  12.301  46.920  1.00  0.00    -0.008 C 
BRANCH  28  29
HETATM   29  C6  UNL     1     117.760  12.152  45.698  1.00  0.00     0.087 C 
HETATM   30  C7  UNL     1     118.560  12.436  44.448  1.00  0.00     0.034 C 
BRANCH  29  31
HETATM   31  C8  UNL     1     116.548  12.973  45.678  1.00  0.00     0.188 C 
HETATM   32  O1  UNL     1     115.983  13.271  44.598  1.00  0.00    -0.647 OA
HETATM   33  O2  UNL     1     115.958  13.467  46.856  1.00  0.00    -0.647 OA
ENDBRANCH  29  31
BRANCH  29  34
HETATM   34  C9  UNL     1     117.310  10.693  45.589  1.00  0.00     0.136 C 
HETATM   35  C10 UNL     1     118.147   9.799  46.473  1.00  0.00     0.041 C 
BRANCH  34  36
HETATM   36  O3  UNL     1     115.954  10.575  45.877  1.00  0.00    -0.394 OA
ATOM     37  H3  UNL     1     115.556   9.898  45.343  1.00  0.00     0.210 HD
ENDBRANCH  34  36
ENDBRANCH  29  34
ENDBRANCH  28  29
ENDBRANCH  26  27
ENDBRANCH  24  26
ENDBRANCH   1  24
BRANCH   6  38
HETATM   38  O4  UNL     1     125.574  16.305  48.241  1.00  0.00    -0.395 OA
ATOM     39  H4  UNL     1     126.169  16.544  47.540  1.00  0.00     0.210 HD
ENDBRANCH   6  38
BRANCH  14  40
HETATM   40  O6  UNL     1     126.158  17.278  52.911  1.00  0.00    -0.395 OA
ATOM     41  H6  UNL     1     125.345  17.388  52.433  1.00  0.00     0.210 HD
ENDBRANCH  14  40
BRANCH  12  42
HETATM   42  O5  UNL     1     130.312  16.813  51.992  1.00  0.00    -0.395 OA
ATOM     43  H5  UNL     1     130.658  16.000  51.642  1.00  0.00     0.210 HD
ENDBRANCH  12  42
TORSDOF 10
ENDMDL
