MODEL 1
REMARK VINA RESULT: -8.270010093      0.000      0.000
REMARK  13 active torsions:
REMARK  status: ('A' for Active; 'I' for Inactive)
REMARK    1  A    between atoms: C2_2  and  C3_3 
REMARK    2  A    between atoms: C2_2  and  C12_13 
REMARK    3  A    between atoms: C5_5  and  O1_6 
REMARK    4  A    between atoms: O1_6  and  C6_7 
REMARK    5  A    between atoms: C19_20  and  C20_21 
REMARK    6  A    between atoms: C20_21  and  O2_22 
REMARK    7  A    between atoms: C20_21  and  C21_24 
REMARK    8  A    between atoms: C21_24  and  O3_26 
REMARK    9  A    between atoms: C21_24  and  C23_28 
REMARK   10  A    between atoms: C23_28  and  C24_29 
REMARK   11  A    between atoms: C24_29  and  O4_30 
REMARK   12  A    between atoms: C25_32  and  O5_33 
REMARK   13  A    between atoms: C28_38  and  O6_39 
ROOT
HETATM    1  C12 UNL     1     124.430  16.244  47.007  1.00  0.00     0.023 C 
HETATM    2  C13 UNL     1     123.767  16.690  48.338  1.00  0.00     0.010 C 
HETATM    3  C14 UNL     1     122.617  15.718  48.510  1.00  0.00     0.006 C 
HETATM    4  C15 UNL     1     122.208  15.568  47.094  1.00  0.00    -0.001 C 
HETATM    5  C16 UNL     1     121.136  14.547  46.815  1.00  0.00    -0.003 C 
HETATM    6  C17 UNL     1     119.990  14.853  47.717  1.00  0.00     0.006 C 
HETATM    7  C18 UNL     1     118.622  14.562  47.237  1.00  0.00     0.018 C 
HETATM    8  C19 UNL     1     118.472  13.949  45.869  1.00  0.00     0.049 C 
HETATM    9  C25 UNL     1     117.202  14.345  45.177  1.00  0.00     0.135 C 
HETATM   10  C26 UNL     1     117.512  14.924  43.822  1.00  0.00     0.073 C 
HETATM   11  C27 UNL     1     119.011  14.845  43.645  1.00  0.00     0.208 C 
HETATM   12  F1  UNL     1     119.328  16.066  43.011  1.00  0.00    -0.246 F 
HETATM   13  C28 UNL     1     119.448  14.815  45.054  1.00  0.00     0.105 C 
HETATM   14  C29 UNL     1     120.873  14.548  45.349  1.00  0.00     0.028 C 
HETATM   15  C30 UNL     1     121.722  15.576  44.638  1.00  0.00     0.009 C 
HETATM   16  C31 UNL     1     123.187  15.498  44.926  1.00  0.00     0.011 C 
HETATM   17  C32 UNL     1     123.521  15.260  46.396  1.00  0.00    -0.033 C 
HETATM   18  C33 UNL     1     123.925  13.827  46.515  1.00  0.00     0.016 C 
ENDROOT
BRANCH   1  19
HETATM   19  C2  UNL     1     125.815  15.915  47.339  1.00  0.00    -0.073 C 
HETATM   20  C1  UNL     1     126.778  15.676  46.202  1.00  0.00     0.044 C 
BRANCH  19  21
HETATM   21  C3  UNL     1     126.457  16.550  48.512  1.00  0.00    -0.057 C 
HETATM   22  C4  UNL     1     126.738  16.140  49.722  1.00  0.00     0.012 C 
HETATM   23  C5  UNL     1     127.415  17.210  50.552  1.00  0.00     0.146 C 
HETATM   24  C10 UNL     1     126.958  18.457  49.864  1.00  0.00     0.040 C 
HETATM   25  C11 UNL     1     126.943  17.993  48.424  1.00  0.00     0.041 C 
BRANCH  23  26
HETATM   26  O1  UNL     1     128.783  17.006  50.373  1.00  0.00    -0.372 OA
BRANCH  26  27
HETATM   27  C6  UNL     1     129.488  16.996  51.565  1.00  0.00     0.051 C 
HETATM   28  C7  UNL     1     130.239  15.683  51.631  1.00  0.00     0.045 C 
HETATM   29  C8  UNL     1     128.611  17.091  52.775  1.00  0.00     0.045 C 
HETATM   30  C9  UNL     1     130.516  18.103  51.638  1.00  0.00     0.045 C 
ENDBRANCH  26  27
ENDBRANCH  23  26
ENDBRANCH  19  21
ENDBRANCH   1  19
BRANCH  13  31
HETATM   31  O6  UNL     1     119.088  16.141  45.473  1.00  0.00    -0.386 OA
ATOM     32  H6  UNL     1     119.748  16.670  45.040  1.00  0.00     0.210 HD
ENDBRANCH  13  31
BRANCH   8  33
HETATM   33  C20 UNL     1     118.764  12.509  45.861  1.00  0.00     0.170 C 
BRANCH  33  34
HETATM   34  O2  UNL     1     118.948  11.997  44.557  1.00  0.00    -0.391 OA
ATOM     35  H2  UNL     1     119.864  11.869  44.339  1.00  0.00     0.210 HD
ENDBRANCH  33  34
BRANCH  33  36
HETATM   36  C21 UNL     1     118.067  11.545  46.703  1.00  0.00     0.100 C 
HETATM   37  C22 UNL     1     118.514  11.732  48.203  1.00  0.00     0.053 C 
BRANCH  36  38
HETATM   38  O3  UNL     1     116.663  11.747  46.860  1.00  0.00    -0.383 OA
ATOM     39  H3  UNL     1     116.351  11.847  47.752  1.00  0.00     0.211 HD
ENDBRANCH  36  38
BRANCH  36  40
HETATM   40  C23 UNL     1     118.158  10.085  46.473  1.00  0.00     0.036 C 
BRANCH  40  41
HETATM   41  C24 UNL     1     117.229   9.327  45.653  1.00  0.00     0.130 C 
BRANCH  41  42
HETATM   42  O4  UNL     1     116.702   9.772  44.505  1.00  0.00    -0.373 OA
ATOM     43  H4  UNL     1     115.780   9.721  44.284  1.00  0.00     0.216 HD
ENDBRANCH  41  42
ENDBRANCH  40  41
ENDBRANCH  36  40
ENDBRANCH  33  36
ENDBRANCH   8  33
BRANCH   9  44
HETATM   44  O5  UNL     1     116.477  15.261  45.969  1.00  0.00    -0.395 OA
ATOM     45  H5  UNL     1     115.968  14.799  46.625  1.00  0.00     0.210 HD
ENDBRANCH   9  44
TORSDOF 13
ENDMDL
MODEL 2
REMARK VINA RESULT: -7.728740528      0.829      1.416
REMARK  13 active torsions:
REMARK  status: ('A' for Active; 'I' for Inactive)
REMARK    1  A    between atoms: C2_2  and  C3_3 
REMARK    2  A    between atoms: C2_2  and  C12_13 
REMARK    3  A    between atoms: C5_5  and  O1_6 
REMARK    4  A    between atoms: O1_6  and  C6_7 
REMARK    5  A    between atoms: C19_20  and  C20_21 
REMARK    6  A    between atoms: C20_21  and  O2_22 
REMARK    7  A    between atoms: C20_21  and  C21_24 
REMARK    8  A    between atoms: C21_24  and  O3_26 
REMARK    9  A    between atoms: C21_24  and  C23_28 
REMARK   10  A    between atoms: C23_28  and  C24_29 
REMARK   11  A    between atoms: C24_29  and  O4_30 
REMARK   12  A    between atoms: C25_32  and  O5_33 
REMARK   13  A    between atoms: C28_38  and  O6_39 
ROOT
HETATM    1  C12 UNL     1     124.382  16.221  46.950  1.00  0.00     0.023 C 
HETATM    2  C13 UNL     1     123.710  16.647  48.282  1.00  0.00     0.010 C 
HETATM    3  C14 UNL     1     122.545  15.687  48.422  1.00  0.00     0.006 C 
HETATM    4  C15 UNL     1     122.150  15.573  46.998  1.00  0.00    -0.001 C 
HETATM    5  C16 UNL     1     121.068  14.572  46.686  1.00  0.00    -0.003 C 
HETATM    6  C17 UNL     1     119.916  14.874  47.582  1.00  0.00     0.006 C 
HETATM    7  C18 UNL     1     118.550  14.612  47.081  1.00  0.00     0.018 C 
HETATM    8  C19 UNL     1     118.407  14.030  45.699  1.00  0.00     0.049 C 
HETATM    9  C25 UNL     1     117.149  14.458  45.002  1.00  0.00     0.135 C 
HETATM   10  C26 UNL     1     117.482  15.062  43.664  1.00  0.00     0.073 C 
HETATM   11  C27 UNL     1     118.982  14.967  43.501  1.00  0.00     0.208 C 
HETATM   12  F1  UNL     1     119.322  16.196  42.896  1.00  0.00    -0.246 F 
HETATM   13  C28 UNL     1     119.403  14.901  44.913  1.00  0.00     0.105 C 
HETATM   14  C29 UNL     1     120.821  14.608  45.218  1.00  0.00     0.028 C 
HETATM   15  C30 UNL     1     121.691  15.640  44.538  1.00  0.00     0.009 C 
HETATM   16  C31 UNL     1     123.152  15.537  44.840  1.00  0.00     0.011 C 
HETATM   17  C32 UNL     1     123.466  15.263  46.308  1.00  0.00    -0.033 C 
HETATM   18  C33 UNL     1     123.851  13.822  46.400  1.00  0.00     0.016 C 
ENDROOT
BRANCH   1  19
HETATM   19  C2  UNL     1     125.758  15.867  47.289  1.00  0.00    -0.073 C 
HETATM   20  C1  UNL     1     126.731  15.639  46.158  1.00  0.00     0.044 C 
BRANCH  19  21
HETATM   21  C3  UNL     1     126.396  16.468  48.482  1.00  0.00    -0.057 C 
HETATM   22  C4  UNL     1     126.677  16.022  49.679  1.00  0.00     0.012 C 
HETATM   23  C5  UNL     1     127.348  17.069  50.544  1.00  0.00     0.146 C 
HETATM   24  C10 UNL     1     126.885  18.334  49.893  1.00  0.00     0.040 C 
HETATM   25  C11 UNL     1     126.875  17.915  48.440  1.00  0.00     0.041 C 
BRANCH  23  26
HETATM   26  O1  UNL     1     128.717  16.877  50.361  1.00  0.00    -0.372 OA
BRANCH  26  27
HETATM   27  C6  UNL     1     129.425  16.866  51.551  1.00  0.00     0.051 C 
HETATM   28  C7  UNL     1     130.204  15.568  51.598  1.00  0.00     0.045 C 
HETATM   29  C8  UNL     1     128.549  16.928  52.764  1.00  0.00     0.045 C 
HETATM   30  C9  UNL     1     130.430  17.994  51.635  1.00  0.00     0.045 C 
ENDBRANCH  26  27
ENDBRANCH  23  26
ENDBRANCH  19  21
ENDBRANCH   1  19
BRANCH  13  31
HETATM   31  O6  UNL     1     119.056  16.222  45.357  1.00  0.00    -0.386 OA
ATOM     32  H6  UNL     1     118.112  16.158  45.441  1.00  0.00     0.210 HD
ENDBRANCH  13  31
BRANCH   8  33
HETATM   33  C20 UNL     1     118.680  12.587  45.663  1.00  0.00     0.170 C 
BRANCH  33  34
HETATM   34  O2  UNL     1     118.655  12.060  44.352  1.00  0.00    -0.391 OA
ATOM     35  H2  UNL     1     117.948  11.439  44.220  1.00  0.00     0.210 HD
ENDBRANCH  33  34
BRANCH  33  36
HETATM   36  C21 UNL     1     118.112  11.640  46.614  1.00  0.00     0.100 C 
HETATM   37  C22 UNL     1     116.805  11.001  46.010  1.00  0.00     0.053 C 
BRANCH  36  38
HETATM   38  O3  UNL     1     118.863  10.447  46.838  1.00  0.00    -0.383 OA
ATOM     39  H3  UNL     1     118.776  10.053  47.698  1.00  0.00     0.211 HD
ENDBRANCH  36  38
BRANCH  36  40
HETATM   40  C23 UNL     1     117.724  12.038  47.987  1.00  0.00     0.036 C 
BRANCH  40  41
HETATM   41  C24 UNL     1     118.530  11.786  49.170  1.00  0.00     0.130 C 
BRANCH  41  42
HETATM   42  O4  UNL     1     119.821  12.122  49.287  1.00  0.00    -0.373 OA
ATOM     43  H4  UNL     1     120.523  11.501  49.445  1.00  0.00     0.216 HD
ENDBRANCH  41  42
ENDBRANCH  40  41
ENDBRANCH  36  40
ENDBRANCH  33  36
ENDBRANCH   8  33
BRANCH   9  44
HETATM   44  O5  UNL     1     116.429  15.366  45.806  1.00  0.00    -0.395 OA
ATOM     45  H5  UNL     1     116.895  16.192  45.871  1.00  0.00     0.210 HD
ENDBRANCH   9  44
TORSDOF 13
ENDMDL
MODEL 3
REMARK VINA RESULT: -7.689591870      2.757     10.495
REMARK  13 active torsions:
REMARK  status: ('A' for Active; 'I' for Inactive)
REMARK    1  A    between atoms: C2_2  and  C3_3 
REMARK    2  A    between atoms: C2_2  and  C12_13 
REMARK    3  A    between atoms: C5_5  and  O1_6 
REMARK    4  A    between atoms: O1_6  and  C6_7 
REMARK    5  A    between atoms: C19_20  and  C20_21 
REMARK    6  A    between atoms: C20_21  and  O2_22 
REMARK    7  A    between atoms: C20_21  and  C21_24 
REMARK    8  A    between atoms: C21_24  and  O3_26 
REMARK    9  A    between atoms: C21_24  and  C23_28 
REMARK   10  A    between atoms: C23_28  and  C24_29 
REMARK   11  A    between atoms: C24_29  and  O4_30 
REMARK   12  A    between atoms: C25_32  and  O5_33 
REMARK   13  A    between atoms: C28_38  and  O6_39 
ROOT
HETATM    1  C12 UNL     1     121.002  15.426  48.276  1.00  0.00     0.023 C 
HETATM    2  C13 UNL     1     120.962  16.969  48.429  1.00  0.00     0.010 C 
HETATM    3  C14 UNL     1     122.424  17.362  48.503  1.00  0.00     0.006 C 
HETATM    4  C15 UNL     1     122.948  16.210  49.276  1.00  0.00    -0.001 C 
HETATM    5  C16 UNL     1     124.442  16.156  49.457  1.00  0.00    -0.003 C 
HETATM    6  C17 UNL     1     124.866  17.469  50.021  1.00  0.00     0.006 C 
HETATM    7  C18 UNL     1     126.024  17.497  50.940  1.00  0.00     0.018 C 
HETATM    8  C19 UNL     1     126.723  16.194  51.231  1.00  0.00     0.049 C 
HETATM    9  C25 UNL     1     127.323  16.137  52.605  1.00  0.00     0.135 C 
HETATM   10  C26 UNL     1     126.824  14.918  53.334  1.00  0.00     0.073 C 
HETATM   11  C27 UNL     1     125.925  14.171  52.375  1.00  0.00     0.208 C 
HETATM   12  F1  UNL     1     124.866  13.731  53.198  1.00  0.00    -0.246 F 
HETATM   13  C28 UNL     1     125.519  15.267  51.476  1.00  0.00     0.105 C 
HETATM   14  C29 UNL     1     124.763  14.935  50.249  1.00  0.00     0.028 C 
HETATM   15  C30 UNL     1     123.510  14.184  50.635  1.00  0.00     0.009 C 
HETATM   16  C31 UNL     1     122.584  13.869  49.502  1.00  0.00     0.011 C 
HETATM   17  C32 UNL     1     122.396  15.017  48.515  1.00  0.00    -0.033 C 
HETATM   18  C33 UNL     1     123.198  14.673  47.302  1.00  0.00     0.016 C 
ENDROOT
BRANCH   1  19
HETATM   19  C2  UNL     1     120.313  15.129  47.021  1.00  0.00    -0.073 C 
HETATM   20  C1  UNL     1     121.073  15.329  45.732  1.00  0.00     0.044 C 
BRANCH  19  21
HETATM   21  C3  UNL     1     119.361  13.998  46.957  1.00  0.00    -0.057 C 
HETATM   22  C4  UNL     1     118.313  13.738  46.219  1.00  0.00     0.012 C 
HETATM   23  C5  UNL     1     117.676  12.409  46.566  1.00  0.00     0.146 C 
HETATM   24  C10 UNL     1     118.136  12.217  47.977  1.00  0.00     0.040 C 
HETATM   25  C11 UNL     1     119.523  12.813  47.903  1.00  0.00     0.041 C 
BRANCH  23  26
HETATM   26  O1  UNL     1     118.269  11.481  45.711  1.00  0.00    -0.372 OA
BRANCH  26  27
HETATM   27  C6  UNL     1     117.346  10.750  44.983  1.00  0.00     0.051 C 
HETATM   28  C7  UNL     1     117.269   9.373  45.610  1.00  0.00     0.045 C 
HETATM   29  C8  UNL     1     117.720  10.584  43.543  1.00  0.00     0.045 C 
HETATM   30  C9  UNL     1     115.957  11.347  45.045  1.00  0.00     0.045 C 
ENDBRANCH  26  27
ENDBRANCH  23  26
ENDBRANCH  19  21
ENDBRANCH   1  19
BRANCH  13  31
HETATM   31  O6  UNL     1     124.714  16.057  52.365  1.00  0.00    -0.386 OA
ATOM     32  H6  UNL     1     124.593  15.465  53.098  1.00  0.00     0.210 HD
ENDBRANCH  13  31
BRANCH   8  33
HETATM   33  C20 UNL     1     127.617  15.777  50.142  1.00  0.00     0.170 C 
BRANCH  33  34
HETATM   34  O2  UNL     1     128.331  14.596  50.445  1.00  0.00    -0.391 OA
ATOM     35  H2  UNL     1     128.024  13.845  49.949  1.00  0.00     0.210 HD
ENDBRANCH  33  34
BRANCH  33  36
HETATM   36  C21 UNL     1     128.447  16.707  49.387  1.00  0.00     0.100 C 
HETATM   37  C22 UNL     1     129.943  16.211  49.400  1.00  0.00     0.053 C 
BRANCH  36  38
HETATM   38  O3  UNL     1     128.233  16.737  47.976  1.00  0.00    -0.383 OA
ATOM     39  H3  UNL     1     129.013  16.722  47.434  1.00  0.00     0.211 HD
ENDBRANCH  36  38
BRANCH  36  40
HETATM   40  C23 UNL     1     128.534  18.145  49.730  1.00  0.00     0.036 C 
BRANCH  40  41
HETATM   41  C24 UNL     1     128.321  19.225  48.783  1.00  0.00     0.130 C 
BRANCH  41  42
HETATM   42  O4  UNL     1     129.172  19.543  47.799  1.00  0.00    -0.373 OA
ATOM     43  H4  UNL     1     129.309  19.016  47.020  1.00  0.00     0.216 HD
ENDBRANCH  41  42
ENDBRANCH  40  41
ENDBRANCH  36  40
ENDBRANCH  33  36
ENDBRANCH   8  33
BRANCH   9  44
HETATM   44  O5  UNL     1     127.025  17.316  53.319  1.00  0.00    -0.395 OA
ATOM     45  H5  UNL     1     126.193  17.676  53.031  1.00  0.00     0.210 HD
ENDBRANCH   9  44
TORSDOF 13
ENDMDL
MODEL 4
REMARK VINA RESULT: -7.670744876      2.009      2.443
REMARK  13 active torsions:
REMARK  status: ('A' for Active; 'I' for Inactive)
REMARK    1  A    between atoms: C2_2  and  C3_3 
REMARK    2  A    between atoms: C2_2  and  C12_13 
REMARK    3  A    between atoms: C5_5  and  O1_6 
REMARK    4  A    between atoms: O1_6  and  C6_7 
REMARK    5  A    between atoms: C19_20  and  C20_21 
REMARK    6  A    between atoms: C20_21  and  O2_22 
REMARK    7  A    between atoms: C20_21  and  C21_24 
REMARK    8  A    between atoms: C21_24  and  O3_26 
REMARK    9  A    between atoms: C21_24  and  C23_28 
REMARK   10  A    between atoms: C23_28  and  C24_29 
REMARK   11  A    between atoms: C24_29  and  O4_30 
REMARK   12  A    between atoms: C25_32  and  O5_33 
REMARK   13  A    between atoms: C28_38  and  O6_39 
ROOT
HETATM    1  C12 UNL     1     123.657  16.332  47.481  1.00  0.00     0.023 C 
HETATM    2  C13 UNL     1     122.735  16.913  48.586  1.00  0.00     0.010 C 
HETATM    3  C14 UNL     1     121.537  15.985  48.580  1.00  0.00     0.006 C 
HETATM    4  C15 UNL     1     121.445  15.713  47.125  1.00  0.00    -0.001 C 
HETATM    5  C16 UNL     1     120.421  14.692  46.704  1.00  0.00    -0.003 C 
HETATM    6  C17 UNL     1     119.118  15.103  47.296  1.00  0.00     0.006 C 
HETATM    7  C18 UNL     1     117.879  14.797  46.549  1.00  0.00     0.018 C 
HETATM    8  C19 UNL     1     118.010  14.062  45.240  1.00  0.00     0.049 C 
HETATM    9  C25 UNL     1     116.941  14.419  44.250  1.00  0.00     0.135 C 
HETATM   10  C26 UNL     1     117.567  14.863  42.954  1.00  0.00     0.073 C 
HETATM   11  C27 UNL     1     119.064  14.737  43.125  1.00  0.00     0.208 C 
HETATM   12  F1  UNL     1     119.562  15.887  42.474  1.00  0.00    -0.246 F 
HETATM   13  C28 UNL     1     119.177  14.829  44.593  1.00  0.00     0.105 C 
HETATM   14  C29 UNL     1     120.489  14.562  45.221  1.00  0.00     0.028 C 
HETATM   15  C30 UNL     1     121.515  15.502  44.632  1.00  0.00     0.009 C 
HETATM   16  C31 UNL     1     122.876  15.422  45.246  1.00  0.00     0.011 C 
HETATM   17  C32 UNL     1     122.867  15.315  46.769  1.00  0.00    -0.033 C 
HETATM   18  C33 UNL     1     123.176  13.890  47.098  1.00  0.00     0.016 C 
ENDROOT
BRANCH   1  19
HETATM   19  C2  UNL     1     124.919  16.008  48.142  1.00  0.00    -0.073 C 
HETATM   20  C1  UNL     1     126.165  16.726  47.681  1.00  0.00     0.044 C 
BRANCH  19  21
HETATM   21  C3  UNL     1     124.932  15.710  49.591  1.00  0.00    -0.057 C 
HETATM   22  C4  UNL     1     124.512  14.702  50.311  1.00  0.00     0.012 C 
HETATM   23  C5  UNL     1     124.773  14.899  51.790  1.00  0.00     0.146 C 
HETATM   24  C10 UNL     1     124.861  16.390  51.882  1.00  0.00     0.040 C 
HETATM   25  C11 UNL     1     125.538  16.711  50.568  1.00  0.00     0.041 C 
BRANCH  23  26
HETATM   26  O1  UNL     1     126.011  14.303  52.028  1.00  0.00    -0.372 OA
BRANCH  26  27
HETATM   27  C6  UNL     1     125.916  13.141  52.776  1.00  0.00     0.051 C 
HETATM   28  C7  UNL     1     127.081  13.135  53.744  1.00  0.00     0.045 C 
HETATM   29  C8  UNL     1     125.992  11.895  51.950  1.00  0.00     0.045 C 
HETATM   30  C9  UNL     1     124.649  13.086  53.601  1.00  0.00     0.045 C 
ENDBRANCH  26  27
ENDBRANCH  23  26
ENDBRANCH  19  21
ENDBRANCH   1  19
BRANCH  13  31
HETATM   31  O6  UNL     1     118.787  16.195  44.805  1.00  0.00    -0.386 OA
ATOM     32  H6  UNL     1     118.155  16.111  45.510  1.00  0.00     0.210 HD
ENDBRANCH  13  31
BRANCH   8  33
HETATM   33  C20 UNL     1     118.238  12.622  45.421  1.00  0.00     0.170 C 
BRANCH  33  34
HETATM   34  O2  UNL     1     118.459  11.947  44.200  1.00  0.00    -0.391 OA
ATOM     35  H2  UNL     1     119.371  11.717  44.068  1.00  0.00     0.210 HD
ENDBRANCH  33  34
BRANCH  33  36
HETATM   36  C21 UNL     1     117.461  11.797  46.338  1.00  0.00     0.100 C 
HETATM   37  C22 UNL     1     118.403  11.225  47.463  1.00  0.00     0.053 C 
BRANCH  36  38
HETATM   38  O3  UNL     1     116.520  12.487  47.160  1.00  0.00    -0.383 OA
ATOM     39  H3  UNL     1     116.199  13.315  46.825  1.00  0.00     0.211 HD
ENDBRANCH  36  38
BRANCH  36  40
HETATM   40  C23 UNL     1     116.685  10.623  45.877  1.00  0.00     0.036 C 
BRANCH  40  41
HETATM   41  C24 UNL     1     117.246   9.297  45.685  1.00  0.00     0.130 C 
BRANCH  41  42
HETATM   42  O4  UNL     1     117.813   8.875  44.547  1.00  0.00    -0.373 OA
ATOM     43  H4  UNL     1     117.409   8.948  43.690  1.00  0.00     0.216 HD
ENDBRANCH  41  42
ENDBRANCH  40  41
ENDBRANCH  36  40
ENDBRANCH  33  36
ENDBRANCH   8  33
BRANCH   9  44
HETATM   44  O5  UNL     1     116.098  15.418  44.778  1.00  0.00    -0.395 OA
ATOM     45  H5  UNL     1     116.393  16.279  44.503  1.00  0.00     0.210 HD
ENDBRANCH   9  44
TORSDOF 13
ENDMDL
MODEL 5
REMARK VINA RESULT: -7.577654353      2.001      4.117
REMARK  13 active torsions:
REMARK  status: ('A' for Active; 'I' for Inactive)
REMARK    1  A    between atoms: C2_2  and  C3_3 
REMARK    2  A    between atoms: C2_2  and  C12_13 
REMARK    3  A    between atoms: C5_5  and  O1_6 
REMARK    4  A    between atoms: O1_6  and  C6_7 
REMARK    5  A    between atoms: C19_20  and  C20_21 
REMARK    6  A    between atoms: C20_21  and  O2_22 
REMARK    7  A    between atoms: C20_21  and  C21_24 
REMARK    8  A    between atoms: C21_24  and  O3_26 
REMARK    9  A    between atoms: C21_24  and  C23_28 
REMARK   10  A    between atoms: C23_28  and  C24_29 
REMARK   11  A    between atoms: C24_29  and  O4_30 
REMARK   12  A    between atoms: C25_32  and  O5_33 
REMARK   13  A    between atoms: C28_38  and  O6_39 
ROOT
HETATM    1  C12 UNL     1     122.985  15.345  48.701  1.00  0.00     0.023 C 
HETATM    2  C13 UNL     1     123.987  15.031  47.558  1.00  0.00     0.010 C 
HETATM    3  C14 UNL     1     123.222  15.392  46.300  1.00  0.00     0.006 C 
HETATM    4  C15 UNL     1     121.866  14.950  46.703  1.00  0.00    -0.001 C 
HETATM    5  C16 UNL     1     120.751  15.265  45.740  1.00  0.00    -0.003 C 
HETATM    6  C17 UNL     1     121.157  14.738  44.407  1.00  0.00     0.006 C 
HETATM    7  C18 UNL     1     120.101  14.242  43.497  1.00  0.00     0.018 C 
HETATM    8  C19 UNL     1     118.672  14.326  43.966  1.00  0.00     0.049 C 
HETATM    9  C25 UNL     1     117.804  13.231  43.420  1.00  0.00     0.135 C 
HETATM   10  C26 UNL     1     117.116  12.508  44.548  1.00  0.00     0.073 C 
HETATM   11  C27 UNL     1     117.530  13.198  45.828  1.00  0.00     0.208 C 
HETATM   12  F1  UNL     1     117.714  12.127  46.729  1.00  0.00    -0.246 F 
HETATM   13  C28 UNL     1     118.809  13.802  45.407  1.00  0.00     0.105 C 
HETATM   14  C29 UNL     1     119.482  14.748  46.324  1.00  0.00     0.028 C 
HETATM   15  C30 UNL     1     119.725  14.058  47.646  1.00  0.00     0.009 C 
HETATM   16  C31 UNL     1     120.497  14.858  48.648  1.00  0.00     0.011 C 
HETATM   17  C32 UNL     1     121.687  15.610  48.059  1.00  0.00    -0.033 C 
HETATM   18  C33 UNL     1     121.280  17.045  47.963  1.00  0.00     0.016 C 
ENDROOT
BRANCH   1  19
HETATM   19  C2  UNL     1     123.644  16.335  49.551  1.00  0.00    -0.073 C 
HETATM   20  C1  UNL     1     122.874  16.884  50.727  1.00  0.00     0.044 C 
BRANCH  19  21
HETATM   21  C3  UNL     1     125.095  16.221  49.818  1.00  0.00    -0.057 C 
HETATM   22  C4  UNL     1     126.163  16.707  49.239  1.00  0.00     0.012 C 
HETATM   23  C5  UNL     1     127.441  16.274  49.926  1.00  0.00     0.146 C 
HETATM   24  C10 UNL     1     127.003  15.015  50.607  1.00  0.00     0.040 C 
HETATM   25  C11 UNL     1     125.589  15.385  50.994  1.00  0.00     0.041 C 
BRANCH  23  26
HETATM   26  O1  UNL     1     127.721  17.279  50.851  1.00  0.00    -0.372 OA
BRANCH  26  27
HETATM   27  C6  UNL     1     128.993  17.808  50.705  1.00  0.00     0.051 C 
HETATM   28  C7  UNL     1     129.467  18.221  52.083  1.00  0.00     0.045 C 
HETATM   29  C8  UNL     1     129.037  19.013  49.818  1.00  0.00     0.045 C 
HETATM   30  C9  UNL     1     129.984  16.794  50.177  1.00  0.00     0.045 C 
ENDBRANCH  26  27
ENDBRANCH  23  26
ENDBRANCH  19  21
ENDBRANCH   1  19
BRANCH  13  31
HETATM   31  O6  UNL     1     119.611  12.626  45.220  1.00  0.00    -0.386 OA
ATOM     32  H6  UNL     1     120.488  12.961  45.367  1.00  0.00     0.210 HD
ENDBRANCH  13  31
BRANCH   8  33
HETATM   33  C20 UNL     1     118.117  15.681  43.848  1.00  0.00     0.170 C 
BRANCH  33  34
HETATM   34  O2  UNL     1     117.020  15.898  44.712  1.00  0.00    -0.391 OA
ATOM     35  H2  UNL     1     116.365  15.212  44.652  1.00  0.00     0.210 HD
ENDBRANCH  33  34
BRANCH  33  36
HETATM   36  C21 UNL     1     117.914  16.355  42.572  1.00  0.00     0.100 C 
HETATM   37  C22 UNL     1     116.959  17.592  42.772  1.00  0.00     0.053 C 
BRANCH  36  38
HETATM   38  O3  UNL     1     119.049  17.032  42.032  1.00  0.00    -0.383 OA
ATOM     39  H3  UNL     1     119.242  17.886  42.401  1.00  0.00     0.211 HD
ENDBRANCH  36  38
BRANCH  36  40
HETATM   40  C23 UNL     1     117.364  15.655  41.388  1.00  0.00     0.036 C 
BRANCH  40  41
HETATM   41  C24 UNL     1     118.158  15.226  40.250  1.00  0.00     0.130 C 
BRANCH  41  42
HETATM   42  O4  UNL     1     119.230  14.427  40.338  1.00  0.00    -0.373 OA
ATOM     43  H4  UNL     1     119.489  13.804  39.669  1.00  0.00     0.216 HD
ENDBRANCH  41  42
ENDBRANCH  40  41
ENDBRANCH  36  40
ENDBRANCH  33  36
ENDBRANCH   8  33
BRANCH   9  44
HETATM   44  O5  UNL     1     118.570  12.343  42.637  1.00  0.00    -0.395 OA
ATOM     45  H5  UNL     1     119.064  11.753  43.194  1.00  0.00     0.210 HD
ENDBRANCH   9  44
TORSDOF 13
ENDMDL
