MODEL 1
REMARK VINA RESULT: -8.428722411      0.000      0.000
REMARK  11 active torsions:
REMARK  status: ('A' for Active; 'I' for Inactive)
REMARK    1  A    between atoms: C2_2  and  C4_4 
REMARK    2  A    between atoms: C4_4  and  O1_5 
REMARK    3  A    between atoms: C4_4  and  C5_7 
REMARK    4  A    between atoms: C6_8  and  C7_9 
REMARK    5  A    between atoms: C8_10  and  C9_11 
REMARK    6  A    between atoms: C8_10  and  C30_40 
REMARK    7  A    between atoms: C12_14  and  O2_15 
REMARK    8  A    between atoms: C13_17  and  O3_18 
REMARK    9  A    between atoms: C14_20  and  O4_21 
REMARK   10  A    between atoms: C17_25  and  C18_26 
REMARK   11  A    between atoms: C30_40  and  O6_43 
ROOT
HETATM    1  C9  UNL     1     127.592  15.716  51.114  1.00  0.00    -0.043 C 
HETATM    2  C10 UNL     1     128.533  14.687  50.334  1.00  0.00     0.049 C 
HETATM    3  C11 UNL     1     127.279  15.016  52.335  1.00  0.00    -0.008 C 
HETATM    4  C12 UNL     1     128.229  14.769  53.446  1.00  0.00     0.082 C 
HETATM    5  C13 UNL     1     127.888  15.150  54.834  1.00  0.00     0.204 C 
HETATM    6  C14 UNL     1     126.482  14.957  55.252  1.00  0.00     0.158 C 
HETATM    7  C15 UNL     1     125.823  14.214  54.093  1.00  0.00     0.034 C 
HETATM    8  C16 UNL     1     124.594  13.548  54.559  1.00  0.00     0.019 C 
HETATM    9  C17 UNL     1     123.295  14.230  54.541  1.00  0.00     0.038 C 
HETATM   10  C21 UNL     1     122.613  14.355  53.236  1.00  0.00     0.051 C 
HETATM   11 CL1  UNL     1     121.301  15.578  53.420  1.00  0.00    -0.118 Cl
HETATM   12  C22 UNL     1     121.920  13.084  52.814  1.00  0.00     0.027 C 
HETATM   13  C23 UNL     1     121.770  13.247  51.343  1.00  0.00     0.002 C 
HETATM   14  C24 UNL     1     122.631  14.373  50.891  1.00  0.00     0.010 C 
HETATM   15  C25 UNL     1     123.441  14.833  52.096  1.00  0.00     0.048 C 
HETATM   16  C26 UNL     1     124.830  14.343  51.964  1.00  0.00     0.100 A 
HETATM   17  C27 UNL     1     125.058  12.848  51.708  1.00  0.00     0.208 A 
HETATM   18  O5  UNL     1     125.169  13.804  50.753  1.00  0.00    -0.373 OA
HETATM   19  C28 UNL     1     125.816  15.061  52.859  1.00  0.00     0.026 C 
HETATM   20  C29 UNL     1     125.390  16.451  53.035  1.00  0.00     0.024 C 
ENDROOT
BRANCH   1  21
HETATM   21  C8  UNL     1     128.002  17.039  50.723  1.00  0.00    -0.018 C 
HETATM   22  C7  UNL     1     127.258  17.667  49.823  1.00  0.00     0.010 C 
BRANCH  22  23
HETATM   23  C6  UNL     1     126.071  17.237  49.137  1.00  0.00    -0.001 C 
HETATM   24  C5  UNL     1     126.080  16.283  48.192  1.00  0.00     0.009 C 
BRANCH  24  25
HETATM   25  C4  UNL     1     124.882  15.835  47.488  1.00  0.00     0.169 C 
BRANCH  25  26
HETATM   26  C2  UNL     1     125.217  15.470  46.085  1.00  0.00    -0.061 C 
HETATM   27  C1  UNL     1     124.283  15.280  45.165  1.00  0.00     0.017 C 
HETATM   28  C3  UNL     1     126.642  15.302  45.659  1.00  0.00     0.045 C 
ENDBRANCH  25  26
BRANCH  25  29
HETATM   29  O1  UNL     1     123.907  16.818  47.451  1.00  0.00    -0.387 OA
ATOM     30  H1  UNL     1     124.116  17.463  48.116  1.00  0.00     0.210 HD
ENDBRANCH  25  29
ENDBRANCH  24  25
ENDBRANCH  22  23
BRANCH  21  31
HETATM   31  C30 UNL     1     129.149  17.859  51.138  1.00  0.00     0.078 C 
HETATM   32  C31 UNL     1     130.526  17.248  50.802  1.00  0.00     0.051 C 
HETATM   33  C32 UNL     1     129.310  19.188  50.452  1.00  0.00     0.051 C 
BRANCH  31  34
HETATM   34  O6  UNL     1     129.292  17.953  52.548  1.00  0.00    -0.386 OA
ATOM     35  H6  UNL     1     128.470  17.861  53.016  1.00  0.00     0.211 HD
ENDBRANCH  31  34
ENDBRANCH  21  31
ENDBRANCH   1  21
BRANCH   4  36
HETATM   36  O2  UNL     1     129.553  15.114  53.235  1.00  0.00    -0.362 OA
ATOM     37  H2  UNL     1     130.135  15.083  53.985  1.00  0.00     0.217 HD
ENDBRANCH   4  36
BRANCH   5  38
HETATM   38  O3  UNL     1     128.315  16.421  55.210  1.00  0.00    -0.386 OA
ATOM     39  H3  UNL     1     128.023  16.699  56.070  1.00  0.00     0.210 HD
ENDBRANCH   5  38
BRANCH   6  40
HETATM   40  O4  UNL     1     125.809  16.084  55.646  1.00  0.00    -0.392 OA
ATOM     41  H4  UNL     1     125.147  16.407  55.046  1.00  0.00     0.210 HD
ENDBRANCH   6  40
BRANCH   9  42
HETATM   42  C18 UNL     1     122.359  13.519  55.469  1.00  0.00    -0.087 C 
HETATM   43  C19 UNL     1     122.372  12.222  55.711  1.00  0.00     0.014 C 
HETATM   44  C20 UNL     1     121.329  14.294  56.260  1.00  0.00     0.043 C 
ENDBRANCH   9  42
TORSDOF 11
ENDMDL
MODEL 2
REMARK VINA RESULT: -8.151563199      1.009      1.502
REMARK  11 active torsions:
REMARK  status: ('A' for Active; 'I' for Inactive)
REMARK    1  A    between atoms: C2_2  and  C4_4 
REMARK    2  A    between atoms: C4_4  and  O1_5 
REMARK    3  A    between atoms: C4_4  and  C5_7 
REMARK    4  A    between atoms: C6_8  and  C7_9 
REMARK    5  A    between atoms: C8_10  and  C9_11 
REMARK    6  A    between atoms: C8_10  and  C30_40 
REMARK    7  A    between atoms: C12_14  and  O2_15 
REMARK    8  A    between atoms: C13_17  and  O3_18 
REMARK    9  A    between atoms: C14_20  and  O4_21 
REMARK   10  A    between atoms: C17_25  and  C18_26 
REMARK   11  A    between atoms: C30_40  and  O6_43 
ROOT
HETATM    1  C9  UNL     1     127.562  15.596  50.997  1.00  0.00    -0.043 C 
HETATM    2  C10 UNL     1     128.507  14.553  50.243  1.00  0.00     0.049 C 
HETATM    3  C11 UNL     1     127.297  14.950  52.258  1.00  0.00    -0.008 C 
HETATM    4  C12 UNL     1     128.280  14.781  53.354  1.00  0.00     0.082 C 
HETATM    5  C13 UNL     1     127.965  15.220  54.730  1.00  0.00     0.204 C 
HETATM    6  C14 UNL     1     126.575  15.015  55.195  1.00  0.00     0.158 C 
HETATM    7  C15 UNL     1     125.905  14.202  54.091  1.00  0.00     0.034 C 
HETATM    8  C16 UNL     1     124.705  13.531  54.620  1.00  0.00     0.019 C 
HETATM    9  C17 UNL     1     123.390  14.180  54.604  1.00  0.00     0.038 C 
HETATM   10  C21 UNL     1     122.673  14.226  53.312  1.00  0.00     0.051 C 
HETATM   11 CL1  UNL     1     121.335  15.425  53.471  1.00  0.00    -0.118 Cl
HETATM   12  C22 UNL     1     122.000  12.919  52.971  1.00  0.00     0.027 C 
HETATM   13  C23 UNL     1     121.810  13.006  51.498  1.00  0.00     0.002 C 
HETATM   14  C24 UNL     1     122.631  14.128  50.969  1.00  0.00     0.010 C 
HETATM   15  C25 UNL     1     123.459  14.666  52.129  1.00  0.00     0.048 C 
HETATM   16  C26 UNL     1     124.856  14.203  51.984  1.00  0.00     0.100 A 
HETATM   17  C27 UNL     1     125.114  12.703  51.795  1.00  0.00     0.208 A 
HETATM   18  O5  UNL     1     125.178  13.613  50.793  1.00  0.00    -0.373 OA
HETATM   19  C28 UNL     1     125.846  14.986  52.817  1.00  0.00     0.026 C 
HETATM   20  C29 UNL     1     125.391  16.373  52.938  1.00  0.00     0.024 C 
ENDROOT
BRANCH   1  21
HETATM   21  C8  UNL     1     127.928  16.908  50.532  1.00  0.00    -0.018 C 
HETATM   22  C7  UNL     1     127.294  17.377  49.466  1.00  0.00     0.010 C 
BRANCH  22  23
HETATM   23  C6  UNL     1     126.267  16.778  48.659  1.00  0.00    -0.001 C 
HETATM   24  C5  UNL     1     124.957  16.953  48.897  1.00  0.00     0.009 C 
BRANCH  24  25
HETATM   25  C4  UNL     1     123.903  16.352  48.086  1.00  0.00     0.169 C 
BRANCH  25  26
HETATM   26  C2  UNL     1     122.566  16.714  48.628  1.00  0.00    -0.061 C 
HETATM   27  C1  UNL     1     122.424  17.403  49.750  1.00  0.00     0.017 C 
HETATM   28  C3  UNL     1     121.317  16.305  47.912  1.00  0.00     0.045 C 
ENDBRANCH  25  26
BRANCH  25  29
HETATM   29  O1  UNL     1     123.994  14.970  48.063  1.00  0.00    -0.387 OA
ATOM     30  H1  UNL     1     123.973  14.690  47.156  1.00  0.00     0.210 HD
ENDBRANCH  25  29
ENDBRANCH  24  25
ENDBRANCH  22  23
BRANCH  21  31
HETATM   31  C30 UNL     1     128.930  17.864  51.024  1.00  0.00     0.078 C 
HETATM   32  C31 UNL     1     130.393  17.407  50.843  1.00  0.00     0.051 C 
HETATM   33  C32 UNL     1     129.009  19.186  50.310  1.00  0.00     0.051 C 
BRANCH  31  34
HETATM   34  O6  UNL     1     128.921  18.009  52.437  1.00  0.00    -0.386 OA
ATOM     35  H6  UNL     1     129.671  18.489  52.770  1.00  0.00     0.211 HD
ENDBRANCH  31  34
ENDBRANCH  21  31
ENDBRANCH   1  21
BRANCH   4  36
HETATM   36  O2  UNL     1     129.589  15.146  53.092  1.00  0.00    -0.362 OA
ATOM     37  H2  UNL     1     130.117  14.539  52.585  1.00  0.00     0.217 HD
ENDBRANCH   4  36
BRANCH   5  38
HETATM   38  O3  UNL     1     128.370  16.518  55.034  1.00  0.00    -0.386 OA
ATOM     39  H3  UNL     1     127.736  17.192  54.821  1.00  0.00     0.210 HD
ENDBRANCH   5  38
BRANCH   6  40
HETATM   40  O4  UNL     1     125.885  16.144  55.551  1.00  0.00    -0.392 OA
ATOM     41  H4  UNL     1     124.949  16.130  55.393  1.00  0.00     0.210 HD
ENDBRANCH   6  40
BRANCH   9  42
HETATM   42  C18 UNL     1     122.495  13.494  55.589  1.00  0.00    -0.087 C 
HETATM   43  C19 UNL     1     122.527  12.205  55.872  1.00  0.00     0.014 C 
HETATM   44  C20 UNL     1     121.490  14.288  56.394  1.00  0.00     0.043 C 
ENDBRANCH   9  42
TORSDOF 11
ENDMDL
MODEL 3
REMARK VINA RESULT: -7.943147263      2.195      5.942
REMARK  11 active torsions:
REMARK  status: ('A' for Active; 'I' for Inactive)
REMARK    1  A    between atoms: C2_2  and  C4_4 
REMARK    2  A    between atoms: C4_4  and  O1_5 
REMARK    3  A    between atoms: C4_4  and  C5_7 
REMARK    4  A    between atoms: C6_8  and  C7_9 
REMARK    5  A    between atoms: C8_10  and  C9_11 
REMARK    6  A    between atoms: C8_10  and  C30_40 
REMARK    7  A    between atoms: C12_14  and  O2_15 
REMARK    8  A    between atoms: C13_17  and  O3_18 
REMARK    9  A    between atoms: C14_20  and  O4_21 
REMARK   10  A    between atoms: C17_25  and  C18_26 
REMARK   11  A    between atoms: C30_40  and  O6_43 
ROOT
HETATM    1  C9  UNL     1     127.295  16.488  52.118  1.00  0.00    -0.043 C 
HETATM    2  C10 UNL     1     127.505  17.762  53.059  1.00  0.00     0.049 C 
HETATM    3  C11 UNL     1     126.538  17.017  51.011  1.00  0.00    -0.008 C 
HETATM    4  C12 UNL     1     127.073  17.921  49.966  1.00  0.00     0.082 C 
HETATM    5  C13 UNL     1     126.918  17.598  48.531  1.00  0.00     0.204 C 
HETATM    6  C14 UNL     1     125.641  16.971  48.123  1.00  0.00     0.158 C 
HETATM    7  C15 UNL     1     124.762  17.017  49.369  1.00  0.00     0.034 C 
HETATM    8  C16 UNL     1     123.345  16.877  48.988  1.00  0.00     0.019 C 
HETATM    9  C17 UNL     1     122.703  15.562  48.881  1.00  0.00     0.038 C 
HETATM   10  C21 UNL     1     122.328  14.887  50.142  1.00  0.00     0.051 C 
HETATM   11 CL1  UNL     1     121.979  13.161  49.755  1.00  0.00    -0.118 Cl
HETATM   12  C22 UNL     1     121.053  15.431  50.738  1.00  0.00     0.027 C 
HETATM   13  C23 UNL     1     121.140  15.021  52.165  1.00  0.00     0.002 C 
HETATM   14  C24 UNL     1     122.530  14.579  52.458  1.00  0.00     0.010 C 
HETATM   15  C25 UNL     1     123.362  14.851  51.211  1.00  0.00     0.048 C 
HETATM   16  C26 UNL     1     124.200  16.048  51.438  1.00  0.00     0.100 A 
HETATM   17  C27 UNL     1     123.522  17.337  51.919  1.00  0.00     0.208 A 
HETATM   18  O5  UNL     1     124.247  16.520  52.721  1.00  0.00    -0.373 OA
HETATM   19  C28 UNL     1     125.348  16.180  50.462  1.00  0.00     0.026 C 
HETATM   20  C29 UNL     1     125.811  14.847  50.072  1.00  0.00     0.024 C 
ENDROOT
BRANCH   1  21
HETATM   21  C8  UNL     1     128.434  15.629  52.313  1.00  0.00    -0.018 C 
HETATM   22  C7  UNL     1     128.270  14.564  53.084  1.00  0.00     0.010 C 
BRANCH  22  23
HETATM   23  C6  UNL     1     127.109  14.101  53.793  1.00  0.00    -0.001 C 
HETATM   24  C5  UNL     1     126.753  14.576  54.998  1.00  0.00     0.009 C 
BRANCH  24  25
HETATM   25  C4  UNL     1     125.576  14.117  55.729  1.00  0.00     0.169 C 
BRANCH  25  26
HETATM   26  C2  UNL     1     124.645  15.253  55.970  1.00  0.00    -0.061 C 
HETATM   27  C1  UNL     1     123.336  15.080  56.072  1.00  0.00     0.017 C 
HETATM   28  C3  UNL     1     125.165  16.650  56.108  1.00  0.00     0.045 C 
ENDBRANCH  25  26
BRANCH  25  29
HETATM   29  O1  UNL     1     125.912  13.574  56.959  1.00  0.00    -0.387 OA
ATOM     30  H1  UNL     1     126.858  13.505  57.000  1.00  0.00     0.210 HD
ENDBRANCH  25  29
ENDBRANCH  24  25
ENDBRANCH  22  23
BRANCH  21  31
HETATM   31  C30 UNL     1     129.812  15.721  51.810  1.00  0.00     0.078 C 
HETATM   32  C31 UNL     1     129.992  15.256  50.349  1.00  0.00     0.051 C 
HETATM   33  C32 UNL     1     130.394  17.103  51.688  1.00  0.00     0.051 C 
BRANCH  31  34
HETATM   34  O6  UNL     1     130.702  14.810  52.439  1.00  0.00    -0.386 OA
ATOM     35  H6  UNL     1     130.732  14.905  53.384  1.00  0.00     0.211 HD
ENDBRANCH  31  34
ENDBRANCH  21  31
ENDBRANCH   1  21
BRANCH   4  36
HETATM   36  O2  UNL     1     128.358  18.406  50.144  1.00  0.00    -0.362 OA
ATOM     37  H2  UNL     1     128.826  18.692  49.369  1.00  0.00     0.217 HD
ENDBRANCH   4  36
BRANCH   5  38
HETATM   38  O3  UNL     1     127.982  16.892  47.975  1.00  0.00    -0.386 OA
ATOM     39  H3  UNL     1     128.470  17.365  47.312  1.00  0.00     0.210 HD
ENDBRANCH   5  38
BRANCH   6  40
HETATM   40  O4  UNL     1     125.735  15.728  47.553  1.00  0.00    -0.392 OA
ATOM     41  H4  UNL     1     125.320  15.623  46.706  1.00  0.00     0.210 HD
ENDBRANCH   6  40
BRANCH   9  42
HETATM   42  C18 UNL     1     121.461  15.692  48.055  1.00  0.00    -0.087 C 
HETATM   43  C19 UNL     1     120.620  16.707  48.106  1.00  0.00     0.014 C 
HETATM   44  C20 UNL     1     121.111  14.639  47.028  1.00  0.00     0.043 C 
ENDBRANCH   9  42
TORSDOF 11
ENDMDL
MODEL 4
REMARK VINA RESULT: -7.716245748      1.988      2.329
REMARK  11 active torsions:
REMARK  status: ('A' for Active; 'I' for Inactive)
REMARK    1  A    between atoms: C2_2  and  C4_4 
REMARK    2  A    between atoms: C4_4  and  O1_5 
REMARK    3  A    between atoms: C4_4  and  C5_7 
REMARK    4  A    between atoms: C6_8  and  C7_9 
REMARK    5  A    between atoms: C8_10  and  C9_11 
REMARK    6  A    between atoms: C8_10  and  C30_40 
REMARK    7  A    between atoms: C12_14  and  O2_15 
REMARK    8  A    between atoms: C13_17  and  O3_18 
REMARK    9  A    between atoms: C14_20  and  O4_21 
REMARK   10  A    between atoms: C17_25  and  C18_26 
REMARK   11  A    between atoms: C30_40  and  O6_43 
ROOT
HETATM    1  C9  UNL     1     127.090  16.140  51.665  1.00  0.00    -0.043 C 
HETATM    2  C10 UNL     1     127.423  14.642  51.221  1.00  0.00     0.049 C 
HETATM    3  C11 UNL     1     126.568  15.980  53.000  1.00  0.00    -0.008 C 
HETATM    4  C12 UNL     1     127.369  15.617  54.193  1.00  0.00     0.082 C 
HETATM    5  C13 UNL     1     127.317  16.440  55.421  1.00  0.00     0.204 C 
HETATM    6  C14 UNL     1     126.000  17.007  55.788  1.00  0.00     0.158 C 
HETATM    7  C15 UNL     1     125.012  16.378  54.809  1.00  0.00     0.034 C 
HETATM    8  C16 UNL     1     123.644  16.471  55.349  1.00  0.00     0.019 C 
HETATM    9  C17 UNL     1     122.790  17.634  55.085  1.00  0.00     0.038 C 
HETATM   10  C21 UNL     1     122.163  17.725  53.750  1.00  0.00     0.051 C 
HETATM   11 CL1  UNL     1     121.551  19.409  53.547  1.00  0.00    -0.118 Cl
HETATM   12  C22 UNL     1     120.949  16.839  53.613  1.00  0.00     0.027 C 
HETATM   13  C23 UNL     1     120.804  16.683  52.141  1.00  0.00     0.002 C 
HETATM   14  C24 UNL     1     122.050  17.153  51.478  1.00  0.00     0.010 C 
HETATM   15  C25 UNL     1     123.049  17.483  52.580  1.00  0.00     0.048 C 
HETATM   16  C26 UNL     1     124.061  16.408  52.657  1.00  0.00     0.100 A 
HETATM   17  C27 UNL     1     123.579  14.957  52.792  1.00  0.00     0.208 A 
HETATM   18  O5  UNL     1     124.051  15.493  51.640  1.00  0.00    -0.373 OA
HETATM   19  C28 UNL     1     125.314  16.804  53.407  1.00  0.00     0.026 C 
HETATM   20  C29 UNL     1     125.567  18.233  53.209  1.00  0.00     0.024 C 
ENDROOT
BRANCH   1  21
HETATM   21  C8  UNL     1     128.026  16.997  50.986  1.00  0.00    -0.018 C 
HETATM   22  C7  UNL     1     127.676  17.460  49.795  1.00  0.00     0.010 C 
BRANCH  22  23
HETATM   23  C6  UNL     1     126.479  17.242  49.030  1.00  0.00    -0.001 C 
HETATM   24  C5  UNL     1     126.353  16.243  48.142  1.00  0.00     0.009 C 
BRANCH  24  25
HETATM   25  C4  UNL     1     125.144  16.008  47.359  1.00  0.00     0.169 C 
BRANCH  25  26
HETATM   26  C2  UNL     1     125.489  15.383  46.053  1.00  0.00    -0.061 C 
HETATM   27  C1  UNL     1     124.563  14.926  45.225  1.00  0.00     0.017 C 
HETATM   28  C3  UNL     1     126.918  15.248  45.627  1.00  0.00     0.045 C 
ENDBRANCH  25  26
BRANCH  25  29
HETATM   29  O1  UNL     1     124.459  17.184  47.100  1.00  0.00    -0.387 OA
ATOM     30  H1  UNL     1     123.944  17.398  47.869  1.00  0.00     0.210 HD
ENDBRANCH  25  29
ENDBRANCH  24  25
ENDBRANCH  22  23
BRANCH  21  31
HETATM   31  C30 UNL     1     129.365  17.465  51.372  1.00  0.00     0.078 C 
HETATM   32  C31 UNL     1     130.479  16.407  51.222  1.00  0.00     0.051 C 
HETATM   33  C32 UNL     1     129.966  18.556  50.528  1.00  0.00     0.051 C 
BRANCH  31  34
HETATM   34  O6  UNL     1     129.493  17.719  52.763  1.00  0.00    -0.386 OA
ATOM     35  H6  UNL     1     129.038  18.505  53.045  1.00  0.00     0.211 HD
ENDBRANCH  31  34
ENDBRANCH  21  31
ENDBRANCH   1  21
BRANCH   4  36
HETATM   36  O2  UNL     1     128.693  15.268  53.984  1.00  0.00    -0.362 OA
ATOM     37  H2  UNL     1     129.355  15.794  54.419  1.00  0.00     0.217 HD
ENDBRANCH   4  36
BRANCH   5  38
HETATM   38  O3  UNL     1     128.289  17.433  55.498  1.00  0.00    -0.386 OA
ATOM     39  H3  UNL     1     128.214  18.115  54.841  1.00  0.00     0.210 HD
ENDBRANCH   5  38
BRANCH   6  40
HETATM   40  O4  UNL     1     125.929  18.374  55.850  1.00  0.00    -0.392 OA
ATOM     41  H4  UNL     1     126.654  18.849  55.463  1.00  0.00     0.210 HD
ENDBRANCH   6  40
BRANCH   9  42
HETATM   42  C18 UNL     1     121.691  17.672  56.101  1.00  0.00    -0.087 C 
HETATM   43  C19 UNL     1     121.159  16.613  56.681  1.00  0.00     0.014 C 
HETATM   44  C20 UNL     1     121.136  18.995  56.581  1.00  0.00     0.043 C 
ENDBRANCH   9  42
TORSDOF 11
ENDMDL
MODEL 5
REMARK VINA RESULT: -7.676752355      2.615      7.239
REMARK  11 active torsions:
REMARK  status: ('A' for Active; 'I' for Inactive)
REMARK    1  A    between atoms: C2_2  and  C4_4 
REMARK    2  A    between atoms: C4_4  and  O1_5 
REMARK    3  A    between atoms: C4_4  and  C5_7 
REMARK    4  A    between atoms: C6_8  and  C7_9 
REMARK    5  A    between atoms: C8_10  and  C9_11 
REMARK    6  A    between atoms: C8_10  and  C30_40 
REMARK    7  A    between atoms: C12_14  and  O2_15 
REMARK    8  A    between atoms: C13_17  and  O3_18 
REMARK    9  A    between atoms: C14_20  and  O4_21 
REMARK   10  A    between atoms: C17_25  and  C18_26 
REMARK   11  A    between atoms: C30_40  and  O6_43 
ROOT
HETATM    1  C9  UNL     1     122.787  15.107  50.267  1.00  0.00    -0.043 C 
HETATM    2  C10 UNL     1     122.224  13.632  50.029  1.00  0.00     0.049 C 
HETATM    3  C11 UNL     1     124.066  15.083  49.601  1.00  0.00    -0.008 C 
HETATM    4  C12 UNL     1     124.264  15.054  48.133  1.00  0.00     0.082 C 
HETATM    5  C13 UNL     1     125.136  16.045  47.465  1.00  0.00     0.204 C 
HETATM    6  C14 UNL     1     126.367  16.442  48.184  1.00  0.00     0.158 C 
HETATM    7  C15 UNL     1     126.438  15.510  49.390  1.00  0.00     0.034 C 
HETATM    8  C16 UNL     1     127.817  15.465  49.908  1.00  0.00     0.019 C 
HETATM    9  C17 UNL     1     128.291  16.415  50.921  1.00  0.00     0.038 C 
HETATM   10  C21 UNL     1     127.865  16.184  52.317  1.00  0.00     0.051 C 
HETATM   11 CL1  UNL     1     128.206  17.691  53.248  1.00  0.00    -0.118 Cl
HETATM   12  C22 UNL     1     128.663  15.101  53.000  1.00  0.00     0.027 C 
HETATM   13  C23 UNL     1     127.784  14.687  54.127  1.00  0.00     0.002 C 
HETATM   14  C24 UNL     1     126.421  15.241  53.907  1.00  0.00     0.010 C 
HETATM   15  C25 UNL     1     126.420  15.904  52.535  1.00  0.00     0.048 C 
HETATM   16  C26 UNL     1     125.706  15.035  51.575  1.00  0.00     0.100 A 
HETATM   17  C27 UNL     1     126.135  13.566  51.458  1.00  0.00     0.208 A 
HETATM   18  O5  UNL     1     125.021  13.978  52.110  1.00  0.00    -0.373 OA
HETATM   19  C28 UNL     1     125.281  15.746  50.310  1.00  0.00     0.026 C 
HETATM   20  C29 UNL     1     124.980  17.146  50.617  1.00  0.00     0.024 C 
ENDROOT
BRANCH   1  21
HETATM   21  C8  UNL     1     121.649  15.985  50.349  1.00  0.00    -0.018 C 
HETATM   22  C7  UNL     1     121.397  16.549  51.521  1.00  0.00     0.010 C 
BRANCH  22  23
HETATM   23  C6  UNL     1     122.087  16.429  52.776  1.00  0.00    -0.001 C 
HETATM   24  C5  UNL     1     122.424  17.490  53.527  1.00  0.00     0.009 C 
BRANCH  24  25
HETATM   25  C4  UNL     1     123.124  17.383  54.804  1.00  0.00     0.169 C 
BRANCH  25  26
HETATM   26  C2  UNL     1     124.380  18.180  54.771  1.00  0.00    -0.061 C 
HETATM   27  C1  UNL     1     124.668  18.999  53.771  1.00  0.00     0.017 C 
HETATM   28  C3  UNL     1     125.375  18.081  55.886  1.00  0.00     0.045 C 
ENDBRANCH  25  26
BRANCH  25  29
HETATM   29  O1  UNL     1     123.459  16.072  55.102  1.00  0.00    -0.387 OA
ATOM     30  H1  UNL     1     122.737  15.689  55.587  1.00  0.00     0.210 HD
ENDBRANCH  25  29
ENDBRANCH  24  25
ENDBRANCH  22  23
BRANCH  21  31
HETATM   31  C30 UNL     1     120.657  16.378  49.339  1.00  0.00     0.078 C 
HETATM   32  C31 UNL     1     119.215  16.507  49.876  1.00  0.00     0.051 C 
HETATM   33  C32 UNL     1     120.807  17.753  48.747  1.00  0.00     0.051 C 
BRANCH  31  34
HETATM   34  O6  UNL     1     120.432  15.382  48.353  1.00  0.00    -0.386 OA
ATOM     35  H6  UNL     1     119.634  15.519  47.855  1.00  0.00     0.211 HD
ENDBRANCH  31  34
ENDBRANCH  21  31
ENDBRANCH   1  21
BRANCH   4  36
HETATM   36  O2  UNL     1     123.137  14.897  47.345  1.00  0.00    -0.362 OA
ATOM     37  H2  UNL     1     122.956  15.575  46.705  1.00  0.00     0.217 HD
ENDBRANCH   4  36
BRANCH   5  38
HETATM   38  O3  UNL     1     124.478  17.183  47.006  1.00  0.00    -0.386 OA
ATOM     39  H3  UNL     1     123.743  17.012  46.430  1.00  0.00     0.210 HD
ENDBRANCH   5  38
BRANCH   6  40
HETATM   40  O4  UNL     1     126.480  17.770  48.499  1.00  0.00    -0.392 OA
ATOM     41  H4  UNL     1     125.809  18.123  49.071  1.00  0.00     0.210 HD
ENDBRANCH   6  40
BRANCH   9  42
HETATM   42  C18 UNL     1     129.788  16.437  50.907  1.00  0.00    -0.087 C 
HETATM   43  C19 UNL     1     130.557  15.416  50.578  1.00  0.00     0.014 C 
HETATM   44  C20 UNL     1     130.538  17.708  51.234  1.00  0.00     0.043 C 
ENDBRANCH   9  42
TORSDOF 11
ENDMDL
