MODEL 1
REMARK VINA RESULT: -8.657181896      0.000      0.000
REMARK  7 active torsions:
REMARK  status: ('A' for Active; 'I' for Inactive)
REMARK    1  A    between atoms: C2_2  and  C3_3 
REMARK    2  A    between atoms: C3_3  and  C4_4 
REMARK    3  A    between atoms: C4_4  and  C5_5 
REMARK    4  A    between atoms: C6_9  and  C7_10 
REMARK    5  A    between atoms: C8_12  and  C9_13 
REMARK    6  A    between atoms: C9_13  and  O3_15 
REMARK    7  A    between atoms: O3_15  and  C10_16 
REMARK       I    between atoms: N2_23  and  C16_24 
ROOT
HETATM    1  C9  UNL     1     -96.882 -12.964  47.772  1.00  0.00     0.300 C 
HETATM    2  O2  UNL     1     -96.585 -13.193  48.943  1.00  0.00    -0.259 OA
ENDROOT
BRANCH   1   3
HETATM    3  C8  UNL     1     -98.102 -13.527  47.148  1.00  0.00     0.082 A 
HETATM    4  S1  UNL     1     -99.453 -14.259  47.890  1.00  0.00    -0.078 SA
HETATM    5  C7  UNL     1    -100.371 -14.614  46.497  1.00  0.00     0.076 A 
HETATM    6  C20 UNL     1     -99.586 -14.144  45.487  1.00  0.00     0.034 A 
HETATM    7  C19 UNL     1     -98.416 -13.583  45.815  1.00  0.00     0.045 A 
HETATM    8 BR1  UNL     1    -100.171 -14.299  43.642  1.00  0.00    -0.049 Br
BRANCH   5   9
HETATM    9  C6  UNL     1    -101.694 -15.271  46.414  1.00  0.00     0.190 A 
HETATM   10  O1  UNL     1    -102.737 -14.844  45.768  1.00  0.00    -0.217 OA
HETATM   11  N1  UNL     1    -103.726 -15.697  45.930  1.00  0.00    -0.247 N 
HETATM   12  C5  UNL     1    -103.284 -16.705  46.715  1.00  0.00     0.104 A 
ATOM     13  H1  UNL     1    -104.661 -15.613  45.532  1.00  0.00     0.196 HD
HETATM   14  N5  UNL     1    -102.001 -16.424  47.013  1.00  0.00    -0.322 N 
ATOM     15  H5  UNL     1    -101.378 -16.988  47.592  1.00  0.00     0.169 HD
BRANCH  12  16
HETATM   16  C4  UNL     1    -104.017 -17.907  47.188  1.00  0.00     0.078 C 
BRANCH  16  17
HETATM   17  C3  UNL     1    -105.007 -17.537  48.287  1.00  0.00     0.007 C 
BRANCH  17  18
HETATM   18  C2  UNL     1    -105.926 -18.703  48.533  1.00  0.00    -0.004 C 
HETATM   19  C1  UNL     1    -106.835 -18.346  49.699  1.00  0.00     0.005 C 
ENDBRANCH  17  18
ENDBRANCH  16  17
ENDBRANCH  12  16
ENDBRANCH   5   9
ENDBRANCH   1   3
BRANCH   1  20
HETATM   20  O3  UNL     1     -96.063 -12.170  47.036  1.00  0.00    -0.312 OA
BRANCH  20  21
HETATM   21  C10 UNL     1     -94.669 -12.360  46.887  1.00  0.00     0.134 C 
HETATM   22  C11 UNL     1     -94.520 -13.770  46.393  1.00  0.00     0.033 C 
HETATM   23  C12 UNL     1     -94.777 -13.997  44.959  1.00  0.00     0.012 C 
HETATM   24  C13 UNL     1     -94.825 -12.671  44.257  1.00  0.00     0.042 C 
HETATM   25  C14 UNL     1     -94.513 -12.702  42.812  1.00  0.00     0.154 C 
HETATM   26  C17 UNL     1     -93.555 -11.972  44.777  1.00  0.00     0.127 C 
HETATM   27  C15 UNL     1     -95.758 -12.829  41.970  1.00  0.00     0.042 C 
HETATM   28  O4  UNL     1     -93.998 -11.401  42.597  1.00  0.00    -0.270 OA
HETATM   29  N2  UNL     1     -93.289 -11.103  43.701  1.00  0.00    -0.224 N 
HETATM   30  C16 UNL     1     -92.378 -10.021  43.744  1.00  0.00     0.208 C 
HETATM   31  N3  UNL     1     -92.699  -8.820  43.401  1.00  0.00    -0.372 N 
HETATM   32  N4  UNL     1     -91.070 -10.322  44.190  1.00  0.00    -0.062 NA
ATOM     33  H32 UNL     1     -93.643  -8.603  43.079  1.00  0.00     0.158 HD
ATOM     34  H31 UNL     1     -92.043  -8.041  43.432  1.00  0.00     0.158 HD
HETATM   35  C18 UNL     1     -93.993 -11.327  46.063  1.00  0.00     0.061 C 
ENDBRANCH  20  21
ENDBRANCH   1  20
TORSDOF 7
ENDMDL
MODEL 2
REMARK VINA RESULT: -8.318776818      3.472      4.538
REMARK  7 active torsions:
REMARK  status: ('A' for Active; 'I' for Inactive)
REMARK    1  A    between atoms: C2_2  and  C3_3 
REMARK    2  A    between atoms: C3_3  and  C4_4 
REMARK    3  A    between atoms: C4_4  and  C5_5 
REMARK    4  A    between atoms: C6_9  and  C7_10 
REMARK    5  A    between atoms: C8_12  and  C9_13 
REMARK    6  A    between atoms: C9_13  and  O3_15 
REMARK    7  A    between atoms: O3_15  and  C10_16 
REMARK       I    between atoms: N2_23  and  C16_24 
ROOT
HETATM    1  C9  UNL     1     -97.917 -12.848  49.154  1.00  0.00     0.300 C 
HETATM    2  O2  UNL     1     -97.112 -12.281  49.892  1.00  0.00    -0.259 OA
ENDROOT
BRANCH   1   3
HETATM    3  C8  UNL     1     -99.127 -13.517  49.683  1.00  0.00     0.082 A 
HETATM    4  S1  UNL     1    -100.748 -13.379  49.169  1.00  0.00    -0.078 SA
HETATM    5  C7  UNL     1    -101.478 -14.449  50.277  1.00  0.00     0.076 A 
HETATM    6  C20 UNL     1    -100.424 -14.885  51.020  1.00  0.00     0.034 A 
HETATM    7  C19 UNL     1     -99.209 -14.410  50.721  1.00  0.00     0.045 A 
HETATM    8 BR1  UNL     1    -100.703 -16.156  52.463  1.00  0.00    -0.049 Br
BRANCH   5   9
HETATM    9  C6  UNL     1    -102.909 -14.810  50.395  1.00  0.00     0.190 A 
HETATM   10  O1  UNL     1    -103.781 -14.288  51.205  1.00  0.00    -0.217 OA
HETATM   11  N1  UNL     1    -104.947 -14.867  51.018  1.00  0.00    -0.247 N 
HETATM   12  C5  UNL     1    -104.801 -15.797  50.048  1.00  0.00     0.104 A 
ATOM     13  H1  UNL     1    -105.810 -14.652  51.517  1.00  0.00     0.196 HD
HETATM   14  N5  UNL     1    -103.511 -15.751  49.664  1.00  0.00    -0.322 N 
ATOM     15  H5  UNL     1    -103.074 -16.330  48.946  1.00  0.00     0.169 HD
BRANCH  12  16
HETATM   16  C4  UNL     1    -105.820 -16.715  49.478  1.00  0.00     0.078 C 
BRANCH  16  17
HETATM   17  C3  UNL     1    -105.477 -17.070  48.034  1.00  0.00     0.007 C 
BRANCH  17  18
HETATM   18  C2  UNL     1    -105.379 -18.566  47.905  1.00  0.00    -0.004 C 
HETATM   19  C1  UNL     1    -104.712 -18.880  46.575  1.00  0.00     0.005 C 
ENDBRANCH  17  18
ENDBRANCH  16  17
ENDBRANCH  12  16
ENDBRANCH   5   9
ENDBRANCH   1   3
BRANCH   1  20
HETATM   20  O3  UNL     1     -97.680 -12.855  47.817  1.00  0.00    -0.312 OA
BRANCH  20  21
HETATM   21  C10 UNL     1     -97.015 -13.888  47.117  1.00  0.00     0.134 C 
HETATM   22  C11 UNL     1     -97.866 -15.107  47.322  1.00  0.00     0.033 C 
HETATM   23  C12 UNL     1     -99.074 -15.218  46.484  1.00  0.00     0.012 C 
HETATM   24  C13 UNL     1     -98.992 -14.207  45.377  1.00  0.00     0.042 C 
HETATM   25  C14 UNL     1     -99.776 -14.525  44.164  1.00  0.00     0.154 C 
HETATM   26  C17 UNL     1     -97.571 -14.429  44.827  1.00  0.00     0.127 C 
HETATM   27  C15 UNL     1    -101.147 -13.896  44.200  1.00  0.00     0.042 C 
HETATM   28  O4  UNL     1     -99.039 -13.854  43.158  1.00  0.00    -0.270 OA
HETATM   29  N2  UNL     1     -97.745 -13.994  43.499  1.00  0.00    -0.224 N 
HETATM   30  C16 UNL     1     -96.692 -13.726  42.593  1.00  0.00     0.208 C 
HETATM   31  N3  UNL     1     -96.593 -12.616  41.943  1.00  0.00    -0.372 N 
HETATM   32  N4  UNL     1     -95.732 -14.751  42.428  1.00  0.00    -0.062 NA
ATOM     33  H32 UNL     1     -97.285 -11.877  42.062  1.00  0.00     0.158 HD
ATOM     34  H31 UNL     1     -95.834 -12.422  41.290  1.00  0.00     0.158 HD
HETATM   35  C18 UNL     1     -96.702 -13.567  45.702  1.00  0.00     0.061 C 
ENDBRANCH  20  21
ENDBRANCH   1  20
TORSDOF 7
ENDMDL
MODEL 3
REMARK VINA RESULT: -8.103709560      1.948      2.145
REMARK  7 active torsions:
REMARK  status: ('A' for Active; 'I' for Inactive)
REMARK    1  A    between atoms: C2_2  and  C3_3 
REMARK    2  A    between atoms: C3_3  and  C4_4 
REMARK    3  A    between atoms: C4_4  and  C5_5 
REMARK    4  A    between atoms: C6_9  and  C7_10 
REMARK    5  A    between atoms: C8_12  and  C9_13 
REMARK    6  A    between atoms: C9_13  and  O3_15 
REMARK    7  A    between atoms: O3_15  and  C10_16 
REMARK       I    between atoms: N2_23  and  C16_24 
ROOT
HETATM    1  C9  UNL     1     -97.831 -12.516  48.986  1.00  0.00     0.300 C 
HETATM    2  O2  UNL     1     -97.463 -12.117  50.090  1.00  0.00    -0.259 OA
ENDROOT
BRANCH   1   3
HETATM    3  C8  UNL     1     -99.120 -13.220  48.796  1.00  0.00     0.082 A 
HETATM    4  S1  UNL     1     -99.610 -14.250  47.527  1.00  0.00    -0.078 SA
HETATM    5  C7  UNL     1    -101.186 -14.616  48.067  1.00  0.00     0.076 A 
HETATM    6  C20 UNL     1    -101.280 -13.916  49.232  1.00  0.00     0.034 A 
HETATM    7  C19 UNL     1    -100.220 -13.194  49.614  1.00  0.00     0.045 A 
HETATM    8 BR1  UNL     1    -102.913 -13.982  50.282  1.00  0.00    -0.049 Br
BRANCH   5   9
HETATM    9  C6  UNL     1    -102.197 -15.484  47.421  1.00  0.00     0.190 A 
HETATM   10  O1  UNL     1    -103.033 -15.144  46.486  1.00  0.00    -0.217 OA
HETATM   11  N1  UNL     1    -103.772 -16.184  46.168  1.00  0.00    -0.247 N 
HETATM   12  C5  UNL     1    -103.385 -17.224  46.939  1.00  0.00     0.104 A 
ATOM     13  H1  UNL     1    -104.509 -16.202  45.462  1.00  0.00     0.196 HD
HETATM   14  N5  UNL     1    -102.391 -16.769  47.725  1.00  0.00    -0.322 N 
ATOM     15  H5  UNL     1    -101.880 -17.308  48.425  1.00  0.00     0.169 HD
BRANCH  12  16
HETATM   16  C4  UNL     1    -103.911 -18.613  46.962  1.00  0.00     0.078 C 
BRANCH  16  17
HETATM   17  C3  UNL     1    -105.356 -18.634  47.450  1.00  0.00     0.007 C 
BRANCH  17  18
HETATM   18  C2  UNL     1    -105.458 -17.833  48.720  1.00  0.00    -0.004 C 
HETATM   19  C1  UNL     1    -106.637 -18.368  49.518  1.00  0.00     0.005 C 
ENDBRANCH  17  18
ENDBRANCH  16  17
ENDBRANCH  12  16
ENDBRANCH   5   9
ENDBRANCH   1   3
BRANCH   1  20
HETATM   20  O3  UNL     1     -97.024 -12.301  47.915  1.00  0.00    -0.312 OA
BRANCH  20  21
HETATM   21  C10 UNL     1     -95.667 -12.689  47.831  1.00  0.00     0.134 C 
HETATM   22  C11 UNL     1     -95.701 -14.170  47.585  1.00  0.00     0.033 C 
HETATM   23  C12 UNL     1     -95.985 -14.603  46.204  1.00  0.00     0.012 C 
HETATM   24  C13 UNL     1     -95.861 -13.419  45.288  1.00  0.00     0.042 C 
HETATM   25  C14 UNL     1     -95.555 -13.736  43.876  1.00  0.00     0.154 C 
HETATM   26  C17 UNL     1     -94.512 -12.810  45.711  1.00  0.00     0.127 C 
HETATM   27  C15 UNL     1     -96.806 -13.844  43.040  1.00  0.00     0.042 C 
HETATM   28  O4  UNL     1     -94.876 -12.566  43.457  1.00  0.00    -0.270 OA
HETATM   29  N2  UNL     1     -94.135 -12.178  44.510  1.00  0.00    -0.224 N 
HETATM   30  C16 UNL     1     -93.092 -11.229  44.390  1.00  0.00     0.208 C 
HETATM   31  N3  UNL     1     -93.255 -10.073  43.843  1.00  0.00    -0.372 N 
HETATM   32  N4  UNL     1     -91.834 -11.614  44.910  1.00  0.00    -0.062 NA
ATOM     33  H32 UNL     1     -94.162  -9.796  43.468  1.00  0.00     0.158 HD
ATOM     34  H31 UNL     1     -92.504  -9.389  43.757  1.00  0.00     0.158 HD
HETATM   35  C18 UNL     1     -94.863 -11.906  46.860  1.00  0.00     0.061 C 
ENDBRANCH  20  21
ENDBRANCH   1  20
TORSDOF 7
ENDMDL
MODEL 4
REMARK VINA RESULT: -8.071983616      3.710      9.897
REMARK  7 active torsions:
REMARK  status: ('A' for Active; 'I' for Inactive)
REMARK    1  A    between atoms: C2_2  and  C3_3 
REMARK    2  A    between atoms: C3_3  and  C4_4 
REMARK    3  A    between atoms: C4_4  and  C5_5 
REMARK    4  A    between atoms: C6_9  and  C7_10 
REMARK    5  A    between atoms: C8_12  and  C9_13 
REMARK    6  A    between atoms: C9_13  and  O3_15 
REMARK    7  A    between atoms: O3_15  and  C10_16 
REMARK       I    between atoms: N2_23  and  C16_24 
ROOT
HETATM    1  C9  UNL     1     -97.667 -13.371  45.867  1.00  0.00     0.300 C 
HETATM    2  O2  UNL     1     -97.388 -12.719  46.872  1.00  0.00    -0.259 OA
ENDROOT
BRANCH   1   3
HETATM    3  C8  UNL     1     -96.636 -13.770  44.881  1.00  0.00     0.082 A 
HETATM    4  S1  UNL     1     -96.709 -13.752  43.176  1.00  0.00    -0.078 SA
HETATM    5  C7  UNL     1     -95.150 -14.349  42.830  1.00  0.00     0.076 A 
HETATM    6  C20 UNL     1     -94.616 -14.545  44.068  1.00  0.00     0.034 A 
HETATM    7  C19 UNL     1     -95.375 -14.249  45.129  1.00  0.00     0.045 A 
HETATM    8 BR1  UNL     1     -92.810 -15.233  44.255  1.00  0.00    -0.049 Br
BRANCH   5   9
HETATM    9  C6  UNL     1     -94.535 -14.592  41.505  1.00  0.00     0.190 A 
HETATM   10  O1  UNL     1     -94.230 -13.699  40.612  1.00  0.00    -0.217 OA
HETATM   11  N1  UNL     1     -93.702 -14.297  39.566  1.00  0.00    -0.247 N 
HETATM   12  C5  UNL     1     -93.677 -15.625  39.811  1.00  0.00     0.104 A 
ATOM     13  H1  UNL     1     -93.371 -13.837  38.717  1.00  0.00     0.196 HD
HETATM   14  N5  UNL     1     -94.205 -15.798  41.038  1.00  0.00    -0.322 N 
ATOM     15  H5  UNL     1     -94.331 -16.688  41.522  1.00  0.00     0.169 HD
BRANCH  12  16
HETATM   16  C4  UNL     1     -93.180 -16.724  38.944  1.00  0.00     0.078 C 
BRANCH  16  17
HETATM   17  C3  UNL     1     -94.193 -17.864  38.884  1.00  0.00     0.007 C 
BRANCH  17  18
HETATM   18  C2  UNL     1     -94.133 -18.503  37.524  1.00  0.00    -0.004 C 
HETATM   19  C1  UNL     1     -94.379 -17.420  36.485  1.00  0.00     0.005 C 
ENDBRANCH  17  18
ENDBRANCH  16  17
ENDBRANCH  12  16
ENDBRANCH   5   9
ENDBRANCH   1   3
BRANCH   1  20
HETATM   20  O3  UNL     1     -98.960 -13.733  45.663  1.00  0.00    -0.312 OA
BRANCH  20  21
HETATM   21  C10 UNL     1     -99.467 -15.045  45.805  1.00  0.00     0.134 C 
HETATM   22  C11 UNL     1     -98.816 -15.581  47.048  1.00  0.00     0.033 C 
HETATM   23  C12 UNL     1     -99.390 -15.143  48.334  1.00  0.00     0.012 C 
HETATM   24  C13 UNL     1    -100.719 -14.494  48.077  1.00  0.00     0.042 C 
HETATM   25  C14 UNL     1    -101.664 -14.507  49.215  1.00  0.00     0.154 C 
HETATM   26  C17 UNL     1    -101.415 -15.513  47.156  1.00  0.00     0.127 C 
HETATM   27  C15 UNL     1    -101.570 -13.247  50.038  1.00  0.00     0.042 C 
HETATM   28  O4  UNL     1    -102.915 -14.478  48.554  1.00  0.00    -0.270 OA
HETATM   29  N2  UNL     1    -102.764 -15.239  47.454  1.00  0.00    -0.224 N 
HETATM   30  C16 UNL     1    -103.868 -15.700  46.698  1.00  0.00     0.208 C 
HETATM   31  N3  UNL     1    -104.790 -14.916  46.254  1.00  0.00    -0.372 N 
HETATM   32  N4  UNL     1    -103.915 -17.090  46.445  1.00  0.00    -0.062 NA
ATOM     33  H32 UNL     1    -104.756 -13.913  46.438  1.00  0.00     0.158 HD
ATOM     34  H31 UNL     1    -105.586 -15.248  45.709  1.00  0.00     0.158 HD
HETATM   35  C18 UNL     1    -100.947 -15.138  45.777  1.00  0.00     0.061 C 
ENDBRANCH  20  21
ENDBRANCH   1  20
TORSDOF 7
ENDMDL
MODEL 5
REMARK VINA RESULT: -8.063554636      4.068      9.768
REMARK  7 active torsions:
REMARK  status: ('A' for Active; 'I' for Inactive)
REMARK    1  A    between atoms: C2_2  and  C3_3 
REMARK    2  A    between atoms: C3_3  and  C4_4 
REMARK    3  A    between atoms: C4_4  and  C5_5 
REMARK    4  A    between atoms: C6_9  and  C7_10 
REMARK    5  A    between atoms: C8_12  and  C9_13 
REMARK    6  A    between atoms: C9_13  and  O3_15 
REMARK    7  A    between atoms: O3_15  and  C10_16 
REMARK       I    between atoms: N2_23  and  C16_24 
ROOT
HETATM    1  C9  UNL     1    -103.214 -14.896  51.289  1.00  0.00     0.300 C 
HETATM    2  O2  UNL     1    -103.229 -15.480  52.372  1.00  0.00    -0.259 OA
ENDROOT
BRANCH   1   3
HETATM    3  C8  UNL     1    -101.953 -14.634  50.557  1.00  0.00     0.082 A 
HETATM    4  S1  UNL     1    -101.291 -15.460  49.219  1.00  0.00    -0.078 SA
HETATM    5  C7  UNL     1     -99.868 -14.543  49.010  1.00  0.00     0.076 A 
HETATM    6  C20 UNL     1     -99.957 -13.612  50.001  1.00  0.00     0.034 A 
HETATM    7  C19 UNL     1    -101.028 -13.653  50.802  1.00  0.00     0.045 A 
HETATM    8 BR1  UNL     1     -98.558 -12.283  50.220  1.00  0.00    -0.049 Br
BRANCH   5   9
HETATM    9  C6  UNL     1     -98.804 -14.722  47.997  1.00  0.00     0.190 A 
HETATM   10  O1  UNL     1     -97.880 -15.635  47.991  1.00  0.00    -0.217 OA
HETATM   11  N1  UNL     1     -97.118 -15.472  46.930  1.00  0.00    -0.247 N 
HETATM   12  C5  UNL     1     -97.584 -14.408  46.241  1.00  0.00     0.104 A 
ATOM     13  H1  UNL     1     -96.316 -16.049  46.674  1.00  0.00     0.196 HD
HETATM   14  N5  UNL     1     -98.647 -13.944  46.924  1.00  0.00    -0.322 N 
ATOM     15  H5  UNL     1     -99.227 -13.143  46.669  1.00  0.00     0.169 HD
BRANCH  12  16
HETATM   16  C4  UNL     1     -97.070 -13.820  44.977  1.00  0.00     0.078 C 
BRANCH  16  17
HETATM   17  C3  UNL     1     -98.075 -14.010  43.846  1.00  0.00     0.007 C 
BRANCH  17  18
HETATM   18  C2  UNL     1     -99.310 -13.204  44.145  1.00  0.00    -0.004 C 
HETATM   19  C1  UNL     1    -100.518 -14.017  43.707  1.00  0.00     0.005 C 
ENDBRANCH  17  18
ENDBRANCH  16  17
ENDBRANCH  12  16
ENDBRANCH   5   9
ENDBRANCH   1   3
BRANCH   1  20
HETATM   20  O3  UNL     1    -104.393 -14.484  50.756  1.00  0.00    -0.312 OA
BRANCH  20  21
HETATM   21  C10 UNL     1    -105.407 -15.342  50.270  1.00  0.00     0.134 C 
HETATM   22  C11 UNL     1    -106.376 -14.438  49.564  1.00  0.00     0.033 C 
HETATM   23  C12 UNL     1    -105.998 -13.999  48.208  1.00  0.00     0.012 C 
HETATM   24  C13 UNL     1    -104.848 -14.836  47.728  1.00  0.00     0.042 C 
HETATM   25  C14 UNL     1    -104.705 -14.939  46.259  1.00  0.00     0.154 C 
HETATM   26  C17 UNL     1    -105.324 -16.267  48.039  1.00  0.00     0.127 C 
HETATM   27  C15 UNL     1    -103.758 -13.901  45.712  1.00  0.00     0.042 C 
HETATM   28  O4  UNL     1    -104.069 -16.196  46.117  1.00  0.00    -0.270 OA
HETATM   29  N2  UNL     1    -104.608 -16.987  47.063  1.00  0.00    -0.224 N 
HETATM   30  C16 UNL     1    -104.455 -18.393  47.049  1.00  0.00     0.208 C 
HETATM   31  N3  UNL     1    -103.305 -18.972  46.959  1.00  0.00    -0.372 N 
HETATM   32  N4  UNL     1    -105.643 -19.153  47.141  1.00  0.00    -0.062 NA
ATOM     33  H32 UNL     1    -102.448 -18.423  46.892  1.00  0.00     0.158 HD
ATOM     34  H31 UNL     1    -103.194 -19.985  46.949  1.00  0.00     0.158 HD
HETATM   35  C18 UNL     1    -104.910 -16.487  49.468  1.00  0.00     0.061 C 
ENDBRANCH  20  21
ENDBRANCH   1  20
TORSDOF 7
ENDMDL
