MODEL 1
REMARK VINA RESULT: -8.973842419      0.000      0.000
REMARK  7 active torsions:
REMARK  status: ('A' for Active; 'I' for Inactive)
REMARK    1  A    between atoms: N1_1  and  C1_4 
REMARK    2  A    between atoms: C2_7  and  C3_8 
REMARK    3  A    between atoms: C6_12  and  C7_13 
REMARK    4  A    between atoms: N5_22  and  C14_23 
REMARK    5  A    between atoms: C14_23  and  C15_24 
REMARK    6  A    between atoms: C21_33  and  O2_34 
REMARK    7  A    between atoms: O2_34  and  C22_35 
ROOT
HETATM    1  C3  UNL     1    -101.556 -14.670  49.508  1.00  0.00     0.080 A 
HETATM    2  C4  UNL     1    -100.905 -13.461  49.466  1.00  0.00     0.134 A 
HETATM    3  N3  UNL     1     -99.669 -13.392  49.994  1.00  0.00    -0.165 N 
HETATM    4  C5  UNL     1     -98.775 -12.368  50.114  1.00  0.00     0.145 A 
HETATM    5  C6  UNL     1     -97.631 -12.811  50.745  1.00  0.00     0.076 A 
HETATM    6  N4  UNL     1     -97.853 -14.111  50.998  1.00  0.00    -0.188 N 
ATOM      7  H4  UNL     1     -97.196 -14.739  51.461  1.00  0.00     0.184 HD
HETATM    8  C13 UNL     1     -99.088 -14.466  50.544  1.00  0.00     0.698 A 
HETATM    9  N5  UNL     1     -99.727 -15.677  50.591  1.00  0.00    -0.118 N 
HETATM   10  C20 UNL     1    -100.959 -15.771  50.072  1.00  0.00     0.280 A 
HETATM   11  O1  UNL     1    -101.555 -16.861  50.106  1.00  0.00    -0.266 OA
ENDROOT
BRANCH   1  12
HETATM   12  C2  UNL     1    -102.912 -14.872  48.924  1.00  0.00     0.101 A 
HETATM   13  N2  UNL     1    -103.946 -14.999  49.766  1.00  0.00    -0.188 N 
HETATM   14  C1  UNL     1    -105.179 -15.138  49.301  1.00  0.00     0.676 A 
ATOM     15  H2  UNL     1    -103.784 -14.987  50.773  1.00  0.00     0.184 HD
HETATM   16  N7  UNL     1    -105.434 -15.158  47.961  1.00  0.00    -0.199 N 
HETATM   17  C28 UNL     1    -104.438 -15.036  47.110  1.00  0.00     0.145 A 
ATOM     18  H7  UNL     1    -106.389 -15.266  47.621  1.00  0.00     0.183 HD
HETATM   19  C21 UNL     1    -103.103 -14.884  47.568  1.00  0.00     0.120 A 
BRANCH  14  20
HETATM   20  N1  UNL     1    -106.165 -15.258  50.115  1.00  0.00    -0.234 N 
ATOM     21  H12 UNL     1    -106.029 -14.984  51.088  1.00  0.00     0.174 HD
ATOM     22  H11 UNL     1    -107.060 -15.621  49.786  1.00  0.00     0.174 HD
ENDBRANCH  14  20
BRANCH  19  23
HETATM   23  O2  UNL     1    -102.155 -14.761  46.703  1.00  0.00    -0.307 OA
BRANCH  23  24
HETATM   24  C22 UNL     1    -101.242 -14.586  45.847  1.00  0.00     0.076 A 
HETATM   25  C23 UNL     1    -101.452 -14.421  44.473  1.00  0.00     0.040 A 
HETATM   26  C24 UNL     1    -100.422 -14.235  43.584  1.00  0.00     0.045 A 
HETATM   27  C25 UNL     1     -99.125 -14.203  44.025  1.00  0.00     0.116 A 
HETATM   28  F1  UNL     1     -98.090 -14.021  43.186  1.00  0.00    -0.206 F 
HETATM   29  C26 UNL     1     -98.861 -14.359  45.359  1.00  0.00     0.045 A 
HETATM   30  C27 UNL     1     -99.886 -14.546  46.247  1.00  0.00     0.040 A 
ENDBRANCH  23  24
ENDBRANCH  19  23
ENDBRANCH   1  12
BRANCH   9  31
HETATM   31  C14 UNL     1     -99.011 -16.759  51.210  1.00  0.00     0.148 C 
BRANCH  31  32
HETATM   32  C15 UNL     1     -99.394 -17.087  52.569  1.00  0.00     0.048 A 
HETATM   33  C16 UNL     1     -98.662 -16.641  53.645  1.00  0.00     0.031 A 
HETATM   34  C17 UNL     1     -99.056 -16.973  54.952  1.00  0.00     0.004 A 
HETATM   35  C18 UNL     1    -100.176 -17.748  55.150  1.00  0.00     0.017 A 
HETATM   36  C19 UNL     1    -100.879 -18.173  54.047  1.00  0.00     0.088 A 
HETATM   37  N6  UNL     1    -100.473 -17.837  52.815  1.00  0.00    -0.365 N 
ATOM     38  H6  UNL     1    -101.018 -18.171  52.020  1.00  0.00     0.165 HD
ENDBRANCH  31  32
ENDBRANCH   9  31
BRANCH   5  39
HETATM   39  C7  UNL     1     -96.443 -12.030  51.072  1.00  0.00    -0.007 A 
HETATM   40  C8  UNL     1     -95.303 -12.173  50.277  1.00  0.00     0.014 A 
HETATM   41  C9  UNL     1     -94.160 -11.458  50.543  1.00  0.00     0.001 A 
HETATM   42  C10 UNL     1     -94.068 -10.574  51.589  1.00  0.00     0.000 A 
HETATM   43  C11 UNL     1     -95.207 -10.428  52.388  1.00  0.00     0.001 A 
HETATM   44  C12 UNL     1     -96.359 -11.148  52.120  1.00  0.00     0.014 A 
ENDBRANCH   5  39
TORSDOF 7
ENDMDL
MODEL 2
REMARK VINA RESULT: -8.798516240      1.254      1.780
REMARK  7 active torsions:
REMARK  status: ('A' for Active; 'I' for Inactive)
REMARK    1  A    between atoms: N1_1  and  C1_4 
REMARK    2  A    between atoms: C2_7  and  C3_8 
REMARK    3  A    between atoms: C6_12  and  C7_13 
REMARK    4  A    between atoms: N5_22  and  C14_23 
REMARK    5  A    between atoms: C14_23  and  C15_24 
REMARK    6  A    between atoms: C21_33  and  O2_34 
REMARK    7  A    between atoms: O2_34  and  C22_35 
ROOT
HETATM    1  C3  UNL     1    -101.502 -14.822  49.258  1.00  0.00     0.080 A 
HETATM    2  C4  UNL     1    -100.840 -13.626  49.397  1.00  0.00     0.134 A 
HETATM    3  N3  UNL     1     -99.871 -13.545  50.327  1.00  0.00    -0.165 N 
HETATM    4  C5  UNL     1     -99.046 -12.529  50.712  1.00  0.00     0.145 A 
HETATM    5  C6  UNL     1     -98.216 -12.953  51.728  1.00  0.00     0.076 A 
HETATM    6  N4  UNL     1     -98.554 -14.234  51.943  1.00  0.00    -0.188 N 
ATOM      7  H4  UNL     1     -98.125 -14.846  52.638  1.00  0.00     0.184 HD
HETATM    8  C13 UNL     1     -99.557 -14.596  51.096  1.00  0.00     0.698 A 
HETATM    9  N5  UNL     1    -100.210 -15.794  50.967  1.00  0.00    -0.118 N 
HETATM   10  C20 UNL     1    -101.179 -15.898  50.048  1.00  0.00     0.280 A 
HETATM   11  O1  UNL     1    -101.783 -16.978  49.916  1.00  0.00    -0.266 OA
ENDROOT
BRANCH   1  12
HETATM   12  C2  UNL     1    -102.568 -15.036  48.239  1.00  0.00     0.101 A 
HETATM   13  N2  UNL     1    -103.822 -15.218  48.671  1.00  0.00    -0.188 N 
HETATM   14  C1  UNL     1    -104.816 -15.372  47.807  1.00  0.00     0.676 A 
ATOM     15  H2  UNL     1    -104.015 -15.238  49.672  1.00  0.00     0.184 HD
HETATM   16  N7  UNL     1    -104.595 -15.350  46.461  1.00  0.00    -0.199 N 
HETATM   17  C28 UNL     1    -103.372 -15.173  46.008  1.00  0.00     0.145 A 
ATOM     18  H7  UNL     1    -105.371 -15.470  45.811  1.00  0.00     0.183 HD
HETATM   19  C21 UNL     1    -102.282 -15.005  46.900  1.00  0.00     0.120 A 
BRANCH  14  20
HETATM   20  N1  UNL     1    -106.016 -15.544  48.230  1.00  0.00    -0.234 N 
ATOM     21  H12 UNL     1    -106.294 -15.098  49.104  1.00  0.00     0.174 HD
ATOM     22  H11 UNL     1    -106.670 -16.118  47.696  1.00  0.00     0.174 HD
ENDBRANCH  14  20
BRANCH  19  23
HETATM   23  O2  UNL     1    -101.099 -14.828  46.417  1.00  0.00    -0.307 OA
BRANCH  23  24
HETATM   24  C22 UNL     1     -99.946 -14.599  45.956  1.00  0.00     0.076 A 
HETATM   25  C23 UNL     1     -98.746 -14.899  46.611  1.00  0.00     0.040 A 
HETATM   26  C24 UNL     1     -97.516 -14.627  46.065  1.00  0.00     0.045 A 
HETATM   27  C25 UNL     1     -97.422 -14.039  44.830  1.00  0.00     0.116 A 
HETATM   28  F1  UNL     1     -96.236 -13.759  44.261  1.00  0.00    -0.206 F 
HETATM   29  C26 UNL     1     -98.564 -13.724  44.144  1.00  0.00     0.045 A 
HETATM   30  C27 UNL     1     -99.791 -13.993  44.687  1.00  0.00     0.040 A 
ENDBRANCH  23  24
ENDBRANCH  19  23
ENDBRANCH   1  12
BRANCH   9  31
HETATM   31  C14 UNL     1     -99.795 -16.850  51.848  1.00  0.00     0.148 C 
BRANCH  31  32
HETATM   32  C15 UNL     1    -100.633 -17.083  53.008  1.00  0.00     0.048 A 
HETATM   33  C16 UNL     1    -100.763 -18.339  53.554  1.00  0.00     0.031 A 
HETATM   34  C17 UNL     1    -101.581 -18.537  54.679  1.00  0.00     0.004 A 
HETATM   35  C18 UNL     1    -102.251 -17.470  55.231  1.00  0.00     0.017 A 
HETATM   36  C19 UNL     1    -102.094 -16.231  54.654  1.00  0.00     0.088 A 
HETATM   37  N6  UNL     1    -101.305 -16.080  53.581  1.00  0.00    -0.365 N 
ATOM     38  H6  UNL     1    -101.212 -15.147  53.179  1.00  0.00     0.165 HD
ENDBRANCH  31  32
ENDBRANCH   9  31
BRANCH   5  39
HETATM   39  C7  UNL     1     -97.197 -12.171  52.421  1.00  0.00    -0.007 A 
HETATM   40  C8  UNL     1     -96.220 -11.517  51.666  1.00  0.00     0.014 A 
HETATM   41  C9  UNL     1     -95.241 -10.767  52.272  1.00  0.00     0.001 A 
HETATM   42  C10 UNL     1     -95.162 -10.617  53.635  1.00  0.00     0.000 A 
HETATM   43  C11 UNL     1     -96.138 -11.270  54.394  1.00  0.00     0.001 A 
HETATM   44  C12 UNL     1     -97.126 -12.025  53.784  1.00  0.00     0.014 A 
ENDBRANCH   5  39
TORSDOF 7
ENDMDL
MODEL 3
REMARK VINA RESULT: -8.786991673      1.276      1.777
REMARK  7 active torsions:
REMARK  status: ('A' for Active; 'I' for Inactive)
REMARK    1  A    between atoms: N1_1  and  C1_4 
REMARK    2  A    between atoms: C2_7  and  C3_8 
REMARK    3  A    between atoms: C6_12  and  C7_13 
REMARK    4  A    between atoms: N5_22  and  C14_23 
REMARK    5  A    between atoms: C14_23  and  C15_24 
REMARK    6  A    between atoms: C21_33  and  O2_34 
REMARK    7  A    between atoms: O2_34  and  C22_35 
ROOT
HETATM    1  C3  UNL     1    -101.540 -14.844  49.260  1.00  0.00     0.080 A 
HETATM    2  C4  UNL     1    -100.875 -13.648  49.382  1.00  0.00     0.134 A 
HETATM    3  N3  UNL     1     -99.900 -13.559  50.306  1.00  0.00    -0.165 N 
HETATM    4  C5  UNL     1     -99.071 -12.541  50.675  1.00  0.00     0.145 A 
HETATM    5  C6  UNL     1     -98.236 -12.955  51.691  1.00  0.00     0.076 A 
HETATM    6  N4  UNL     1     -98.576 -14.234  51.922  1.00  0.00    -0.188 N 
ATOM      7  H4  UNL     1     -98.144 -14.838  52.621  1.00  0.00     0.184 HD
HETATM    8  C13 UNL     1     -99.585 -14.602  51.084  1.00  0.00     0.698 A 
HETATM    9  N5  UNL     1    -100.241 -15.800  50.972  1.00  0.00    -0.118 N 
HETATM   10  C20 UNL     1    -101.215 -15.913  50.060  1.00  0.00     0.280 A 
HETATM   11  O1  UNL     1    -101.822 -16.992  49.943  1.00  0.00    -0.266 OA
ENDROOT
BRANCH   1  12
HETATM   12  C2  UNL     1    -102.612 -15.067  48.250  1.00  0.00     0.101 A 
HETATM   13  N2  UNL     1    -103.861 -15.263  48.691  1.00  0.00    -0.188 N 
HETATM   14  C1  UNL     1    -104.860 -15.425  47.836  1.00  0.00     0.676 A 
ATOM     15  H2  UNL     1    -104.045 -15.288  49.694  1.00  0.00     0.184 HD
HETATM   16  N7  UNL     1    -104.651 -15.398  46.488  1.00  0.00    -0.199 N 
HETATM   17  C28 UNL     1    -103.434 -15.207  46.025  1.00  0.00     0.145 A 
ATOM     18  H7  UNL     1    -105.431 -15.524  45.844  1.00  0.00     0.183 HD
HETATM   19  C21 UNL     1    -102.338 -15.029  46.908  1.00  0.00     0.120 A 
BRANCH  14  20
HETATM   20  N1  UNL     1    -106.055 -15.611  48.268  1.00  0.00    -0.234 N 
ATOM     21  H12 UNL     1    -106.249 -15.439  49.254  1.00  0.00     0.174 HD
ATOM     22  H11 UNL     1    -106.787 -15.926  47.631  1.00  0.00     0.174 HD
ENDBRANCH  14  20
BRANCH  19  23
HETATM   23  O2  UNL     1    -101.161 -14.839  46.416  1.00  0.00    -0.307 OA
BRANCH  23  24
HETATM   24  C22 UNL     1    -100.017 -14.595  45.939  1.00  0.00     0.076 A 
HETATM   25  C23 UNL     1     -99.777 -13.977  44.706  1.00  0.00     0.040 A 
HETATM   26  C24 UNL     1     -98.512 -13.736  44.232  1.00  0.00     0.045 A 
HETATM   27  C25 UNL     1     -97.416 -14.102  44.970  1.00  0.00     0.116 A 
HETATM   28  F1  UNL     1     -96.161 -13.881  44.541  1.00  0.00    -0.206 F 
HETATM   29  C26 UNL     1     -97.591 -14.710  46.184  1.00  0.00     0.045 A 
HETATM   30  C27 UNL     1     -98.853 -14.952  46.657  1.00  0.00     0.040 A 
ENDBRANCH  23  24
ENDBRANCH  19  23
ENDBRANCH   1  12
BRANCH   9  31
HETATM   31  C14 UNL     1     -99.824 -16.848  51.863  1.00  0.00     0.148 C 
BRANCH  31  32
HETATM   32  C15 UNL     1    -100.653 -17.064  53.032  1.00  0.00     0.048 A 
HETATM   33  C16 UNL     1    -100.779 -18.311  53.597  1.00  0.00     0.031 A 
HETATM   34  C17 UNL     1    -101.589 -18.493  54.731  1.00  0.00     0.004 A 
HETATM   35  C18 UNL     1    -102.256 -17.418  55.271  1.00  0.00     0.017 A 
HETATM   36  C19 UNL     1    -102.104 -16.188  54.674  1.00  0.00     0.088 A 
HETATM   37  N6  UNL     1    -101.322 -16.052  53.594  1.00  0.00    -0.365 N 
ATOM     38  H6  UNL     1    -101.233 -15.126  53.177  1.00  0.00     0.165 HD
ENDBRANCH  31  32
ENDBRANCH   9  31
BRANCH   5  39
HETATM   39  C7  UNL     1     -97.212 -12.169  52.370  1.00  0.00    -0.007 A 
HETATM   40  C8  UNL     1     -97.217 -12.119  53.767  1.00  0.00     0.014 A 
HETATM   41  C9  UNL     1     -96.273 -11.393  54.453  1.00  0.00     0.001 A 
HETATM   42  C10 UNL     1     -95.282 -10.684  53.819  1.00  0.00     0.000 A 
HETATM   43  C11 UNL     1     -95.274 -10.732  52.422  1.00  0.00     0.001 A 
HETATM   44  C12 UNL     1     -96.224 -11.463  51.730  1.00  0.00     0.014 A 
ENDBRANCH   5  39
TORSDOF 7
ENDMDL
MODEL 4
REMARK VINA RESULT: -8.779466745      3.062      6.731
REMARK  7 active torsions:
REMARK  status: ('A' for Active; 'I' for Inactive)
REMARK    1  A    between atoms: N1_1  and  C1_4 
REMARK    2  A    between atoms: C2_7  and  C3_8 
REMARK    3  A    between atoms: C6_12  and  C7_13 
REMARK    4  A    between atoms: N5_22  and  C14_23 
REMARK    5  A    between atoms: C14_23  and  C15_24 
REMARK    6  A    between atoms: C21_33  and  O2_34 
REMARK    7  A    between atoms: O2_34  and  C22_35 
ROOT
HETATM    1  C3  UNL     1     -96.917 -14.381  47.467  1.00  0.00     0.080 A 
HETATM    2  C4  UNL     1     -97.239 -15.598  48.019  1.00  0.00     0.134 A 
HETATM    3  N3  UNL     1     -97.782 -15.608  49.250  1.00  0.00    -0.165 N 
HETATM    4  C5  UNL     1     -98.202 -16.621  50.062  1.00  0.00     0.145 A 
HETATM    5  C6  UNL     1     -98.687 -16.107  51.246  1.00  0.00     0.076 A 
HETATM    6  N4  UNL     1     -98.554 -14.776  51.129  1.00  0.00    -0.188 N 
ATOM      7  H4  UNL     1     -98.823 -14.095  51.839  1.00  0.00     0.184 HD
HETATM    8  C13 UNL     1     -98.006 -14.471  49.920  1.00  0.00     0.698 A 
HETATM    9  N5  UNL     1     -97.690 -13.251  49.381  1.00  0.00    -0.118 N 
HETATM   10  C20 UNL     1     -97.147 -13.215  48.156  1.00  0.00     0.280 A 
HETATM   11  O1  UNL     1     -96.854 -12.118  47.650  1.00  0.00    -0.266 OA
ENDROOT
BRANCH   1  12
HETATM   12  C2  UNL     1     -96.343 -14.246  46.099  1.00  0.00     0.101 A 
HETATM   13  N2  UNL     1     -95.011 -14.188  45.980  1.00  0.00    -0.188 N 
HETATM   14  C1  UNL     1     -94.445 -14.110  44.784  1.00  0.00     0.676 A 
ATOM     15  H2  UNL     1     -94.427 -14.204  46.816  1.00  0.00     0.184 HD
HETATM   16  N7  UNL     1     -95.194 -14.086  43.644  1.00  0.00    -0.199 N 
HETATM   17  C28 UNL     1     -96.506 -14.142  43.731  1.00  0.00     0.145 A 
ATOM     18  H7  UNL     1     -94.742 -14.026  42.733  1.00  0.00     0.183 HD
HETATM   19  C21 UNL     1     -97.151 -14.226  44.992  1.00  0.00     0.120 A 
BRANCH  14  20
HETATM   20  N1  UNL     1     -93.166 -14.056  44.679  1.00  0.00    -0.234 N 
ATOM     21  H12 UNL     1     -92.641 -14.930  44.659  1.00  0.00     0.174 HD
ATOM     22  H11 UNL     1     -92.694 -13.153  44.619  1.00  0.00     0.174 HD
ENDBRANCH  14  20
BRANCH  19  23
HETATM   23  O2  UNL     1     -98.438 -14.285  45.035  1.00  0.00    -0.307 OA
BRANCH  23  24
HETATM   24  C22 UNL     1     -99.697 -14.393  45.049  1.00  0.00     0.076 A 
HETATM   25  C23 UNL     1    -100.551 -13.934  44.039  1.00  0.00     0.040 A 
HETATM   26  C24 UNL     1    -101.916 -14.076  44.104  1.00  0.00     0.045 A 
HETATM   27  C25 UNL     1    -102.497 -14.686  45.185  1.00  0.00     0.116 A 
HETATM   28  F1  UNL     1    -103.829 -14.845  45.283  1.00  0.00    -0.206 F 
HETATM   29  C26 UNL     1    -101.709 -15.154  46.201  1.00  0.00     0.045 A 
HETATM   30  C27 UNL     1    -100.349 -15.013  46.139  1.00  0.00     0.040 A 
ENDBRANCH  23  24
ENDBRANCH  19  23
ENDBRANCH   1  12
BRANCH   9  31
HETATM   31  C14 UNL     1     -97.967 -12.098  50.192  1.00  0.00     0.148 C 
BRANCH  31  32
HETATM   32  C15 UNL     1     -97.061 -11.859  51.298  1.00  0.00     0.048 A 
HETATM   33  C16 UNL     1     -95.702 -11.783  51.103  1.00  0.00     0.031 A 
HETATM   34  C17 UNL     1     -94.845 -11.550  52.193  1.00  0.00     0.004 A 
HETATM   35  C18 UNL     1     -95.373 -11.400  53.454  1.00  0.00     0.017 A 
HETATM   36  C19 UNL     1     -96.738 -11.484  53.605  1.00  0.00     0.088 A 
HETATM   37  N6  UNL     1     -97.524 -11.708  52.543  1.00  0.00    -0.365 N 
ATOM     38  H6  UNL     1     -98.531 -11.765  52.692  1.00  0.00     0.165 HD
ENDBRANCH  31  32
ENDBRANCH   9  31
BRANCH   5  39
HETATM   39  C7  UNL     1     -99.221 -16.853  52.381  1.00  0.00    -0.007 A 
HETATM   40  C8  UNL     1     -98.536 -16.809  53.598  1.00  0.00     0.014 A 
HETATM   41  C9  UNL     1     -98.999 -17.493  54.697  1.00  0.00     0.001 A 
HETATM   42  C10 UNL     1    -100.145 -18.250  54.667  1.00  0.00     0.000 A 
HETATM   43  C11 UNL     1    -100.833 -18.296  53.450  1.00  0.00     0.001 A 
HETATM   44  C12 UNL     1    -100.368 -17.607  52.344  1.00  0.00     0.014 A 
ENDBRANCH   5  39
TORSDOF 7
ENDMDL
MODEL 5
REMARK VINA RESULT: -8.371871986      2.388      3.167
REMARK  7 active torsions:
REMARK  status: ('A' for Active; 'I' for Inactive)
REMARK    1  A    between atoms: N1_1  and  C1_4 
REMARK    2  A    between atoms: C2_7  and  C3_8 
REMARK    3  A    between atoms: C6_12  and  C7_13 
REMARK    4  A    between atoms: N5_22  and  C14_23 
REMARK    5  A    between atoms: C14_23  and  C15_24 
REMARK    6  A    between atoms: C21_33  and  O2_34 
REMARK    7  A    between atoms: O2_34  and  C22_35 
ROOT
HETATM    1  C3  UNL     1    -101.320 -15.164  49.340  1.00  0.00     0.080 A 
HETATM    2  C4  UNL     1    -100.238 -16.006  49.243  1.00  0.00     0.134 A 
HETATM    3  N3  UNL     1     -99.093 -15.634  49.843  1.00  0.00    -0.165 N 
HETATM    4  C5  UNL     1     -97.865 -16.224  49.931  1.00  0.00     0.145 A 
HETATM    5  C6  UNL     1     -97.010 -15.428  50.664  1.00  0.00     0.076 A 
HETATM    6  N4  UNL     1     -97.742 -14.358  51.012  1.00  0.00    -0.188 N 
ATOM      7  H4  UNL     1     -97.404 -13.571  51.566  1.00  0.00     0.184 HD
HETATM    8  C13 UNL     1     -99.005 -14.480  50.516  1.00  0.00     0.698 A 
HETATM    9  N5  UNL     1    -100.076 -13.631  50.621  1.00  0.00    -0.118 N 
HETATM   10  C20 UNL     1    -101.228 -13.980  50.031  1.00  0.00     0.280 A 
HETATM   11  O1  UNL     1    -102.211 -13.224  50.115  1.00  0.00    -0.266 OA
ENDROOT
BRANCH   1  12
HETATM   12  C2  UNL     1    -102.647 -15.489  48.745  1.00  0.00     0.101 A 
HETATM   13  N2  UNL     1    -103.642 -15.824  49.575  1.00  0.00    -0.188 N 
HETATM   14  C1  UNL     1    -104.853 -16.082  49.104  1.00  0.00     0.676 A 
ATOM     15  H2  UNL     1    -103.467 -15.882  50.579  1.00  0.00     0.184 HD
HETATM   16  N7  UNL     1    -105.124 -16.015  47.768  1.00  0.00    -0.199 N 
HETATM   17  C28 UNL     1    -104.165 -15.687  46.929  1.00  0.00     0.145 A 
ATOM     18  H7  UNL     1    -106.062 -16.217  47.423  1.00  0.00     0.183 HD
HETATM   19  C21 UNL     1    -102.855 -15.404  47.394  1.00  0.00     0.120 A 
BRANCH  14  20
HETATM   20  N1  UNL     1    -105.803 -16.402  49.908  1.00  0.00    -0.234 N 
ATOM     21  H12 UNL     1    -106.541 -15.721  50.085  1.00  0.00     0.174 HD
ATOM     22  H11 UNL     1    -105.808 -17.319  50.356  1.00  0.00     0.174 HD
ENDBRANCH  14  20
BRANCH  19  23
HETATM   23  O2  UNL     1    -101.944 -15.081  46.540  1.00  0.00    -0.307 OA
BRANCH  23  24
HETATM   24  C22 UNL     1    -101.039 -14.718  45.737  1.00  0.00     0.076 A 
HETATM   25  C23 UNL     1    -101.228 -14.480  44.371  1.00  0.00     0.040 A 
HETATM   26  C24 UNL     1    -100.209 -14.088  43.539  1.00  0.00     0.045 A 
HETATM   27  C25 UNL     1     -98.942 -13.912  44.034  1.00  0.00     0.116 A 
HETATM   28  F1  UNL     1     -97.918 -13.528  43.251  1.00  0.00    -0.206 F 
HETATM   29  C26 UNL     1     -98.699 -14.132  45.363  1.00  0.00     0.045 A 
HETATM   30  C27 UNL     1     -99.715 -14.524  46.193  1.00  0.00     0.040 A 
ENDBRANCH  23  24
ENDBRANCH  19  23
ENDBRANCH   1  12
BRANCH   9  31
HETATM   31  C14 UNL     1     -99.866 -12.418  51.361  1.00  0.00     0.148 C 
BRANCH  31  32
HETATM   32  C15 UNL     1     -99.539 -12.571  52.764  1.00  0.00     0.048 A 
HETATM   33  C16 UNL     1    -100.243 -13.435  53.571  1.00  0.00     0.031 A 
HETATM   34  C17 UNL     1     -99.905 -13.565  54.929  1.00  0.00     0.004 A 
HETATM   35  C18 UNL     1     -98.868 -12.824  55.447  1.00  0.00     0.017 A 
HETATM   36  C19 UNL     1     -98.191 -11.972  54.606  1.00  0.00     0.088 A 
HETATM   37  N6  UNL     1     -98.541 -11.873  53.317  1.00  0.00    -0.365 N 
ATOM     38  H6  UNL     1     -98.018 -11.230  52.723  1.00  0.00     0.165 HD
ENDBRANCH  31  32
ENDBRANCH   9  31
BRANCH   5  39
HETATM   39  C7  UNL     1     -95.611 -15.692  50.981  1.00  0.00    -0.007 A 
HETATM   40  C8  UNL     1     -94.635 -15.387  50.028  1.00  0.00     0.014 A 
HETATM   41  C9  UNL     1     -93.303 -15.615  50.280  1.00  0.00     0.001 A 
HETATM   42  C10 UNL     1     -92.856 -16.150  51.463  1.00  0.00     0.000 A 
HETATM   43  C11 UNL     1     -93.830 -16.457  52.419  1.00  0.00     0.001 A 
HETATM   44  C12 UNL     1     -95.171 -16.226  52.166  1.00  0.00     0.014 A 
ENDBRANCH   5  39
TORSDOF 7
ENDMDL
