MODEL 1
REMARK VINA RESULT: -9.547281034      0.000      0.000
REMARK  5 active torsions:
REMARK  status: ('A' for Active; 'I' for Inactive)
REMARK    1  A    between atoms: N1_4  and  C4_5 
REMARK    2  A    between atoms: C4_5  and  C5_6 
REMARK    3  A    between atoms: C5_6  and  C6_7 
REMARK    4  A    between atoms: C6_7  and  C7_8 
REMARK    5  A    between atoms: C7_8  and  N2_9 
ROOT
HETATM    1  C1  UNL     1     -12.854  19.485 -22.601  1.00  0.00     0.041 C 
HETATM    2  C2  UNL     1     -12.656  17.987 -22.764  1.00  0.00     0.200 C 
HETATM    3  C3  UNL     1     -12.607  17.379 -21.401  1.00  0.00     0.157 C 
HETATM    4  N1  UNL     1     -12.638  15.959 -21.351  1.00  0.00    -0.364 N 
HETATM    5  C13 UNL     1     -12.969  14.878 -22.206  1.00  0.00     0.127 A 
HETATM    6  N4  UNL     1     -13.215  13.834 -21.371  1.00  0.00    -0.337 N 
ATOM      7  H4  UNL     1     -13.131  13.966 -20.363  1.00  0.00     0.167 HD
HETATM    8  C14 UNL     1     -13.568  12.628 -21.854  1.00  0.00     0.087 A 
HETATM    9  C15 UNL     1     -13.875  11.406 -21.288  1.00  0.00     0.058 A 
HETATM   10  C16 UNL     1     -14.160  10.546 -22.326  1.00  0.00     0.147 A 
HETATM   11  O1  UNL     1     -14.025  11.230 -23.422  1.00  0.00    -0.304 OA
HETATM   12  C17 UNL     1     -13.675  12.476 -23.205  1.00  0.00     0.174 A 
HETATM   13  N5  UNL     1     -13.425  13.532 -24.030  1.00  0.00    -0.335 N 
ATOM     14  H5  UNL     1     -13.510  13.396 -25.037  1.00  0.00     0.168 HD
HETATM   15  C18 UNL     1     -13.072  14.746 -23.573  1.00  0.00     0.058 A 
HETATM   16  C19 UNL     1     -12.890  15.597 -24.770  1.00  0.00     0.099 C 
HETATM   17  C20 UNL     1     -13.544  16.930 -24.725  1.00  0.00     0.124 C 
HETATM   18  C21 UNL     1     -12.622  17.882 -25.509  1.00  0.00     0.046 C 
HETATM   19  C22 UNL     1     -14.873  16.964 -25.494  1.00  0.00     0.046 C 
HETATM   20  N6  UNL     1     -13.828  17.440 -23.419  1.00  0.00    -0.061 N 
ATOM     21  H61 UNL     1     -14.583  18.126 -23.451  1.00  0.00     0.278 HD
ATOM     22  H62 UNL     1     -14.273  16.730 -22.838  1.00  0.00     0.278 HD
ENDROOT
BRANCH   4  23
HETATM   23  C4  UNL     1     -12.213  15.468 -20.038  1.00  0.00     0.124 C 
BRANCH  23  24
HETATM   24  C5  UNL     1     -11.897  16.689 -19.215  1.00  0.00     0.021 C 
BRANCH  24  25
HETATM   25  C6  UNL     1     -12.003  16.389 -17.729  1.00  0.00     0.021 C 
BRANCH  25  26
HETATM   26  C7  UNL     1     -10.584  16.132 -17.256  1.00  0.00     0.117 C 
BRANCH  26  27
HETATM   27  N2  UNL     1     -10.307  14.763 -16.992  1.00  0.00    -0.409 N 
HETATM   28  C8  UNL     1      -9.541  14.072 -17.975  1.00  0.00     0.147 C 
HETATM   29  C9  UNL     1      -9.444  12.611 -17.535  1.00  0.00     0.291 C 
HETATM   30  N3  UNL     1      -8.604  12.563 -16.373  1.00  0.00     0.087 N 
HETATM   31  C10 UNL     1      -8.600  11.246 -15.761  1.00  0.00     0.310 C 
HETATM   32  C11 UNL     1      -8.806  13.615 -15.427  1.00  0.00     0.291 C 
HETATM   33  C12 UNL     1     -10.084  14.392 -15.640  1.00  0.00     0.147 C 
ENDBRANCH  26  27
ENDBRANCH  25  26
ENDBRANCH  24  25
ENDBRANCH  23  24
ENDBRANCH   4  23
TORSDOF 5
ENDMDL
MODEL 2
REMARK VINA RESULT: -9.019039434      1.193      1.542
REMARK  5 active torsions:
REMARK  status: ('A' for Active; 'I' for Inactive)
REMARK    1  A    between atoms: N1_4  and  C4_5 
REMARK    2  A    between atoms: C4_5  and  C5_6 
REMARK    3  A    between atoms: C5_6  and  C6_7 
REMARK    4  A    between atoms: C6_7  and  C7_8 
REMARK    5  A    between atoms: C7_8  and  N2_9 
ROOT
HETATM    1  C1  UNL     1     -13.074  18.484 -23.493  1.00  0.00     0.041 C 
HETATM    2  C2  UNL     1     -12.964  16.970 -23.558  1.00  0.00     0.200 C 
HETATM    3  C3  UNL     1     -12.934  16.451 -22.158  1.00  0.00     0.157 C 
HETATM    4  N1  UNL     1     -13.046  15.041 -22.013  1.00  0.00    -0.364 N 
HETATM    5  C13 UNL     1     -13.449  13.928 -22.791  1.00  0.00     0.127 A 
HETATM    6  N4  UNL     1     -13.745  12.956 -21.887  1.00  0.00    -0.337 N 
ATOM      7  H4  UNL     1     -13.642  13.150 -20.891  1.00  0.00     0.167 HD
HETATM    8  C14 UNL     1     -14.172  11.744 -22.286  1.00  0.00     0.087 A 
HETATM    9  C15 UNL     1     -14.543  10.582 -21.638  1.00  0.00     0.058 A 
HETATM   10  C16 UNL     1     -14.889   9.674 -22.614  1.00  0.00     0.147 A 
HETATM   11  O1  UNL     1     -14.727  10.274 -23.753  1.00  0.00    -0.304 OA
HETATM   12  C17 UNL     1     -14.303  11.509 -23.623  1.00  0.00     0.174 A 
HETATM   13  N5  UNL     1     -14.003  12.492 -24.519  1.00  0.00    -0.335 N 
ATOM     14  H5  UNL     1     -14.107  12.295 -25.513  1.00  0.00     0.168 HD
HETATM   15  C18 UNL     1     -13.575  13.711 -24.146  1.00  0.00     0.058 A 
HETATM   16  C19 UNL     1     -13.359  14.470 -25.399  1.00  0.00     0.099 C 
HETATM   17  C20 UNL     1     -13.934  15.838 -25.437  1.00  0.00     0.124 C 
HETATM   18  C21 UNL     1     -12.968  16.681 -26.290  1.00  0.00     0.046 C 
HETATM   19  C22 UNL     1     -15.268  15.899 -26.196  1.00  0.00     0.046 C 
HETATM   20  N6  UNL     1     -14.173  16.449 -24.166  1.00  0.00    -0.061 N 
ATOM     21  H61 UNL     1     -14.888  17.174 -24.237  1.00  0.00     0.278 HD
ATOM     22  H62 UNL     1     -14.652  15.806 -23.536  1.00  0.00     0.278 HD
ENDROOT
BRANCH   4  23
HETATM   23  C4  UNL     1     -12.635  14.614 -20.673  1.00  0.00     0.124 C 
BRANCH  23  24
HETATM   24  C5  UNL     1     -12.724  15.836 -19.797  1.00  0.00     0.021 C 
BRANCH  24  25
HETATM   25  C6  UNL     1     -11.596  15.862 -18.779  1.00  0.00     0.021 C 
BRANCH  25  26
HETATM   26  C7  UNL     1     -10.482  15.019 -19.375  1.00  0.00     0.117 C 
BRANCH  26  27
HETATM   27  N2  UNL     1      -9.773  14.248 -18.415  1.00  0.00    -0.409 N 
HETATM   28  C8  UNL     1     -10.097  14.488 -17.047  1.00  0.00     0.147 C 
HETATM   29  C9  UNL     1      -9.160  13.628 -16.198  1.00  0.00     0.291 C 
HETATM   30  N3  UNL     1      -9.540  12.258 -16.388  1.00  0.00     0.087 N 
HETATM   31  C10 UNL     1      -8.592  11.343 -15.775  1.00  0.00     0.310 C 
HETATM   32  C11 UNL     1      -9.874  11.895 -17.729  1.00  0.00     0.291 C 
HETATM   33  C12 UNL     1      -9.448  12.911 -18.763  1.00  0.00     0.147 C 
ENDBRANCH  26  27
ENDBRANCH  25  26
ENDBRANCH  24  25
ENDBRANCH  23  24
ENDBRANCH   4  23
TORSDOF 5
ENDMDL
MODEL 3
REMARK VINA RESULT: -8.996561724      2.839      8.303
REMARK  5 active torsions:
REMARK  status: ('A' for Active; 'I' for Inactive)
REMARK    1  A    between atoms: N1_4  and  C4_5 
REMARK    2  A    between atoms: C4_5  and  C5_6 
REMARK    3  A    between atoms: C5_6  and  C6_7 
REMARK    4  A    between atoms: C6_7  and  C7_8 
REMARK    5  A    between atoms: C7_8  and  N2_9 
ROOT
HETATM    1  C1  UNL     1     -12.046  12.274 -21.214  1.00  0.00     0.041 C 
HETATM    2  C2  UNL     1     -11.296  13.278 -20.356  1.00  0.00     0.200 C 
HETATM    3  C3  UNL     1     -12.148  14.497 -20.224  1.00  0.00     0.157 C 
HETATM    4  N1  UNL     1     -11.707  15.467 -19.283  1.00  0.00    -0.364 N 
HETATM    5  C13 UNL     1     -10.809  15.547 -18.190  1.00  0.00     0.127 A 
HETATM    6  N4  UNL     1     -11.231  16.618 -17.467  1.00  0.00    -0.337 N 
ATOM      7  H4  UNL     1     -12.041  17.150 -17.784  1.00  0.00     0.167 HD
HETATM    8  C14 UNL     1     -10.597  16.986 -16.338  1.00  0.00     0.087 A 
HETATM    9  C15 UNL     1     -10.773  17.993 -15.409  1.00  0.00     0.058 A 
HETATM   10  C16 UNL     1      -9.784  17.839 -14.463  1.00  0.00     0.147 A 
HETATM   11  O1  UNL     1      -9.081  16.809 -14.824  1.00  0.00    -0.304 OA
HETATM   12  C17 UNL     1      -9.517  16.258 -15.932  1.00  0.00     0.174 A 
HETATM   13  N5  UNL     1      -9.105  15.187 -16.667  1.00  0.00    -0.335 N 
ATOM     14  H5  UNL     1      -8.295  14.657 -16.346  1.00  0.00     0.168 HD
HETATM   15  C18 UNL     1      -9.721  14.798 -17.797  1.00  0.00     0.058 A 
HETATM   16  C19 UNL     1      -8.973  13.618 -18.286  1.00  0.00     0.099 C 
HETATM   17  C20 UNL     1      -9.795  12.445 -18.680  1.00  0.00     0.124 C 
HETATM   18  C21 UNL     1      -9.050  11.778 -19.851  1.00  0.00     0.046 C 
HETATM   19  C22 UNL     1      -9.845  11.364 -17.591  1.00  0.00     0.046 C 
HETATM   20  N6  UNL     1     -11.155  12.725 -19.023  1.00  0.00    -0.061 N 
ATOM     21  H61 UNL     1     -11.740  11.897 -18.907  1.00  0.00     0.278 HD
ATOM     22  H62 UNL     1     -11.589  13.333 -18.328  1.00  0.00     0.278 HD
ENDROOT
BRANCH   4  23
HETATM   23  C4  UNL     1     -12.375  16.753 -19.498  1.00  0.00     0.124 C 
BRANCH  23  24
HETATM   24  C5  UNL     1     -12.611  16.861 -20.982  1.00  0.00     0.021 C 
BRANCH  24  25
HETATM   25  C6  UNL     1     -12.503  18.303 -21.448  1.00  0.00     0.021 C 
BRANCH  25  26
HETATM   26  C7  UNL     1     -12.061  18.237 -22.899  1.00  0.00     0.117 C 
BRANCH  26  27
HETATM   27  N2  UNL     1     -12.904  17.439 -23.718  1.00  0.00    -0.409 N 
HETATM   28  C8  UNL     1     -14.141  18.026 -24.113  1.00  0.00     0.147 C 
HETATM   29  C9  UNL     1     -14.918  16.971 -24.901  1.00  0.00     0.291 C 
HETATM   30  N3  UNL     1     -14.236  16.773 -26.148  1.00  0.00     0.087 N 
HETATM   31  C10 UNL     1     -14.783  15.652 -26.892  1.00  0.00     0.310 C 
HETATM   32  C11 UNL     1     -12.809  16.745 -26.069  1.00  0.00     0.291 C 
HETATM   33  C12 UNL     1     -12.277  16.587 -24.664  1.00  0.00     0.147 C 
ENDBRANCH  26  27
ENDBRANCH  25  26
ENDBRANCH  24  25
ENDBRANCH  23  24
ENDBRANCH   4  23
TORSDOF 5
ENDMDL
MODEL 4
REMARK VINA RESULT: -8.984535343      2.003      4.372
REMARK  5 active torsions:
REMARK  status: ('A' for Active; 'I' for Inactive)
REMARK    1  A    between atoms: N1_4  and  C4_5 
REMARK    2  A    between atoms: C4_5  and  C5_6 
REMARK    3  A    between atoms: C5_6  and  C6_7 
REMARK    4  A    between atoms: C6_7  and  C7_8 
REMARK    5  A    between atoms: C7_8  and  N2_9 
ROOT
HETATM    1  C1  UNL     1     -12.770  12.228 -21.395  1.00  0.00     0.041 C 
HETATM    2  C2  UNL     1     -13.232  13.600 -21.856  1.00  0.00     0.200 C 
HETATM    3  C3  UNL     1     -12.657  14.616 -20.926  1.00  0.00     0.157 C 
HETATM    4  N1  UNL     1     -12.805  15.974 -21.316  1.00  0.00    -0.364 N 
HETATM    5  C13 UNL     1     -13.119  16.709 -22.487  1.00  0.00     0.127 A 
HETATM    6  N4  UNL     1     -12.628  17.956 -22.261  1.00  0.00    -0.337 N 
ATOM      7  H4  UNL     1     -12.160  18.159 -21.377  1.00  0.00     0.167 HD
HETATM    8  C14 UNL     1     -12.749  18.928 -23.184  1.00  0.00     0.087 A 
HETATM    9  C15 UNL     1     -12.370  20.254 -23.255  1.00  0.00     0.058 A 
HETATM   10  C16 UNL     1     -12.785  20.723 -24.482  1.00  0.00     0.147 A 
HETATM   11  O1  UNL     1     -13.368  19.729 -25.081  1.00  0.00    -0.304 OA
HETATM   12  C17 UNL     1     -13.377  18.633 -24.358  1.00  0.00     0.174 A 
HETATM   13  N5  UNL     1     -13.864  17.378 -24.572  1.00  0.00    -0.335 N 
ATOM     14  H5  UNL     1     -14.331  17.180 -25.457  1.00  0.00     0.168 HD
HETATM   15  C18 UNL     1     -13.756  16.390 -23.667  1.00  0.00     0.058 A 
HETATM   16  C19 UNL     1     -14.407  15.207 -24.272  1.00  0.00     0.099 C 
HETATM   17  C20 UNL     1     -13.643  13.935 -24.196  1.00  0.00     0.124 C 
HETATM   18  C21 UNL     1     -14.692  12.818 -24.049  1.00  0.00     0.046 C 
HETATM   19  C22 UNL     1     -12.911  13.605 -25.505  1.00  0.00     0.046 C 
HETATM   20  N6  UNL     1     -12.658  13.862 -23.161  1.00  0.00    -0.061 N 
ATOM     21  H61 UNL     1     -11.939  13.174 -23.389  1.00  0.00     0.278 HD
ATOM     22  H62 UNL     1     -12.082  14.704 -23.145  1.00  0.00     0.278 HD
ENDROOT
BRANCH   4  23
HETATM   23  C4  UNL     1     -12.557  16.878 -20.190  1.00  0.00     0.124 C 
BRANCH  23  24
HETATM   24  C5  UNL     1     -13.155  16.213 -18.978  1.00  0.00     0.021 C 
BRANCH  24  25
HETATM   25  C6  UNL     1     -12.382  16.573 -17.721  1.00  0.00     0.021 C 
BRANCH  25  26
HETATM   26  C7  UNL     1     -10.939  16.193 -17.999  1.00  0.00     0.117 C 
BRANCH  26  27
HETATM   27  N2  UNL     1     -10.580  14.908 -17.509  1.00  0.00    -0.409 N 
HETATM   28  C8  UNL     1      -9.915  14.045 -18.426  1.00  0.00     0.147 C 
HETATM   29  C9  UNL     1      -9.709  12.702 -17.724  1.00  0.00     0.291 C 
HETATM   30  N3  UNL     1      -8.732  12.898 -16.692  1.00  0.00     0.087 N 
HETATM   31  C10 UNL     1      -8.603  11.730 -15.839  1.00  0.00     0.310 C 
HETATM   32  C11 UNL     1      -8.856  14.115 -15.953  1.00  0.00     0.291 C 
HETATM   33  C12 UNL     1     -10.179  14.818 -16.150  1.00  0.00     0.147 C 
ENDBRANCH  26  27
ENDBRANCH  25  26
ENDBRANCH  24  25
ENDBRANCH  23  24
ENDBRANCH   4  23
TORSDOF 5
ENDMDL
MODEL 5
REMARK VINA RESULT: -8.966991977      1.415      2.418
REMARK  5 active torsions:
REMARK  status: ('A' for Active; 'I' for Inactive)
REMARK    1  A    between atoms: N1_4  and  C4_5 
REMARK    2  A    between atoms: C4_5  and  C5_6 
REMARK    3  A    between atoms: C5_6  and  C6_7 
REMARK    4  A    between atoms: C6_7  and  C7_8 
REMARK    5  A    between atoms: C7_8  and  N2_9 
ROOT
HETATM    1  C1  UNL     1     -11.696  18.449 -22.246  1.00  0.00     0.041 C 
HETATM    2  C2  UNL     1     -11.887  17.013 -22.704  1.00  0.00     0.200 C 
HETATM    3  C3  UNL     1     -11.607  16.119 -21.542  1.00  0.00     0.157 C 
HETATM    4  N1  UNL     1     -11.938  14.748 -21.717  1.00  0.00    -0.364 N 
HETATM    5  C13 UNL     1     -12.719  13.952 -22.592  1.00  0.00     0.127 A 
HETATM    6  N4  UNL     1     -12.956  12.803 -21.904  1.00  0.00    -0.337 N 
ATOM      7  H4  UNL     1     -12.575  12.694 -20.964  1.00  0.00     0.167 HD
HETATM    8  C14 UNL     1     -13.684  11.810 -22.444  1.00  0.00     0.087 A 
HETATM    9  C15 UNL     1     -14.091  10.560 -22.018  1.00  0.00     0.058 A 
HETATM   10  C16 UNL     1     -14.829  10.010 -23.042  1.00  0.00     0.147 A 
HETATM   11  O1  UNL     1     -14.848  10.887 -23.999  1.00  0.00    -0.304 OA
HETATM   12  C17 UNL     1     -14.184  11.979 -23.702  1.00  0.00     0.174 A 
HETATM   13  N5  UNL     1     -13.939  13.137 -24.380  1.00  0.00    -0.335 N 
ATOM     14  H5  UNL     1     -14.322  13.242 -25.319  1.00  0.00     0.168 HD
HETATM   15  C18 UNL     1     -13.215  14.144 -23.863  1.00  0.00     0.058 A 
HETATM   16  C19 UNL     1     -13.180  15.198 -24.902  1.00  0.00     0.099 C 
HETATM   17  C20 UNL     1     -13.484  16.576 -24.439  1.00  0.00     0.124 C 
HETATM   18  C21 UNL     1     -12.622  17.514 -25.304  1.00  0.00     0.046 C 
HETATM   19  C22 UNL     1     -14.930  16.997 -24.743  1.00  0.00     0.046 C 
HETATM   20  N6  UNL     1     -13.284  16.824 -23.046  1.00  0.00    -0.061 N 
ATOM     21  H61 UNL     1     -13.847  17.614 -22.730  1.00  0.00     0.278 HD
ATOM     22  H62 UNL     1     -13.701  16.086 -22.479  1.00  0.00     0.278 HD
ENDROOT
BRANCH   4  23
HETATM   23  C4  UNL     1     -11.293  13.915 -20.698  1.00  0.00     0.124 C 
BRANCH  23  24
HETATM   24  C5  UNL     1      -9.837  14.299 -20.702  1.00  0.00     0.021 C 
BRANCH  24  25
HETATM   25  C6  UNL     1      -9.164  13.905 -19.398  1.00  0.00     0.021 C 
BRANCH  25  26
HETATM   26  C7  UNL     1     -10.291  13.578 -18.434  1.00  0.00     0.117 C 
BRANCH  26  27
HETATM   27  N2  UNL     1     -10.391  14.484 -17.344  1.00  0.00    -0.409 N 
HETATM   28  C8  UNL     1      -9.178  14.783 -16.657  1.00  0.00     0.147 C 
HETATM   29  C9  UNL     1      -9.531  15.692 -15.479  1.00  0.00     0.291 C 
HETATM   30  N3  UNL     1      -9.924  16.963 -16.017  1.00  0.00     0.087 N 
HETATM   31  C10 UNL     1     -10.462  17.841 -14.993  1.00  0.00     0.310 C 
HETATM   32  C11 UNL     1     -10.741  16.907 -17.188  1.00  0.00     0.291 C 
HETATM   33  C12 UNL     1     -11.330  15.542 -17.459  1.00  0.00     0.147 C 
ENDBRANCH  26  27
ENDBRANCH  25  26
ENDBRANCH  24  25
ENDBRANCH  23  24
ENDBRANCH   4  23
TORSDOF 5
ENDMDL
