MODEL 1
REMARK VINA RESULT: -10.463918409      0.000      0.000
REMARK  6 active torsions:
REMARK  status: ('A' for Active; 'I' for Inactive)
REMARK    1  A    between atoms: C1_2  and  C2_3 
REMARK       I    between atoms: C1_2  and  N4_20 
REMARK    2  A    between atoms: C2_3  and  N1_4 
REMARK    3  A    between atoms: C4_6  and  C5_7 
REMARK    4  A    between atoms: C5_7  and  C6_8 
REMARK    5  A    between atoms: C16_23  and  O2_24 
REMARK    6  A    between atoms: C16_23  and  C17_26 
ROOT
HETATM    1  N1  UNL     1      -9.439  12.820 -19.604  1.00  0.00    -0.278 N 
HETATM    2  C3  UNL     1      -9.912  13.133 -18.392  1.00  0.00     0.139 A 
HETATM    3  C4  UNL     1      -8.883  13.643 -17.646  1.00  0.00     0.057 A 
HETATM    4  N2  UNL     1      -7.794  13.623 -18.440  1.00  0.00    -0.288 N 
ATOM      5  H2  UNL     1      -6.857  13.937 -18.185  1.00  0.00     0.188 HD
HETATM    6  N3  UNL     1      -8.156  13.126 -19.607  1.00  0.00    -0.240 N 
ATOM      7  H3  UNL     1      -7.531  12.995 -20.402  1.00  0.00     0.208 HD
ENDROOT
BRANCH   1   8
HETATM    8  C2  UNL     1     -10.266  12.237 -20.664  1.00  0.00     0.252 C 
BRANCH   8   9
HETATM    9  C1  UNL     1     -11.583  12.909 -20.563  1.00  0.00     0.239 C 
HETATM   10  O1  UNL     1     -12.576  12.214 -20.222  1.00  0.00    -0.271 OA
HETATM   11  N4  UNL     1     -11.712  14.274 -20.834  1.00  0.00    -0.350 N 
HETATM   12  C14 UNL     1     -13.066  14.825 -20.659  1.00  0.00     0.129 C 
HETATM   13  C22 UNL     1     -10.659  15.140 -21.246  1.00  0.00     0.129 C 
HETATM   14  C15 UNL     1     -12.945  16.320 -20.828  1.00  0.00     0.065 C 
HETATM   15  C16 UNL     1     -12.473  16.562 -22.257  1.00  0.00     0.109 C 
HETATM   16  C21 UNL     1     -11.069  16.050 -22.355  1.00  0.00     0.065 C 
BRANCH  15  17
HETATM   17  O2  UNL     1     -13.289  15.816 -23.130  1.00  0.00    -0.383 OA
ATOM     18  H2  UNL     1     -12.744  15.455 -23.819  1.00  0.00     0.211 HD
ENDBRANCH  15  17
BRANCH  15  19
HETATM   19  C17 UNL     1     -12.617  18.003 -22.508  1.00  0.00     0.087 A 
HETATM   20  C18 UNL     1     -11.961  18.858 -23.363  1.00  0.00     0.038 A 
HETATM   21  C19 UNL     1     -12.521  20.095 -23.163  1.00  0.00     0.027 A 
HETATM   22  C20 UNL     1     -13.493  19.957 -22.203  1.00  0.00     0.142 A 
HETATM   23  O3  UNL     1     -13.535  18.708 -21.827  1.00  0.00    -0.324 OA
ENDBRANCH  15  19
ENDBRANCH   8   9
ENDBRANCH   1   8
BRANCH   3  24
HETATM   24  C5  UNL     1      -8.998  14.131 -16.256  1.00  0.00     0.032 A 
HETATM   25  C12 UNL     1      -7.696  13.829 -15.457  1.00  0.00     0.022 A 
HETATM   26  C13 UNL     1      -9.012  13.166 -15.134  1.00  0.00     0.022 A 
BRANCH  24  27
HETATM   27  C6  UNL     1      -9.555  15.482 -16.091  1.00  0.00    -0.043 A 
HETATM   28  C7  UNL     1      -9.216  16.308 -15.055  1.00  0.00     0.008 A 
HETATM   29  C8  UNL     1      -9.739  17.594 -14.898  1.00  0.00     0.001 A 
HETATM   30  C9  UNL     1     -10.642  18.043 -15.848  1.00  0.00     0.000 A 
HETATM   31  C10 UNL     1     -11.001  17.232 -16.907  1.00  0.00     0.001 A 
HETATM   32  C11 UNL     1     -10.471  15.967 -17.032  1.00  0.00     0.008 A 
ENDBRANCH  24  27
ENDBRANCH   3  24
TORSDOF 6
ENDMDL
MODEL 2
REMARK VINA RESULT: -10.249675400      3.708      5.320
REMARK  6 active torsions:
REMARK  status: ('A' for Active; 'I' for Inactive)
REMARK    1  A    between atoms: C1_2  and  C2_3 
REMARK       I    between atoms: C1_2  and  N4_20 
REMARK    2  A    between atoms: C2_3  and  N1_4 
REMARK    3  A    between atoms: C4_6  and  C5_7 
REMARK    4  A    between atoms: C5_7  and  C6_8 
REMARK    5  A    between atoms: C16_23  and  O2_24 
REMARK    6  A    between atoms: C16_23  and  C17_26 
ROOT
HETATM    1  N1  UNL     1     -12.055  16.532 -21.726  1.00  0.00    -0.278 N 
HETATM    2  C3  UNL     1     -11.061  16.126 -20.929  1.00  0.00     0.139 A 
HETATM    3  C4  UNL     1     -11.524  15.097 -20.152  1.00  0.00     0.057 A 
HETATM    4  N2  UNL     1     -12.811  14.905 -20.506  1.00  0.00    -0.288 N 
ATOM      5  H2  UNL     1     -13.446  14.210 -20.113  1.00  0.00     0.188 HD
HETATM    6  N3  UNL     1     -13.102  15.778 -21.451  1.00  0.00    -0.240 N 
ATOM      7  H3  UNL     1     -14.011  15.860 -21.906  1.00  0.00     0.208 HD
ENDROOT
BRANCH   1   8
HETATM    8  C2  UNL     1     -11.917  17.629 -22.689  1.00  0.00     0.252 C 
BRANCH   8   9
HETATM    9  C1  UNL     1     -13.239  17.759 -23.344  1.00  0.00     0.239 C 
HETATM   10  O1  UNL     1     -14.089  18.524 -22.816  1.00  0.00    -0.271 OA
HETATM   11  N4  UNL     1     -13.528  17.056 -24.518  1.00  0.00    -0.350 N 
HETATM   12  C14 UNL     1     -14.862  17.305 -25.088  1.00  0.00     0.129 C 
HETATM   13  C22 UNL     1     -12.648  16.154 -25.181  1.00  0.00     0.129 C 
HETATM   14  C15 UNL     1     -14.897  16.597 -26.421  1.00  0.00     0.065 C 
HETATM   15  C16 UNL     1     -14.731  15.110 -26.131  1.00  0.00     0.109 C 
HETATM   16  C21 UNL     1     -13.336  14.907 -25.625  1.00  0.00     0.065 C 
BRANCH  15  17
HETATM   17  O2  UNL     1     -15.638  14.748 -25.114  1.00  0.00    -0.383 OA
ATOM     18  H2  UNL     1     -16.099  15.529 -24.829  1.00  0.00     0.211 HD
ENDBRANCH  15  17
BRANCH  15  19
HETATM   19  C17 UNL     1     -15.037  14.401 -27.382  1.00  0.00     0.087 A 
HETATM   20  C18 UNL     1     -14.375  13.404 -28.060  1.00  0.00     0.038 A 
HETATM   21  C19 UNL     1     -15.134  13.136 -29.171  1.00  0.00     0.027 A 
HETATM   22  C20 UNL     1     -16.225  13.969 -29.137  1.00  0.00     0.142 A 
HETATM   23  O3  UNL     1     -16.149  14.712 -28.067  1.00  0.00    -0.324 OA
ENDBRANCH  15  19
ENDBRANCH   8   9
ENDBRANCH   1   8
BRANCH   3  24
HETATM   24  C5  UNL     1     -10.725  14.355 -19.154  1.00  0.00     0.032 A 
HETATM   25  C12 UNL     1      -9.539  13.616 -19.841  1.00  0.00     0.022 A 
HETATM   26  C13 UNL     1     -10.683  12.876 -19.194  1.00  0.00     0.022 A 
BRANCH  24  27
HETATM   27  C6  UNL     1     -10.401  15.082 -17.918  1.00  0.00    -0.043 A 
HETATM   28  C7  UNL     1      -9.514  14.615 -16.988  1.00  0.00     0.008 A 
HETATM   29  C8  UNL     1      -9.199  15.306 -15.815  1.00  0.00     0.001 A 
HETATM   30  C9  UNL     1      -9.822  16.524 -15.597  1.00  0.00     0.000 A 
HETATM   31  C10 UNL     1     -10.721  17.022 -16.520  1.00  0.00     0.001 A 
HETATM   32  C11 UNL     1     -11.012  16.316 -17.666  1.00  0.00     0.008 A 
ENDBRANCH  24  27
ENDBRANCH   3  24
TORSDOF 6
ENDMDL
MODEL 3
REMARK VINA RESULT: -10.230547349      4.020      6.833
REMARK  6 active torsions:
REMARK  status: ('A' for Active; 'I' for Inactive)
REMARK    1  A    between atoms: C1_2  and  C2_3 
REMARK       I    between atoms: C1_2  and  N4_20 
REMARK    2  A    between atoms: C2_3  and  N1_4 
REMARK    3  A    between atoms: C4_6  and  C5_7 
REMARK    4  A    between atoms: C5_7  and  C6_8 
REMARK    5  A    between atoms: C16_23  and  O2_24 
REMARK    6  A    between atoms: C16_23  and  C17_26 
ROOT
HETATM    1  N1  UNL     1     -12.306  18.383 -22.813  1.00  0.00    -0.278 N 
HETATM    2  C3  UNL     1     -12.142  17.209 -22.193  1.00  0.00     0.139 A 
HETATM    3  C4  UNL     1     -12.346  17.398 -20.851  1.00  0.00     0.057 A 
HETATM    4  N2  UNL     1     -12.633  18.706 -20.693  1.00  0.00    -0.288 N 
ATOM      5  H2  UNL     1     -12.837  19.174 -19.809  1.00  0.00     0.188 HD
HETATM    6  N3  UNL     1     -12.602  19.271 -21.884  1.00  0.00    -0.240 N 
ATOM      7  H3  UNL     1     -12.783  20.259 -22.062  1.00  0.00     0.208 HD
ENDROOT
BRANCH   1   8
HETATM    8  C2  UNL     1     -12.153  18.557 -24.260  1.00  0.00     0.252 C 
BRANCH   8   9
HETATM    9  C1  UNL     1     -13.429  18.101 -24.858  1.00  0.00     0.239 C 
HETATM   10  O1  UNL     1     -14.426  18.869 -24.782  1.00  0.00    -0.271 OA
HETATM   11  N4  UNL     1     -13.519  16.860 -25.493  1.00  0.00    -0.350 N 
HETATM   12  C14 UNL     1     -14.832  16.545 -26.080  1.00  0.00     0.129 C 
HETATM   13  C22 UNL     1     -12.461  15.913 -25.615  1.00  0.00     0.129 C 
HETATM   14  C15 UNL     1     -14.659  15.261 -26.855  1.00  0.00     0.065 C 
HETATM   15  C16 UNL     1     -14.279  14.187 -25.842  1.00  0.00     0.109 C 
HETATM   16  C21 UNL     1     -12.908  14.518 -25.337  1.00  0.00     0.065 C 
BRANCH  15  17
HETATM   17  O2  UNL     1     -15.185  14.247 -24.765  1.00  0.00    -0.383 OA
ATOM     18  H2  UNL     1     -15.001  13.525 -24.175  1.00  0.00     0.211 HD
ENDBRANCH  15  17
BRANCH  15  19
HETATM   19  C17 UNL     1     -14.378  12.898 -26.540  1.00  0.00     0.087 A 
HETATM   20  C18 UNL     1     -13.871  12.460 -27.742  1.00  0.00     0.038 A 
HETATM   21  C19 UNL     1     -14.291  11.161 -27.878  1.00  0.00     0.027 A 
HETATM   22  C20 UNL     1     -15.032  10.848 -26.766  1.00  0.00     0.142 A 
HETATM   23  O3  UNL     1     -15.073  11.892 -25.983  1.00  0.00    -0.324 OA
ENDBRANCH  15  19
ENDBRANCH   8   9
ENDBRANCH   1   8
BRANCH   3  24
HETATM   24  C5  UNL     1     -12.281  16.340 -19.822  1.00  0.00     0.032 A 
HETATM   25  C12 UNL     1     -13.212  16.682 -18.622  1.00  0.00     0.022 A 
HETATM   26  C13 UNL     1     -11.710  16.640 -18.490  1.00  0.00     0.022 A 
BRANCH  24  27
HETATM   27  C6  UNL     1     -12.348  14.956 -20.315  1.00  0.00    -0.043 A 
HETATM   28  C7  UNL     1     -13.307  14.521 -21.188  1.00  0.00     0.008 A 
HETATM   29  C8  UNL     1     -13.371  13.209 -21.665  1.00  0.00     0.001 A 
HETATM   30  C9  UNL     1     -12.408  12.316 -21.224  1.00  0.00     0.000 A 
HETATM   31  C10 UNL     1     -11.427  12.727 -20.343  1.00  0.00     0.001 A 
HETATM   32  C11 UNL     1     -11.392  14.027 -19.890  1.00  0.00     0.008 A 
ENDBRANCH  24  27
ENDBRANCH   3  24
TORSDOF 6
ENDMDL
MODEL 4
REMARK VINA RESULT: -10.098974844      3.738      4.676
REMARK  6 active torsions:
REMARK  status: ('A' for Active; 'I' for Inactive)
REMARK    1  A    between atoms: C1_2  and  C2_3 
REMARK       I    between atoms: C1_2  and  N4_20 
REMARK    2  A    between atoms: C2_3  and  N1_4 
REMARK    3  A    between atoms: C4_6  and  C5_7 
REMARK    4  A    between atoms: C5_7  and  C6_8 
REMARK    5  A    between atoms: C16_23  and  O2_24 
REMARK    6  A    between atoms: C16_23  and  C17_26 
ROOT
HETATM    1  N1  UNL     1     -11.203  14.740 -21.441  1.00  0.00    -0.278 N 
HETATM    2  C3  UNL     1     -10.411  14.920 -20.378  1.00  0.00     0.139 A 
HETATM    3  C4  UNL     1     -10.668  13.921 -19.476  1.00  0.00     0.057 A 
HETATM    4  N2  UNL     1     -11.627  13.151 -20.026  1.00  0.00    -0.288 N 
ATOM      5  H2  UNL     1     -12.046  12.320 -19.607  1.00  0.00     0.188 HD
HETATM    6  N3  UNL     1     -11.929  13.665 -21.203  1.00  0.00    -0.240 N 
ATOM      7  H3  UNL     1     -12.627  13.283 -21.842  1.00  0.00     0.208 HD
ENDROOT
BRANCH   1   8
HETATM    8  C2  UNL     1     -11.204  15.632 -22.603  1.00  0.00     0.252 C 
BRANCH   8   9
HETATM    9  C1  UNL     1     -12.629  15.835 -22.955  1.00  0.00     0.239 C 
HETATM   10  O1  UNL     1     -13.429  16.138 -22.031  1.00  0.00    -0.271 OA
HETATM   11  N4  UNL     1     -13.065  15.700 -24.276  1.00  0.00    -0.350 N 
HETATM   12  C14 UNL     1     -14.496  15.967 -24.497  1.00  0.00     0.129 C 
HETATM   13  C22 UNL     1     -12.248  15.342 -25.387  1.00  0.00     0.129 C 
HETATM   14  C15 UNL     1     -14.713  15.938 -25.990  1.00  0.00     0.065 C 
HETATM   15  C16 UNL     1     -14.376  14.525 -26.454  1.00  0.00     0.109 C 
HETATM   16  C21 UNL     1     -12.901  14.338 -26.276  1.00  0.00     0.065 C 
BRANCH  15  17
HETATM   17  O2  UNL     1     -15.052  13.609 -25.624  1.00  0.00    -0.383 OA
ATOM     18  H2  UNL     1     -15.847  13.332 -26.064  1.00  0.00     0.211 HD
ENDBRANCH  15  17
BRANCH  15  19
HETATM   19  C17 UNL     1     -14.843  14.417 -27.843  1.00  0.00     0.087 A 
HETATM   20  C18 UNL     1     -14.166  14.295 -29.035  1.00  0.00     0.038 A 
HETATM   21  C19 UNL     1     -15.128  14.236 -30.011  1.00  0.00     0.027 A 
HETATM   22  C20 UNL     1     -16.351  14.323 -29.392  1.00  0.00     0.142 A 
HETATM   23  O3  UNL     1     -16.160  14.429 -28.105  1.00  0.00    -0.324 OA
ENDBRANCH  15  19
ENDBRANCH   8   9
ENDBRANCH   1   8
BRANCH   3  24
HETATM   24  C5  UNL     1      -9.983  13.749 -18.177  1.00  0.00     0.032 A 
HETATM   25  C12 UNL     1      -8.601  13.057 -18.373  1.00  0.00     0.022 A 
HETATM   26  C13 UNL     1      -9.741  12.389 -17.645  1.00  0.00     0.022 A 
BRANCH  24  27
HETATM   27  C6  UNL     1      -9.998  14.914 -17.281  1.00  0.00    -0.043 A 
HETATM   28  C7  UNL     1      -9.174  15.031 -16.195  1.00  0.00     0.008 A 
HETATM   29  C8  UNL     1      -9.181  16.139 -15.344  1.00  0.00     0.001 A 
HETATM   30  C9  UNL     1     -10.069  17.164 -15.627  1.00  0.00     0.000 A 
HETATM   31  C10 UNL     1     -10.911  17.074 -16.718  1.00  0.00     0.001 A 
HETATM   32  C11 UNL     1     -10.883  15.968 -17.537  1.00  0.00     0.008 A 
ENDBRANCH  24  27
ENDBRANCH   3  24
TORSDOF 6
ENDMDL
MODEL 5
REMARK VINA RESULT: -9.997426986      1.321      1.678
REMARK  6 active torsions:
REMARK  status: ('A' for Active; 'I' for Inactive)
REMARK    1  A    between atoms: C1_2  and  C2_3 
REMARK       I    between atoms: C1_2  and  N4_20 
REMARK    2  A    between atoms: C2_3  and  N1_4 
REMARK    3  A    between atoms: C4_6  and  C5_7 
REMARK    4  A    between atoms: C5_7  and  C6_8 
REMARK    5  A    between atoms: C16_23  and  O2_24 
REMARK    6  A    between atoms: C16_23  and  C17_26 
ROOT
HETATM    1  N1  UNL     1     -11.411  12.942 -20.190  1.00  0.00    -0.278 N 
HETATM    2  C3  UNL     1     -11.137  13.085 -18.889  1.00  0.00     0.139 A 
HETATM    3  C4  UNL     1      -9.885  13.627 -18.768  1.00  0.00     0.057 A 
HETATM    4  N2  UNL     1      -9.425  13.800 -20.024  1.00  0.00    -0.288 N 
ATOM      5  H2  UNL     1      -8.517  14.185 -20.284  1.00  0.00     0.188 HD
HETATM    6  N3  UNL     1     -10.360  13.381 -20.855  1.00  0.00    -0.240 N 
ATOM      7  H3  UNL     1     -10.281  13.395 -21.872  1.00  0.00     0.208 HD
ENDROOT
BRANCH   1   8
HETATM    8  C2  UNL     1     -12.668  12.380 -20.691  1.00  0.00     0.252 C 
BRANCH   8   9
HETATM    9  C1  UNL     1     -12.938  13.073 -21.972  1.00  0.00     0.239 C 
HETATM   10  O1  UNL     1     -12.997  12.377 -23.020  1.00  0.00    -0.271 OA
HETATM   11  N4  UNL     1     -13.128  14.457 -22.010  1.00  0.00    -0.350 N 
HETATM   12  C14 UNL     1     -13.427  15.015 -23.339  1.00  0.00     0.129 C 
HETATM   13  C22 UNL     1     -13.061  15.334 -20.890  1.00  0.00     0.129 C 
HETATM   14  C15 UNL     1     -13.765  16.471 -23.127  1.00  0.00     0.065 C 
HETATM   15  C16 UNL     1     -12.513  17.132 -22.563  1.00  0.00     0.109 C 
HETATM   16  C21 UNL     1     -12.301  16.583 -21.186  1.00  0.00     0.065 C 
BRANCH  15  17
HETATM   17  O2  UNL     1     -11.414  16.771 -23.368  1.00  0.00    -0.383 OA
ATOM     18  H2  UNL     1     -10.747  17.443 -23.288  1.00  0.00     0.211 HD
ENDBRANCH  15  17
BRANCH  15  19
HETATM   19  C17 UNL     1     -12.745  18.583 -22.613  1.00  0.00     0.087 A 
HETATM   20  C18 UNL     1     -12.107  19.594 -23.294  1.00  0.00     0.038 A 
HETATM   21  C19 UNL     1     -12.763  20.750 -22.953  1.00  0.00     0.027 A 
HETATM   22  C20 UNL     1     -13.771  20.412 -22.084  1.00  0.00     0.142 A 
HETATM   23  O3  UNL     1     -13.744  19.121 -21.895  1.00  0.00    -0.324 OA
ENDBRANCH  15  19
ENDBRANCH   8   9
ENDBRANCH   1   8
BRANCH   3  24
HETATM   24  C5  UNL     1      -9.221  13.964 -17.491  1.00  0.00     0.032 A 
HETATM   25  C12 UNL     1      -7.687  13.718 -17.588  1.00  0.00     0.022 A 
HETATM   26  C13 UNL     1      -8.579  12.898 -16.690  1.00  0.00     0.022 A 
BRANCH  24  27
HETATM   27  C6  UNL     1      -9.632  15.229 -16.865  1.00  0.00    -0.043 A 
HETATM   28  C7  UNL     1      -9.106  15.685 -15.688  1.00  0.00     0.008 A 
HETATM   29  C8  UNL     1      -9.490  16.890 -15.093  1.00  0.00     0.001 A 
HETATM   30  C9  UNL     1     -10.449  17.651 -15.740  1.00  0.00     0.000 A 
HETATM   31  C10 UNL     1     -10.996  17.217 -16.932  1.00  0.00     0.001 A 
HETATM   32  C11 UNL     1     -10.599  16.024 -17.492  1.00  0.00     0.008 A 
ENDBRANCH  24  27
ENDBRANCH   3  24
TORSDOF 6
ENDMDL
