MODEL 1
REMARK VINA RESULT: -9.853602048      0.000      0.000
REMARK  6 active torsions:
REMARK  status: ('A' for Active; 'I' for Inactive)
REMARK    1  A    between atoms: C2_2  and  C4_4 
REMARK    2  A    between atoms: C2_2  and  N1_10 
REMARK    3  A    between atoms: C12_13  and  C13_14 
REMARK    4  A    between atoms: C13_14  and  O1_15 
REMARK    5  A    between atoms: N3_22  and  C18_23 
REMARK    6  A    between atoms: C18_23  and  C19_24 
ROOT
HETATM    1  C13 UNL     1     -11.384  15.575 -24.306  1.00  0.00     0.114 C 
HETATM    2  C14 UNL     1     -12.636  15.342 -25.079  1.00  0.00     0.066 C 
HETATM    3  C15 UNL     1     -12.841  16.263 -26.241  1.00  0.00     0.109 C 
HETATM    4  C16 UNL     1     -14.216  16.792 -26.105  1.00  0.00     0.065 C 
HETATM    5  N2  UNL     1     -15.304  17.206 -25.972  1.00  0.00    -0.197 NA
HETATM    6  C17 UNL     1     -11.945  17.524 -26.114  1.00  0.00     0.114 C 
HETATM    7  N3  UNL     1     -12.083  17.814 -24.681  1.00  0.00    -0.287 NA
HETATM    8  C24 UNL     1     -11.039  16.997 -24.071  1.00  0.00     0.139 C 
ENDROOT
BRANCH   1   9
HETATM    9  C12 UNL     1     -11.539  14.961 -22.955  1.00  0.00     0.063 A 
HETATM   10  C11 UNL     1     -12.723  14.458 -22.435  1.00  0.00     0.048 A 
HETATM   11  C10 UNL     1     -12.507  13.998 -21.171  1.00  0.00     0.113 A 
HETATM   12  N1  UNL     1     -11.214  14.211 -20.915  1.00  0.00    -0.289 N 
HETATM   13  N5  UNL     1     -10.634  14.789 -21.982  1.00  0.00    -0.299 N 
ATOM     14  H5  UNL     1      -9.651  15.055 -22.042  1.00  0.00     0.187 HD
BRANCH  12  15
HETATM   15  C2  UNL     1     -10.470  13.925 -19.721  1.00  0.00     0.072 C 
HETATM   16  C1  UNL     1     -10.832  12.557 -19.191  1.00  0.00     0.046 C 
HETATM   17  C3  UNL     1      -8.973  13.825 -20.098  1.00  0.00     0.046 C 
BRANCH  15  18
HETATM   18  C4  UNL     1     -10.585  14.939 -18.661  1.00  0.00    -0.029 A 
HETATM   19  C5  UNL     1     -11.410  16.018 -18.816  1.00  0.00     0.010 A 
HETATM   20  C6  UNL     1     -11.491  16.951 -17.799  1.00  0.00     0.001 A 
HETATM   21  C7  UNL     1     -10.773  16.842 -16.629  1.00  0.00     0.000 A 
HETATM   22  C8  UNL     1      -9.936  15.761 -16.454  1.00  0.00     0.001 A 
HETATM   23  C9  UNL     1      -9.857  14.830 -17.478  1.00  0.00     0.010 A 
ENDBRANCH  15  18
ENDBRANCH  12  15
ENDBRANCH   1   9
BRANCH   1  24
HETATM   24  O1  UNL     1     -10.343  14.855 -24.955  1.00  0.00    -0.382 OA
ATOM     25  H1  UNL     1     -10.746  14.080 -25.328  1.00  0.00     0.211 HD
ENDBRANCH   1  24
BRANCH   7  26
HETATM   26  C18 UNL     1     -12.044  19.167 -24.298  1.00  0.00     0.071 C 
BRANCH  26  27
HETATM   27  C19 UNL     1     -12.691  19.586 -23.082  1.00  0.00    -0.023 A 
HETATM   28  C20 UNL     1     -13.454  20.705 -22.976  1.00  0.00     0.029 A 
HETATM   29  C21 UNL     1     -14.019  21.002 -21.758  1.00  0.00     0.088 A 
HETATM   30  N4  UNL     1     -13.826  20.205 -20.679  1.00  0.00    -0.375 N 
HETATM   31  C22 UNL     1     -13.080  19.093 -20.740  1.00  0.00     0.088 A 
ATOM     32  H4  UNL     1     -14.262  20.458 -19.793  1.00  0.00     0.164 HD
HETATM   33  C23 UNL     1     -12.509  18.779 -21.942  1.00  0.00     0.029 A 
ENDBRANCH  26  27
ENDBRANCH   7  26
TORSDOF 6
ENDMDL
MODEL 2
REMARK VINA RESULT: -9.843484299      2.840      5.002
REMARK  6 active torsions:
REMARK  status: ('A' for Active; 'I' for Inactive)
REMARK    1  A    between atoms: C2_2  and  C4_4 
REMARK    2  A    between atoms: C2_2  and  N1_10 
REMARK    3  A    between atoms: C12_13  and  C13_14 
REMARK    4  A    between atoms: C13_14  and  O1_15 
REMARK    5  A    between atoms: N3_22  and  C18_23 
REMARK    6  A    between atoms: C18_23  and  C19_24 
ROOT
HETATM    1  C13 UNL     1     -11.901  15.603 -21.526  1.00  0.00     0.114 C 
HETATM    2  C14 UNL     1     -10.945  15.830 -22.645  1.00  0.00     0.066 C 
HETATM    3  C15 UNL     1     -11.564  16.326 -23.914  1.00  0.00     0.109 C 
HETATM    4  C16 UNL     1     -11.052  15.449 -24.989  1.00  0.00     0.065 C 
HETATM    5  N2  UNL     1     -10.643  14.734 -25.823  1.00  0.00    -0.197 NA
HETATM    6  C17 UNL     1     -13.094  16.070 -23.922  1.00  0.00     0.114 C 
HETATM    7  N3  UNL     1     -13.147  14.719 -23.345  1.00  0.00    -0.287 NA
HETATM    8  C24 UNL     1     -13.186  14.970 -21.908  1.00  0.00     0.139 C 
ENDROOT
BRANCH   1   9
HETATM    9  C12 UNL     1     -11.267  14.681 -20.539  1.00  0.00     0.063 A 
HETATM   10  C11 UNL     1     -11.260  13.296 -20.626  1.00  0.00     0.048 A 
HETATM   11  C10 UNL     1     -10.616  12.775 -19.544  1.00  0.00     0.113 A 
HETATM   12  N1  UNL     1     -10.231  13.817 -18.805  1.00  0.00    -0.289 N 
HETATM   13  N5  UNL     1     -10.620  14.959 -19.399  1.00  0.00    -0.299 N 
ATOM     14  H5  UNL     1     -10.449  15.897 -19.035  1.00  0.00     0.187 HD
BRANCH  12  15
HETATM   15  C2  UNL     1      -9.526  13.826 -17.554  1.00  0.00     0.072 C 
HETATM   16  C1  UNL     1      -9.909  12.621 -16.726  1.00  0.00     0.046 C 
HETATM   17  C3  UNL     1      -8.018  13.647 -17.847  1.00  0.00     0.046 C 
BRANCH  15  18
HETATM   18  C4  UNL     1      -9.673  15.062 -16.768  1.00  0.00    -0.029 A 
HETATM   19  C5  UNL     1      -8.828  15.330 -15.728  1.00  0.00     0.010 A 
HETATM   20  C6  UNL     1      -8.997  16.500 -15.012  1.00  0.00     0.001 A 
HETATM   21  C7  UNL     1      -9.986  17.415 -15.301  1.00  0.00     0.000 A 
HETATM   22  C8  UNL     1     -10.847  17.162 -16.347  1.00  0.00     0.001 A 
HETATM   23  C9  UNL     1     -10.674  15.986 -17.060  1.00  0.00     0.010 A 
ENDBRANCH  15  18
ENDBRANCH  12  15
ENDBRANCH   1   9
BRANCH   1  24
HETATM   24  O1  UNL     1     -12.077  16.846 -20.857  1.00  0.00    -0.382 OA
ATOM     25  H1  UNL     1     -11.727  17.513 -21.436  1.00  0.00     0.211 HD
ENDBRANCH   1  24
BRANCH   7  26
HETATM   26  C18 UNL     1     -14.171  13.871 -23.803  1.00  0.00     0.071 C 
BRANCH  26  27
HETATM   27  C19 UNL     1     -14.206  12.496 -23.378  1.00  0.00    -0.023 A 
HETATM   28  C20 UNL     1     -13.681  12.050 -22.206  1.00  0.00     0.029 A 
HETATM   29  C21 UNL     1     -13.775  10.710 -21.913  1.00  0.00     0.088 A 
HETATM   30  N4  UNL     1     -14.374   9.843 -22.763  1.00  0.00    -0.375 N 
HETATM   31  C22 UNL     1     -14.904  10.239 -23.929  1.00  0.00     0.088 A 
ATOM     32  H4  UNL     1     -14.425   8.856 -22.509  1.00  0.00     0.164 HD
HETATM   33  C23 UNL     1     -14.821  11.568 -24.242  1.00  0.00     0.029 A 
ENDBRANCH  26  27
ENDBRANCH   7  26
TORSDOF 6
ENDMDL
MODEL 3
REMARK VINA RESULT: -9.781697219      2.492      4.776
REMARK  6 active torsions:
REMARK  status: ('A' for Active; 'I' for Inactive)
REMARK    1  A    between atoms: C2_2  and  C4_4 
REMARK    2  A    between atoms: C2_2  and  N1_10 
REMARK    3  A    between atoms: C12_13  and  C13_14 
REMARK    4  A    between atoms: C13_14  and  O1_15 
REMARK    5  A    between atoms: N3_22  and  C18_23 
REMARK    6  A    between atoms: C18_23  and  C19_24 
ROOT
HETATM    1  C13 UNL     1     -12.472  16.701 -21.822  1.00  0.00     0.114 C 
HETATM    2  C14 UNL     1     -11.397  17.116 -22.766  1.00  0.00     0.066 C 
HETATM    3  C15 UNL     1     -11.846  17.344 -24.175  1.00  0.00     0.109 C 
HETATM    4  C16 UNL     1     -10.913  16.580 -25.031  1.00  0.00     0.065 C 
HETATM    5  N2  UNL     1     -10.169  15.957 -25.688  1.00  0.00    -0.197 NA
HETATM    6  C17 UNL     1     -13.222  16.674 -24.434  1.00  0.00     0.114 C 
HETATM    7  N3  UNL     1     -13.041  15.399 -23.726  1.00  0.00    -0.287 NA
HETATM    8  C24 UNL     1     -13.441  15.715 -22.358  1.00  0.00     0.139 C 
ENDROOT
BRANCH   1   9
HETATM    9  C12 UNL     1     -11.839  16.052 -20.637  1.00  0.00     0.063 A 
HETATM   10  C11 UNL     1     -11.880  16.541 -19.339  1.00  0.00     0.048 A 
HETATM   11  C10 UNL     1     -11.179  15.712 -18.517  1.00  0.00     0.113 A 
HETATM   12  N1  UNL     1     -10.716  14.728 -19.290  1.00  0.00    -0.289 N 
HETATM   13  N5  UNL     1     -11.110  14.931 -20.561  1.00  0.00    -0.299 N 
ATOM     14  H5  UNL     1     -10.887  14.321 -21.348  1.00  0.00     0.187 HD
BRANCH  12  15
HETATM   15  C2  UNL     1      -9.905  13.600 -18.929  1.00  0.00     0.072 C 
HETATM   16  C1  UNL     1     -10.706  12.323 -19.029  1.00  0.00     0.046 C 
HETATM   17  C3  UNL     1      -8.784  13.453 -19.985  1.00  0.00     0.046 C 
BRANCH  15  18
HETATM   18  C4  UNL     1      -9.252  13.701 -17.614  1.00  0.00    -0.029 A 
HETATM   19  C5  UNL     1      -7.904  13.906 -17.520  1.00  0.00     0.010 A 
HETATM   20  C6  UNL     1      -7.327  13.994 -16.267  1.00  0.00     0.001 A 
HETATM   21  C7  UNL     1      -8.052  13.883 -15.102  1.00  0.00     0.000 A 
HETATM   22  C8  UNL     1      -9.413  13.678 -15.177  1.00  0.00     0.001 A 
HETATM   23  C9  UNL     1      -9.987  13.588 -16.435  1.00  0.00     0.010 A 
ENDBRANCH  15  18
ENDBRANCH  12  15
ENDBRANCH   1   9
BRANCH   1  24
HETATM   24  O1  UNL     1     -13.099  17.884 -21.343  1.00  0.00    -0.382 OA
ATOM     25  H1  UNL     1     -14.035  17.728 -21.389  1.00  0.00     0.211 HD
ENDBRANCH   1  24
BRANCH   7  26
HETATM   26  C18 UNL     1     -13.692  14.275 -24.264  1.00  0.00     0.071 C 
BRANCH  26  27
HETATM   27  C19 UNL     1     -13.748  13.050 -23.508  1.00  0.00    -0.023 A 
HETATM   28  C20 UNL     1     -13.112  12.860 -22.323  1.00  0.00     0.029 A 
HETATM   29  C21 UNL     1     -13.241  11.642 -21.697  1.00  0.00     0.088 A 
HETATM   30  N4  UNL     1     -13.981  10.645 -22.240  1.00  0.00    -0.375 N 
HETATM   31  C22 UNL     1     -14.623  10.790 -23.408  1.00  0.00     0.088 A 
ATOM     32  H4  UNL     1     -14.052   9.756 -21.745  1.00  0.00     0.164 HD
HETATM   33  C23 UNL     1     -14.509  11.993 -24.047  1.00  0.00     0.029 A 
ENDBRANCH  26  27
ENDBRANCH   7  26
TORSDOF 6
ENDMDL
MODEL 4
REMARK VINA RESULT: -9.770014006      2.665      4.861
REMARK  6 active torsions:
REMARK  status: ('A' for Active; 'I' for Inactive)
REMARK    1  A    between atoms: C2_2  and  C4_4 
REMARK    2  A    between atoms: C2_2  and  N1_10 
REMARK    3  A    between atoms: C12_13  and  C13_14 
REMARK    4  A    between atoms: C13_14  and  O1_15 
REMARK    5  A    between atoms: N3_22  and  C18_23 
REMARK    6  A    between atoms: C18_23  and  C19_24 
ROOT
HETATM    1  C13 UNL     1     -13.192  15.803 -23.533  1.00  0.00     0.114 C 
HETATM    2  C14 UNL     1     -12.656  16.278 -24.839  1.00  0.00     0.066 C 
HETATM    3  C15 UNL     1     -13.613  16.185 -25.986  1.00  0.00     0.109 C 
HETATM    4  C16 UNL     1     -12.882  15.505 -27.076  1.00  0.00     0.065 C 
HETATM    5  N2  UNL     1     -12.286  14.953 -27.921  1.00  0.00    -0.197 NA
HETATM    6  C17 UNL     1     -14.779  15.214 -25.658  1.00  0.00     0.114 C 
HETATM    7  N3  UNL     1     -14.050  14.130 -24.985  1.00  0.00    -0.287 NA
HETATM    8  C24 UNL     1     -14.009  14.568 -23.593  1.00  0.00     0.139 C 
ENDROOT
BRANCH   1   9
HETATM    9  C12 UNL     1     -12.043  15.491 -22.633  1.00  0.00     0.063 A 
HETATM   10  C11 UNL     1     -10.737  15.919 -22.825  1.00  0.00     0.048 A 
HETATM   11  C10 UNL     1      -9.947  15.431 -21.828  1.00  0.00     0.113 A 
HETATM   12  N1  UNL     1     -10.749  14.718 -21.035  1.00  0.00    -0.289 N 
HETATM   13  N5  UNL     1     -12.005  14.752 -21.516  1.00  0.00    -0.299 N 
ATOM     14  H5  UNL     1     -12.807  14.285 -21.094  1.00  0.00     0.187 HD
BRANCH  12  15
HETATM   15  C2  UNL     1     -10.422  13.979 -19.848  1.00  0.00     0.072 C 
HETATM   16  C1  UNL     1     -11.349  12.795 -19.694  1.00  0.00     0.046 C 
HETATM   17  C3  UNL     1      -9.016  13.363 -20.034  1.00  0.00     0.046 C 
BRANCH  15  18
HETATM   18  C4  UNL     1     -10.389  14.775 -18.611  1.00  0.00    -0.029 A 
HETATM   19  C5  UNL     1      -9.532  14.449 -17.597  1.00  0.00     0.010 A 
HETATM   20  C6  UNL     1      -9.529  15.220 -16.449  1.00  0.00     0.001 A 
HETATM   21  C7  UNL     1     -10.357  16.308 -16.280  1.00  0.00     0.000 A 
HETATM   22  C8  UNL     1     -11.227  16.652 -17.292  1.00  0.00     0.001 A 
HETATM   23  C9  UNL     1     -11.227  15.875 -18.439  1.00  0.00     0.010 A 
ENDBRANCH  15  18
ENDBRANCH  12  15
ENDBRANCH   1   9
BRANCH   1  24
HETATM   24  O1  UNL     1     -13.884  16.892 -22.935  1.00  0.00    -0.382 OA
ATOM     25  H1  UNL     1     -13.240  17.579 -22.805  1.00  0.00     0.211 HD
ENDBRANCH   1  24
BRANCH   7  26
HETATM   26  C18 UNL     1     -14.547  12.827 -25.158  1.00  0.00     0.071 C 
BRANCH  26  27
HETATM   27  C19 UNL     1     -14.411  11.862 -24.097  1.00  0.00    -0.023 A 
HETATM   28  C20 UNL     1     -13.711  12.084 -22.954  1.00  0.00     0.029 A 
HETATM   29  C21 UNL     1     -13.654  11.082 -22.015  1.00  0.00     0.088 A 
HETATM   30  N4  UNL     1     -14.276   9.894 -22.211  1.00  0.00    -0.375 N 
HETATM   31  C22 UNL     1     -14.976   9.633 -23.324  1.00  0.00     0.088 A 
ATOM     32  H4  UNL     1     -14.210   9.176 -21.490  1.00  0.00     0.164 HD
HETATM   33  C23 UNL     1     -15.047  10.616 -24.273  1.00  0.00     0.029 A 
ENDBRANCH  26  27
ENDBRANCH   7  26
TORSDOF 6
ENDMDL
MODEL 5
REMARK VINA RESULT: -9.694366602      1.098      1.271
REMARK  6 active torsions:
REMARK  status: ('A' for Active; 'I' for Inactive)
REMARK    1  A    between atoms: C2_2  and  C4_4 
REMARK    2  A    between atoms: C2_2  and  N1_10 
REMARK    3  A    between atoms: C12_13  and  C13_14 
REMARK    4  A    between atoms: C13_14  and  O1_15 
REMARK    5  A    between atoms: N3_22  and  C18_23 
REMARK    6  A    between atoms: C18_23  and  C19_24 
ROOT
HETATM    1  C13 UNL     1     -11.618  15.485 -24.187  1.00  0.00     0.114 C 
HETATM    2  C14 UNL     1     -12.356  14.516 -25.044  1.00  0.00     0.066 C 
HETATM    3  C15 UNL     1     -12.747  15.036 -26.392  1.00  0.00     0.109 C 
HETATM    4  C16 UNL     1     -14.185  14.729 -26.547  1.00  0.00     0.065 C 
HETATM    5  N2  UNL     1     -15.328  14.486 -26.644  1.00  0.00    -0.197 NA
HETATM    6  C17 UNL     1     -12.693  16.587 -26.425  1.00  0.00     0.114 C 
HETATM    7  N3  UNL     1     -13.277  16.909 -25.116  1.00  0.00    -0.287 NA
HETATM    8  C24 UNL     1     -12.126  16.876 -24.219  1.00  0.00     0.139 C 
ENDROOT
BRANCH   1   9
HETATM    9  C12 UNL     1     -11.726  15.041 -22.766  1.00  0.00     0.063 A 
HETATM   10  C11 UNL     1     -12.910  14.927 -22.051  1.00  0.00     0.048 A 
HETATM   11  C10 UNL     1     -12.637  14.520 -20.780  1.00  0.00     0.113 A 
HETATM   12  N1  UNL     1     -11.311  14.383 -20.711  1.00  0.00    -0.289 N 
HETATM   13  N5  UNL     1     -10.764  14.695 -21.900  1.00  0.00    -0.299 N 
ATOM     14  H5  UNL     1      -9.766  14.672 -22.111  1.00  0.00     0.187 HD
BRANCH  12  15
HETATM   15  C2  UNL     1     -10.499  13.991 -19.594  1.00  0.00     0.072 C 
HETATM   16  C1  UNL     1     -10.882  12.606 -19.127  1.00  0.00     0.046 C 
HETATM   17  C3  UNL     1      -9.038  13.858 -20.082  1.00  0.00     0.046 C 
BRANCH  15  18
HETATM   18  C4  UNL     1     -10.497  14.936 -18.466  1.00  0.00    -0.029 A 
HETATM   19  C5  UNL     1     -11.273  16.062 -18.501  1.00  0.00     0.010 A 
HETATM   20  C6  UNL     1     -11.243  16.927 -17.423  1.00  0.00     0.001 A 
HETATM   21  C7  UNL     1     -10.464  16.706 -16.309  1.00  0.00     0.000 A 
HETATM   22  C8  UNL     1      -9.676  15.576 -16.257  1.00  0.00     0.001 A 
HETATM   23  C9  UNL     1      -9.707  14.713 -17.340  1.00  0.00     0.010 A 
ENDBRANCH  15  18
ENDBRANCH  12  15
ENDBRANCH   1   9
BRANCH   1  24
HETATM   24  O1  UNL     1     -10.240  15.393 -24.530  1.00  0.00    -0.382 OA
ATOM     25  H1  UNL     1     -10.188  15.539 -25.468  1.00  0.00     0.211 HD
ENDBRANCH   1  24
BRANCH   7  26
HETATM   26  C18 UNL     1     -14.034  18.090 -25.029  1.00  0.00     0.071 C 
BRANCH  26  27
HETATM   27  C19 UNL     1     -13.619  19.143 -24.138  1.00  0.00    -0.023 A 
HETATM   28  C20 UNL     1     -12.835  20.187 -24.511  1.00  0.00     0.029 A 
HETATM   29  C21 UNL     1     -12.505  21.130 -23.566  1.00  0.00     0.088 A 
HETATM   30  N4  UNL     1     -12.945  21.032 -22.289  1.00  0.00    -0.375 N 
HETATM   31  C22 UNL     1     -13.719  20.018 -21.878  1.00  0.00     0.088 A 
ATOM     32  H4  UNL     1     -12.678  21.752 -21.617  1.00  0.00     0.164 HD
HETATM   33  C23 UNL     1     -14.060  19.068 -22.802  1.00  0.00     0.029 A 
ENDBRANCH  26  27
ENDBRANCH   7  26
TORSDOF 6
ENDMDL
