MODEL 1
REMARK VINA RESULT: -9.995320101      0.000      0.000
REMARK  6 active torsions:
REMARK  status: ('A' for Active; 'I' for Inactive)
REMARK    1  A    between atoms: C3_3  and  C4_4 
REMARK    2  A    between atoms: C7_9  and  C8_10 
REMARK    3  A    between atoms: C16_23  and  N4_24 
REMARK    4  A    between atoms: N4_24  and  C17_26 
REMARK    5  A    between atoms: C17_26  and  C18_27 
REMARK    6  A    between atoms: C18_27  and  N5_28 
ROOT
HETATM    1  C1  UNL     1     -13.489  14.827 -23.116  1.00  0.00     0.054 C 
HETATM    2  C2  UNL     1     -12.565  14.373 -22.026  1.00  0.00     0.005 A 
HETATM    3  C3  UNL     1     -12.577  13.047 -21.627  1.00  0.00     0.024 A 
HETATM    4  N1  UNL     1     -11.773  12.611 -20.666  1.00  0.00    -0.343 N 
ATOM      5  H1  UNL     1     -11.819  11.626 -20.407  1.00  0.00     0.167 HD
HETATM    6  C7  UNL     1     -10.882  13.417 -20.002  1.00  0.00     0.137 A 
HETATM    7  N3  UNL     1     -10.872  14.672 -20.381  1.00  0.00    -0.326 N 
ATOM      8  H3  UNL     1     -10.223  15.306 -19.913  1.00  0.00     0.169 HD
HETATM    9  C16 UNL     1     -11.687  15.198 -21.381  1.00  0.00     0.110 A 
ENDROOT
BRANCH   6  10
HETATM   10  C8  UNL     1     -10.101  12.794 -18.939  1.00  0.00     0.107 A 
HETATM   11  N2  UNL     1      -9.351  11.649 -19.151  1.00  0.00    -0.257 N 
HETATM   12  O1  UNL     1      -8.758  11.307 -18.063  1.00  0.00    -0.241 OA
ATOM     13  H2  UNL     1      -9.280  11.151 -20.038  1.00  0.00     0.195 HD
HETATM   14  C9  UNL     1      -9.020  12.108 -17.097  1.00  0.00     0.085 A 
HETATM   15  C10 UNL     1      -9.889  13.081 -17.626  1.00  0.00     0.006 A 
HETATM   16  C15 UNL     1      -8.537  12.069 -15.692  1.00  0.00     0.068 C 
HETATM   17  C11 UNL     1     -10.465  14.179 -16.863  1.00  0.00     0.044 C 
HETATM   18  C12 UNL     1      -9.365  15.210 -16.644  1.00  0.00     0.005 C 
HETATM   19  C13 UNL     1      -8.101  14.521 -16.161  1.00  0.00     0.001 C 
HETATM   20  C14 UNL     1      -8.353  13.466 -15.143  1.00  0.00     0.007 C 
ENDBRANCH   6  10
BRANCH   3  21
HETATM   21  C4  UNL     1     -13.516  12.120 -22.292  1.00  0.00     0.036 A 
HETATM   22  C5  UNL     1     -14.604  11.485 -21.375  1.00  0.00     0.011 A 
HETATM   23  C6  UNL     1     -13.553  10.677 -22.048  1.00  0.00     0.011 A 
ENDBRANCH   3  21
BRANCH   9  24
HETATM   24  N4  UNL     1     -11.565  16.423 -21.635  1.00  0.00    -0.374 N 
ATOM     25  H4  UNL     1     -10.690  16.581 -22.133  1.00  0.00     0.161 HD
BRANCH  24  26
HETATM   26  C17 UNL     1     -12.217  17.616 -21.467  1.00  0.00     0.151 C 
BRANCH  26  27
HETATM   27  C18 UNL     1     -11.631  18.626 -22.472  1.00  0.00     0.292 C 
BRANCH  27  28
HETATM   28  N5  UNL     1     -12.706  19.347 -23.137  1.00  0.00     0.094 N 
HETATM   29  C19 UNL     1     -12.226  19.607 -24.501  1.00  0.00     0.298 C 
HETATM   30  C20 UNL     1     -13.235  20.373 -25.309  1.00  0.00     0.198 C 
HETATM   31  O2  UNL     1     -14.514  19.859 -25.127  1.00  0.00    -0.388 OA
HETATM   32  C21 UNL     1     -14.439  18.550 -24.680  1.00  0.00     0.198 C 
HETATM   33  C22 UNL     1     -13.848  18.437 -23.297  1.00  0.00     0.298 C 
ENDBRANCH  27  28
ENDBRANCH  26  27
ENDBRANCH  24  26
ENDBRANCH   9  24
TORSDOF 6
ENDMDL
MODEL 2
REMARK VINA RESULT: -9.965118480      1.406      1.967
REMARK  6 active torsions:
REMARK  status: ('A' for Active; 'I' for Inactive)
REMARK    1  A    between atoms: C3_3  and  C4_4 
REMARK    2  A    between atoms: C7_9  and  C8_10 
REMARK    3  A    between atoms: C16_23  and  N4_24 
REMARK    4  A    between atoms: N4_24  and  C17_26 
REMARK    5  A    between atoms: C17_26  and  C18_27 
REMARK    6  A    between atoms: C18_27  and  N5_28 
ROOT
HETATM    1  C1  UNL     1     -13.002  14.387 -23.954  1.00  0.00     0.054 C 
HETATM    2  C2  UNL     1     -12.293  14.529 -22.640  1.00  0.00     0.005 A 
HETATM    3  C3  UNL     1     -12.673  13.737 -21.570  1.00  0.00     0.024 A 
HETATM    4  N1  UNL     1     -12.067  13.836 -20.393  1.00  0.00    -0.343 N 
ATOM      5  H1  UNL     1     -12.383  13.232 -19.635  1.00  0.00     0.167 HD
HETATM    6  C7  UNL     1     -11.037  14.708 -20.143  1.00  0.00     0.137 A 
HETATM    7  N3  UNL     1     -10.678  15.456 -21.159  1.00  0.00    -0.326 N 
ATOM      8  H3  UNL     1      -9.915  16.119 -21.017  1.00  0.00     0.169 HD
HETATM    9  C16 UNL     1     -11.270  15.406 -22.420  1.00  0.00     0.110 A 
ENDROOT
BRANCH   6  10
HETATM   10  C8  UNL     1     -10.509  14.726 -18.784  1.00  0.00     0.107 A 
HETATM   11  N2  UNL     1     -10.967  15.618 -17.828  1.00  0.00    -0.257 N 
HETATM   12  O1  UNL     1     -10.346  15.427 -16.718  1.00  0.00    -0.241 OA
ATOM     13  H2  UNL     1     -11.690  16.321 -17.981  1.00  0.00     0.195 HD
HETATM   14  C9  UNL     1      -9.487  14.479 -16.802  1.00  0.00     0.085 A 
HETATM   15  C10 UNL     1      -9.563  14.003 -18.126  1.00  0.00     0.006 A 
HETATM   16  C15 UNL     1      -8.576  13.946 -15.755  1.00  0.00     0.068 C 
HETATM   17  C11 UNL     1      -8.736  12.937 -18.671  1.00  0.00     0.044 C 
HETATM   18  C12 UNL     1      -9.264  11.620 -18.117  1.00  0.00     0.005 C 
HETATM   19  C13 UNL     1      -9.473  11.738 -16.617  1.00  0.00     0.001 C 
HETATM   20  C14 UNL     1      -8.373  12.456 -15.920  1.00  0.00     0.007 C 
ENDBRANCH   6  10
BRANCH   3  21
HETATM   21  C4  UNL     1     -13.781  12.778 -21.760  1.00  0.00     0.036 A 
HETATM   22  C5  UNL     1     -13.546  11.350 -21.183  1.00  0.00     0.011 A 
HETATM   23  C6  UNL     1     -13.710  11.609 -22.637  1.00  0.00     0.011 A 
ENDBRANCH   3  21
BRANCH   9  24
HETATM   24  N4  UNL     1     -10.818  16.186 -23.296  1.00  0.00    -0.374 N 
ATOM     25  H4  UNL     1     -10.195  15.674 -23.919  1.00  0.00     0.161 HD
BRANCH  24  26
HETATM   26  C17 UNL     1     -10.885  17.496 -23.693  1.00  0.00     0.151 C 
BRANCH  26  27
HETATM   27  C18 UNL     1     -11.624  18.289 -22.598  1.00  0.00     0.292 C 
BRANCH  27  28
HETATM   28  N5  UNL     1     -12.726  19.037 -23.184  1.00  0.00     0.094 N 
HETATM   29  C19 UNL     1     -12.250  19.481 -24.500  1.00  0.00     0.298 C 
HETATM   30  C20 UNL     1     -13.289  20.294 -25.222  1.00  0.00     0.198 C 
HETATM   31  O2  UNL     1     -14.544  19.705 -25.118  1.00  0.00    -0.388 OA
HETATM   32  C21 UNL     1     -14.411  18.356 -24.831  1.00  0.00     0.198 C 
HETATM   33  C22 UNL     1     -13.824  18.103 -23.466  1.00  0.00     0.298 C 
ENDBRANCH  27  28
ENDBRANCH  26  27
ENDBRANCH  24  26
ENDBRANCH   9  24
TORSDOF 6
ENDMDL
MODEL 3
REMARK VINA RESULT: -9.913797834      2.173      3.215
REMARK  6 active torsions:
REMARK  status: ('A' for Active; 'I' for Inactive)
REMARK    1  A    between atoms: C3_3  and  C4_4 
REMARK    2  A    between atoms: C7_9  and  C8_10 
REMARK    3  A    between atoms: C16_23  and  N4_24 
REMARK    4  A    between atoms: N4_24  and  C17_26 
REMARK    5  A    between atoms: C17_26  and  C18_27 
REMARK    6  A    between atoms: C18_27  and  N5_28 
ROOT
HETATM    1  C1  UNL     1     -14.250  12.999 -25.299  1.00  0.00     0.054 C 
HETATM    2  C2  UNL     1     -13.726  13.652 -24.054  1.00  0.00     0.005 A 
HETATM    3  C3  UNL     1     -13.548  12.896 -22.908  1.00  0.00     0.024 A 
HETATM    4  N1  UNL     1     -13.085  13.442 -21.790  1.00  0.00    -0.343 N 
ATOM      5  H1  UNL     1     -12.972  12.845 -20.972  1.00  0.00     0.167 HD
HETATM    6  C7  UNL     1     -12.752  14.769 -21.678  1.00  0.00     0.137 A 
HETATM    7  N3  UNL     1     -12.920  15.483 -22.765  1.00  0.00    -0.326 N 
ATOM      8  H3  UNL     1     -12.683  16.474 -22.725  1.00  0.00     0.169 HD
HETATM    9  C16 UNL     1     -13.401  14.977 -23.971  1.00  0.00     0.110 A 
ENDROOT
BRANCH   6  10
HETATM   10  C8  UNL     1     -12.301  15.222 -20.367  1.00  0.00     0.107 A 
HETATM   11  N2  UNL     1     -13.101  15.993 -19.539  1.00  0.00    -0.257 N 
HETATM   12  O1  UNL     1     -12.476  16.256 -18.447  1.00  0.00    -0.241 OA
ATOM     13  H2  UNL     1     -14.045  16.306 -19.763  1.00  0.00     0.195 HD
HETATM   14  C9  UNL     1     -11.302  15.740 -18.426  1.00  0.00     0.085 A 
HETATM   15  C10 UNL     1     -11.153  15.065 -19.653  1.00  0.00     0.006 A 
HETATM   16  C15 UNL     1     -10.271  15.802 -17.357  1.00  0.00     0.068 C 
HETATM   17  C11 UNL     1      -9.952  14.354 -20.067  1.00  0.00     0.044 C 
HETATM   18  C12 UNL     1      -9.904  13.046 -19.287  1.00  0.00     0.005 C 
HETATM   19  C13 UNL     1     -10.169  13.312 -17.816  1.00  0.00     0.001 C 
HETATM   20  C14 UNL     1      -9.472  14.520 -17.297  1.00  0.00     0.007 C 
ENDBRANCH   6  10
BRANCH   3  21
HETATM   21  C4  UNL     1     -13.892  11.460 -22.950  1.00  0.00     0.036 A 
HETATM   22  C5  UNL     1     -15.212  11.059 -22.225  1.00  0.00     0.011 A 
HETATM   23  C6  UNL     1     -13.877  10.580 -21.781  1.00  0.00     0.011 A 
ENDBRANCH   3  21
BRANCH   9  24
HETATM   24  N4  UNL     1     -13.510  15.784 -24.928  1.00  0.00    -0.374 N 
ATOM     25  H4  UNL     1     -12.626  15.834 -25.433  1.00  0.00     0.161 HD
BRANCH  24  26
HETATM   26  C17 UNL     1     -14.421  16.619 -25.519  1.00  0.00     0.151 C 
BRANCH  26  27
HETATM   27  C18 UNL     1     -14.808  17.704 -24.496  1.00  0.00     0.292 C 
BRANCH  27  28
HETATM   28  N5  UNL     1     -13.657  18.544 -24.202  1.00  0.00     0.094 N 
HETATM   29  C19 UNL     1     -13.849  19.771 -24.986  1.00  0.00     0.298 C 
HETATM   30  C20 UNL     1     -12.712  20.736 -24.796  1.00  0.00     0.198 C 
HETATM   31  O2  UNL     1     -12.361  20.836 -23.455  1.00  0.00    -0.388 OA
HETATM   32  C21 UNL     1     -13.421  20.435 -22.657  1.00  0.00     0.198 C 
HETATM   33  C22 UNL     1     -13.735  18.967 -22.798  1.00  0.00     0.298 C 
ENDBRANCH  27  28
ENDBRANCH  26  27
ENDBRANCH  24  26
ENDBRANCH   9  24
TORSDOF 6
ENDMDL
MODEL 4
REMARK VINA RESULT: -9.866507530      1.365      1.689
REMARK  6 active torsions:
REMARK  status: ('A' for Active; 'I' for Inactive)
REMARK    1  A    between atoms: C3_3  and  C4_4 
REMARK    2  A    between atoms: C7_9  and  C8_10 
REMARK    3  A    between atoms: C16_23  and  N4_24 
REMARK    4  A    between atoms: N4_24  and  C17_26 
REMARK    5  A    between atoms: C17_26  and  C18_27 
REMARK    6  A    between atoms: C18_27  and  N5_28 
ROOT
HETATM    1  C1  UNL     1     -13.164  14.540 -24.129  1.00  0.00     0.054 C 
HETATM    2  C2  UNL     1     -12.290  14.552 -22.910  1.00  0.00     0.005 A 
HETATM    3  C3  UNL     1     -12.579  13.706 -21.853  1.00  0.00     0.024 A 
HETATM    4  N1  UNL     1     -11.826  13.690 -20.760  1.00  0.00    -0.343 N 
ATOM      5  H1  UNL     1     -12.080  13.050 -20.008  1.00  0.00     0.167 HD
HETATM    6  C7  UNL     1     -10.725  14.490 -20.589  1.00  0.00     0.137 A 
HETATM    7  N3  UNL     1     -10.452  15.290 -21.592  1.00  0.00    -0.326 N 
ATOM      8  H3  UNL     1      -9.640  15.901 -21.506  1.00  0.00     0.169 HD
HETATM    9  C16 UNL     1     -11.197  15.359 -22.767  1.00  0.00     0.110 A 
ENDROOT
BRANCH   6  10
HETATM   10  C8  UNL     1     -10.030  14.385 -19.310  1.00  0.00     0.107 A 
HETATM   11  N2  UNL     1      -8.772  13.816 -19.201  1.00  0.00    -0.257 N 
HETATM   12  O1  UNL     1      -8.383  13.847 -17.976  1.00  0.00    -0.241 OA
ATOM     13  H2  UNL     1      -8.234  13.429 -19.976  1.00  0.00     0.195 HD
HETATM   14  C9  UNL     1      -9.254  14.389 -17.205  1.00  0.00     0.085 A 
HETATM   15  C10 UNL     1     -10.334  14.747 -18.034  1.00  0.00     0.006 A 
HETATM   16  C15 UNL     1      -9.190  14.621 -15.739  1.00  0.00     0.068 C 
HETATM   17  C11 UNL     1     -11.564  15.372 -17.568  1.00  0.00     0.044 C 
HETATM   18  C12 UNL     1     -11.249  16.831 -17.267  1.00  0.00     0.005 C 
HETATM   19  C13 UNL     1      -9.979  16.925 -16.439  1.00  0.00     0.001 C 
HETATM   20  C14 UNL     1      -9.897  15.903 -15.361  1.00  0.00     0.007 C 
ENDBRANCH   6  10
BRANCH   3  21
HETATM   21  C4  UNL     1     -13.756  12.819 -21.961  1.00  0.00     0.036 A 
HETATM   22  C5  UNL     1     -13.627  11.434 -21.258  1.00  0.00     0.011 A 
HETATM   23  C6  UNL     1     -13.775  11.574 -22.731  1.00  0.00     0.011 A 
ENDBRANCH   3  21
BRANCH   9  24
HETATM   24  N4  UNL     1     -10.814  16.176 -23.641  1.00  0.00    -0.374 N 
ATOM     25  H4  UNL     1     -10.336  15.675 -24.389  1.00  0.00     0.161 HD
BRANCH  24  26
HETATM   26  C17 UNL     1     -10.824  17.517 -23.924  1.00  0.00     0.151 C 
BRANCH  26  27
HETATM   27  C18 UNL     1     -11.533  18.244 -22.766  1.00  0.00     0.292 C 
BRANCH  27  28
HETATM   28  N5  UNL     1     -12.636  19.042 -23.280  1.00  0.00     0.094 N 
HETATM   29  C19 UNL     1     -12.223  19.473 -24.622  1.00  0.00     0.298 C 
HETATM   30  C20 UNL     1     -13.268  20.333 -25.276  1.00  0.00     0.198 C 
HETATM   31  O2  UNL     1     -14.538  19.800 -25.096  1.00  0.00    -0.388 OA
HETATM   32  C21 UNL     1     -14.448  18.444 -24.821  1.00  0.00     0.198 C 
HETATM   33  C22 UNL     1     -13.789  18.159 -23.496  1.00  0.00     0.298 C 
ENDBRANCH  27  28
ENDBRANCH  26  27
ENDBRANCH  24  26
ENDBRANCH   9  24
TORSDOF 6
ENDMDL
MODEL 5
REMARK VINA RESULT: -9.715298408      1.823      2.405
REMARK  6 active torsions:
REMARK  status: ('A' for Active; 'I' for Inactive)
REMARK    1  A    between atoms: C3_3  and  C4_4 
REMARK    2  A    between atoms: C7_9  and  C8_10 
REMARK    3  A    between atoms: C16_23  and  N4_24 
REMARK    4  A    between atoms: N4_24  and  C17_26 
REMARK    5  A    between atoms: C17_26  and  C18_27 
REMARK    6  A    between atoms: C18_27  and  N5_28 
ROOT
HETATM    1  C1  UNL     1     -13.506  15.525 -22.894  1.00  0.00     0.054 C 
HETATM    2  C2  UNL     1     -12.766  15.510 -21.590  1.00  0.00     0.005 A 
HETATM    3  C3  UNL     1     -12.340  14.305 -21.059  1.00  0.00     0.024 A 
HETATM    4  N1  UNL     1     -11.682  14.256 -19.907  1.00  0.00    -0.343 N 
ATOM      5  H1  UNL     1     -11.389  13.344 -19.556  1.00  0.00     0.167 HD
HETATM    6  C7  UNL     1     -11.375  15.368 -19.163  1.00  0.00     0.137 A 
HETATM    7  N3  UNL     1     -11.778  16.509 -19.669  1.00  0.00    -0.326 N 
ATOM      8  H3  UNL     1     -11.569  17.361 -19.148  1.00  0.00     0.169 HD
HETATM    9  C16 UNL     1     -12.473  16.634 -20.870  1.00  0.00     0.110 A 
ENDROOT
BRANCH   6  10
HETATM   10  C8  UNL     1     -10.687  15.140 -17.897  1.00  0.00     0.107 A 
HETATM   11  N2  UNL     1     -11.014  15.838 -16.746  1.00  0.00    -0.257 N 
HETATM   12  O1  UNL     1     -10.268  15.452 -15.773  1.00  0.00    -0.241 OA
ATOM     13  H2  UNL     1     -11.738  16.553 -16.680  1.00  0.00     0.195 HD
HETATM   14  C9  UNL     1      -9.439  14.540 -16.132  1.00  0.00     0.085 A 
HETATM   15  C10 UNL     1      -9.680  14.315 -17.501  1.00  0.00     0.006 A 
HETATM   16  C15 UNL     1      -8.418  13.831 -15.318  1.00  0.00     0.068 C 
HETATM   17  C11 UNL     1      -8.941  13.372 -18.327  1.00  0.00     0.044 C 
HETATM   18  C12 UNL     1      -9.419  11.972 -17.964  1.00  0.00     0.005 C 
HETATM   19  C13 UNL     1      -9.446  11.812 -16.454  1.00  0.00     0.001 C 
HETATM   20  C14 UNL     1      -8.259  12.398 -15.775  1.00  0.00     0.007 C 
ENDBRANCH   6  10
BRANCH   3  21
HETATM   21  C4  UNL     1     -12.641  13.062 -21.799  1.00  0.00     0.036 A 
HETATM   22  C5  UNL     1     -13.963  12.341 -21.403  1.00  0.00     0.011 A 
HETATM   23  C6  UNL     1     -12.625  11.728 -21.200  1.00  0.00     0.011 A 
ENDBRANCH   3  21
BRANCH   9  24
HETATM   24  N4  UNL     1     -12.795  17.795 -21.227  1.00  0.00    -0.374 N 
ATOM     25  H4  UNL     1     -13.710  18.028 -20.842  1.00  0.00     0.161 HD
BRANCH  24  26
HETATM   26  C17 UNL     1     -12.326  18.853 -21.961  1.00  0.00     0.151 C 
BRANCH  26  27
HETATM   27  C18 UNL     1     -13.407  19.236 -22.990  1.00  0.00     0.292 C 
BRANCH  27  28
HETATM   28  N5  UNL     1     -12.867  19.141 -24.338  1.00  0.00     0.094 N 
HETATM   29  C19 UNL     1     -11.585  18.436 -24.204  1.00  0.00     0.298 C 
HETATM   30  C20 UNL     1     -10.894  18.282 -25.530  1.00  0.00     0.198 C 
HETATM   31  O2  UNL     1     -11.789  17.881 -26.515  1.00  0.00    -0.388 OA
HETATM   32  C21 UNL     1     -12.894  17.279 -25.935  1.00  0.00     0.198 C 
HETATM   33  C22 UNL     1     -13.723  18.240 -25.121  1.00  0.00     0.298 C 
ENDBRANCH  27  28
ENDBRANCH  26  27
ENDBRANCH  24  26
ENDBRANCH   9  24
TORSDOF 6
ENDMDL
