MODEL 1
REMARK VINA RESULT: -10.001876184      0.000      0.000
REMARK  7 active torsions:
REMARK  status: ('A' for Active; 'I' for Inactive)
REMARK    1  A    between atoms: C4_5  and  C5_6 
REMARK    2  A    between atoms: C5_6  and  N1_7 
REMARK    3  A    between atoms: N2_10  and  C8_11 
REMARK    4  A    between atoms: C16_21  and  O2_22 
REMARK    5  A    between atoms: O2_22  and  C17_23 
REMARK    6  A    between atoms: C17_23  and  O3_24 
REMARK    7  A    between atoms: C17_23  and  C18_26 
ROOT
HETATM    1  C1  UNL     1     -13.810  19.487 -21.954  1.00  0.00     0.015 C 
HETATM    2  C2  UNL     1     -12.351  19.197 -22.244  1.00  0.00     0.035 C 
HETATM    3  C3  UNL     1     -12.088  19.055 -23.737  1.00  0.00     0.175 C 
HETATM    4  O1  UNL     1     -11.625  17.801 -24.060  1.00  0.00    -0.384 OA
HETATM    5  C4  UNL     1     -12.485  16.764 -23.725  1.00  0.00     0.152 C 
HETATM    6  C15 UNL     1     -12.934  16.851 -22.280  1.00  0.00     0.066 C 
HETATM    7  C16 UNL     1     -12.011  17.887 -21.606  1.00  0.00     0.133 C 
ENDROOT
BRANCH   5   8
HETATM    8  C5  UNL     1     -13.635  16.814 -24.683  1.00  0.00     0.304 C 
BRANCH   8   9
HETATM    9  N1  UNL     1     -13.453  16.061 -25.897  1.00  0.00     0.094 N 
HETATM   10  C6  UNL     1     -12.263  15.223 -25.674  1.00  0.00     0.292 C 
HETATM   11  C7  UNL     1     -12.387  14.337 -24.481  1.00  0.00     0.154 C 
HETATM   12  N2  UNL     1     -13.569  13.490 -24.704  1.00  0.00    -0.364 N 
HETATM   13  C13 UNL     1     -14.262  13.720 -25.926  1.00  0.00     0.154 C 
HETATM   14  C14 UNL     1     -14.567  15.179 -26.171  1.00  0.00     0.292 C 
BRANCH  12  15
HETATM   15  C8  UNL     1     -13.905  12.544 -23.711  1.00  0.00     0.102 A 
HETATM   16  C9  UNL     1     -13.480  12.616 -22.409  1.00  0.00     0.048 A 
HETATM   17  C10 UNL     1     -13.826  11.672 -21.449  1.00  0.00     0.005 A 
HETATM   18  C11 UNL     1     -14.627  10.610 -21.798  1.00  0.00     0.017 A 
HETATM   19  C12 UNL     1     -15.048  10.550 -23.113  1.00  0.00     0.089 A 
HETATM   20  N3  UNL     1     -14.696  11.478 -24.009  1.00  0.00    -0.352 N 
ATOM     21  H3  UNL     1     -15.039  11.383 -24.966  1.00  0.00     0.166 HD
ENDBRANCH  12  15
ENDBRANCH   8   9
ENDBRANCH   5   8
BRANCH   7  22
HETATM   22  O2  UNL     1     -12.199  17.880 -20.236  1.00  0.00    -0.351 OA
BRANCH  22  23
HETATM   23  C17 UNL     1     -12.523  16.608 -19.783  1.00  0.00     0.291 C 
BRANCH  23  24
HETATM   24  O3  UNL     1     -13.791  16.631 -19.138  1.00  0.00    -0.367 OA
ATOM     25  H3  UNL     1     -14.416  16.115 -19.634  1.00  0.00     0.213 HD
ENDBRANCH  23  24
BRANCH  23  26
HETATM   26  C18 UNL     1     -11.533  16.015 -18.863  1.00  0.00    -0.004 A 
HETATM   27  C19 UNL     1     -10.839  14.868 -19.191  1.00  0.00     0.012 A 
HETATM   28  C20 UNL     1      -9.900  14.333 -18.304  1.00  0.00     0.001 A 
HETATM   29  C21 UNL     1      -9.642  14.926 -17.093  1.00  0.00     0.000 A 
HETATM   30  C22 UNL     1     -10.328  16.068 -16.758  1.00  0.00     0.001 A 
HETATM   31  C23 UNL     1     -11.250  16.582 -17.644  1.00  0.00     0.012 A 
ENDBRANCH  23  26
ENDBRANCH  22  23
ENDBRANCH   7  22
TORSDOF 7
ENDMDL
MODEL 2
REMARK VINA RESULT: -9.913940570      2.335      4.754
REMARK  7 active torsions:
REMARK  status: ('A' for Active; 'I' for Inactive)
REMARK    1  A    between atoms: C4_5  and  C5_6 
REMARK    2  A    between atoms: C5_6  and  N1_7 
REMARK    3  A    between atoms: N2_10  and  C8_11 
REMARK    4  A    between atoms: C16_21  and  O2_22 
REMARK    5  A    between atoms: O2_22  and  C17_23 
REMARK    6  A    between atoms: C17_23  and  O3_24 
REMARK    7  A    between atoms: C17_23  and  C18_26 
ROOT
HETATM    1  C1  UNL     1     -13.049  16.747 -20.271  1.00  0.00     0.015 C 
HETATM    2  C2  UNL     1     -11.752  16.327 -20.931  1.00  0.00     0.035 C 
HETATM    3  C3  UNL     1     -11.737  16.660 -22.417  1.00  0.00     0.175 C 
HETATM    4  O1  UNL     1     -11.625  15.531 -23.195  1.00  0.00    -0.384 OA
HETATM    5  C4  UNL     1     -12.645  14.606 -23.021  1.00  0.00     0.152 C 
HETATM    6  C15 UNL     1     -12.857  14.271 -21.558  1.00  0.00     0.066 C 
HETATM    7  C16 UNL     1     -11.637  14.840 -20.807  1.00  0.00     0.133 C 
ENDROOT
BRANCH   5   8
HETATM    8  C5  UNL     1     -13.874  15.176 -23.659  1.00  0.00     0.304 C 
BRANCH   8   9
HETATM    9  N1  UNL     1     -14.302  14.513 -24.863  1.00  0.00     0.094 N 
HETATM   10  C6  UNL     1     -14.951  15.550 -25.683  1.00  0.00     0.292 C 
HETATM   11  C7  UNL     1     -14.059  16.710 -25.972  1.00  0.00     0.154 C 
HETATM   12  N2  UNL     1     -12.881  16.175 -26.671  1.00  0.00    -0.364 N 
HETATM   13  C13 UNL     1     -12.882  14.766 -26.878  1.00  0.00     0.154 C 
HETATM   14  C14 UNL     1     -13.191  13.981 -25.624  1.00  0.00     0.292 C 
BRANCH  12  15
HETATM   15  C8  UNL     1     -11.875  17.082 -27.069  1.00  0.00     0.102 A 
HETATM   16  C9  UNL     1     -11.105  17.803 -26.193  1.00  0.00     0.048 A 
HETATM   17  C10 UNL     1     -10.120  18.691 -26.610  1.00  0.00     0.005 A 
HETATM   18  C11 UNL     1      -9.890  18.871 -27.954  1.00  0.00     0.017 A 
HETATM   19  C12 UNL     1     -10.673  18.137 -28.824  1.00  0.00     0.089 A 
HETATM   20  N3  UNL     1     -11.612  17.291 -28.387  1.00  0.00    -0.352 N 
ATOM     21  H3  UNL     1     -12.158  16.775 -29.078  1.00  0.00     0.166 HD
ENDBRANCH  12  15
ENDBRANCH   8   9
ENDBRANCH   5   8
BRANCH   7  22
HETATM   22  O2  UNL     1     -11.629  14.399 -19.496  1.00  0.00    -0.351 OA
BRANCH  22  23
HETATM   23  C17 UNL     1     -10.340  14.386 -18.981  1.00  0.00     0.291 C 
BRANCH  23  24
HETATM   24  O3  UNL     1      -9.937  13.049 -18.713  1.00  0.00    -0.367 OA
ATOM     25  H3  UNL     1     -10.497  12.668 -18.046  1.00  0.00     0.213 HD
ENDBRANCH  23  24
BRANCH  23  26
HETATM   26  C18 UNL     1     -10.162  15.191 -17.757  1.00  0.00    -0.004 A 
HETATM   27  C19 UNL     1      -9.267  14.820 -16.773  1.00  0.00     0.012 A 
HETATM   28  C20 UNL     1      -9.113  15.606 -15.627  1.00  0.00     0.001 A 
HETATM   29  C21 UNL     1      -9.838  16.758 -15.447  1.00  0.00     0.000 A 
HETATM   30  C22 UNL     1     -10.731  17.134 -16.421  1.00  0.00     0.001 A 
HETATM   31  C23 UNL     1     -10.871  16.348 -17.544  1.00  0.00     0.012 A 
ENDBRANCH  23  26
ENDBRANCH  22  23
ENDBRANCH   7  22
TORSDOF 7
ENDMDL
MODEL 3
REMARK VINA RESULT: -9.875896101      1.765      2.542
REMARK  7 active torsions:
REMARK  status: ('A' for Active; 'I' for Inactive)
REMARK    1  A    between atoms: C4_5  and  C5_6 
REMARK    2  A    between atoms: C5_6  and  N1_7 
REMARK    3  A    between atoms: N2_10  and  C8_11 
REMARK    4  A    between atoms: C16_21  and  O2_22 
REMARK    5  A    between atoms: O2_22  and  C17_23 
REMARK    6  A    between atoms: C17_23  and  O3_24 
REMARK    7  A    between atoms: C17_23  and  C18_26 
ROOT
HETATM    1  C1  UNL     1     -10.796  15.205 -21.422  1.00  0.00     0.015 C 
HETATM    2  C2  UNL     1     -12.295  15.309 -21.232  1.00  0.00     0.035 C 
HETATM    3  C3  UNL     1     -13.052  15.016 -22.520  1.00  0.00     0.175 C 
HETATM    4  O1  UNL     1     -13.786  16.101 -22.942  1.00  0.00    -0.384 OA
HETATM    5  C4  UNL     1     -13.038  17.243 -23.190  1.00  0.00     0.152 C 
HETATM    6  C15 UNL     1     -12.133  17.587 -22.024  1.00  0.00     0.066 C 
HETATM    7  C16 UNL     1     -12.609  16.719 -20.842  1.00  0.00     0.133 C 
ENDROOT
BRANCH   5   8
HETATM    8  C5  UNL     1     -12.273  17.006 -24.456  1.00  0.00     0.304 C 
BRANCH   8   9
HETATM    9  N1  UNL     1     -12.959  17.380 -25.665  1.00  0.00     0.094 N 
HETATM   10  C6  UNL     1     -12.370  16.554 -26.732  1.00  0.00     0.292 C 
HETATM   11  C7  UNL     1     -12.471  15.091 -26.462  1.00  0.00     0.154 C 
HETATM   12  N2  UNL     1     -13.903  14.785 -26.318  1.00  0.00    -0.364 N 
HETATM   13  C13 UNL     1     -14.781  15.898 -26.455  1.00  0.00     0.154 C 
HETATM   14  C14 UNL     1     -14.375  17.083 -25.609  1.00  0.00     0.292 C 
BRANCH  12  15
HETATM   15  C8  UNL     1     -14.274  13.447 -26.062  1.00  0.00     0.102 A 
HETATM   16  C9  UNL     1     -14.383  12.909 -24.807  1.00  0.00     0.048 A 
HETATM   17  C10 UNL     1     -14.751  11.587 -24.582  1.00  0.00     0.005 A 
HETATM   18  C11 UNL     1     -15.021  10.765 -25.651  1.00  0.00     0.017 A 
HETATM   19  C12 UNL     1     -14.907  11.321 -26.910  1.00  0.00     0.089 A 
HETATM   20  N3  UNL     1     -14.552  12.598 -27.089  1.00  0.00    -0.352 N 
ATOM     21  H3  UNL     1     -14.486  12.954 -28.043  1.00  0.00     0.166 HD
ENDBRANCH  12  15
ENDBRANCH   8   9
ENDBRANCH   5   8
BRANCH   7  22
HETATM   22  O2  UNL     1     -11.986  17.115 -19.672  1.00  0.00    -0.351 OA
BRANCH  22  23
HETATM   23  C17 UNL     1     -12.258  16.230 -18.638  1.00  0.00     0.291 C 
BRANCH  23  24
HETATM   24  O3  UNL     1     -13.526  16.525 -18.065  1.00  0.00    -0.367 OA
ATOM     25  H3  UNL     1     -13.466  16.506 -17.117  1.00  0.00     0.213 HD
ENDBRANCH  23  24
BRANCH  23  26
HETATM   26  C18 UNL     1     -11.244  16.214 -17.565  1.00  0.00    -0.004 A 
HETATM   27  C19 UNL     1     -10.400  15.137 -17.385  1.00  0.00     0.012 A 
HETATM   28  C20 UNL     1      -9.443  15.152 -16.365  1.00  0.00     0.001 A 
HETATM   29  C21 UNL     1      -9.315  16.227 -15.522  1.00  0.00     0.000 A 
HETATM   30  C22 UNL     1     -10.150  17.305 -15.694  1.00  0.00     0.001 A 
HETATM   31  C23 UNL     1     -11.088  17.273 -16.703  1.00  0.00     0.012 A 
ENDBRANCH  23  26
ENDBRANCH  22  23
ENDBRANCH   7  22
TORSDOF 7
ENDMDL
MODEL 4
REMARK VINA RESULT: -9.852620739      2.468      4.987
REMARK  7 active torsions:
REMARK  status: ('A' for Active; 'I' for Inactive)
REMARK    1  A    between atoms: C4_5  and  C5_6 
REMARK    2  A    between atoms: C5_6  and  N1_7 
REMARK    3  A    between atoms: N2_10  and  C8_11 
REMARK    4  A    between atoms: C16_21  and  O2_22 
REMARK    5  A    between atoms: O2_22  and  C17_23 
REMARK    6  A    between atoms: C17_23  and  O3_24 
REMARK    7  A    between atoms: C17_23  and  C18_26 
ROOT
HETATM    1  C1  UNL     1     -13.080  15.904 -19.813  1.00  0.00     0.015 C 
HETATM    2  C2  UNL     1     -11.806  16.056 -20.620  1.00  0.00     0.035 C 
HETATM    3  C3  UNL     1     -12.058  16.749 -21.952  1.00  0.00     0.175 C 
HETATM    4  O1  UNL     1     -11.748  15.938 -23.019  1.00  0.00    -0.384 OA
HETATM    5  C4  UNL     1     -12.461  14.748 -23.067  1.00  0.00     0.152 C 
HETATM    6  C15 UNL     1     -12.401  14.003 -21.749  1.00  0.00     0.066 C 
HETATM    7  C16 UNL     1     -11.292  14.684 -20.922  1.00  0.00     0.133 C 
ENDROOT
BRANCH   5   8
HETATM    8  C5  UNL     1     -13.864  15.088 -23.466  1.00  0.00     0.304 C 
BRANCH   8   9
HETATM    9  N1  UNL     1     -14.326  14.458 -24.675  1.00  0.00     0.094 N 
HETATM   10  C6  UNL     1     -14.979  15.521 -25.457  1.00  0.00     0.292 C 
HETATM   11  C7  UNL     1     -14.079  16.676 -25.739  1.00  0.00     0.154 C 
HETATM   12  N2  UNL     1     -12.923  16.143 -26.476  1.00  0.00    -0.364 N 
HETATM   13  C13 UNL     1     -12.947  14.739 -26.714  1.00  0.00     0.154 C 
HETATM   14  C14 UNL     1     -13.239  13.930 -25.472  1.00  0.00     0.292 C 
BRANCH  12  15
HETATM   15  C8  UNL     1     -11.915  17.047 -26.874  1.00  0.00     0.102 A 
HETATM   16  C9  UNL     1     -10.927  16.745 -27.775  1.00  0.00     0.048 A 
HETATM   17  C10 UNL     1      -9.945  17.654 -28.151  1.00  0.00     0.005 A 
HETATM   18  C11 UNL     1      -9.944  18.918 -27.608  1.00  0.00     0.017 A 
HETATM   19  C12 UNL     1     -10.946  19.209 -26.702  1.00  0.00     0.089 A 
HETATM   20  N3  UNL     1     -11.876  18.308 -26.365  1.00  0.00    -0.352 N 
ATOM     21  H3  UNL     1     -12.592  18.581 -25.691  1.00  0.00     0.166 HD
ENDBRANCH  12  15
ENDBRANCH   8   9
ENDBRANCH   5   8
BRANCH   7  22
HETATM   22  O2  UNL     1     -11.011  13.942 -19.789  1.00  0.00    -0.351 OA
BRANCH  22  23
HETATM   23  C17 UNL     1      -9.715  14.173 -19.350  1.00  0.00     0.291 C 
BRANCH  23  24
HETATM   24  O3  UNL     1      -8.789  13.856 -20.381  1.00  0.00    -0.367 OA
ATOM     25  H3  UNL     1      -9.173  14.039 -21.230  1.00  0.00     0.213 HD
ENDBRANCH  23  24
BRANCH  23  26
HETATM   26  C18 UNL     1      -9.341  13.429 -18.130  1.00  0.00    -0.004 A 
HETATM   27  C19 UNL     1      -9.745  12.125 -17.927  1.00  0.00     0.012 A 
HETATM   28  C20 UNL     1      -9.369  11.442 -16.766  1.00  0.00     0.001 A 
HETATM   29  C21 UNL     1      -8.596  12.042 -15.804  1.00  0.00     0.000 A 
HETATM   30  C22 UNL     1      -8.189  13.340 -15.997  1.00  0.00     0.001 A 
HETATM   31  C23 UNL     1      -8.569  13.998 -17.146  1.00  0.00     0.012 A 
ENDBRANCH  23  26
ENDBRANCH  22  23
ENDBRANCH   7  22
TORSDOF 7
ENDMDL
MODEL 5
REMARK VINA RESULT: -9.837997247      2.089      4.830
REMARK  7 active torsions:
REMARK  status: ('A' for Active; 'I' for Inactive)
REMARK    1  A    between atoms: C4_5  and  C5_6 
REMARK    2  A    between atoms: C5_6  and  N1_7 
REMARK    3  A    between atoms: N2_10  and  C8_11 
REMARK    4  A    between atoms: C16_21  and  O2_22 
REMARK    5  A    between atoms: O2_22  and  C17_23 
REMARK    6  A    between atoms: C17_23  and  O3_24 
REMARK    7  A    between atoms: C17_23  and  C18_26 
ROOT
HETATM    1  C1  UNL     1     -13.353  15.959 -19.727  1.00  0.00     0.015 C 
HETATM    2  C2  UNL     1     -11.985  15.996 -20.377  1.00  0.00     0.035 C 
HETATM    3  C3  UNL     1     -12.073  16.282 -21.870  1.00  0.00     0.175 C 
HETATM    4  O1  UNL     1     -11.574  15.243 -22.621  1.00  0.00    -0.384 OA
HETATM    5  C4  UNL     1     -12.216  14.029 -22.427  1.00  0.00     0.152 C 
HETATM    6  C15 UNL     1     -12.313  13.672 -20.957  1.00  0.00     0.066 C 
HETATM    7  C16 UNL     1     -11.368  14.642 -20.219  1.00  0.00     0.133 C 
ENDROOT
BRANCH   5   8
HETATM    8  C5  UNL     1     -13.561  14.129 -23.079  1.00  0.00     0.304 C 
BRANCH   8   9
HETATM    9  N1  UNL     1     -13.591  13.782 -24.476  1.00  0.00     0.094 N 
HETATM   10  C6  UNL     1     -14.778  14.454 -25.031  1.00  0.00     0.292 C 
HETATM   11  C7  UNL     1     -14.763  15.931 -24.822  1.00  0.00     0.154 C 
HETATM   12  N2  UNL     1     -13.544  16.438 -25.471  1.00  0.00    -0.364 N 
HETATM   13  C13 UNL     1     -12.727  15.450 -26.091  1.00  0.00     0.154 C 
HETATM   14  C14 UNL     1     -12.432  14.273 -25.191  1.00  0.00     0.292 C 
BRANCH  12  15
HETATM   15  C8  UNL     1     -13.296  17.828 -25.424  1.00  0.00     0.102 A 
HETATM   16  C9  UNL     1     -14.176  18.746 -24.914  1.00  0.00     0.048 A 
HETATM   17  C10 UNL     1     -13.907  20.110 -24.879  1.00  0.00     0.005 A 
HETATM   18  C11 UNL     1     -12.713  20.581 -25.373  1.00  0.00     0.017 A 
HETATM   19  C12 UNL     1     -11.836  19.643 -25.885  1.00  0.00     0.089 A 
HETATM   20  N3  UNL     1     -12.128  18.338 -25.901  1.00  0.00    -0.352 N 
ATOM     21  H3  UNL     1     -11.440  17.693 -26.289  1.00  0.00     0.166 HD
ENDBRANCH  12  15
ENDBRANCH   8   9
ENDBRANCH   5   8
BRANCH   7  22
HETATM   22  O2  UNL     1     -11.220  14.258 -18.898  1.00  0.00    -0.351 OA
BRANCH  22  23
HETATM   23  C17 UNL     1      -9.941  14.539 -18.436  1.00  0.00     0.291 C 
BRANCH  23  24
HETATM   24  O3  UNL     1      -9.269  13.331 -18.103  1.00  0.00    -0.367 OA
ATOM     25  H3  UNL     1      -9.204  13.246 -17.159  1.00  0.00     0.213 HD
ENDBRANCH  23  24
BRANCH  23  26
HETATM   26  C18 UNL     1      -9.897  15.445 -17.271  1.00  0.00    -0.004 A 
HETATM   27  C19 UNL     1      -9.056  15.206 -16.203  1.00  0.00     0.012 A 
HETATM   28  C20 UNL     1      -9.029  16.086 -15.117  1.00  0.00     0.001 A 
HETATM   29  C21 UNL     1      -9.827  17.202 -15.080  1.00  0.00     0.000 A 
HETATM   30  C22 UNL     1     -10.667  17.448 -16.139  1.00  0.00     0.001 A 
HETATM   31  C23 UNL     1     -10.682  16.570 -17.202  1.00  0.00     0.012 A 
ENDBRANCH  23  26
ENDBRANCH  22  23
ENDBRANCH   7  22
TORSDOF 7
ENDMDL
