MODEL 1
REMARK VINA RESULT: -9.644961939      0.000      0.000
REMARK  7 active torsions:
REMARK  status: ('A' for Active; 'I' for Inactive)
REMARK    1  A    between atoms: C2_2  and  C3_3 
REMARK    2  A    between atoms: C6_9  and  C7_10 
REMARK    3  A    between atoms: C7_10  and  C8_11 
REMARK       I    between atoms: N2_14  and  C11_15 
REMARK    4  A    between atoms: C11_15  and  O3_17 
REMARK    5  A    between atoms: O3_17  and  C12_18 
REMARK    6  A    between atoms: C15_21  and  C16_22 
REMARK    7  A    between atoms: C16_22  and  O4_23 
ROOT
HETATM    1  C8  UNL     1     -10.963  14.633 -19.249  1.00  0.00    -0.007 C 
HETATM    2  C9  UNL     1     -10.552  14.501 -20.689  1.00  0.00     0.025 C 
HETATM    3  C10 UNL     1     -11.737  14.605 -21.628  1.00  0.00     0.128 C 
HETATM    4  N2  UNL     1     -12.477  15.810 -21.302  1.00  0.00    -0.328 N 
HETATM    5  C11 UNL     1     -12.684  16.850 -22.257  1.00  0.00     0.363 C 
HETATM    6  O2  UNL     1     -13.333  17.868 -21.914  1.00  0.00    -0.238 OA
HETATM    7  C21 UNL     1     -13.001  15.905 -19.955  1.00  0.00     0.128 C 
HETATM    8  C22 UNL     1     -11.824  15.852 -19.010  1.00  0.00     0.025 C 
ENDROOT
BRANCH   5   9
HETATM    9  O3  UNL     1     -12.203  16.796 -23.554  1.00  0.00    -0.295 OA
BRANCH   9  10
HETATM   10  C12 UNL     1     -13.019  16.562 -24.671  1.00  0.00     0.167 C 
HETATM   11  C13 UNL     1     -13.938  15.355 -24.439  1.00  0.00     0.152 C 
HETATM   12  C14 UNL     1     -15.150  15.588 -25.322  1.00  0.00     0.041 C 
HETATM   13  O5  UNL     1     -13.352  14.179 -24.889  1.00  0.00    -0.378 OA
HETATM   14  C15 UNL     1     -14.612  15.895 -26.701  1.00  0.00     0.018 C 
HETATM   15  C17 UNL     1     -13.181  15.553 -26.870  1.00  0.00     0.027 C 
HETATM   16  C18 UNL     1     -12.740  14.315 -26.120  1.00  0.00     0.127 C 
HETATM   17  C20 UNL     1     -12.264  16.334 -25.950  1.00  0.00     0.027 C 
HETATM   18  C19 UNL     1     -11.409  15.057 -25.899  1.00  0.00     0.040 C 
BRANCH  14  19
HETATM   19  C16 UNL     1     -15.461  15.191 -27.705  1.00  0.00     0.169 C 
BRANCH  19  20
HETATM   20  O4  UNL     1     -16.528  15.988 -28.097  1.00  0.00    -0.400 OA
ATOM     21  H4  UNL     1     -17.349  15.517 -28.022  1.00  0.00     0.209 HD
ENDBRANCH  19  20
ENDBRANCH  14  19
ENDBRANCH   9  10
ENDBRANCH   5   9
BRANCH   1  22
HETATM   22  C7  UNL     1      -9.735  14.769 -18.401  1.00  0.00     0.048 C 
BRANCH  22  23
HETATM   23  C6  UNL     1      -9.832  14.223 -17.046  1.00  0.00    -0.002 A 
HETATM   24  C3  UNL     1     -10.117  14.928 -15.903  1.00  0.00     0.041 A 
HETATM   25  N1  UNL     1     -10.099  14.021 -14.898  1.00  0.00    -0.265 N 
HETATM   26  O1  UNL     1      -9.828  12.870 -15.374  1.00  0.00    -0.242 OA
ATOM     27  H1  UNL     1     -10.274  14.226 -13.914  1.00  0.00     0.194 HD
HETATM   28  C4  UNL     1      -9.656  12.930 -16.668  1.00  0.00     0.081 A 
HETATM   29  C5  UNL     1      -9.329  11.739 -17.480  1.00  0.00     0.079 C 
BRANCH  24  30
HETATM   30  C2  UNL     1     -10.389  16.357 -15.685  1.00  0.00     0.055 C 
HETATM   31  C1  UNL     1      -9.161  16.961 -15.034  1.00  0.00     0.011 C 
ENDBRANCH  24  30
ENDBRANCH  22  23
ENDBRANCH   1  22
TORSDOF 7
ENDMDL
MODEL 2
REMARK VINA RESULT: -9.640374372      3.515      9.328
REMARK  7 active torsions:
REMARK  status: ('A' for Active; 'I' for Inactive)
REMARK    1  A    between atoms: C2_2  and  C3_3 
REMARK    2  A    between atoms: C6_9  and  C7_10 
REMARK    3  A    between atoms: C7_10  and  C8_11 
REMARK       I    between atoms: N2_14  and  C11_15 
REMARK    4  A    between atoms: C11_15  and  O3_17 
REMARK    5  A    between atoms: O3_17  and  C12_18 
REMARK    6  A    between atoms: C15_21  and  C16_22 
REMARK    7  A    between atoms: C16_22  and  O4_23 
ROOT
HETATM    1  C8  UNL     1     -13.384  12.572 -22.644  1.00  0.00    -0.007 C 
HETATM    2  C9  UNL     1     -12.943  12.139 -21.274  1.00  0.00     0.025 C 
HETATM    3  C10 UNL     1     -11.636  12.787 -20.868  1.00  0.00     0.128 C 
HETATM    4  N2  UNL     1     -11.755  14.221 -21.057  1.00  0.00    -0.328 N 
HETATM    5  C11 UNL     1     -11.591  15.141 -19.980  1.00  0.00     0.363 C 
HETATM    6  O2  UNL     1     -11.706  16.369 -20.207  1.00  0.00    -0.238 OA
HETATM    7  C21 UNL     1     -12.049  14.675 -22.401  1.00  0.00     0.128 C 
HETATM    8  C22 UNL     1     -13.376  14.075 -22.799  1.00  0.00     0.025 C 
ENDROOT
BRANCH   5   9
HETATM    9  O3  UNL     1     -11.306  14.747 -18.683  1.00  0.00    -0.295 OA
BRANCH   9  10
HETATM   10  C12 UNL     1     -10.001  14.615 -18.184  1.00  0.00     0.167 C 
HETATM   11  C13 UNL     1      -9.643  13.139 -17.964  1.00  0.00     0.152 C 
HETATM   12  C14 UNL     1      -8.133  13.062 -18.085  1.00  0.00     0.041 C 
HETATM   13  O5  UNL     1      -9.948  12.731 -16.672  1.00  0.00    -0.378 OA
HETATM   14  C15 UNL     1      -7.583  14.135 -17.173  1.00  0.00     0.018 C 
HETATM   15  C17 UNL     1      -8.581  14.672 -16.220  1.00  0.00     0.027 C 
HETATM   16  C18 UNL     1      -9.575  13.651 -15.711  1.00  0.00     0.127 C 
HETATM   17  C20 UNL     1      -9.754  15.351 -16.898  1.00  0.00     0.027 C 
HETATM   18  C19 UNL     1     -10.602  14.799 -15.741  1.00  0.00     0.040 C 
BRANCH  14  19
HETATM   19  C16 UNL     1      -6.394  13.583 -16.461  1.00  0.00     0.169 C 
BRANCH  19  20
HETATM   20  O4  UNL     1      -5.225  13.873 -17.151  1.00  0.00    -0.400 OA
ATOM     21  H4  UNL     1      -5.367  14.570 -17.780  1.00  0.00     0.209 HD
ENDBRANCH  19  20
ENDBRANCH  14  19
ENDBRANCH   9  10
ENDBRANCH   5   9
BRANCH   1  22
HETATM   22  C7  UNL     1     -14.786  12.096 -22.881  1.00  0.00     0.048 C 
BRANCH  22  23
HETATM   23  C6  UNL     1     -14.921  10.890 -23.699  1.00  0.00    -0.002 A 
HETATM   24  C3  UNL     1     -14.908  10.831 -25.070  1.00  0.00     0.041 A 
HETATM   25  N1  UNL     1     -15.066   9.523 -25.383  1.00  0.00    -0.265 N 
HETATM   26  O1  UNL     1     -15.167   8.842 -24.310  1.00  0.00    -0.242 OA
ATOM     27  H1  UNL     1     -15.099   9.142 -26.328  1.00  0.00     0.194 HD
HETATM   28  C4  UNL     1     -15.086   9.615 -23.259  1.00  0.00     0.081 A 
HETATM   29  C5  UNL     1     -15.174   9.089 -21.880  1.00  0.00     0.079 C 
BRANCH  24  30
HETATM   30  C2  UNL     1     -14.774  11.885 -26.087  1.00  0.00     0.055 C 
HETATM   31  C1  UNL     1     -14.609  11.205 -27.430  1.00  0.00     0.011 C 
ENDBRANCH  24  30
ENDBRANCH  22  23
ENDBRANCH   1  22
TORSDOF 7
ENDMDL
MODEL 3
REMARK VINA RESULT: -9.563693563      1.786      2.680
REMARK  7 active torsions:
REMARK  status: ('A' for Active; 'I' for Inactive)
REMARK    1  A    between atoms: C2_2  and  C3_3 
REMARK    2  A    between atoms: C6_9  and  C7_10 
REMARK    3  A    between atoms: C7_10  and  C8_11 
REMARK       I    between atoms: N2_14  and  C11_15 
REMARK    4  A    between atoms: C11_15  and  O3_17 
REMARK    5  A    between atoms: O3_17  and  C12_18 
REMARK    6  A    between atoms: C15_21  and  C16_22 
REMARK    7  A    between atoms: C16_22  and  O4_23 
ROOT
HETATM    1  C8  UNL     1     -11.228  14.491 -19.182  1.00  0.00    -0.007 C 
HETATM    2  C9  UNL     1     -11.075  13.983 -20.589  1.00  0.00     0.025 C 
HETATM    3  C10 UNL     1     -12.357  14.122 -21.384  1.00  0.00     0.128 C 
HETATM    4  N2  UNL     1     -12.825  15.491 -21.266  1.00  0.00    -0.328 N 
HETATM    5  C11 UNL     1     -13.001  16.329 -22.406  1.00  0.00     0.363 C 
HETATM    6  O2  UNL     1     -13.408  17.504 -22.239  1.00  0.00    -0.238 OA
HETATM    7  C21 UNL     1     -13.108  15.966 -19.926  1.00  0.00     0.128 C 
HETATM    8  C22 UNL     1     -11.823  15.879 -19.137  1.00  0.00     0.025 C 
ENDROOT
BRANCH   5   9
HETATM    9  O3  UNL     1     -12.745  15.912 -23.702  1.00  0.00    -0.295 OA
BRANCH   9  10
HETATM   10  C12 UNL     1     -12.111  16.716 -24.661  1.00  0.00     0.167 C 
HETATM   11  C13 UNL     1     -11.826  15.923 -25.943  1.00  0.00     0.152 C 
HETATM   12  C14 UNL     1     -11.789  16.949 -27.060  1.00  0.00     0.041 C 
HETATM   13  O5  UNL     1     -10.565  15.342 -25.910  1.00  0.00    -0.378 OA
HETATM   14  C15 UNL     1     -10.845  18.037 -26.598  1.00  0.00     0.018 C 
HETATM   15  C17 UNL     1     -10.011  17.647 -25.438  1.00  0.00     0.027 C 
HETATM   16  C18 UNL     1      -9.589  16.193 -25.431  1.00  0.00     0.127 C 
HETATM   17  C20 UNL     1     -10.821  17.330 -24.196  1.00  0.00     0.027 C 
HETATM   18  C19 UNL     1      -9.747  16.270 -23.901  1.00  0.00     0.040 C 
BRANCH  14  19
HETATM   19  C16 UNL     1     -10.002  18.452 -27.758  1.00  0.00     0.169 C 
BRANCH  19  20
HETATM   20  O4  UNL     1      -9.248  19.574 -27.445  1.00  0.00    -0.400 OA
ATOM     21  H4  UNL     1      -8.368  19.499 -27.795  1.00  0.00     0.209 HD
ENDBRANCH  19  20
ENDBRANCH  14  19
ENDBRANCH   9  10
ENDBRANCH   5   9
BRANCH   1  22
HETATM   22  C7  UNL     1      -9.877  14.553 -18.535  1.00  0.00     0.048 C 
BRANCH  22  23
HETATM   23  C6  UNL     1      -9.822  14.141 -17.132  1.00  0.00    -0.002 A 
HETATM   24  C3  UNL     1     -10.038  14.944 -16.039  1.00  0.00     0.041 A 
HETATM   25  N1  UNL     1      -9.881  14.143 -14.958  1.00  0.00    -0.265 N 
HETATM   26  O1  UNL     1      -9.596  12.963 -15.347  1.00  0.00    -0.242 OA
ATOM     27  H1  UNL     1      -9.976  14.437 -13.987  1.00  0.00     0.194 HD
HETATM   28  C4  UNL     1      -9.546  12.901 -16.651  1.00  0.00     0.081 A 
HETATM   29  C5  UNL     1      -9.233  11.650 -17.374  1.00  0.00     0.079 C 
BRANCH  24  30
HETATM   30  C2  UNL     1     -10.361  16.375 -15.933  1.00  0.00     0.055 C 
HETATM   31  C1  UNL     1      -9.315  17.014 -15.042  1.00  0.00     0.011 C 
ENDBRANCH  24  30
ENDBRANCH  22  23
ENDBRANCH   1  22
TORSDOF 7
ENDMDL
MODEL 4
REMARK VINA RESULT: -9.538417785      3.305      9.367
REMARK  7 active torsions:
REMARK  status: ('A' for Active; 'I' for Inactive)
REMARK    1  A    between atoms: C2_2  and  C3_3 
REMARK    2  A    between atoms: C6_9  and  C7_10 
REMARK    3  A    between atoms: C7_10  and  C8_11 
REMARK       I    between atoms: N2_14  and  C11_15 
REMARK    4  A    between atoms: C11_15  and  O3_17 
REMARK    5  A    between atoms: O3_17  and  C12_18 
REMARK    6  A    between atoms: C15_21  and  C16_22 
REMARK    7  A    between atoms: C16_22  and  O4_23 
ROOT
HETATM    1  C8  UNL     1     -12.916  12.825 -21.705  1.00  0.00    -0.007 C 
HETATM    2  C9  UNL     1     -12.235  12.223 -20.507  1.00  0.00     0.025 C 
HETATM    3  C10 UNL     1     -10.957  12.956 -20.154  1.00  0.00     0.128 C 
HETATM    4  N2  UNL     1     -11.253  14.373 -20.052  1.00  0.00    -0.328 N 
HETATM    5  C11 UNL     1     -11.029  15.107 -18.850  1.00  0.00     0.363 C 
HETATM    6  O2  UNL     1     -11.305  16.330 -18.825  1.00  0.00    -0.238 OA
HETATM    7  C21 UNL     1     -11.788  15.010 -21.239  1.00  0.00     0.128 C 
HETATM    8  C22 UNL     1     -13.088  14.320 -21.573  1.00  0.00     0.025 C 
ENDROOT
BRANCH   5   9
HETATM    9  O3  UNL     1     -10.517  14.536 -17.697  1.00  0.00    -0.295 OA
BRANCH   9  10
HETATM   10  C12 UNL     1      -9.145  14.455 -17.418  1.00  0.00     0.167 C 
HETATM   11  C13 UNL     1      -8.583  13.081 -17.809  1.00  0.00     0.152 C 
HETATM   12  C14 UNL     1      -7.112  13.309 -18.101  1.00  0.00     0.041 C 
HETATM   13  O5  UNL     1      -8.633  12.192 -16.744  1.00  0.00    -0.378 OA
HETATM   14  C15 UNL     1      -6.559  14.059 -16.910  1.00  0.00     0.018 C 
HETATM   15  C17 UNL     1      -7.453  14.042 -15.730  1.00  0.00     0.027 C 
HETATM   16  C18 UNL     1      -8.228  12.754 -15.549  1.00  0.00     0.127 C 
HETATM   17  C20 UNL     1      -8.790  14.711 -15.981  1.00  0.00     0.027 C 
HETATM   18  C19 UNL     1      -9.376  13.646 -15.040  1.00  0.00     0.040 C 
BRANCH  14  19
HETATM   19  C16 UNL     1      -5.216  13.496 -16.582  1.00  0.00     0.169 C 
BRANCH  19  20
HETATM   20  O4  UNL     1      -4.345  14.499 -16.180  1.00  0.00    -0.400 OA
ATOM     21  H4  UNL     1      -3.774  14.194 -15.484  1.00  0.00     0.209 HD
ENDBRANCH  19  20
ENDBRANCH  14  19
ENDBRANCH   9  10
ENDBRANCH   5   9
BRANCH   1  22
HETATM   22  C7  UNL     1     -14.279  12.219 -21.849  1.00  0.00     0.048 C 
BRANCH  22  23
HETATM   23  C6  UNL     1     -14.543  11.537 -23.117  1.00  0.00    -0.002 A 
HETATM   24  C3  UNL     1     -14.698  12.132 -24.344  1.00  0.00     0.041 A 
HETATM   25  N1  UNL     1     -14.927  11.120 -25.216  1.00  0.00    -0.265 N 
HETATM   26  O1  UNL     1     -14.915  10.012 -24.588  1.00  0.00    -0.242 OA
ATOM     27  H1  UNL     1     -15.084  11.229 -26.218  1.00  0.00     0.194 HD
HETATM   28  C4  UNL     1     -14.688  10.201 -23.314  1.00  0.00     0.081 A 
HETATM   29  C5  UNL     1     -14.623   9.084 -22.347  1.00  0.00     0.079 C 
BRANCH  24  30
HETATM   30  C2  UNL     1     -14.661  13.545 -24.752  1.00  0.00     0.055 C 
HETATM   31  C1  UNL     1     -13.265  13.835 -25.263  1.00  0.00     0.011 C 
ENDBRANCH  24  30
ENDBRANCH  22  23
ENDBRANCH   1  22
TORSDOF 7
ENDMDL
MODEL 5
REMARK VINA RESULT: -9.531974311      1.940      3.191
REMARK  7 active torsions:
REMARK  status: ('A' for Active; 'I' for Inactive)
REMARK    1  A    between atoms: C2_2  and  C3_3 
REMARK    2  A    between atoms: C6_9  and  C7_10 
REMARK    3  A    between atoms: C7_10  and  C8_11 
REMARK       I    between atoms: N2_14  and  C11_15 
REMARK    4  A    between atoms: C11_15  and  O3_17 
REMARK    5  A    between atoms: O3_17  and  C12_18 
REMARK    6  A    between atoms: C15_21  and  C16_22 
REMARK    7  A    between atoms: C16_22  and  O4_23 
ROOT
HETATM    1  C8  UNL     1     -10.704  15.299 -18.353  1.00  0.00    -0.007 C 
HETATM    2  C9  UNL     1     -11.662  16.143 -19.147  1.00  0.00     0.025 C 
HETATM    3  C10 UNL     1     -11.523  15.908 -20.637  1.00  0.00     0.128 C 
HETATM    4  N2  UNL     1     -11.601  14.480 -20.886  1.00  0.00    -0.328 N 
HETATM    5  C11 UNL     1     -12.603  13.914 -21.728  1.00  0.00     0.363 C 
HETATM    6  O2  UNL     1     -12.618  12.671 -21.904  1.00  0.00    -0.238 OA
HETATM    7  C21 UNL     1     -10.603  13.653 -20.236  1.00  0.00     0.128 C 
HETATM    8  C22 UNL     1     -10.764  13.842 -18.747  1.00  0.00     0.025 C 
ENDROOT
BRANCH   5   9
HETATM    9  O3  UNL     1     -13.571  14.668 -22.369  1.00  0.00    -0.295 OA
BRANCH   9  10
HETATM   10  C12 UNL     1     -13.590  14.884 -23.755  1.00  0.00     0.167 C 
HETATM   11  C13 UNL     1     -12.166  14.980 -24.317  1.00  0.00     0.152 C 
HETATM   12  C14 UNL     1     -12.269  14.549 -25.768  1.00  0.00     0.041 C 
HETATM   13  O5  UNL     1     -11.717  16.294 -24.336  1.00  0.00    -0.378 OA
HETATM   14  C15 UNL     1     -13.394  15.361 -26.369  1.00  0.00     0.018 C 
HETATM   15  C17 UNL     1     -13.803  16.515 -25.536  1.00  0.00     0.027 C 
HETATM   16  C18 UNL     1     -12.668  17.186 -24.793  1.00  0.00     0.127 C 
HETATM   17  C20 UNL     1     -14.343  16.114 -24.178  1.00  0.00     0.027 C 
HETATM   18  C19 UNL     1     -13.686  17.403 -23.658  1.00  0.00     0.040 C 
BRANCH  14  19
HETATM   19  C16 UNL     1     -12.981  15.797 -27.736  1.00  0.00     0.169 C 
BRANCH  19  20
HETATM   20  O4  UNL     1     -11.603  15.725 -27.883  1.00  0.00    -0.400 OA
ATOM     21  H4  UNL     1     -11.355  15.810 -28.796  1.00  0.00     0.209 HD
ENDBRANCH  19  20
ENDBRANCH  14  19
ENDBRANCH   9  10
ENDBRANCH   5   9
BRANCH   1  22
HETATM   22  C7  UNL     1     -11.057  15.394 -16.899  1.00  0.00     0.048 C 
BRANCH  22  23
HETATM   23  C6  UNL     1      -9.967  15.777 -16.001  1.00  0.00    -0.002 A 
HETATM   24  C3  UNL     1      -8.901  14.993 -15.634  1.00  0.00     0.041 A 
HETATM   25  N1  UNL     1      -8.157  15.755 -14.797  1.00  0.00    -0.265 N 
HETATM   26  O1  UNL     1      -8.710  16.895 -14.661  1.00  0.00    -0.242 OA
ATOM     27  H1  UNL     1      -7.290  15.462 -14.347  1.00  0.00     0.194 HD
HETATM   28  C4  UNL     1      -9.808  16.967 -15.365  1.00  0.00     0.081 A 
HETATM   29  C5  UNL     1     -10.655  18.179 -15.391  1.00  0.00     0.079 C 
BRANCH  24  30
HETATM   30  C2  UNL     1      -8.542  13.612 -15.992  1.00  0.00     0.055 C 
HETATM   31  C1  UNL     1      -7.442  13.682 -17.031  1.00  0.00     0.011 C 
ENDBRANCH  24  30
ENDBRANCH  22  23
ENDBRANCH   1  22
TORSDOF 7
ENDMDL
