MODEL 1
REMARK VINA RESULT: -6.795366092      0.000      0.000
REMARK  11 active torsions:
REMARK  status: ('A' for Active; 'I' for Inactive)
REMARK    1  A    between atoms: C2_2  and  C3_3 
REMARK    2  A    between atoms: C10_10  and  C11_11 
REMARK    3  A    between atoms: C11_11  and  O1_12 
REMARK    4  A    between atoms: N1_14  and  O2_16 
REMARK    5  A    between atoms: C12_18  and  N2_19 
REMARK       I    between atoms: N2_19  and  C13_21 
REMARK    6  A    between atoms: C13_21  and  C14_23 
REMARK    7  A    between atoms: C14_23  and  C15_24 
REMARK    8  A    between atoms: C15_24  and  C16_25 
REMARK    9  A    between atoms: C16_25  and  O5_27 
REMARK   10  A    between atoms: O5_27  and  C17_28 
REMARK   11  A    between atoms: N3_31  and  C20_32 
ROOT
HETATM    1  C3  UNL     1      11.924  17.663   7.250  1.00  0.00     0.009 C 
HETATM    2  C4  UNL     1      12.510  18.306   6.026  1.00  0.00     0.016 C 
HETATM    3  C5  UNL     1      11.631  18.219   4.807  1.00  0.00    -0.039 C 
HETATM    4  C6  UNL     1      11.569  16.869   4.155  1.00  0.00     0.010 C 
HETATM    5  C7  UNL     1      12.734  17.303   3.290  1.00  0.00     0.002 C 
HETATM    6  C8  UNL     1      12.278  18.744   3.545  1.00  0.00     0.010 C 
HETATM    7  C9  UNL     1      10.282  18.765   5.111  1.00  0.00     0.024 C 
HETATM    8  C10 UNL     1      10.251  19.339   6.552  1.00  0.00     0.086 C 
HETATM    9  C12 UNL     1      10.537  18.255   7.521  1.00  0.00     0.100 C 
ENDROOT
BRANCH   9  10
HETATM   10  N2  UNL     1       9.500  17.297   7.672  1.00  0.00    -0.355 N 
HETATM   11  C13 UNL     1       9.352  16.356   8.715  1.00  0.00     0.218 C 
HETATM   12  O3  UNL     1      10.175  16.246   9.652  1.00  0.00    -0.274 OA
ATOM     13  H2  UNL     1       8.783  17.286   6.946  1.00  0.00     0.162 HD
BRANCH  11  14
HETATM   14  C14 UNL     1       8.180  15.448   8.741  1.00  0.00     0.112 C 
BRANCH  14  15
HETATM   15  C15 UNL     1       8.096  14.649  10.017  1.00  0.00     0.120 C 
BRANCH  15  16
HETATM   16  C16 UNL     1       8.571  13.253   9.788  1.00  0.00     0.259 C 
HETATM   17  O4  UNL     1       7.859  12.488   9.127  1.00  0.00    -0.265 OA
BRANCH  16  18
HETATM   18  O5  UNL     1       9.799  12.855  10.322  1.00  0.00    -0.316 OA
BRANCH  18  19
HETATM   19  C17 UNL     1      10.772  12.135   9.581  1.00  0.00     0.135 C 
HETATM   20  C18 UNL     1      11.633  11.370  10.510  1.00  0.00     0.052 C 
HETATM   21  C19 UNL     1      13.048  11.124  10.094  1.00  0.00     0.119 C 
HETATM   22  N3  UNL     1      13.407  11.676   8.843  1.00  0.00    -0.409 N 
HETATM   23  C23 UNL     1      12.936  12.985   8.604  1.00  0.00     0.119 C 
HETATM   24  C24 UNL     1      11.446  13.135   8.694  1.00  0.00     0.052 C 
BRANCH  22  25
HETATM   25  C20 UNL     1      13.581  10.792   7.753  1.00  0.00     0.070 C 
HETATM   26  C21 UNL     1      14.229   9.515   8.240  1.00  0.00     0.031 C 
HETATM   27  C22 UNL     1      14.395  11.334   6.620  1.00  0.00     0.031 C 
ENDBRANCH  22  25
ENDBRANCH  18  19
ENDBRANCH  16  18
ENDBRANCH  15  16
ENDBRANCH  14  15
ENDBRANCH  11  14
ENDBRANCH   9  10
BRANCH   1  28
HETATM   28  C2  UNL     1      12.875  17.927   8.399  1.00  0.00     0.002 C 
HETATM   29  C1  UNL     1      13.519  16.719   8.976  1.00  0.00     0.005 C 
ENDBRANCH   1  28
BRANCH   8  30
HETATM   30  C11 UNL     1       8.968  20.046   6.734  1.00  0.00     0.141 C 
HETATM   31  N1  UNL     1       8.993  21.176   7.354  1.00  0.00    -0.251 N 
ATOM     32  H1  UNL     1       8.123  21.689   7.496  1.00  0.00     0.196 HD
BRANCH  30  33
HETATM   33  O1  UNL     1       7.741  19.582   6.286  1.00  0.00    -0.348 OA
ATOM     34  H1  UNL     1       7.016  20.137   6.023  1.00  0.00     0.219 HD
ENDBRANCH  30  33
BRANCH  31  35
HETATM   35  O2  UNL     1      10.175  21.703   7.830  1.00  0.00    -0.288 OA
ATOM     36  H2  UNL     1      10.195  22.536   8.286  1.00  0.00     0.244 HD
ENDBRANCH  31  35
ENDBRANCH   8  30
TORSDOF 11
ENDMDL
MODEL 2
REMARK VINA RESULT: -6.647547614      3.432      8.855
REMARK  11 active torsions:
REMARK  status: ('A' for Active; 'I' for Inactive)
REMARK    1  A    between atoms: C2_2  and  C3_3 
REMARK    2  A    between atoms: C10_10  and  C11_11 
REMARK    3  A    between atoms: C11_11  and  O1_12 
REMARK    4  A    between atoms: N1_14  and  O2_16 
REMARK    5  A    between atoms: C12_18  and  N2_19 
REMARK       I    between atoms: N2_19  and  C13_21 
REMARK    6  A    between atoms: C13_21  and  C14_23 
REMARK    7  A    between atoms: C14_23  and  C15_24 
REMARK    8  A    between atoms: C15_24  and  C16_25 
REMARK    9  A    between atoms: C16_25  and  O5_27 
REMARK   10  A    between atoms: O5_27  and  C17_28 
REMARK   11  A    between atoms: N3_31  and  C20_32 
ROOT
HETATM    1  C3  UNL     1      14.825  10.205   6.196  1.00  0.00     0.009 C 
HETATM    2  C4  UNL     1      16.233   9.710   6.355  1.00  0.00     0.016 C 
HETATM    3  C5  UNL     1      16.936  10.239   7.577  1.00  0.00    -0.039 C 
HETATM    4  C6  UNL     1      17.374  11.671   7.496  1.00  0.00     0.010 C 
HETATM    5  C7  UNL     1      18.694  11.170   6.947  1.00  0.00     0.002 C 
HETATM    6  C8  UNL     1      18.395   9.848   7.664  1.00  0.00     0.010 C 
HETATM    7  C9  UNL     1      16.124   9.961   8.791  1.00  0.00     0.024 C 
HETATM    8  C10 UNL     1      14.871   9.129   8.417  1.00  0.00     0.086 C 
HETATM    9  C12 UNL     1      14.031   9.899   7.470  1.00  0.00     0.100 C 
ENDROOT
BRANCH   9  10
HETATM   10  N2  UNL     1      13.361  11.016   8.036  1.00  0.00    -0.355 N 
HETATM   11  C13 UNL     1      13.482  12.370   7.651  1.00  0.00     0.218 C 
HETATM   12  O3  UNL     1      14.252  12.751   6.741  1.00  0.00    -0.274 OA
ATOM     13  H2  UNL     1      12.720  10.819   8.804  1.00  0.00     0.162 HD
BRANCH  11  14
HETATM   14  C14 UNL     1      12.672  13.413   8.325  1.00  0.00     0.112 C 
BRANCH  14  15
HETATM   15  C15 UNL     1      12.827  14.769   7.685  1.00  0.00     0.120 C 
BRANCH  15  16
HETATM   16  C16 UNL     1      11.580  15.571   7.855  1.00  0.00     0.259 C 
HETATM   17  O4  UNL     1      11.327  16.452   7.026  1.00  0.00    -0.265 OA
BRANCH  16  18
HETATM   18  O5  UNL     1      10.739  15.301   8.937  1.00  0.00    -0.316 OA
BRANCH  18  19
HETATM   19  C17 UNL     1       9.421  14.794   8.791  1.00  0.00     0.135 C 
HETATM   20  C18 UNL     1       8.446  15.883   9.018  1.00  0.00     0.052 C 
HETATM   21  C19 UNL     1       7.114  15.508   9.583  1.00  0.00     0.119 C 
HETATM   22  N3  UNL     1       6.946  14.130   9.854  1.00  0.00    -0.409 N 
HETATM   23  C23 UNL     1       8.051  13.497  10.464  1.00  0.00     0.119 C 
HETATM   24  C24 UNL     1       9.331  13.599   9.688  1.00  0.00     0.052 C 
BRANCH  22  25
HETATM   25  C20 UNL     1       6.105  13.383   8.997  1.00  0.00     0.070 C 
HETATM   26  C21 UNL     1       4.660  13.653   9.351  1.00  0.00     0.031 C 
HETATM   27  C22 UNL     1       6.329  11.903   9.020  1.00  0.00     0.031 C 
ENDBRANCH  22  25
ENDBRANCH  18  19
ENDBRANCH  16  18
ENDBRANCH  15  16
ENDBRANCH  14  15
ENDBRANCH  11  14
ENDBRANCH   9  10
BRANCH   1  28
HETATM   28  C2  UNL     1      14.232   9.506   4.990  1.00  0.00     0.002 C 
HETATM   29  C1  UNL     1      15.202   8.747   4.160  1.00  0.00     0.005 C 
ENDBRANCH   1  28
BRANCH   8  30
HETATM   30  C11 UNL     1      14.212   8.708   9.669  1.00  0.00     0.141 C 
HETATM   31  N1  UNL     1      14.499   7.538  10.129  1.00  0.00    -0.251 N 
ATOM     32  H1  UNL     1      14.060   7.218  10.992  1.00  0.00     0.196 HD
BRANCH  30  33
HETATM   33  O1  UNL     1      13.309   9.479  10.383  1.00  0.00    -0.348 OA
ATOM     34  H1  UNL     1      12.749   9.152  11.078  1.00  0.00     0.219 HD
ENDBRANCH  30  33
BRANCH  31  35
HETATM   35  O2  UNL     1      15.387   6.711   9.474  1.00  0.00    -0.288 OA
ATOM     36  H2  UNL     1      15.489   5.800   9.724  1.00  0.00     0.244 HD
ENDBRANCH  31  35
ENDBRANCH   8  30
TORSDOF 11
ENDMDL
MODEL 3
REMARK VINA RESULT: -6.482463173      2.929      5.282
REMARK  11 active torsions:
REMARK  status: ('A' for Active; 'I' for Inactive)
REMARK    1  A    between atoms: C2_2  and  C3_3 
REMARK    2  A    between atoms: C10_10  and  C11_11 
REMARK    3  A    between atoms: C11_11  and  O1_12 
REMARK    4  A    between atoms: N1_14  and  O2_16 
REMARK    5  A    between atoms: C12_18  and  N2_19 
REMARK       I    between atoms: N2_19  and  C13_21 
REMARK    6  A    between atoms: C13_21  and  C14_23 
REMARK    7  A    between atoms: C14_23  and  C15_24 
REMARK    8  A    between atoms: C15_24  and  C16_25 
REMARK    9  A    between atoms: C16_25  and  O5_27 
REMARK   10  A    between atoms: O5_27  and  C17_28 
REMARK   11  A    between atoms: N3_31  and  C20_32 
ROOT
HETATM    1  C3  UNL     1      10.693  17.866   5.208  1.00  0.00     0.009 C 
HETATM    2  C4  UNL     1      10.311  19.247   4.761  1.00  0.00     0.016 C 
HETATM    3  C5  UNL     1       9.857  20.150   5.877  1.00  0.00    -0.039 C 
HETATM    4  C6  UNL     1       8.485  19.868   6.413  1.00  0.00     0.010 C 
HETATM    5  C7  UNL     1       7.953  20.853   5.393  1.00  0.00     0.002 C 
HETATM    6  C8  UNL     1       9.345  21.495   5.410  1.00  0.00     0.010 C 
HETATM    7  C9  UNL     1      10.888  20.193   6.948  1.00  0.00     0.024 C 
HETATM    8  C10 UNL     1      12.135  19.377   6.522  1.00  0.00     0.086 C 
HETATM    9  C12 UNL     1      11.752  17.962   6.311  1.00  0.00     0.100 C 
ENDROOT
BRANCH   9  10
HETATM   10  N2  UNL     1      11.444  17.241   7.495  1.00  0.00    -0.355 N 
HETATM   11  C13 UNL     1      12.034  16.037   7.938  1.00  0.00     0.218 C 
HETATM   12  O3  UNL     1      12.918  15.433   7.289  1.00  0.00    -0.274 OA
ATOM     13  H2  UNL     1      10.718  17.637   8.092  1.00  0.00     0.162 HD
BRANCH  11  14
HETATM   14  C14 UNL     1      11.621  15.434   9.229  1.00  0.00     0.112 C 
BRANCH  14  15
HETATM   15  C15 UNL     1      10.561  14.375   9.060  1.00  0.00     0.120 C 
BRANCH  15  16
HETATM   16  C16 UNL     1       9.202  14.990   9.081  1.00  0.00     0.259 C 
HETATM   17  O4  UNL     1       8.826  15.627   8.090  1.00  0.00    -0.265 OA
BRANCH  16  18
HETATM   18  O5  UNL     1       8.397  14.827  10.212  1.00  0.00    -0.316 OA
BRANCH  18  19
HETATM   19  C17 UNL     1       7.380  13.842  10.307  1.00  0.00     0.135 C 
HETATM   20  C18 UNL     1       7.795  12.633   9.561  1.00  0.00     0.052 C 
HETATM   21  C19 UNL     1       6.716  11.797   8.949  1.00  0.00     0.119 C 
HETATM   22  N3  UNL     1       5.402  12.280   9.147  1.00  0.00    -0.409 N 
HETATM   23  C23 UNL     1       5.240  13.673   8.983  1.00  0.00     0.119 C 
HETATM   24  C24 UNL     1       6.111  14.508   9.875  1.00  0.00     0.052 C 
BRANCH  22  25
HETATM   25  C20 UNL     1       4.571  11.588  10.058  1.00  0.00     0.070 C 
HETATM   26  C21 UNL     1       5.173  10.233  10.358  1.00  0.00     0.031 C 
HETATM   27  C22 UNL     1       3.159  11.388   9.604  1.00  0.00     0.031 C 
ENDBRANCH  22  25
ENDBRANCH  18  19
ENDBRANCH  16  18
ENDBRANCH  15  16
ENDBRANCH  14  15
ENDBRANCH  11  14
ENDBRANCH   9  10
BRANCH   1  28
HETATM   28  C2  UNL     1      11.219  17.127   3.994  1.00  0.00     0.002 C 
HETATM   29  C1  UNL     1      11.954  17.965   3.013  1.00  0.00     0.005 C 
ENDBRANCH   1  28
BRANCH   8  30
HETATM   30  C11 UNL     1      13.199  19.617   7.518  1.00  0.00     0.141 C 
HETATM   31  N1  UNL     1      14.309  20.117   7.095  1.00  0.00    -0.251 N 
ATOM     32  H1  UNL     1      15.063  20.295   7.758  1.00  0.00     0.196 HD
BRANCH  30  33
HETATM   33  O1  UNL     1      13.088  19.342   8.872  1.00  0.00    -0.348 OA
ATOM     34  H1  UNL     1      13.318  19.946   9.567  1.00  0.00     0.219 HD
ENDBRANCH  30  33
BRANCH  31  35
HETATM   35  O2  UNL     1      14.496  20.418   5.762  1.00  0.00    -0.288 OA
ATOM     36  H2  UNL     1      15.210  20.036   5.266  1.00  0.00     0.244 HD
ENDBRANCH  31  35
ENDBRANCH   8  30
TORSDOF 11
ENDMDL
MODEL 4
REMARK VINA RESULT: -6.439134008      4.415      8.048
REMARK  11 active torsions:
REMARK  status: ('A' for Active; 'I' for Inactive)
REMARK    1  A    between atoms: C2_2  and  C3_3 
REMARK    2  A    between atoms: C10_10  and  C11_11 
REMARK    3  A    between atoms: C11_11  and  O1_12 
REMARK    4  A    between atoms: N1_14  and  O2_16 
REMARK    5  A    between atoms: C12_18  and  N2_19 
REMARK       I    between atoms: N2_19  and  C13_21 
REMARK    6  A    between atoms: C13_21  and  C14_23 
REMARK    7  A    between atoms: C14_23  and  C15_24 
REMARK    8  A    between atoms: C15_24  and  C16_25 
REMARK    9  A    between atoms: C16_25  and  O5_27 
REMARK   10  A    between atoms: O5_27  and  C17_28 
REMARK   11  A    between atoms: N3_31  and  C20_32 
ROOT
HETATM    1  C3  UNL     1      14.091   9.836   8.287  1.00  0.00     0.009 C 
HETATM    2  C4  UNL     1      15.148   9.257   7.392  1.00  0.00     0.016 C 
HETATM    3  C5  UNL     1      15.320   9.993   6.089  1.00  0.00    -0.039 C 
HETATM    4  C6  UNL     1      14.236   9.766   5.076  1.00  0.00     0.010 C 
HETATM    5  C7  UNL     1      15.064   8.616   4.542  1.00  0.00     0.002 C 
HETATM    6  C8  UNL     1      16.286   9.331   5.132  1.00  0.00     0.010 C 
HETATM    7  C9  UNL     1      15.562  11.437   6.348  1.00  0.00     0.024 C 
HETATM    8  C10 UNL     1      15.661  11.696   7.874  1.00  0.00     0.086 C 
HETATM    9  C12 UNL     1      14.382  11.322   8.522  1.00  0.00     0.100 C 
ENDROOT
BRANCH   9  10
HETATM   10  N2  UNL     1      13.294  12.192   8.248  1.00  0.00    -0.355 N 
HETATM   11  C13 UNL     1      12.129  12.374   9.025  1.00  0.00     0.218 C 
HETATM   12  O3  UNL     1      11.911  11.737  10.081  1.00  0.00    -0.274 OA
ATOM     13  H2  UNL     1      13.361  12.747   7.394  1.00  0.00     0.162 HD
BRANCH  11  14
HETATM   14  C14 UNL     1      11.101  13.360   8.612  1.00  0.00     0.112 C 
BRANCH  14  15
HETATM   15  C15 UNL     1      10.021  13.538   9.649  1.00  0.00     0.120 C 
BRANCH  15  16
HETATM   16  C16 UNL     1       9.322  14.842   9.453  1.00  0.00     0.259 C 
HETATM   17  O4  UNL     1       9.994  15.880   9.470  1.00  0.00    -0.265 OA
BRANCH  16  18
HETATM   18  O5  UNL     1       7.939  14.852   9.256  1.00  0.00    -0.316 OA
BRANCH  18  19
HETATM   19  C17 UNL     1       7.079  13.824   9.726  1.00  0.00     0.135 C 
HETATM   20  C18 UNL     1       7.398  12.559   9.030  1.00  0.00     0.052 C 
HETATM   21  C19 UNL     1       6.282  11.585   8.825  1.00  0.00     0.119 C 
HETATM   22  N3  UNL     1       5.025  12.005   9.316  1.00  0.00    -0.409 N 
HETATM   23  C23 UNL     1       4.695  13.353   9.054  1.00  0.00     0.119 C 
HETATM   24  C24 UNL     1       5.685  14.349   9.584  1.00  0.00     0.052 C 
BRANCH  22  25
HETATM   25  C20 UNL     1       4.529  11.385  10.486  1.00  0.00     0.070 C 
HETATM   26  C21 UNL     1       5.203  10.043  10.668  1.00  0.00     0.031 C 
HETATM   27  C22 UNL     1       3.047  11.178  10.515  1.00  0.00     0.031 C 
ENDBRANCH  22  25
ENDBRANCH  18  19
ENDBRANCH  16  18
ENDBRANCH  15  16
ENDBRANCH  14  15
ENDBRANCH  11  14
ENDBRANCH   9  10
BRANCH   1  28
HETATM   28  C2  UNL     1      14.117   9.053   9.583  1.00  0.00     0.002 C 
HETATM   29  C1  UNL     1      15.064   7.908   9.612  1.00  0.00     0.005 C 
ENDBRANCH   1  28
BRANCH   8  30
HETATM   30  C11 UNL     1      16.101  13.092   8.072  1.00  0.00     0.141 C 
HETATM   31  N1  UNL     1      17.061  13.300   8.906  1.00  0.00    -0.251 N 
ATOM     32  H1  UNL     1      17.388  14.253   9.065  1.00  0.00     0.196 HD
BRANCH  30  33
HETATM   33  O1  UNL     1      15.556  14.190   7.426  1.00  0.00    -0.348 OA
ATOM     34  H1  UNL     1      15.903  15.073   7.474  1.00  0.00     0.219 HD
ENDBRANCH  30  33
BRANCH  31  35
HETATM   35  O2  UNL     1      17.654  12.259   9.589  1.00  0.00    -0.288 OA
ATOM     36  H2  UNL     1      17.525  12.145  10.523  1.00  0.00     0.244 HD
ENDBRANCH  31  35
ENDBRANCH   8  30
TORSDOF 11
ENDMDL
MODEL 5
REMARK VINA RESULT: -6.368845489      2.486      8.486
REMARK  11 active torsions:
REMARK  status: ('A' for Active; 'I' for Inactive)
REMARK    1  A    between atoms: C2_2  and  C3_3 
REMARK    2  A    between atoms: C10_10  and  C11_11 
REMARK    3  A    between atoms: C11_11  and  O1_12 
REMARK    4  A    between atoms: N1_14  and  O2_16 
REMARK    5  A    between atoms: C12_18  and  N2_19 
REMARK       I    between atoms: N2_19  and  C13_21 
REMARK    6  A    between atoms: C13_21  and  C14_23 
REMARK    7  A    between atoms: C14_23  and  C15_24 
REMARK    8  A    between atoms: C15_24  and  C16_25 
REMARK    9  A    between atoms: C16_25  and  O5_27 
REMARK   10  A    between atoms: O5_27  and  C17_28 
REMARK   11  A    between atoms: N3_31  and  C20_32 
ROOT
HETATM    1  C3  UNL     1      11.142  16.363   8.846  1.00  0.00     0.009 C 
HETATM    2  C4  UNL     1      10.289  15.700   9.889  1.00  0.00     0.016 C 
HETATM    3  C5  UNL     1       9.376  14.632   9.347  1.00  0.00    -0.039 C 
HETATM    4  C6  UNL     1       8.184  15.131   8.587  1.00  0.00     0.010 C 
HETATM    5  C7  UNL     1       7.424  15.123   9.897  1.00  0.00     0.002 C 
HETATM    6  C8  UNL     1       8.423  14.061  10.373  1.00  0.00     0.010 C 
HETATM    7  C9  UNL     1      10.164  13.632   8.577  1.00  0.00     0.024 C 
HETATM    8  C10 UNL     1      11.677  13.959   8.669  1.00  0.00     0.086 C 
HETATM    9  C12 UNL     1      11.929  15.295   8.080  1.00  0.00     0.100 C 
ENDROOT
BRANCH   9  10
HETATM   10  N2  UNL     1      11.802  15.361   6.667  1.00  0.00    -0.355 N 
HETATM   11  C13 UNL     1      12.371  16.322   5.802  1.00  0.00     0.218 C 
HETATM   12  O3  UNL     1      13.064  17.280   6.214  1.00  0.00    -0.274 OA
ATOM     13  H2  UNL     1      11.237  14.634   6.228  1.00  0.00     0.162 HD
BRANCH  11  14
HETATM   14  C14 UNL     1      12.170  16.220   4.337  1.00  0.00     0.112 C 
BRANCH  14  15
HETATM   15  C15 UNL     1      11.065  17.119   3.841  1.00  0.00     0.120 C 
BRANCH  15  16
HETATM   16  C16 UNL     1      11.631  18.253   3.054  1.00  0.00     0.259 C 
HETATM   17  O4  UNL     1      12.125  18.015   1.946  1.00  0.00    -0.265 OA
BRANCH  16  18
HETATM   18  O5  UNL     1      11.583  19.544   3.587  1.00  0.00    -0.316 OA
BRANCH  18  19
HETATM   19  C17 UNL     1      10.529  20.002   4.421  1.00  0.00     0.135 C 
HETATM   20  C18 UNL     1       9.682  20.952   3.667  1.00  0.00     0.052 C 
HETATM   21  C19 UNL     1       8.997  22.030   4.444  1.00  0.00     0.119 C 
HETATM   22  N3  UNL     1       9.259  22.024   5.833  1.00  0.00    -0.409 N 
HETATM   23  C23 UNL     1      10.605  21.796   6.192  1.00  0.00     0.119 C 
HETATM   24  C24 UNL     1      11.177  20.509   5.672  1.00  0.00     0.052 C 
BRANCH  22  25
HETATM   25  C20 UNL     1       8.228  21.595   6.701  1.00  0.00     0.070 C 
HETATM   26  C21 UNL     1       7.163  20.880   5.900  1.00  0.00     0.031 C 
HETATM   27  C22 UNL     1       7.573  22.682   7.495  1.00  0.00     0.031 C 
ENDBRANCH  22  25
ENDBRANCH  18  19
ENDBRANCH  16  18
ENDBRANCH  15  16
ENDBRANCH  14  15
ENDBRANCH  11  14
ENDBRANCH   9  10
BRANCH   1  28
HETATM   28  C2  UNL     1      12.065  17.328   9.562  1.00  0.00     0.002 C 
HETATM   29  C1  UNL     1      13.514  17.025   9.442  1.00  0.00     0.005 C 
ENDBRANCH   1  28
BRANCH   8  30
HETATM   30  C11 UNL     1      12.423  12.836   8.067  1.00  0.00     0.141 C 
HETATM   31  N1  UNL     1      12.607  11.787   8.793  1.00  0.00    -0.251 N 
ATOM     32  H1  UNL     1      13.119  10.994   8.406  1.00  0.00     0.196 HD
BRANCH  30  33
HETATM   33  O1  UNL     1      12.939  12.831   6.781  1.00  0.00    -0.348 OA
ATOM     34  H1  UNL     1      12.432  12.994   5.994  1.00  0.00     0.219 HD
ENDBRANCH  30  33
BRANCH  31  35
HETATM   35  O2  UNL     1      12.124  11.717  10.083  1.00  0.00    -0.288 OA
ATOM     36  H2  UNL     1      11.361  11.192  10.296  1.00  0.00     0.244 HD
ENDBRANCH  31  35
ENDBRANCH   8  30
TORSDOF 11
ENDMDL
