MODEL 1
REMARK VINA RESULT: -6.122357146      0.000      0.000
REMARK  11 active torsions:
REMARK  status: ('A' for Active; 'I' for Inactive)
REMARK    1  A    between atoms: C2_2  and  C3_4 
REMARK    2  A    between atoms: C3_4  and  C4_5 
REMARK    3  A    between atoms: C3_4  and  C24_33 
REMARK    4  A    between atoms: C5_6  and  C6_7 
REMARK    5  A    between atoms: C9_10  and  O2_11 
REMARK    6  A    between atoms: C14_18  and  C15_19 
REMARK    7  A    between atoms: C15_19  and  C16_20 
REMARK    8  A    between atoms: C22_26  and  O4_27 
REMARK    9  A    between atoms: O4_27  and  C23_28 
REMARK   10  A    between atoms: C23_28  and  O5_29 
REMARK   11  A    between atoms: C23_28  and  O6_31 
ROOT
HETATM    1  C6  UNL     1      11.482  14.832   9.084  1.00  0.00     0.067 C 
HETATM    2  C7  UNL     1      12.557  15.742   8.591  1.00  0.00    -0.059 C 
HETATM    3  C8  UNL     1      13.730  15.735   9.215  1.00  0.00     0.009 C 
HETATM    4  C9  UNL     1      14.916  16.548   8.893  1.00  0.00     0.148 C 
HETATM    5  C10 UNL     1      14.638  17.610   7.905  1.00  0.00     0.052 C 
HETATM    6  C11 UNL     1      15.330  18.904   8.334  1.00  0.00     0.016 C 
HETATM    7  C12 UNL     1      13.198  17.894   7.750  1.00  0.00     0.100 A 
HETATM    8  C13 UNL     1      12.771  19.223   7.399  1.00  0.00     0.208 A 
HETATM    9  O3  UNL     1      12.591  18.700   8.713  1.00  0.00    -0.373 OA
HETATM   10  C14 UNL     1      12.342  16.663   7.438  1.00  0.00     0.021 C 
HETATM   11  C20 UNL     1      10.943  17.117   7.278  1.00  0.00     0.020 C 
HETATM   12  C21 UNL     1       9.901  16.206   7.855  1.00  0.00     0.034 C 
HETATM   13  C22 UNL     1      10.255  15.745   9.225  1.00  0.00     0.138 C 
ENDROOT
BRANCH   1  14
HETATM   14  C5  UNL     1      11.211  13.670   8.254  1.00  0.00    -0.018 C 
HETATM   15  C4  UNL     1      11.800  12.506   8.371  1.00  0.00    -0.018 C 
BRANCH  15  16
HETATM   16  C3  UNL     1      12.844  12.082   9.323  1.00  0.00     0.080 C 
BRANCH  16  17
HETATM   17  C2  UNL     1      12.360  11.082  10.289  1.00  0.00     0.131 C 
HETATM   18  C1  UNL     1      11.188  11.223  11.181  1.00  0.00     0.091 C 
HETATM   19  O1  UNL     1      12.981  10.013  10.376  1.00  0.00    -0.298 OA
ENDBRANCH  16  17
BRANCH  16  20
HETATM   20  C24 UNL     1      14.059  11.611   8.542  1.00  0.00    -0.008 C 
HETATM   21  C25 UNL     1      15.216  12.552   8.894  1.00  0.00     0.010 C 
HETATM   22  C26 UNL     1      13.879  11.652   7.060  1.00  0.00     0.010 C 
ENDBRANCH  16  20
ENDBRANCH  15  16
ENDBRANCH   1  14
BRANCH  13  23
HETATM   23  O4  UNL     1       9.237  15.156   9.913  1.00  0.00    -0.333 OA
BRANCH  23  24
HETATM   24  C23 UNL     1       8.066  15.106   9.127  1.00  0.00     0.408 C 
BRANCH  24  25
HETATM   25  O5  UNL     1       7.015  15.762   9.724  1.00  0.00    -0.350 OA
ATOM     26  H5  UNL     1       7.062  15.723  10.672  1.00  0.00     0.215 HD
ENDBRANCH  24  25
BRANCH  24  27
HETATM   27  O6  UNL     1       7.674  13.767   8.949  1.00  0.00    -0.350 OA
ATOM     28  H6  UNL     1       7.085  13.704   8.206  1.00  0.00     0.215 HD
ENDBRANCH  24  27
ENDBRANCH  23  24
ENDBRANCH  13  23
BRANCH  10  29
HETATM   29  C15 UNL     1      12.908  16.067   6.173  1.00  0.00     0.044 C 
BRANCH  29  30
HETATM   30  C16 UNL     1      12.230  16.640   4.977  1.00  0.00    -0.024 C 
HETATM   31  C17 UNL     1      12.893  17.264   4.016  1.00  0.00    -0.091 C 
HETATM   32  C18 UNL     1      14.361  17.407   4.121  1.00  0.00     0.042 C 
HETATM   33  C19 UNL     1      12.194  17.827   2.835  1.00  0.00     0.042 C 
ENDBRANCH  29  30
ENDBRANCH  10  29
BRANCH   4  34
HETATM   34  O2  UNL     1      15.396  17.107  10.116  1.00  0.00    -0.391 OA
ATOM     35  H2  UNL     1      16.158  16.603  10.379  1.00  0.00     0.210 HD
ENDBRANCH   4  34
TORSDOF 11
ENDMDL
MODEL 2
REMARK VINA RESULT: -5.887487165      2.496      5.140
REMARK  11 active torsions:
REMARK  status: ('A' for Active; 'I' for Inactive)
REMARK    1  A    between atoms: C2_2  and  C3_4 
REMARK    2  A    between atoms: C3_4  and  C4_5 
REMARK    3  A    between atoms: C3_4  and  C24_33 
REMARK    4  A    between atoms: C5_6  and  C6_7 
REMARK    5  A    between atoms: C9_10  and  O2_11 
REMARK    6  A    between atoms: C14_18  and  C15_19 
REMARK    7  A    between atoms: C15_19  and  C16_20 
REMARK    8  A    between atoms: C22_26  and  O4_27 
REMARK    9  A    between atoms: O4_27  and  C23_28 
REMARK   10  A    between atoms: C23_28  and  O5_29 
REMARK   11  A    between atoms: C23_28  and  O6_31 
ROOT
HETATM    1  C6  UNL     1      12.165  16.041   7.804  1.00  0.00     0.067 C 
HETATM    2  C7  UNL     1      11.813  17.054   6.767  1.00  0.00    -0.059 C 
HETATM    3  C8  UNL     1      10.995  16.697   5.783  1.00  0.00     0.009 C 
HETATM    4  C9  UNL     1      10.525  17.535   4.665  1.00  0.00     0.148 C 
HETATM    5  C10 UNL     1      11.239  18.824   4.569  1.00  0.00     0.052 C 
HETATM    6  C11 UNL     1      11.562  19.123   3.104  1.00  0.00     0.016 C 
HETATM    7  C12 UNL     1      12.507  18.841   5.326  1.00  0.00     0.100 A 
HETATM    8  C13 UNL     1      13.598  19.657   4.863  1.00  0.00     0.208 A 
HETATM    9  O3  UNL     1      13.618  18.237   4.739  1.00  0.00    -0.373 OA
HETATM   10  C14 UNL     1      12.368  18.439   6.797  1.00  0.00     0.021 C 
HETATM   11  C20 UNL     1      13.706  18.541   7.419  1.00  0.00     0.020 C 
HETATM   12  C21 UNL     1      14.044  17.459   8.400  1.00  0.00     0.034 C 
HETATM   13  C22 UNL     1      13.697  16.106   7.886  1.00  0.00     0.138 C 
ENDROOT
BRANCH   1  14
HETATM   14  C5  UNL     1      11.536  16.225   9.102  1.00  0.00    -0.018 C 
HETATM   15  C4  UNL     1      10.624  15.439   9.616  1.00  0.00    -0.018 C 
BRANCH  15  16
HETATM   16  C3  UNL     1      10.018  14.220   9.047  1.00  0.00     0.080 C 
BRANCH  16  17
HETATM   17  C2  UNL     1      10.933  13.067   9.069  1.00  0.00     0.131 C 
HETATM   18  C1  UNL     1      11.122  12.122  10.190  1.00  0.00     0.091 C 
HETATM   19  O1  UNL     1      11.619  12.853   8.059  1.00  0.00    -0.298 OA
ENDBRANCH  16  17
BRANCH  16  20
HETATM   20  C24 UNL     1       8.704  13.945   9.761  1.00  0.00    -0.008 C 
HETATM   21  C25 UNL     1       8.017  12.795   9.018  1.00  0.00     0.010 C 
HETATM   22  C26 UNL     1       7.764  15.106   9.765  1.00  0.00     0.010 C 
ENDBRANCH  16  20
ENDBRANCH  15  16
ENDBRANCH   1  14
BRANCH  13  23
HETATM   23  O4  UNL     1      14.231  15.070   8.592  1.00  0.00    -0.333 OA
BRANCH  23  24
HETATM   24  C23 UNL     1      14.962  14.211   7.743  1.00  0.00     0.408 C 
BRANCH  24  25
HETATM   25  O5  UNL     1      14.995  14.671   6.448  1.00  0.00    -0.350 OA
ATOM     26  H5  UNL     1      14.131  14.691   6.054  1.00  0.00     0.215 HD
ENDBRANCH  24  25
BRANCH  24  27
HETATM   27  O6  UNL     1      14.355  12.942   7.719  1.00  0.00    -0.350 OA
ATOM     28  H6  UNL     1      14.199  12.681   6.819  1.00  0.00     0.215 HD
ENDBRANCH  24  27
ENDBRANCH  23  24
ENDBRANCH  13  23
BRANCH  10  29
HETATM   29  C15 UNL     1      11.371  19.394   7.403  1.00  0.00     0.044 C 
BRANCH  29  30
HETATM   30  C16 UNL     1      12.066  20.574   7.987  1.00  0.00    -0.024 C 
HETATM   31  C17 UNL     1      11.838  21.810   7.574  1.00  0.00    -0.091 C 
HETATM   32  C18 UNL     1      10.859  22.044   6.490  1.00  0.00     0.042 C 
HETATM   33  C19 UNL     1      12.544  22.969   8.172  1.00  0.00     0.042 C 
ENDBRANCH  29  30
ENDBRANCH  10  29
BRANCH   4  34
HETATM   34  O2  UNL     1      10.681  16.777   3.466  1.00  0.00    -0.391 OA
ATOM     35  H2  UNL     1      10.718  17.393   2.744  1.00  0.00     0.210 HD
ENDBRANCH   4  34
TORSDOF 11
ENDMDL
MODEL 3
REMARK VINA RESULT: -5.755482802      2.209      5.019
REMARK  11 active torsions:
REMARK  status: ('A' for Active; 'I' for Inactive)
REMARK    1  A    between atoms: C2_2  and  C3_4 
REMARK    2  A    between atoms: C3_4  and  C4_5 
REMARK    3  A    between atoms: C3_4  and  C24_33 
REMARK    4  A    between atoms: C5_6  and  C6_7 
REMARK    5  A    between atoms: C9_10  and  O2_11 
REMARK    6  A    between atoms: C14_18  and  C15_19 
REMARK    7  A    between atoms: C15_19  and  C16_20 
REMARK    8  A    between atoms: C22_26  and  O4_27 
REMARK    9  A    between atoms: O4_27  and  C23_28 
REMARK   10  A    between atoms: C23_28  and  O5_29 
REMARK   11  A    between atoms: C23_28  and  O6_31 
ROOT
HETATM    1  C6  UNL     1      11.933  15.142   7.912  1.00  0.00     0.067 C 
HETATM    2  C7  UNL     1      11.842  16.311   6.988  1.00  0.00    -0.059 C 
HETATM    3  C8  UNL     1      10.933  16.286   6.020  1.00  0.00     0.009 C 
HETATM    4  C9  UNL     1      10.679  17.327   5.008  1.00  0.00     0.148 C 
HETATM    5  C10 UNL     1      11.714  18.380   4.990  1.00  0.00     0.052 C 
HETATM    6  C11 UNL     1      12.067  18.726   3.542  1.00  0.00     0.016 C 
HETATM    7  C12 UNL     1      12.957  17.981   5.678  1.00  0.00     0.100 A 
HETATM    8  C13 UNL     1      14.217  18.516   5.233  1.00  0.00     0.208 A 
HETATM    9  O3  UNL     1      13.847  17.163   4.983  1.00  0.00    -0.373 OA
HETATM   10  C14 UNL     1      12.754  17.486   7.113  1.00  0.00     0.021 C 
HETATM   11  C20 UNL     1      14.085  17.164   7.671  1.00  0.00     0.020 C 
HETATM   12  C21 UNL     1      14.141  15.938   8.533  1.00  0.00     0.034 C 
HETATM   13  C22 UNL     1      13.426  14.786   7.919  1.00  0.00     0.138 C 
ENDROOT
BRANCH   1  14
HETATM   14  C5  UNL     1      11.412  15.358   9.252  1.00  0.00    -0.018 C 
HETATM   15  C4  UNL     1      10.206  15.039   9.652  1.00  0.00    -0.018 C 
BRANCH  15  16
HETATM   16  C3  UNL     1       9.109  14.410   8.893  1.00  0.00     0.080 C 
BRANCH  16  17
HETATM   17  C2  UNL     1       8.800  13.050   9.362  1.00  0.00     0.131 C 
HETATM   18  C1  UNL     1       7.585  12.269   9.040  1.00  0.00     0.091 C 
HETATM   19  O1  UNL     1       9.624  12.490  10.098  1.00  0.00    -0.298 OA
ENDBRANCH  16  17
BRANCH  16  20
HETATM   20  C24 UNL     1       7.901  15.334   8.919  1.00  0.00    -0.008 C 
HETATM   21  C25 UNL     1       8.420  16.761   8.717  1.00  0.00     0.010 C 
HETATM   22  C26 UNL     1       7.146  15.306  10.208  1.00  0.00     0.010 C 
ENDBRANCH  16  20
ENDBRANCH  15  16
ENDBRANCH   1  14
BRANCH  13  23
HETATM   23  O4  UNL     1      13.676  13.579   8.501  1.00  0.00    -0.333 OA
BRANCH  23  24
HETATM   24  C23 UNL     1      12.788  12.596   8.015  1.00  0.00     0.408 C 
BRANCH  24  25
HETATM   25  O5  UNL     1      12.295  11.802   9.023  1.00  0.00    -0.350 OA
ATOM     26  H5  UNL     1      11.600  11.230   8.718  1.00  0.00     0.215 HD
ENDBRANCH  24  25
BRANCH  24  27
HETATM   27  O6  UNL     1      13.464  11.754   7.114  1.00  0.00    -0.350 OA
ATOM     28  H6  UNL     1      14.081  11.209   7.588  1.00  0.00     0.215 HD
ENDBRANCH  24  27
ENDBRANCH  23  24
ENDBRANCH  13  23
BRANCH  10  29
HETATM   29  C15 UNL     1      12.069  18.608   7.852  1.00  0.00     0.044 C 
BRANCH  29  30
HETATM   30  C16 UNL     1      13.063  19.411   8.617  1.00  0.00    -0.024 C 
HETATM   31  C17 UNL     1      13.236  20.707   8.416  1.00  0.00    -0.091 C 
HETATM   32  C18 UNL     1      12.420  21.399   7.394  1.00  0.00     0.042 C 
HETATM   33  C19 UNL     1      14.233  21.485   9.192  1.00  0.00     0.042 C 
ENDBRANCH  29  30
ENDBRANCH  10  29
BRANCH   4  34
HETATM   34  O2  UNL     1      10.592  16.678   3.740  1.00  0.00    -0.391 OA
ATOM     35  H2  UNL     1       9.671  16.546   3.550  1.00  0.00     0.210 HD
ENDBRANCH   4  34
TORSDOF 11
ENDMDL
MODEL 4
REMARK VINA RESULT: -5.738371586      3.143      6.809
REMARK  11 active torsions:
REMARK  status: ('A' for Active; 'I' for Inactive)
REMARK    1  A    between atoms: C2_2  and  C3_4 
REMARK    2  A    between atoms: C3_4  and  C4_5 
REMARK    3  A    between atoms: C3_4  and  C24_33 
REMARK    4  A    between atoms: C5_6  and  C6_7 
REMARK    5  A    between atoms: C9_10  and  O2_11 
REMARK    6  A    between atoms: C14_18  and  C15_19 
REMARK    7  A    between atoms: C15_19  and  C16_20 
REMARK    8  A    between atoms: C22_26  and  O4_27 
REMARK    9  A    between atoms: O4_27  and  C23_28 
REMARK   10  A    between atoms: C23_28  and  O5_29 
REMARK   11  A    between atoms: C23_28  and  O6_31 
ROOT
HETATM    1  C6  UNL     1       9.920  18.052   7.137  1.00  0.00     0.067 C 
HETATM    2  C7  UNL     1      11.087  18.091   6.208  1.00  0.00    -0.059 C 
HETATM    3  C8  UNL     1      10.856  18.106   4.900  1.00  0.00     0.009 C 
HETATM    4  C9  UNL     1      11.857  18.142   3.818  1.00  0.00     0.148 C 
HETATM    5  C10 UNL     1      13.236  17.922   4.298  1.00  0.00     0.052 C 
HETATM    6  C11 UNL     1      13.968  16.983   3.340  1.00  0.00     0.016 C 
HETATM    7  C12 UNL     1      13.290  17.328   5.649  1.00  0.00     0.100 A 
HETATM    8  C13 UNL     1      14.391  16.470   6.002  1.00  0.00     0.208 A 
HETATM    9  O3  UNL     1      13.085  15.953   5.757  1.00  0.00    -0.373 OA
HETATM   10  C14 UNL     1      12.493  18.093   6.708  1.00  0.00     0.021 C 
HETATM   11  C20 UNL     1      12.677  17.397   8.000  1.00  0.00     0.020 C 
HETATM   12  C21 UNL     1      11.457  17.318   8.868  1.00  0.00     0.034 C 
HETATM   13  C22 UNL     1      10.249  16.904   8.103  1.00  0.00     0.138 C 
ENDROOT
BRANCH   1  14
HETATM   14  C5  UNL     1       9.630  19.294   7.836  1.00  0.00    -0.018 C 
HETATM   15  C4  UNL     1       9.387  20.444   7.258  1.00  0.00    -0.018 C 
BRANCH  15  16
HETATM   16  C3  UNL     1       9.346  20.774   5.821  1.00  0.00     0.080 C 
BRANCH  16  17
HETATM   17  C2  UNL     1       7.978  20.773   5.277  1.00  0.00     0.131 C 
HETATM   18  C1  UNL     1       6.843  21.589   5.762  1.00  0.00     0.091 C 
HETATM   19  O1  UNL     1       7.736  20.023   4.321  1.00  0.00    -0.298 OA
ENDBRANCH  16  17
BRANCH  16  20
HETATM   20  C24 UNL     1      10.070  22.092   5.599  1.00  0.00    -0.008 C 
HETATM   21  C25 UNL     1      11.141  21.846   4.532  1.00  0.00     0.010 C 
HETATM   22  C26 UNL     1      10.758  22.617   6.817  1.00  0.00     0.010 C 
ENDBRANCH  16  20
ENDBRANCH  15  16
ENDBRANCH   1  14
BRANCH  13  23
HETATM   23  O4  UNL     1       9.183  16.539   8.868  1.00  0.00    -0.333 OA
BRANCH  23  24
HETATM   24  C23 UNL     1       8.801  15.209   8.590  1.00  0.00     0.408 C 
BRANCH  24  25
HETATM   25  O5  UNL     1       7.438  15.078   8.466  1.00  0.00    -0.350 OA
ATOM     26  H5  UNL     1       7.079  15.678   7.823  1.00  0.00     0.215 HD
ENDBRANCH  24  25
BRANCH  24  27
HETATM   27  O6  UNL     1       9.205  14.371   9.646  1.00  0.00    -0.350 OA
ATOM     28  H6  UNL     1      10.103  14.095   9.507  1.00  0.00     0.215 HD
ENDBRANCH  24  27
ENDBRANCH  23  24
ENDBRANCH  13  23
BRANCH  10  29
HETATM   29  C15 UNL     1      13.046  19.496   6.719  1.00  0.00     0.044 C 
BRANCH  29  30
HETATM   30  C16 UNL     1      13.422  19.898   8.103  1.00  0.00    -0.024 C 
HETATM   31  C17 UNL     1      14.035  21.040   8.370  1.00  0.00    -0.091 C 
HETATM   32  C18 UNL     1      14.367  21.962   7.262  1.00  0.00     0.042 C 
HETATM   33  C19 UNL     1      14.399  21.417   9.758  1.00  0.00     0.042 C 
ENDBRANCH  29  30
ENDBRANCH  10  29
BRANCH   4  34
HETATM   34  O2  UNL     1      11.488  17.150   2.861  1.00  0.00    -0.391 OA
ATOM     35  H2  UNL     1      10.570  16.951   2.996  1.00  0.00     0.210 HD
ENDBRANCH   4  34
TORSDOF 11
ENDMDL
MODEL 5
REMARK VINA RESULT: -5.720181648      2.711      5.414
REMARK  11 active torsions:
REMARK  status: ('A' for Active; 'I' for Inactive)
REMARK    1  A    between atoms: C2_2  and  C3_4 
REMARK    2  A    between atoms: C3_4  and  C4_5 
REMARK    3  A    between atoms: C3_4  and  C24_33 
REMARK    4  A    between atoms: C5_6  and  C6_7 
REMARK    5  A    between atoms: C9_10  and  O2_11 
REMARK    6  A    between atoms: C14_18  and  C15_19 
REMARK    7  A    between atoms: C15_19  and  C16_20 
REMARK    8  A    between atoms: C22_26  and  O4_27 
REMARK    9  A    between atoms: O4_27  and  C23_28 
REMARK   10  A    between atoms: C23_28  and  O5_29 
REMARK   11  A    between atoms: C23_28  and  O6_31 
ROOT
HETATM    1  C6  UNL     1      11.491  16.602   7.269  1.00  0.00     0.067 C 
HETATM    2  C7  UNL     1      11.111  17.981   6.843  1.00  0.00    -0.059 C 
HETATM    3  C8  UNL     1       9.870  18.195   6.420  1.00  0.00     0.009 C 
HETATM    4  C9  UNL     1       9.293  19.470   5.958  1.00  0.00     0.148 C 
HETATM    5  C10 UNL     1      10.306  20.527   5.767  1.00  0.00     0.052 C 
HETATM    6  C11 UNL     1      10.015  21.287   4.472  1.00  0.00     0.016 C 
HETATM    7  C12 UNL     1      11.683  20.001   5.686  1.00  0.00     0.100 A 
HETATM    8  C13 UNL     1      12.661  20.695   4.890  1.00  0.00     0.208 A 
HETATM    9  O3  UNL     1      12.096  19.455   4.472  1.00  0.00    -0.373 OA
HETATM   10  C14 UNL     1      12.087  19.109   6.863  1.00  0.00     0.021 C 
HETATM   11  C20 UNL     1      13.492  18.697   6.653  1.00  0.00     0.020 C 
HETATM   12  C21 UNL     1      13.810  17.280   7.025  1.00  0.00     0.034 C 
HETATM   13  C22 UNL     1      12.795  16.322   6.508  1.00  0.00     0.138 C 
ENDROOT
BRANCH   1  14
HETATM   14  C5  UNL     1      11.636  16.403   8.702  1.00  0.00    -0.018 C 
HETATM   15  C4  UNL     1      11.157  15.386   9.374  1.00  0.00    -0.018 C 
BRANCH  15  16
HETATM   16  C3  UNL     1      10.381  14.231   8.886  1.00  0.00     0.080 C 
BRANCH  16  17
HETATM   17  C2  UNL     1      11.099  12.956   9.043  1.00  0.00     0.131 C 
HETATM   18  C1  UNL     1      11.059  12.069  10.226  1.00  0.00     0.091 C 
HETATM   19  O1  UNL     1      11.812  12.574   8.104  1.00  0.00    -0.298 OA
ENDBRANCH  16  17
BRANCH  16  20
HETATM   20  C24 UNL     1       9.021  14.231   9.567  1.00  0.00    -0.008 C 
HETATM   21  C25 UNL     1       8.255  13.010   9.047  1.00  0.00     0.010 C 
HETATM   22  C26 UNL     1       8.196  15.441   9.270  1.00  0.00     0.010 C 
ENDBRANCH  16  20
ENDBRANCH  15  16
ENDBRANCH   1  14
BRANCH  13  23
HETATM   23  O4  UNL     1      13.164  15.011   6.560  1.00  0.00    -0.333 OA
BRANCH  23  24
HETATM   24  C23 UNL     1      14.422  14.871   7.185  1.00  0.00     0.408 C 
BRANCH  24  25
HETATM   25  O5  UNL     1      15.325  14.212   6.385  1.00  0.00    -0.350 OA
ATOM     26  H5  UNL     1      16.223  14.430   6.606  1.00  0.00     0.215 HD
ENDBRANCH  24  25
BRANCH  24  27
HETATM   27  O6  UNL     1      14.282  14.117   8.364  1.00  0.00    -0.350 OA
ATOM     28  H6  UNL     1      13.368  14.098   8.624  1.00  0.00     0.215 HD
ENDBRANCH  24  27
ENDBRANCH  23  24
ENDBRANCH  13  23
BRANCH  10  29
HETATM   29  C15 UNL     1      11.905  19.942   8.106  1.00  0.00     0.044 C 
BRANCH  29  30
HETATM   30  C16 UNL     1      13.227  20.333   8.670  1.00  0.00    -0.024 C 
HETATM   31  C17 UNL     1      13.485  21.561   9.091  1.00  0.00    -0.091 C 
HETATM   32  C18 UNL     1      12.431  22.596   9.003  1.00  0.00     0.042 C 
HETATM   33  C19 UNL     1      14.810  21.926   9.649  1.00  0.00     0.042 C 
ENDBRANCH  29  30
ENDBRANCH  10  29
BRANCH   4  34
HETATM   34  O2  UNL     1       8.597  19.207   4.740  1.00  0.00    -0.391 OA
ATOM     35  H2  UNL     1       7.811  19.741   4.741  1.00  0.00     0.210 HD
ENDBRANCH   4  34
TORSDOF 11
ENDMDL
