MODEL 1
REMARK VINA RESULT: -8.206425503      0.000      0.000
REMARK  10 active torsions:
REMARK  status: ('A' for Active; 'I' for Inactive)
REMARK    1  A    between atoms: C2_2  and  O1_3 
REMARK    2  A    between atoms: C2_2  and  C3_5 
REMARK    3  A    between atoms: C3_5  and  C4_6 
REMARK    4  A    between atoms: C4_6  and  C5_7 
REMARK    5  A    between atoms: C5_7  and  C6_8 
REMARK    6  A    between atoms: C9_12  and  C10_13 
REMARK    7  A    between atoms: C10_13  and  O2_14 
REMARK    8  A    between atoms: C10_13  and  C11_16 
REMARK    9  A    between atoms: C15_20  and  O3_21 
REMARK   10  A    between atoms: C16_23  and  C17_24 
ROOT
HETATM    1  C11 UNL     1      11.233  14.525   8.604  1.00  0.00    -0.009 A 
HETATM    2  C12 UNL     1      11.514  13.251   9.011  1.00  0.00     0.049 A 
HETATM    3  C13 UNL     1      12.610  12.516   8.519  1.00  0.00     0.087 A 
HETATM    4  C14 UNL     1      13.410  13.135   7.590  1.00  0.00     0.080 A 
HETATM    5  C15 UNL     1      13.137  14.396   7.181  1.00  0.00     0.093 A 
HETATM    6  C16 UNL     1      12.028  15.134   7.685  1.00  0.00     0.013 A 
HETATM    7  C24 UNL     1      14.482  12.191   7.232  1.00  0.00     0.199 A 
HETATM    8  O4  UNL     1      15.370  12.380   6.375  1.00  0.00    -0.289 OA
HETATM    9  C25 UNL     1      14.279  11.002   8.089  1.00  0.00     0.125 A 
HETATM   10  C26 UNL     1      14.096   9.805   7.166  1.00  0.00     0.055 C 
HETATM   11  C27 UNL     1      15.504  10.831   8.951  1.00  0.00     0.055 C 
HETATM   12  O5  UNL     1      13.098  11.255   8.761  1.00  0.00    -0.332 OA
ENDROOT
BRANCH   1  13
HETATM   13  C10 UNL     1      10.081  15.260   9.248  1.00  0.00     0.190 C 
BRANCH  13  14
HETATM   14  C9  UNL     1       8.903  15.164   8.275  1.00  0.00     0.095 C 
HETATM   15  N1  UNL     1       7.704  14.778   8.776  1.00  0.00    -0.386 N 
HETATM   16  C6  UNL     1       7.165  13.607   9.290  1.00  0.00     0.085 C 
HETATM   17  C8  UNL     1       7.070  15.604   9.792  1.00  0.00     0.124 C 
HETATM   18  C7  UNL     1       7.001  14.385  10.640  1.00  0.00     0.045 C 
BRANCH  16  19
HETATM   19  C5  UNL     1       5.721  13.476   8.764  1.00  0.00     0.025 C 
BRANCH  19  20
HETATM   20  C4  UNL     1       5.113  12.125   9.035  1.00  0.00     0.004 C 
BRANCH  20  21
HETATM   21  C3  UNL     1       3.769  12.402   9.692  1.00  0.00     0.031 C 
BRANCH  21  22
HETATM   22  C2  UNL     1       3.236  11.084  10.215  1.00  0.00     0.114 C 
HETATM   23  C1  UNL     1       4.496  10.269  10.552  1.00  0.00     0.039 C 
BRANCH  22  24
HETATM   24  O1  UNL     1       2.441  11.313  11.304  1.00  0.00    -0.396 OA
ATOM     25  H1  UNL     1       2.674  12.105  11.773  1.00  0.00     0.210 HD
ENDBRANCH  22  24
ENDBRANCH  21  22
ENDBRANCH  20  21
ENDBRANCH  19  20
ENDBRANCH  16  19
ENDBRANCH  13  14
BRANCH  13  26
HETATM   26  O2  UNL     1      10.500  16.449   9.611  1.00  0.00    -0.386 OA
ATOM     27  H2  UNL     1       9.878  17.168   9.618  1.00  0.00     0.210 HD
ENDBRANCH  13  26
ENDBRANCH   1  13
BRANCH   6  28
HETATM   28  C17 UNL     1      11.955  16.447   7.116  1.00  0.00    -0.048 C 
HETATM   29  C18 UNL     1      12.707  17.355   7.790  1.00  0.00    -0.018 C 
HETATM   30  C19 UNL     1      12.713  18.737   7.288  1.00  0.00     0.031 C 
HETATM   31  C20 UNL     1      11.306  19.266   7.301  1.00  0.00    -0.015 C 
HETATM   32  C21 UNL     1      11.218  20.639   6.674  1.00  0.00     0.010 C 
HETATM   33  C22 UNL     1      10.375  18.285   6.693  1.00  0.00     0.009 C 
HETATM   34  C23 UNL     1      11.135  17.081   6.088  1.00  0.00     0.039 C 
ENDBRANCH   6  28
BRANCH   5  35
HETATM   35  O3  UNL     1      13.967  15.020   6.227  1.00  0.00    -0.359 OA
ATOM     36  H3  UNL     1      14.880  15.184   6.429  1.00  0.00     0.217 HD
ENDBRANCH   5  35
TORSDOF 10
ENDMDL
MODEL 2
REMARK VINA RESULT: -8.075679717      2.419      6.574
REMARK  10 active torsions:
REMARK  status: ('A' for Active; 'I' for Inactive)
REMARK    1  A    between atoms: C2_2  and  O1_3 
REMARK    2  A    between atoms: C2_2  and  C3_5 
REMARK    3  A    between atoms: C3_5  and  C4_6 
REMARK    4  A    between atoms: C4_6  and  C5_7 
REMARK    5  A    between atoms: C5_7  and  C6_8 
REMARK    6  A    between atoms: C9_12  and  C10_13 
REMARK    7  A    between atoms: C10_13  and  O2_14 
REMARK    8  A    between atoms: C10_13  and  C11_16 
REMARK    9  A    between atoms: C15_20  and  O3_21 
REMARK   10  A    between atoms: C16_23  and  C17_24 
ROOT
HETATM    1  C11 UNL     1      10.977  14.957   8.582  1.00  0.00    -0.009 A 
HETATM    2  C12 UNL     1      12.302  14.830   8.269  1.00  0.00     0.049 A 
HETATM    3  C13 UNL     1      13.045  13.668   8.553  1.00  0.00     0.087 A 
HETATM    4  C14 UNL     1      12.381  12.637   9.173  1.00  0.00     0.080 A 
HETATM    5  C15 UNL     1      11.070  12.757   9.487  1.00  0.00     0.093 A 
HETATM    6  C16 UNL     1      10.324  13.935   9.194  1.00  0.00     0.013 A 
HETATM    7  C24 UNL     1      13.345  11.540   9.359  1.00  0.00     0.199 A 
HETATM    8  O4  UNL     1      13.120  10.457   9.937  1.00  0.00    -0.289 OA
HETATM    9  C25 UNL     1      14.603  11.993   8.726  1.00  0.00     0.125 A 
HETATM   10  C26 UNL     1      15.683  11.970   9.798  1.00  0.00     0.055 C 
HETATM   11  C27 UNL     1      14.937  11.034   7.610  1.00  0.00     0.055 C 
HETATM   12  O5  UNL     1      14.352  13.297   8.346  1.00  0.00    -0.332 OA
ENDROOT
BRANCH   1  13
HETATM   13  C10 UNL     1      10.246  16.213   8.166  1.00  0.00     0.190 C 
BRANCH  13  14
HETATM   14  C9  UNL     1      10.817  16.619   6.804  1.00  0.00     0.095 C 
HETATM   15  N1  UNL     1      10.750  17.930   6.461  1.00  0.00    -0.386 N 
HETATM   16  C6  UNL     1       9.745  18.825   6.126  1.00  0.00     0.085 C 
HETATM   17  C8  UNL     1      11.449  18.905   7.283  1.00  0.00     0.124 C 
HETATM   18  C7  UNL     1      10.152  19.620   7.413  1.00  0.00     0.045 C 
BRANCH  16  19
HETATM   19  C5  UNL     1      10.258  19.708   4.970  1.00  0.00     0.025 C 
BRANCH  19  20
HETATM   20  C4  UNL     1       9.435  20.952   4.765  1.00  0.00     0.004 C 
BRANCH  20  21
HETATM   21  C3  UNL     1       7.984  20.493   4.781  1.00  0.00     0.031 C 
BRANCH  21  22
HETATM   22  C2  UNL     1       7.230  21.397   5.736  1.00  0.00     0.114 C 
HETATM   23  C1  UNL     1       8.073  22.682   5.791  1.00  0.00     0.039 C 
BRANCH  22  24
HETATM   24  O1  UNL     1       5.965  21.607   5.261  1.00  0.00    -0.396 OA
ATOM     25  H1  UNL     1       5.440  20.816   5.241  1.00  0.00     0.210 HD
ENDBRANCH  22  24
ENDBRANCH  21  22
ENDBRANCH  20  21
ENDBRANCH  19  20
ENDBRANCH  16  19
ENDBRANCH  13  14
BRANCH  13  26
HETATM   26  O2  UNL     1      10.307  17.073   9.154  1.00  0.00    -0.386 OA
ATOM     27  H2  UNL     1       9.524  17.229   9.669  1.00  0.00     0.210 HD
ENDBRANCH  13  26
ENDBRANCH   1  13
BRANCH   6  28
HETATM   28  C17 UNL     1       8.956  13.819   9.606  1.00  0.00    -0.048 C 
HETATM   29  C18 UNL     1       8.289  12.838   8.944  1.00  0.00    -0.018 C 
HETATM   30  C19 UNL     1       6.877  12.624   9.293  1.00  0.00     0.031 C 
HETATM   31  C20 UNL     1       6.115  13.895   9.038  1.00  0.00    -0.015 C 
HETATM   32  C21 UNL     1       4.678  13.788   9.499  1.00  0.00     0.010 C 
HETATM   33  C22 UNL     1       6.830  15.056   9.619  1.00  0.00     0.009 C 
HETATM   34  C23 UNL     1       8.061  14.610  10.444  1.00  0.00     0.039 C 
ENDBRANCH   6  28
BRANCH   5  35
HETATM   35  O3  UNL     1      10.400  11.692  10.123  1.00  0.00    -0.359 OA
ATOM     36  H3  UNL     1      10.793  11.267  10.875  1.00  0.00     0.217 HD
ENDBRANCH   5  35
TORSDOF 10
ENDMDL
MODEL 3
REMARK VINA RESULT: -8.061530130      2.330      6.932
REMARK  10 active torsions:
REMARK  status: ('A' for Active; 'I' for Inactive)
REMARK    1  A    between atoms: C2_2  and  O1_3 
REMARK    2  A    between atoms: C2_2  and  C3_5 
REMARK    3  A    between atoms: C3_5  and  C4_6 
REMARK    4  A    between atoms: C4_6  and  C5_7 
REMARK    5  A    between atoms: C5_7  and  C6_8 
REMARK    6  A    between atoms: C9_12  and  C10_13 
REMARK    7  A    between atoms: C10_13  and  O2_14 
REMARK    8  A    between atoms: C10_13  and  C11_16 
REMARK    9  A    between atoms: C15_20  and  O3_21 
REMARK   10  A    between atoms: C16_23  and  C17_24 
ROOT
HETATM    1  C11 UNL     1      11.334  14.481   8.645  1.00  0.00    -0.009 A 
HETATM    2  C12 UNL     1      12.642  14.174   8.389  1.00  0.00     0.049 A 
HETATM    3  C13 UNL     1      13.233  12.960   8.787  1.00  0.00     0.087 A 
HETATM    4  C14 UNL     1      12.435  12.068   9.462  1.00  0.00     0.080 A 
HETATM    5  C15 UNL     1      11.141  12.365   9.720  1.00  0.00     0.093 A 
HETATM    6  C16 UNL     1      10.549  13.595   9.312  1.00  0.00     0.013 A 
HETATM    7  C24 UNL     1      13.256  10.883   9.764  1.00  0.00     0.199 A 
HETATM    8  O4  UNL     1      12.889   9.884  10.416  1.00  0.00    -0.289 OA
HETATM    9  C25 UNL     1      14.574  11.132   9.141  1.00  0.00     0.125 A 
HETATM   10  C26 UNL     1      15.617  11.070  10.249  1.00  0.00     0.055 C 
HETATM   11  C27 UNL     1      14.819  10.055   8.115  1.00  0.00     0.055 C 
HETATM   12  O5  UNL     1      14.491  12.422   8.654  1.00  0.00    -0.332 OA
ENDROOT
BRANCH   1  13
HETATM   13  C10 UNL     1      10.770  15.776   8.109  1.00  0.00     0.190 C 
BRANCH  13  14
HETATM   14  C9  UNL     1      11.685  16.209   6.961  1.00  0.00     0.095 C 
HETATM   15  N1  UNL     1      11.331  17.313   6.257  1.00  0.00    -0.386 N 
HETATM   16  C6  UNL     1      10.323  17.648   5.365  1.00  0.00     0.085 C 
HETATM   17  C8  UNL     1      11.246  18.588   6.950  1.00  0.00     0.124 C 
HETATM   18  C7  UNL     1       9.857  18.698   6.430  1.00  0.00     0.045 C 
BRANCH  16  19
HETATM   19  C5  UNL     1      10.943  18.510   4.246  1.00  0.00     0.025 C 
BRANCH  19  20
HETATM   20  C4  UNL     1      11.892  17.743   3.365  1.00  0.00     0.004 C 
BRANCH  20  21
HETATM   21  C3  UNL     1      13.196  18.528   3.382  1.00  0.00     0.031 C 
BRANCH  21  22
HETATM   22  C2  UNL     1      14.286  17.590   3.861  1.00  0.00     0.114 C 
HETATM   23  C1  UNL     1      14.730  18.176   5.211  1.00  0.00     0.039 C 
BRANCH  22  24
HETATM   24  O1  UNL     1      13.783  16.323   3.968  1.00  0.00    -0.396 OA
ATOM     25  H1  UNL     1      12.835  16.304   4.029  1.00  0.00     0.210 HD
ENDBRANCH  22  24
ENDBRANCH  21  22
ENDBRANCH  20  21
ENDBRANCH  19  20
ENDBRANCH  16  19
ENDBRANCH  13  14
BRANCH  13  26
HETATM   26  O2  UNL     1      10.594  16.598   9.116  1.00  0.00    -0.386 OA
ATOM     27  H2  UNL     1      10.025  16.330   9.827  1.00  0.00     0.210 HD
ENDBRANCH  13  26
ENDBRANCH   1  13
BRANCH   6  28
HETATM   28  C17 UNL     1       9.167  13.675   9.685  1.00  0.00    -0.048 C 
HETATM   29  C18 UNL     1       8.381  12.827   8.972  1.00  0.00    -0.018 C 
HETATM   30  C19 UNL     1       6.942  12.818   9.277  1.00  0.00     0.031 C 
HETATM   31  C20 UNL     1       6.388  14.196   9.048  1.00  0.00    -0.015 C 
HETATM   32  C21 UNL     1       4.938  14.294   9.469  1.00  0.00     0.010 C 
HETATM   33  C22 UNL     1       7.251  15.218   9.689  1.00  0.00     0.009 C 
HETATM   34  C23 UNL     1       8.376  14.566  10.527  1.00  0.00     0.039 C 
ENDBRANCH   6  28
BRANCH   5  35
HETATM   35  O3  UNL     1      10.333  11.441  10.413  1.00  0.00    -0.359 OA
ATOM     36  H3  UNL     1      10.108  11.597  11.322  1.00  0.00     0.217 HD
ENDBRANCH   5  35
TORSDOF 10
ENDMDL
MODEL 4
REMARK VINA RESULT: -7.969105984      2.441      7.124
REMARK  10 active torsions:
REMARK  status: ('A' for Active; 'I' for Inactive)
REMARK    1  A    between atoms: C2_2  and  O1_3 
REMARK    2  A    between atoms: C2_2  and  C3_5 
REMARK    3  A    between atoms: C3_5  and  C4_6 
REMARK    4  A    between atoms: C4_6  and  C5_7 
REMARK    5  A    between atoms: C5_7  and  C6_8 
REMARK    6  A    between atoms: C9_12  and  C10_13 
REMARK    7  A    between atoms: C10_13  and  O2_14 
REMARK    8  A    between atoms: C10_13  and  C11_16 
REMARK    9  A    between atoms: C15_20  and  O3_21 
REMARK   10  A    between atoms: C16_23  and  C17_24 
ROOT
HETATM    1  C11 UNL     1      11.298  14.480   8.669  1.00  0.00    -0.009 A 
HETATM    2  C12 UNL     1      12.608  14.177   8.419  1.00  0.00     0.049 A 
HETATM    3  C13 UNL     1      13.199  12.963   8.815  1.00  0.00     0.087 A 
HETATM    4  C14 UNL     1      12.399  12.066   9.481  1.00  0.00     0.080 A 
HETATM    5  C15 UNL     1      11.103  12.360   9.734  1.00  0.00     0.093 A 
HETATM    6  C16 UNL     1      10.511  13.590   9.327  1.00  0.00     0.013 A 
HETATM    7  C24 UNL     1      13.221  10.882   9.784  1.00  0.00     0.199 A 
HETATM    8  O4  UNL     1      12.852   9.880  10.430  1.00  0.00    -0.289 OA
HETATM    9  C25 UNL     1      14.542  11.137   9.169  1.00  0.00     0.125 A 
HETATM   10  C26 UNL     1      15.579  11.072  10.283  1.00  0.00     0.055 C 
HETATM   11  C27 UNL     1      14.795  10.064   8.140  1.00  0.00     0.055 C 
HETATM   12  O5  UNL     1      14.459  12.429   8.687  1.00  0.00    -0.332 OA
ENDROOT
BRANCH   1  13
HETATM   13  C10 UNL     1      10.733  15.776   8.134  1.00  0.00     0.190 C 
BRANCH  13  14
HETATM   14  C9  UNL     1      11.646  16.208   6.983  1.00  0.00     0.095 C 
HETATM   15  N1  UNL     1      11.299  17.321   6.291  1.00  0.00    -0.386 N 
HETATM   16  C6  UNL     1      10.289  17.674   5.407  1.00  0.00     0.085 C 
HETATM   17  C8  UNL     1      11.232  18.592   6.994  1.00  0.00     0.124 C 
HETATM   18  C7  UNL     1       9.841  18.720   6.484  1.00  0.00     0.045 C 
BRANCH  16  19
HETATM   19  C5  UNL     1      10.911  18.538   4.292  1.00  0.00     0.025 C 
BRANCH  19  20
HETATM   20  C4  UNL     1      11.733  17.741   3.314  1.00  0.00     0.004 C 
BRANCH  20  21
HETATM   21  C3  UNL     1      12.085  18.704   2.190  1.00  0.00     0.031 C 
BRANCH  21  22
HETATM   22  C2  UNL     1      13.299  18.146   1.474  1.00  0.00     0.114 C 
HETATM   23  C1  UNL     1      13.993  17.267   2.527  1.00  0.00     0.039 C 
BRANCH  22  24
HETATM   24  O1  UNL     1      12.895  17.443   0.373  1.00  0.00    -0.396 OA
ATOM     25  H1  UNL     1      12.793  17.989  -0.398  1.00  0.00     0.210 HD
ENDBRANCH  22  24
ENDBRANCH  21  22
ENDBRANCH  20  21
ENDBRANCH  19  20
ENDBRANCH  16  19
ENDBRANCH  13  14
BRANCH  13  26
HETATM   26  O2  UNL     1      10.561  16.599   9.142  1.00  0.00    -0.386 OA
ATOM     27  H2  UNL     1       9.861  16.421   9.759  1.00  0.00     0.210 HD
ENDBRANCH  13  26
ENDBRANCH   1  13
BRANCH   6  28
HETATM   28  C17 UNL     1       9.127  13.665   9.693  1.00  0.00    -0.048 C 
HETATM   29  C18 UNL     1       8.345  12.823   8.967  1.00  0.00    -0.018 C 
HETATM   30  C19 UNL     1       6.905  12.811   9.264  1.00  0.00     0.031 C 
HETATM   31  C20 UNL     1       6.350  14.191   9.044  1.00  0.00    -0.015 C 
HETATM   32  C21 UNL     1       4.898  14.283   9.457  1.00  0.00     0.010 C 
HETATM   33  C22 UNL     1       7.209  15.207   9.699  1.00  0.00     0.009 C 
HETATM   34  C23 UNL     1       8.329  14.548  10.538  1.00  0.00     0.039 C 
ENDBRANCH   6  28
BRANCH   5  35
HETATM   35  O3  UNL     1      10.293  11.431  10.418  1.00  0.00    -0.359 OA
ATOM     36  H3  UNL     1       9.552  11.735  10.929  1.00  0.00     0.217 HD
ENDBRANCH   5  35
TORSDOF 10
ENDMDL
MODEL 5
REMARK VINA RESULT: -7.708430710      2.548      7.144
REMARK  10 active torsions:
REMARK  status: ('A' for Active; 'I' for Inactive)
REMARK    1  A    between atoms: C2_2  and  O1_3 
REMARK    2  A    between atoms: C2_2  and  C3_5 
REMARK    3  A    between atoms: C3_5  and  C4_6 
REMARK    4  A    between atoms: C4_6  and  C5_7 
REMARK    5  A    between atoms: C5_7  and  C6_8 
REMARK    6  A    between atoms: C9_12  and  C10_13 
REMARK    7  A    between atoms: C10_13  and  O2_14 
REMARK    8  A    between atoms: C10_13  and  C11_16 
REMARK    9  A    between atoms: C15_20  and  O3_21 
REMARK   10  A    between atoms: C16_23  and  C17_24 
ROOT
HETATM    1  C11 UNL     1      11.005  14.992   8.569  1.00  0.00    -0.009 A 
HETATM    2  C12 UNL     1      12.328  14.862   8.252  1.00  0.00     0.049 A 
HETATM    3  C13 UNL     1      13.066  13.694   8.521  1.00  0.00     0.087 A 
HETATM    4  C14 UNL     1      12.399  12.660   9.131  1.00  0.00     0.080 A 
HETATM    5  C15 UNL     1      11.090  12.782   9.450  1.00  0.00     0.093 A 
HETATM    6  C16 UNL     1      10.349  13.966   9.172  1.00  0.00     0.013 A 
HETATM    7  C24 UNL     1      13.358  11.556   9.302  1.00  0.00     0.199 A 
HETATM    8  O4  UNL     1      13.130  10.467   9.868  1.00  0.00    -0.289 OA
HETATM    9  C25 UNL     1      14.617  12.009   8.670  1.00  0.00     0.125 A 
HETATM   10  C26 UNL     1      15.699  11.970   9.739  1.00  0.00     0.055 C 
HETATM   11  C27 UNL     1      14.943  11.062   7.543  1.00  0.00     0.055 C 
HETATM   12  O5  UNL     1      14.371  13.319   8.306  1.00  0.00    -0.332 OA
ENDROOT
BRANCH   1  13
HETATM   13  C10 UNL     1      10.279  16.256   8.170  1.00  0.00     0.190 C 
BRANCH  13  14
HETATM   14  C9  UNL     1      10.958  16.766   6.896  1.00  0.00     0.095 C 
HETATM   15  N1  UNL     1      10.626  18.006   6.460  1.00  0.00    -0.386 N 
HETATM   16  C6  UNL     1       9.503  18.603   5.906  1.00  0.00     0.085 C 
HETATM   17  C8  UNL     1      10.903  19.148   7.318  1.00  0.00     0.124 C 
HETATM   18  C7  UNL     1       9.466  19.505   7.186  1.00  0.00     0.045 C 
BRANCH  16  19
HETATM   19  C5  UNL     1       9.973  19.563   4.794  1.00  0.00     0.025 C 
BRANCH  19  20
HETATM   20  C4  UNL     1       8.862  20.411   4.235  1.00  0.00     0.004 C 
BRANCH  20  21
HETATM   21  C3  UNL     1       9.537  21.648   3.660  1.00  0.00     0.031 C 
BRANCH  21  22
HETATM   22  C2  UNL     1      10.461  21.189   2.550  1.00  0.00     0.114 C 
HETATM   23  C1  UNL     1       9.706  21.534   1.256  1.00  0.00     0.039 C 
BRANCH  22  24
HETATM   24  O1  UNL     1      11.660  21.837   2.658  1.00  0.00    -0.396 OA
ATOM     25  H1  UNL     1      11.884  22.057   3.555  1.00  0.00     0.210 HD
ENDBRANCH  22  24
ENDBRANCH  21  22
ENDBRANCH  20  21
ENDBRANCH  19  20
ENDBRANCH  16  19
ENDBRANCH  13  14
BRANCH  13  26
HETATM   26  O2  UNL     1      10.224  17.049   9.213  1.00  0.00    -0.386 OA
ATOM     27  H2  UNL     1       9.717  16.773   9.968  1.00  0.00     0.210 HD
ENDBRANCH  13  26
ENDBRANCH   1  13
BRANCH   6  28
HETATM   28  C17 UNL     1       8.981  13.853   9.587  1.00  0.00    -0.048 C 
HETATM   29  C18 UNL     1       8.304  12.890   8.908  1.00  0.00    -0.018 C 
HETATM   30  C19 UNL     1       6.892  12.680   9.257  1.00  0.00     0.031 C 
HETATM   31  C20 UNL     1       6.138  13.961   9.031  1.00  0.00    -0.015 C 
HETATM   32  C21 UNL     1       4.703  13.856   9.495  1.00  0.00     0.010 C 
HETATM   33  C22 UNL     1       6.864  15.105   9.633  1.00  0.00     0.009 C 
HETATM   34  C23 UNL     1       8.095  14.633  10.444  1.00  0.00     0.039 C 
ENDBRANCH   6  28
BRANCH   5  35
HETATM   35  O3  UNL     1      10.416  11.713  10.075  1.00  0.00    -0.359 OA
ATOM     36  H3  UNL     1       9.487  11.781  10.259  1.00  0.00     0.217 HD
ENDBRANCH   5  35
TORSDOF 10
ENDMDL
