MODEL 1
REMARK VINA RESULT: -6.228135628      0.000      0.000
REMARK  12 active torsions:
REMARK  status: ('A' for Active; 'I' for Inactive)
REMARK    1  A    between atoms: C2_2  and  C3_3 
REMARK    2  A    between atoms: C3_3  and  C4_4 
REMARK    3  A    between atoms: C4_4  and  O2_6 
REMARK    4  A    between atoms: O2_6  and  C5_7 
REMARK    5  A    between atoms: C12_15  and  O4_16 
REMARK    6  A    between atoms: C13_18  and  C15_20 
REMARK    7  A    between atoms: C15_20  and  C16_21 
REMARK    8  A    between atoms: C16_21  and  C17_22 
REMARK    9  A    between atoms: C18_23  and  C20_25 
REMARK   10  A    between atoms: C20_25  and  C21_26 
REMARK   11  A    between atoms: C21_26  and  C22_27 
REMARK   12  A    between atoms: C22_27  and  O5_30 
ROOT
HETATM    1  C5  UNL     1      15.747  11.914   7.428  1.00  0.00     0.196 C 
HETATM    2  C6  UNL     1      16.886  11.378   6.614  1.00  0.00     0.297 C 
HETATM    3  O3  UNL     1      16.580  11.266   5.263  1.00  0.00    -0.323 OA
HETATM    4  C7  UNL     1      16.509   9.871   5.493  1.00  0.00     0.167 C 
HETATM    5  C8  UNL     1      17.247   9.136   4.428  1.00  0.00     0.079 C 
HETATM    6  C9  UNL     1      15.092   9.534   5.717  1.00  0.00     0.074 C 
HETATM    7  C10 UNL     1      14.590   9.681   7.113  1.00  0.00     0.005 C 
HETATM    8  C11 UNL     1      15.166   8.744   8.121  1.00  0.00     0.038 C 
HETATM    9  C12 UNL     1      15.322   9.599   9.357  1.00  0.00     0.127 C 
HETATM   10  C13 UNL     1      14.390  10.732   9.179  1.00  0.00    -0.008 C 
HETATM   11  C14 UNL     1      14.840  11.848  10.083  1.00  0.00     0.019 C 
HETATM   12  C25 UNL     1      14.612  11.055   7.688  1.00  0.00     0.001 C 
HETATM   13  C26 UNL     1      13.345  11.767   7.170  1.00  0.00     0.019 C 
HETATM   14  O6  UNL     1      17.170  10.063   6.696  1.00  0.00    -0.323 OA
ENDROOT
BRANCH  10  15
HETATM   15  C15 UNL     1      12.943  10.503   9.436  1.00  0.00     0.016 C 
BRANCH  15  16
HETATM   16  C16 UNL     1      12.328  11.123  10.627  1.00  0.00     0.028 C 
BRANCH  16  17
HETATM   17  C17 UNL     1      11.126  11.907  10.146  1.00  0.00    -0.024 C 
HETATM   18  C18 UNL     1       9.982  11.946  10.805  1.00  0.00    -0.087 C 
HETATM   19  C19 UNL     1       9.875  11.183  12.073  1.00  0.00     0.043 C 
BRANCH  18  20
HETATM   20  C20 UNL     1       8.800  12.712  10.342  1.00  0.00     0.036 C 
BRANCH  20  21
HETATM   21  C21 UNL     1       9.091  13.500   9.085  1.00  0.00     0.041 C 
BRANCH  21  22
HETATM   22  C22 UNL     1       8.267  14.760   9.124  1.00  0.00     0.051 C 
HETATM   23  C23 UNL     1       7.664  14.988  10.504  1.00  0.00     0.045 C 
HETATM   24  C24 UNL     1       9.144  15.984   8.839  1.00  0.00     0.045 C 
BRANCH  22  25
HETATM   25  O5  UNL     1       7.209  14.699   8.222  1.00  0.00    -0.391 OA
ATOM     26  H5  UNL     1       6.455  15.179   8.543  1.00  0.00     0.210 HD
ENDBRANCH  22  25
ENDBRANCH  21  22
ENDBRANCH  20  21
ENDBRANCH  18  20
ENDBRANCH  16  17
ENDBRANCH  15  16
ENDBRANCH  10  15
BRANCH   9  27
HETATM   27  O4  UNL     1      15.225   8.873  10.525  1.00  0.00    -0.395 OA
ATOM     28  H4  UNL     1      15.257   9.419  11.302  1.00  0.00     0.210 HD
ENDBRANCH   9  27
BRANCH   1  29
HETATM   29  O2  UNL     1      15.353  13.096   6.698  1.00  0.00    -0.310 OA
BRANCH  29  30
HETATM   30  C4  UNL     1      15.607  14.373   7.105  1.00  0.00     0.259 C 
HETATM   31  O1  UNL     1      16.284  15.136   6.372  1.00  0.00    -0.265 OA
BRANCH  30  32
HETATM   32  C3  UNL     1      15.124  14.944   8.394  1.00  0.00     0.111 C 
BRANCH  32  33
HETATM   33  C2  UNL     1      13.860  15.738   8.222  1.00  0.00     0.005 C 
HETATM   34  C1  UNL     1      12.638  14.930   8.569  1.00  0.00     0.005 C 
ENDBRANCH  32  33
ENDBRANCH  30  32
ENDBRANCH  29  30
ENDBRANCH   1  29
TORSDOF 12
ENDMDL
MODEL 2
REMARK VINA RESULT: -6.189795510      5.771      8.062
REMARK  12 active torsions:
REMARK  status: ('A' for Active; 'I' for Inactive)
REMARK    1  A    between atoms: C2_2  and  C3_3 
REMARK    2  A    between atoms: C3_3  and  C4_4 
REMARK    3  A    between atoms: C4_4  and  O2_6 
REMARK    4  A    between atoms: O2_6  and  C5_7 
REMARK    5  A    between atoms: C12_15  and  O4_16 
REMARK    6  A    between atoms: C13_18  and  C15_20 
REMARK    7  A    between atoms: C15_20  and  C16_21 
REMARK    8  A    between atoms: C16_21  and  C17_22 
REMARK    9  A    between atoms: C18_23  and  C20_25 
REMARK   10  A    between atoms: C20_25  and  C21_26 
REMARK   11  A    between atoms: C21_26  and  C22_27 
REMARK   12  A    between atoms: C22_27  and  O5_30 
ROOT
HETATM    1  C5  UNL     1      10.512  19.407   5.626  1.00  0.00     0.196 C 
HETATM    2  C6  UNL     1      11.308  20.369   4.797  1.00  0.00     0.297 C 
HETATM    3  O3  UNL     1      11.455  19.955   3.478  1.00  0.00    -0.323 OA
HETATM    4  C7  UNL     1      12.792  19.646   3.826  1.00  0.00     0.167 C 
HETATM    5  C8  UNL     1      13.725  20.161   2.785  1.00  0.00     0.079 C 
HETATM    6  C9  UNL     1      12.841  18.211   4.155  1.00  0.00     0.074 C 
HETATM    7  C10 UNL     1      12.505  17.843   5.559  1.00  0.00     0.005 C 
HETATM    8  C11 UNL     1      13.460  18.307   6.607  1.00  0.00     0.038 C 
HETATM    9  C12 UNL     1      12.565  18.702   7.759  1.00  0.00     0.127 C 
HETATM   10  C13 UNL     1      11.293  17.982   7.541  1.00  0.00    -0.008 C 
HETATM   11  C14 UNL     1      10.220  18.690   8.324  1.00  0.00     0.019 C 
HETATM   12  C25 UNL     1      11.122  18.155   6.019  1.00  0.00     0.001 C 
HETATM   13  C26 UNL     1      10.224  17.006   5.514  1.00  0.00     0.019 C 
HETATM   14  O6  UNL     1      12.644  20.413   4.970  1.00  0.00    -0.323 OA
ENDROOT
BRANCH  10  15
HETATM   15  C15 UNL     1      11.228  16.539   7.895  1.00  0.00     0.016 C 
BRANCH  15  16
HETATM   16  C16 UNL     1      10.818  16.164   9.264  1.00  0.00     0.028 C 
BRANCH  16  17
HETATM   17  C17 UNL     1      10.369  14.719   9.210  1.00  0.00    -0.024 C 
HETATM   18  C18 UNL     1       9.099  14.358   9.260  1.00  0.00    -0.087 C 
HETATM   19  C19 UNL     1       8.070  15.421   9.376  1.00  0.00     0.043 C 
BRANCH  18  20
HETATM   20  C20 UNL     1       8.651  12.947   9.207  1.00  0.00     0.036 C 
BRANCH  20  21
HETATM   21  C21 UNL     1       7.445  12.701  10.085  1.00  0.00     0.041 C 
BRANCH  21  22
HETATM   22  C22 UNL     1       6.420  11.955   9.271  1.00  0.00     0.051 C 
HETATM   23  C23 UNL     1       5.729  10.879  10.098  1.00  0.00     0.045 C 
HETATM   24  C24 UNL     1       5.311  12.904   8.802  1.00  0.00     0.045 C 
BRANCH  22  25
HETATM   25  O5  UNL     1       7.007  11.318   8.182  1.00  0.00    -0.391 OA
ATOM     26  H5  UNL     1       6.732  11.712   7.363  1.00  0.00     0.210 HD
ENDBRANCH  22  25
ENDBRANCH  21  22
ENDBRANCH  20  21
ENDBRANCH  18  20
ENDBRANCH  16  17
ENDBRANCH  15  16
ENDBRANCH  10  15
BRANCH   9  27
HETATM   27  O4  UNL     1      13.176  18.555   8.986  1.00  0.00    -0.395 OA
ATOM     28  H4  UNL     1      12.699  17.975   9.569  1.00  0.00     0.210 HD
ENDBRANCH   9  27
BRANCH   1  29
HETATM   29  O2  UNL     1       9.331  19.185   4.825  1.00  0.00    -0.310 OA
BRANCH  29  30
HETATM   30  C4  UNL     1       8.233  19.994   4.832  1.00  0.00     0.259 C 
HETATM   31  O1  UNL     1       7.815  20.485   3.754  1.00  0.00    -0.265 OA
BRANCH  30  32
HETATM   32  C3  UNL     1       7.470  20.345   6.062  1.00  0.00     0.111 C 
BRANCH  32  33
HETATM   33  C2  UNL     1       7.621  21.794   6.429  1.00  0.00     0.005 C 
HETATM   34  C1  UNL     1       8.594  21.989   7.562  1.00  0.00     0.005 C 
ENDBRANCH  32  33
ENDBRANCH  30  32
ENDBRANCH  29  30
ENDBRANCH   1  29
TORSDOF 12
ENDMDL
MODEL 3
REMARK VINA RESULT: -6.133491529      4.654      7.993
REMARK  12 active torsions:
REMARK  status: ('A' for Active; 'I' for Inactive)
REMARK    1  A    between atoms: C2_2  and  C3_3 
REMARK    2  A    between atoms: C3_3  and  C4_4 
REMARK    3  A    between atoms: C4_4  and  O2_6 
REMARK    4  A    between atoms: O2_6  and  C5_7 
REMARK    5  A    between atoms: C12_15  and  O4_16 
REMARK    6  A    between atoms: C13_18  and  C15_20 
REMARK    7  A    between atoms: C15_20  and  C16_21 
REMARK    8  A    between atoms: C16_21  and  C17_22 
REMARK    9  A    between atoms: C18_23  and  C20_25 
REMARK   10  A    between atoms: C20_25  and  C21_26 
REMARK   11  A    between atoms: C21_26  and  C22_27 
REMARK   12  A    between atoms: C22_27  and  O5_30 
ROOT
HETATM    1  C5  UNL     1      10.634  19.382   5.194  1.00  0.00     0.196 C 
HETATM    2  C6  UNL     1      11.223  20.384   4.247  1.00  0.00     0.297 C 
HETATM    3  O3  UNL     1      11.053  20.032   2.913  1.00  0.00    -0.323 OA
HETATM    4  C7  UNL     1      12.431  19.709   2.923  1.00  0.00     0.167 C 
HETATM    5  C8  UNL     1      13.100  20.275   1.717  1.00  0.00     0.079 C 
HETATM    6  C9  UNL     1      12.542  18.260   3.164  1.00  0.00     0.074 C 
HETATM    7  C10 UNL     1      12.541  17.826   4.590  1.00  0.00     0.005 C 
HETATM    8  C11 UNL     1      13.719  18.242   5.405  1.00  0.00     0.038 C 
HETATM    9  C12 UNL     1      13.123  18.580   6.751  1.00  0.00     0.127 C 
HETATM   10  C13 UNL     1      11.828  17.870   6.804  1.00  0.00    -0.008 C 
HETATM   11  C14 UNL     1      10.975  18.538   7.849  1.00  0.00     0.019 C 
HETATM   12  C25 UNL     1      11.307  18.114   5.374  1.00  0.00     0.001 C 
HETATM   13  C26 UNL     1      10.305  16.989   5.042  1.00  0.00     0.019 C 
HETATM   14  O6  UNL     1      12.562  20.422   4.105  1.00  0.00    -0.323 OA
ENDROOT
BRANCH  10  15
HETATM   15  C15 UNL     1      11.834  16.412   7.097  1.00  0.00     0.016 C 
BRANCH  15  16
HETATM   16  C16 UNL     1      12.106  15.968   8.479  1.00  0.00     0.028 C 
BRANCH  16  17
HETATM   17  C17 UNL     1      10.855  15.272   8.974  1.00  0.00    -0.024 C 
HETATM   18  C18 UNL     1      10.749  13.958   9.058  1.00  0.00    -0.087 C 
HETATM   19  C19 UNL     1      11.910  13.131   8.646  1.00  0.00     0.043 C 
BRANCH  18  20
HETATM   20  C20 UNL     1       9.529  13.268   9.541  1.00  0.00     0.036 C 
BRANCH  20  21
HETATM   21  C21 UNL     1       8.560  14.224  10.198  1.00  0.00     0.041 C 
BRANCH  21  22
HETATM   22  C22 UNL     1       7.308  14.266   9.361  1.00  0.00     0.051 C 
HETATM   23  C23 UNL     1       6.826  12.865   9.008  1.00  0.00     0.045 C 
HETATM   24  C24 UNL     1       6.163  14.925  10.138  1.00  0.00     0.045 C 
BRANCH  22  25
HETATM   25  O5  UNL     1       7.527  14.935   8.160  1.00  0.00    -0.391 OA
ATOM     26  H5  UNL     1       7.610  14.325   7.436  1.00  0.00     0.210 HD
ENDBRANCH  22  25
ENDBRANCH  21  22
ENDBRANCH  20  21
ENDBRANCH  18  20
ENDBRANCH  16  17
ENDBRANCH  15  16
ENDBRANCH  10  15
BRANCH   9  27
HETATM   27  O4  UNL     1      14.002  18.377   7.793  1.00  0.00    -0.395 OA
ATOM     28  H4  UNL     1      14.175  17.457   7.956  1.00  0.00     0.210 HD
ENDBRANCH   9  27
BRANCH   1  29
HETATM   29  O2  UNL     1       9.296  19.196   4.683  1.00  0.00    -0.310 OA
BRANCH  29  30
HETATM   30  C4  UNL     1       8.235  19.993   4.997  1.00  0.00     0.259 C 
HETATM   31  O1  UNL     1       7.534  20.487   4.079  1.00  0.00    -0.265 OA
BRANCH  30  32
HETATM   32  C3  UNL     1       7.833  20.327   6.392  1.00  0.00     0.111 C 
BRANCH  32  33
HETATM   33  C2  UNL     1       8.158  21.750   6.749  1.00  0.00     0.005 C 
HETATM   34  C1  UNL     1       9.229  21.834   7.804  1.00  0.00     0.005 C 
ENDBRANCH  32  33
ENDBRANCH  30  32
ENDBRANCH  29  30
ENDBRANCH   1  29
TORSDOF 12
ENDMDL
MODEL 4
REMARK VINA RESULT: -6.131078559      4.536      8.586
REMARK  12 active torsions:
REMARK  status: ('A' for Active; 'I' for Inactive)
REMARK    1  A    between atoms: C2_2  and  C3_3 
REMARK    2  A    between atoms: C3_3  and  C4_4 
REMARK    3  A    between atoms: C4_4  and  O2_6 
REMARK    4  A    between atoms: O2_6  and  C5_7 
REMARK    5  A    between atoms: C12_15  and  O4_16 
REMARK    6  A    between atoms: C13_18  and  C15_20 
REMARK    7  A    between atoms: C15_20  and  C16_21 
REMARK    8  A    between atoms: C16_21  and  C17_22 
REMARK    9  A    between atoms: C18_23  and  C20_25 
REMARK   10  A    between atoms: C20_25  and  C21_26 
REMARK   11  A    between atoms: C21_26  and  C22_27 
REMARK   12  A    between atoms: C22_27  and  O5_30 
ROOT
HETATM    1  C5  UNL     1      10.398  19.519   5.957  1.00  0.00     0.196 C 
HETATM    2  C6  UNL     1      11.112  20.780   5.574  1.00  0.00     0.297 C 
HETATM    3  O3  UNL     1      11.525  20.786   4.247  1.00  0.00    -0.323 OA
HETATM    4  C7  UNL     1      12.831  20.579   4.753  1.00  0.00     0.167 C 
HETATM    5  C8  UNL     1      13.794  21.497   4.081  1.00  0.00     0.079 C 
HETATM    6  C9  UNL     1      13.099  19.132   4.702  1.00  0.00     0.074 C 
HETATM    7  C10 UNL     1      12.636  18.333   5.872  1.00  0.00     0.005 C 
HETATM    8  C11 UNL     1      13.324  18.604   7.168  1.00  0.00     0.038 C 
HETATM    9  C12 UNL     1      12.212  18.523   8.188  1.00  0.00     0.127 C 
HETATM   10  C13 UNL     1      11.143  17.727   7.551  1.00  0.00    -0.008 C 
HETATM   11  C14 UNL     1       9.854  18.024   8.269  1.00  0.00     0.019 C 
HETATM   12  C25 UNL     1      11.167  18.304   6.122  1.00  0.00     0.001 C 
HETATM   13  C26 UNL     1      10.583  17.236   5.174  1.00  0.00     0.019 C 
HETATM   14  O6  UNL     1      12.376  20.957   6.007  1.00  0.00    -0.323 OA
ENDROOT
BRANCH  10  15
HETATM   15  C15 UNL     1      11.298  16.249   7.500  1.00  0.00     0.016 C 
BRANCH  15  16
HETATM   16  C16 UNL     1      10.844  15.449   8.656  1.00  0.00     0.028 C 
BRANCH  16  17
HETATM   17  C17 UNL     1      11.783  14.266   8.772  1.00  0.00    -0.024 C 
HETATM   18  C18 UNL     1      11.384  13.065   9.149  1.00  0.00    -0.087 C 
HETATM   19  C19 UNL     1       9.949  12.871   9.474  1.00  0.00     0.043 C 
BRANCH  18  20
HETATM   20  C20 UNL     1      12.295  11.902   9.264  1.00  0.00     0.036 C 
BRANCH  20  21
HETATM   21  C21 UNL     1      12.095  11.151  10.560  1.00  0.00     0.041 C 
BRANCH  21  22
HETATM   22  C22 UNL     1      13.391  10.464  10.905  1.00  0.00     0.051 C 
HETATM   23  C23 UNL     1      14.577  11.145  10.237  1.00  0.00     0.045 C 
HETATM   24  C24 UNL     1      13.654  10.539  12.413  1.00  0.00     0.045 C 
BRANCH  22  25
HETATM   25  O5  UNL     1      13.388   9.139  10.478  1.00  0.00    -0.391 OA
ATOM     26  H5  UNL     1      12.730   8.630  10.937  1.00  0.00     0.210 HD
ENDBRANCH  22  25
ENDBRANCH  21  22
ENDBRANCH  20  21
ENDBRANCH  18  20
ENDBRANCH  16  17
ENDBRANCH  15  16
ENDBRANCH  10  15
BRANCH   9  27
HETATM   27  O4  UNL     1      12.654  18.116   9.429  1.00  0.00    -0.395 OA
ATOM     28  H4  UNL     1      11.981  18.175  10.098  1.00  0.00     0.210 HD
ENDBRANCH   9  27
BRANCH   1  29
HETATM   29  O2  UNL     1       9.409  19.374   4.914  1.00  0.00    -0.310 OA
BRANCH  29  30
HETATM   30  C4  UNL     1       8.228  20.055   4.874  1.00  0.00     0.259 C 
HETATM   31  O1  UNL     1       7.769  20.441   3.770  1.00  0.00    -0.265 OA
BRANCH  30  32
HETATM   32  C3  UNL     1       7.417  20.380   6.081  1.00  0.00     0.111 C 
BRANCH  32  33
HETATM   33  C2  UNL     1       7.351  21.859   6.337  1.00  0.00     0.005 C 
HETATM   34  C1  UNL     1       8.254  22.273   7.468  1.00  0.00     0.005 C 
ENDBRANCH  32  33
ENDBRANCH  30  32
ENDBRANCH  29  30
ENDBRANCH   1  29
TORSDOF 12
ENDMDL
MODEL 5
REMARK VINA RESULT: -6.086341578      5.874      8.109
REMARK  12 active torsions:
REMARK  status: ('A' for Active; 'I' for Inactive)
REMARK    1  A    between atoms: C2_2  and  C3_3 
REMARK    2  A    between atoms: C3_3  and  C4_4 
REMARK    3  A    between atoms: C4_4  and  O2_6 
REMARK    4  A    between atoms: O2_6  and  C5_7 
REMARK    5  A    between atoms: C12_15  and  O4_16 
REMARK    6  A    between atoms: C13_18  and  C15_20 
REMARK    7  A    between atoms: C15_20  and  C16_21 
REMARK    8  A    between atoms: C16_21  and  C17_22 
REMARK    9  A    between atoms: C18_23  and  C20_25 
REMARK   10  A    between atoms: C20_25  and  C21_26 
REMARK   11  A    between atoms: C21_26  and  C22_27 
REMARK   12  A    between atoms: C22_27  and  O5_30 
ROOT
HETATM    1  C5  UNL     1      11.059  19.462   4.863  1.00  0.00     0.196 C 
HETATM    2  C6  UNL     1      11.512  20.101   3.586  1.00  0.00     0.297 C 
HETATM    3  O3  UNL     1      11.267  19.311   2.468  1.00  0.00    -0.323 OA
HETATM    4  C7  UNL     1      12.660  19.057   2.462  1.00  0.00     0.167 C 
HETATM    5  C8  UNL     1      13.201  19.201   1.081  1.00  0.00     0.079 C 
HETATM    6  C9  UNL     1      12.879  17.781   3.165  1.00  0.00     0.074 C 
HETATM    7  C10 UNL     1      13.009  17.858   4.647  1.00  0.00     0.005 C 
HETATM    8  C11 UNL     1      14.216  18.566   5.165  1.00  0.00     0.038 C 
HETATM    9  C12 UNL     1      13.700  19.322   6.367  1.00  0.00     0.127 C 
HETATM   10  C13 UNL     1      12.460  18.628   6.773  1.00  0.00    -0.008 C 
HETATM   11  C14 UNL     1      11.647  19.583   7.604  1.00  0.00     0.019 C 
HETATM   12  C25 UNL     1      11.821  18.354   5.397  1.00  0.00     0.001 C 
HETATM   13  C26 UNL     1      10.869  17.150   5.555  1.00  0.00     0.019 C 
HETATM   14  O6  UNL     1      12.833  20.133   3.318  1.00  0.00    -0.323 OA
ENDROOT
BRANCH  10  15
HETATM   15  C15 UNL     1      12.579  17.358   7.537  1.00  0.00     0.016 C 
BRANCH  15  16
HETATM   16  C16 UNL     1      12.183  17.347   8.960  1.00  0.00     0.028 C 
BRANCH  16  17
HETATM   17  C17 UNL     1      11.524  16.010   9.226  1.00  0.00    -0.024 C 
HETATM   18  C18 UNL     1      10.215  15.836   9.199  1.00  0.00    -0.087 C 
HETATM   19  C19 UNL     1       9.356  17.007   8.896  1.00  0.00     0.043 C 
BRANCH  18  20
HETATM   20  C20 UNL     1       9.562  14.531   9.457  1.00  0.00     0.036 C 
BRANCH  20  21
HETATM   21  C21 UNL     1       8.252  14.688  10.196  1.00  0.00     0.041 C 
BRANCH  21  22
HETATM   22  C22 UNL     1       7.160  14.108   9.336  1.00  0.00     0.051 C 
HETATM   23  C23 UNL     1       7.302  12.598   9.201  1.00  0.00     0.045 C 
HETATM   24  C24 UNL     1       5.788  14.348   9.976  1.00  0.00     0.045 C 
BRANCH  22  25
HETATM   25  O5  UNL     1       7.196  14.637   8.049  1.00  0.00    -0.391 OA
ATOM     26  H5  UNL     1       7.720  14.097   7.470  1.00  0.00     0.210 HD
ENDBRANCH  22  25
ENDBRANCH  21  22
ENDBRANCH  20  21
ENDBRANCH  18  20
ENDBRANCH  16  17
ENDBRANCH  15  16
ENDBRANCH  10  15
BRANCH   9  27
HETATM   27  O4  UNL     1      14.666  19.515   7.333  1.00  0.00    -0.395 OA
ATOM     28  H4  UNL     1      14.690  20.408   7.657  1.00  0.00     0.210 HD
ENDBRANCH   9  27
BRANCH   1  29
HETATM   29  O2  UNL     1       9.701  19.068   4.567  1.00  0.00    -0.310 OA
BRANCH  29  30
HETATM   30  C4  UNL     1       8.597  19.786   4.921  1.00  0.00     0.259 C 
HETATM   31  O1  UNL     1       7.838  20.242   4.029  1.00  0.00    -0.265 OA
BRANCH  30  32
HETATM   32  C3  UNL     1       8.213  20.076   6.331  1.00  0.00     0.111 C 
BRANCH  32  33
HETATM   33  C2  UNL     1       8.447  21.514   6.698  1.00  0.00     0.005 C 
HETATM   34  C1  UNL     1       7.159  22.236   6.990  1.00  0.00     0.005 C 
ENDBRANCH  32  33
ENDBRANCH  30  32
ENDBRANCH  29  30
ENDBRANCH   1  29
TORSDOF 12
ENDMDL
