MODEL 1
REMARK VINA RESULT: -6.593115614      0.000      0.000
REMARK  2 active torsions:
REMARK  status: ('A' for Active; 'I' for Inactive)
REMARK       I    between atoms: C1_4  and  N3_6 
REMARK    1  A    between atoms: N3_6  and  N4_8 
REMARK    2  A    between atoms: N4_8  and  C2_10 
ROOT
HETATM    1  C2  UNL     1     -13.861 -33.461  96.467  1.00  0.00     0.705 A 
HETATM    2  N5  UNL     1     -12.739 -32.752  96.682  1.00  0.00    -0.139 N 
ATOM      3  H5  UNL     1     -11.823 -33.123  96.429  1.00  0.00     0.189 HD
HETATM    4  C3  UNL     1     -12.867 -31.536  97.241  1.00  0.00     0.342 A 
HETATM    5  O1  UNL     1     -11.830 -30.828  97.464  1.00  0.00    -0.246 OA
HETATM    6  N6  UNL     1     -14.036 -31.003  97.590  1.00  0.00    -0.260 N 
ATOM      7  H6  UNL     1     -14.084 -30.076  98.012  1.00  0.00     0.175 HD
HETATM    8  C4  UNL     1     -15.149 -31.719  97.370  1.00  0.00     0.342 A 
HETATM    9  O2  UNL     1     -16.283 -31.264  97.679  1.00  0.00    -0.246 OA
HETATM   10  N7  UNL     1     -15.067 -32.939  96.814  1.00  0.00    -0.139 N 
ATOM     11  H7  UNL     1     -15.917 -33.478  96.650  1.00  0.00     0.189 HD
ENDROOT
BRANCH   1  12
HETATM   12  N4  UNL     1     -13.773 -34.633  95.931  1.00  0.00    -0.129 N 
ATOM     13  H4  UNL     1     -13.588 -35.452  96.510  1.00  0.00     0.205 HD
BRANCH  12  14
HETATM   14  N3  UNL     1     -13.935 -34.767  94.554  1.00  0.00    -0.260 N 
HETATM   15  C1  UNL     1     -14.433 -36.036  94.096  1.00  0.00     0.201 C 
HETATM   16  N1  UNL     1     -13.570 -36.952  93.834  1.00  0.00    -0.372 N 
HETATM   17  N2  UNL     1     -15.834 -36.203  93.961  1.00  0.00    -0.062 NA
ATOM     18  H12 UNL     1     -13.923 -37.851  93.508  1.00  0.00     0.158 HD
ATOM     19  H11 UNL     1     -12.562 -36.831  93.931  1.00  0.00     0.158 HD
ATOM     20  H3  UNL     1     -13.712 -34.009  93.909  1.00  0.00     0.190 HD
ENDBRANCH  12  14
ENDBRANCH   1  12
TORSDOF 2
ENDMDL
MODEL 2
REMARK VINA RESULT: -6.571735604      0.083      2.178
REMARK  2 active torsions:
REMARK  status: ('A' for Active; 'I' for Inactive)
REMARK       I    between atoms: C1_4  and  N3_6 
REMARK    1  A    between atoms: N3_6  and  N4_8 
REMARK    2  A    between atoms: N4_8  and  C2_10 
ROOT
HETATM    1  C2  UNL     1     -13.910 -33.476  96.452  1.00  0.00     0.705 A 
HETATM    2  N5  UNL     1     -15.124 -32.994  96.770  1.00  0.00    -0.139 N 
ATOM      3  H5  UNL     1     -15.969 -33.539  96.600  1.00  0.00     0.189 HD
HETATM    4  C3  UNL     1     -15.184 -31.769  97.320  1.00  0.00     0.342 A 
HETATM    5  O1  UNL     1     -16.314 -31.271  97.638  1.00  0.00    -0.246 OA
HETATM    6  N6  UNL     1     -14.113 -31.016  97.565  1.00  0.00    -0.260 N 
ATOM      7  H6  UNL     1     -14.208 -30.091  97.984  1.00  0.00     0.175 HD
HETATM    8  C4  UNL     1     -12.907 -31.508  97.244  1.00  0.00     0.342 A 
HETATM    9  O2  UNL     1     -11.860 -30.839  97.454  1.00  0.00    -0.246 OA
HETATM   10  N7  UNL     1     -12.802 -32.727  96.692  1.00  0.00    -0.139 N 
ATOM     11  H7  UNL     1     -11.882 -33.095  96.450  1.00  0.00     0.189 HD
ENDROOT
BRANCH   1  12
HETATM   12  N4  UNL     1     -13.817 -34.651  95.922  1.00  0.00    -0.129 N 
ATOM     13  H4  UNL     1     -13.700 -35.474  96.511  1.00  0.00     0.205 HD
BRANCH  12  14
HETATM   14  N3  UNL     1     -13.877 -34.780  94.536  1.00  0.00    -0.260 N 
HETATM   15  C1  UNL     1     -14.424 -36.014  94.039  1.00  0.00     0.201 C 
HETATM   16  N1  UNL     1     -13.607 -36.989  93.846  1.00  0.00    -0.372 N 
HETATM   17  N2  UNL     1     -15.817 -36.086  93.794  1.00  0.00    -0.062 NA
ATOM     18  H12 UNL     1     -13.994 -37.863  93.493  1.00  0.00     0.158 HD
ATOM     19  H11 UNL     1     -12.604 -36.936  94.023  1.00  0.00     0.158 HD
ATOM     20  H3  UNL     1     -13.553 -34.043  93.911  1.00  0.00     0.190 HD
ENDBRANCH  12  14
ENDBRANCH   1  12
TORSDOF 2
ENDMDL
MODEL 3
REMARK VINA RESULT: -6.126142229      1.052      1.138
REMARK  2 active torsions:
REMARK  status: ('A' for Active; 'I' for Inactive)
REMARK       I    between atoms: C1_4  and  N3_6 
REMARK    1  A    between atoms: N3_6  and  N4_8 
REMARK    2  A    between atoms: N4_8  and  C2_10 
ROOT
HETATM    1  C2  UNL     1     -13.558 -33.115  95.998  1.00  0.00     0.705 A 
HETATM    2  N5  UNL     1     -12.454 -32.418  96.316  1.00  0.00    -0.139 N 
ATOM      3  H5  UNL     1     -11.535 -32.700  95.975  1.00  0.00     0.189 HD
HETATM    4  C3  UNL     1     -12.603 -31.335  97.098  1.00  0.00     0.342 A 
HETATM    5  O1  UNL     1     -11.583 -30.643  97.426  1.00  0.00    -0.246 OA
HETATM    6  N6  UNL     1     -13.778 -30.921  97.570  1.00  0.00    -0.260 N 
ATOM      7  H6  UNL     1     -13.842 -30.093  98.161  1.00  0.00     0.175 HD
HETATM    8  C4  UNL     1     -14.873 -31.624  97.245  1.00  0.00     0.342 A 
HETATM    9  O2  UNL     1     -16.010 -31.278  97.663  1.00  0.00    -0.246 OA
HETATM   10  N7  UNL     1     -14.769 -32.713  96.467  1.00  0.00    -0.139 N 
ATOM     11  H7  UNL     1     -15.606 -33.243  96.224  1.00  0.00     0.189 HD
ENDROOT
BRANCH   1  12
HETATM   12  N4  UNL     1     -13.450 -34.161  95.247  1.00  0.00    -0.129 N 
ATOM     13  H4  UNL     1     -12.536 -34.455  94.902  1.00  0.00     0.205 HD
BRANCH  12  14
HETATM   14  N3  UNL     1     -14.593 -34.883  94.913  1.00  0.00    -0.260 N 
HETATM   15  C1  UNL     1     -14.847 -36.063  95.694  1.00  0.00     0.201 C 
HETATM   16  N1  UNL     1     -14.332 -37.167  95.284  1.00  0.00    -0.372 N 
HETATM   17  N2  UNL     1     -15.643 -35.944  96.860  1.00  0.00    -0.062 NA
ATOM     18  H12 UNL     1     -14.513 -38.005  95.837  1.00  0.00     0.158 HD
ATOM     19  H11 UNL     1     -13.759 -37.253  94.444  1.00  0.00     0.158 HD
ATOM     20  H3  UNL     1     -15.214 -34.591  94.158  1.00  0.00     0.190 HD
ENDBRANCH  12  14
ENDBRANCH   1  12
TORSDOF 2
ENDMDL
MODEL 4
REMARK VINA RESULT: -6.114670106      1.064      2.462
REMARK  2 active torsions:
REMARK  status: ('A' for Active; 'I' for Inactive)
REMARK       I    between atoms: C1_4  and  N3_6 
REMARK    1  A    between atoms: N3_6  and  N4_8 
REMARK    2  A    between atoms: N4_8  and  C2_10 
ROOT
HETATM    1  C2  UNL     1     -13.655 -33.179  96.036  1.00  0.00     0.705 A 
HETATM    2  N5  UNL     1     -14.877 -32.804  96.453  1.00  0.00    -0.139 N 
ATOM      3  H5  UNL     1     -15.710 -33.326  96.183  1.00  0.00     0.189 HD
HETATM    4  C3  UNL     1     -14.962 -31.715  97.237  1.00  0.00     0.342 A 
HETATM    5  O1  UNL     1     -16.100 -31.322  97.656  1.00  0.00    -0.246 OA
HETATM    6  N6  UNL     1     -13.907 -30.997  97.620  1.00  0.00    -0.260 N 
ATOM      7  H6  UNL     1     -14.021 -30.178  98.216  1.00  0.00     0.175 HD
HETATM    8  C4  UNL     1     -12.693 -31.382  97.199  1.00  0.00     0.342 A 
HETATM    9  O2  UNL     1     -11.661 -30.739  97.530  1.00  0.00    -0.246 OA
HETATM   10  N7  UNL     1     -12.564 -32.463  96.413  1.00  0.00    -0.139 N 
ATOM     11  H7  UNL     1     -11.638 -32.749  96.096  1.00  0.00     0.189 HD
ENDROOT
BRANCH   1  12
HETATM   12  N4  UNL     1     -13.539 -34.221  95.281  1.00  0.00    -0.129 N 
ATOM     13  H4  UNL     1     -12.629 -34.484  94.903  1.00  0.00     0.205 HD
BRANCH  12  14
HETATM   14  N3  UNL     1     -14.668 -34.982  94.990  1.00  0.00    -0.260 N 
HETATM   15  C1  UNL     1     -14.847 -36.175  95.772  1.00  0.00     0.201 C 
HETATM   16  N1  UNL     1     -14.310 -37.258  95.333  1.00  0.00    -0.372 N 
HETATM   17  N2  UNL     1     -15.598 -36.091  96.971  1.00  0.00    -0.062 NA
ATOM     18  H12 UNL     1     -14.437 -38.104  95.888  1.00  0.00     0.158 HD
ATOM     19  H11 UNL     1     -13.770 -37.318  94.470  1.00  0.00     0.158 HD
ATOM     20  H3  UNL     1     -15.330 -34.708  94.263  1.00  0.00     0.190 HD
ENDBRANCH  12  14
ENDBRANCH   1  12
TORSDOF 2
ENDMDL
MODEL 5
REMARK VINA RESULT: -6.041696864      1.235      2.694
REMARK  2 active torsions:
REMARK  status: ('A' for Active; 'I' for Inactive)
REMARK       I    between atoms: C1_4  and  N3_6 
REMARK    1  A    between atoms: N3_6  and  N4_8 
REMARK    2  A    between atoms: N4_8  and  C2_10 
ROOT
HETATM    1  C2  UNL     1     -13.822 -33.357  96.456  1.00  0.00     0.705 A 
HETATM    2  N5  UNL     1     -15.031 -32.877  96.796  1.00  0.00    -0.139 N 
ATOM      3  H5  UNL     1     -15.878 -33.424  96.644  1.00  0.00     0.189 HD
HETATM    4  C3  UNL     1     -15.084 -31.650  97.342  1.00  0.00     0.342 A 
HETATM    5  O1  UNL     1     -16.209 -31.153  97.680  1.00  0.00    -0.246 OA
HETATM    6  N6  UNL     1     -14.011 -30.892  97.564  1.00  0.00    -0.260 N 
ATOM      7  H6  UNL     1     -14.101 -29.967  97.981  1.00  0.00     0.175 HD
HETATM    8  C4  UNL     1     -12.810 -31.382  97.222  1.00  0.00     0.342 A 
HETATM    9  O2  UNL     1     -11.761 -30.710  97.408  1.00  0.00    -0.246 OA
HETATM   10  N7  UNL     1     -12.712 -32.604  96.672  1.00  0.00    -0.139 N 
ATOM     11  H7  UNL     1     -11.795 -32.970  96.414  1.00  0.00     0.189 HD
ENDROOT
BRANCH   1  12
HETATM   12  N4  UNL     1     -13.736 -34.533  95.929  1.00  0.00    -0.129 N 
ATOM     13  H4  UNL     1     -13.557 -34.638  94.930  1.00  0.00     0.205 HD
BRANCH  12  14
HETATM   14  N3  UNL     1     -13.890 -35.656  96.738  1.00  0.00    -0.260 N 
HETATM   15  C1  UNL     1     -14.915 -36.584  96.344  1.00  0.00     0.201 C 
HETATM   16  N1  UNL     1     -16.098 -36.393  96.810  1.00  0.00    -0.372 N 
HETATM   17  N2  UNL     1     -14.567 -37.646  95.472  1.00  0.00    -0.062 NA
ATOM     18  H12 UNL     1     -16.825 -37.052  96.531  1.00  0.00     0.158 HD
ATOM     19  H11 UNL     1     -16.348 -35.629  97.437  1.00  0.00     0.158 HD
ATOM     20  H3  UNL     1     -13.309 -35.811  97.562  1.00  0.00     0.190 HD
ENDBRANCH  12  14
ENDBRANCH   1  12
TORSDOF 2
ENDMDL
