MODEL 1
REMARK VINA RESULT: -5.883941997      0.000      0.000
REMARK  5 active torsions:
REMARK  status: ('A' for Active; 'I' for Inactive)
REMARK       I    between atoms: N2_3  and  C2_5 
REMARK       I    between atoms: C2_5  and  N3_7 
REMARK    1  A    between atoms: N3_7  and  N4_9 
REMARK       I    between atoms: N4_9  and  C3_11 
REMARK    2  A    between atoms: C3_11  and  C4_13 
REMARK    3  A    between atoms: C4_13  and  N5_14 
REMARK    4  A    between atoms: C4_13  and  C5_19 
REMARK    5  A    between atoms: N5_14  and  N6_16 
ROOT
HETATM    1  N1  UNL     1     -15.874 -39.504  92.800  1.00  0.00    -0.172 NA
HETATM    2  C1  UNL     1     -15.432 -38.427  92.745  1.00  0.00     0.186 C 
HETATM    3  N2  UNL     1     -14.897 -37.117  92.656  1.00  0.00    -0.244 N 
ATOM      4  H2  UNL     1     -14.728 -36.701  91.740  1.00  0.00     0.183 HD
HETATM    5  C2  UNL     1     -14.598 -36.392  93.812  1.00  0.00     0.347 C 
HETATM    6  O1  UNL     1     -14.807 -36.903  94.942  1.00  0.00    -0.245 OA
HETATM    7  N3  UNL     1     -14.069 -35.094  93.756  1.00  0.00    -0.248 N 
ATOM      8  H3  UNL     1     -13.901 -34.669  92.844  1.00  0.00     0.192 HD
ENDROOT
BRANCH   7   9
HETATM    9  N4  UNL     1     -13.761 -34.356  94.923  1.00  0.00    -0.264 N 
HETATM   10  C3  UNL     1     -14.582 -33.334  95.420  1.00  0.00     0.269 C 
HETATM   11  O2  UNL     1     -15.661 -33.080  94.774  1.00  0.00    -0.269 OA
ATOM     12  H4  UNL     1     -12.902 -34.578  95.426  1.00  0.00     0.190 HD
BRANCH  10  13
HETATM   13  C4  UNL     1     -14.296 -32.537  96.620  1.00  0.00     0.281 C 
BRANCH  13  14
HETATM   14  N5  UNL     1     -15.453 -31.750  97.021  1.00  0.00    -0.320 N 
ATOM     15  H5  UNL     1     -16.140 -32.101  97.688  1.00  0.00     0.181 HD
BRANCH  14  16
HETATM   16  N6  UNL     1     -15.563 -30.520  96.455  1.00  0.00    -0.348 N 
ATOM     17  H62 UNL     1     -14.735 -29.970  96.225  1.00  0.00     0.176 HD
ATOM     18  H61 UNL     1     -16.512 -30.190  96.279  1.00  0.00     0.176 HD
ENDBRANCH  14  16
ENDBRANCH  13  14
BRANCH  13  19
HETATM   19  C5  UNL     1     -13.176 -31.595  96.478  1.00  0.00     0.264 C 
HETATM   20  N7  UNL     1     -12.481 -31.466  95.268  1.00  0.00    -0.060 NA
HETATM   21  O3  UNL     1     -12.847 -30.900  97.495  1.00  0.00    -0.274 OA
ENDBRANCH  13  19
ENDBRANCH  10  13
ENDBRANCH   7   9
TORSDOF 5
ENDMDL
MODEL 2
REMARK VINA RESULT: -5.840473608      1.087      1.087
REMARK  5 active torsions:
REMARK  status: ('A' for Active; 'I' for Inactive)
REMARK       I    between atoms: N2_3  and  C2_5 
REMARK       I    between atoms: C2_5  and  N3_7 
REMARK    1  A    between atoms: N3_7  and  N4_9 
REMARK       I    between atoms: N4_9  and  C3_11 
REMARK    2  A    between atoms: C3_11  and  C4_13 
REMARK    3  A    between atoms: C4_13  and  N5_14 
REMARK    4  A    between atoms: C4_13  and  C5_19 
REMARK    5  A    between atoms: N5_14  and  N6_16 
ROOT
HETATM    1  N1  UNL     1     -15.979 -39.524  92.363  1.00  0.00    -0.172 NA
HETATM    2  C1  UNL     1     -15.862 -38.367  92.430  1.00  0.00     0.186 C 
HETATM    3  N2  UNL     1     -15.734 -36.956  92.494  1.00  0.00    -0.244 N 
ATOM      4  H2  UNL     1     -16.195 -36.374  91.796  1.00  0.00     0.183 HD
HETATM    5  C2  UNL     1     -14.982 -36.358  93.507  1.00  0.00     0.347 C 
HETATM    6  O1  UNL     1     -14.413 -37.074  94.372  1.00  0.00    -0.245 OA
HETATM    7  N3  UNL     1     -14.837 -34.965  93.598  1.00  0.00    -0.248 N 
ATOM      8  H3  UNL     1     -15.298 -34.375  92.905  1.00  0.00     0.192 HD
ENDROOT
BRANCH   7   9
HETATM    9  N4  UNL     1     -14.074 -34.353  94.620  1.00  0.00    -0.264 N 
HETATM   10  C3  UNL     1     -14.522 -33.244  95.351  1.00  0.00     0.269 C 
HETATM   11  O2  UNL     1     -15.687 -32.786  95.067  1.00  0.00    -0.269 OA
ATOM     12  H4  UNL     1     -13.153 -34.736  94.834  1.00  0.00     0.190 HD
BRANCH  10  13
HETATM   13  C4  UNL     1     -13.760 -32.572  96.411  1.00  0.00     0.281 C 
BRANCH  13  14
HETATM   14  N5  UNL     1     -14.585 -31.615  97.131  1.00  0.00    -0.320 N 
ATOM     15  H5  UNL     1     -15.050 -31.855  98.007  1.00  0.00     0.181 HD
BRANCH  14  16
HETATM   16  N6  UNL     1     -14.699 -30.383  96.570  1.00  0.00    -0.348 N 
ATOM     17  H62 UNL     1     -14.226 -30.157  95.695  1.00  0.00     0.176 HD
ATOM     18  H61 UNL     1     -15.279 -29.712  97.074  1.00  0.00     0.176 HD
ENDBRANCH  14  16
ENDBRANCH  13  14
BRANCH  13  19
HETATM   19  C5  UNL     1     -12.576 -31.837  95.942  1.00  0.00     0.264 C 
HETATM   20  N7  UNL     1     -11.749 -31.140  96.834  1.00  0.00    -0.060 NA
HETATM   21  O3  UNL     1     -12.324 -31.845  94.692  1.00  0.00    -0.274 OA
ENDBRANCH  13  19
ENDBRANCH  10  13
ENDBRANCH   7   9
TORSDOF 5
ENDMDL
MODEL 3
REMARK VINA RESULT: -5.833030300      1.532      1.534
REMARK  5 active torsions:
REMARK  status: ('A' for Active; 'I' for Inactive)
REMARK       I    between atoms: N2_3  and  C2_5 
REMARK       I    between atoms: C2_5  and  N3_7 
REMARK    1  A    between atoms: N3_7  and  N4_9 
REMARK       I    between atoms: N4_9  and  C3_11 
REMARK    2  A    between atoms: C3_11  and  C4_13 
REMARK    3  A    between atoms: C4_13  and  N5_14 
REMARK    4  A    between atoms: C4_13  and  C5_19 
REMARK    5  A    between atoms: N5_14  and  N6_16 
ROOT
HETATM    1  N1  UNL     1     -16.841 -38.789  91.551  1.00  0.00    -0.172 NA
HETATM    2  C1  UNL     1     -15.974 -38.251  92.113  1.00  0.00     0.186 C 
HETATM    3  N2  UNL     1     -14.905 -37.614  92.793  1.00  0.00    -0.244 N 
ATOM      4  H2  UNL     1     -14.029 -38.114  92.939  1.00  0.00     0.183 HD
HETATM    5  C2  UNL     1     -15.043 -36.307  93.265  1.00  0.00     0.347 C 
HETATM    6  O1  UNL     1     -16.123 -35.687  93.084  1.00  0.00    -0.245 OA
HETATM    7  N3  UNL     1     -14.004 -35.649  93.940  1.00  0.00    -0.248 N 
ATOM      8  H3  UNL     1     -13.122 -36.142  94.087  1.00  0.00     0.192 HD
ENDROOT
BRANCH   7   9
HETATM    9  N4  UNL     1     -14.138 -34.327  94.423  1.00  0.00    -0.264 N 
HETATM   10  C3  UNL     1     -14.171 -34.011  95.789  1.00  0.00     0.269 C 
HETATM   11  O2  UNL     1     -14.065 -34.983  96.620  1.00  0.00    -0.269 OA
ATOM     12  H4  UNL     1     -14.215 -33.567  93.747  1.00  0.00     0.190 HD
BRANCH  10  13
HETATM   13  C4  UNL     1     -14.320 -32.655  96.334  1.00  0.00     0.281 C 
BRANCH  13  14
HETATM   14  N5  UNL     1     -15.421 -31.946  95.701  1.00  0.00    -0.320 N 
ATOM     15  H5  UNL     1     -15.914 -32.327  94.893  1.00  0.00     0.181 HD
BRANCH  14  16
HETATM   16  N6  UNL     1     -15.753 -30.748  96.248  1.00  0.00    -0.348 N 
ATOM     17  H62 UNL     1     -16.207 -30.694  97.160  1.00  0.00     0.176 HD
ATOM     18  H61 UNL     1     -15.522 -29.923  95.695  1.00  0.00     0.176 HD
ENDBRANCH  14  16
ENDBRANCH  13  14
BRANCH  13  19
HETATM   19  C5  UNL     1     -13.131 -31.802  96.189  1.00  0.00     0.264 C 
HETATM   20  N7  UNL     1     -12.758 -30.894  97.189  1.00  0.00    -0.060 NA
HETATM   21  O3  UNL     1     -12.448 -31.907  95.118  1.00  0.00    -0.274 OA
ENDBRANCH  13  19
ENDBRANCH  10  13
ENDBRANCH   7   9
TORSDOF 5
ENDMDL
MODEL 4
REMARK VINA RESULT: -5.506135370      2.102      6.417
REMARK  5 active torsions:
REMARK  status: ('A' for Active; 'I' for Inactive)
REMARK       I    between atoms: N2_3  and  C2_5 
REMARK       I    between atoms: C2_5  and  N3_7 
REMARK    1  A    between atoms: N3_7  and  N4_9 
REMARK       I    between atoms: N4_9  and  C3_11 
REMARK    2  A    between atoms: C3_11  and  C4_13 
REMARK    3  A    between atoms: C4_13  and  N5_14 
REMARK    4  A    between atoms: C4_13  and  C5_19 
REMARK    5  A    between atoms: N5_14  and  N6_16 
ROOT
HETATM    1  N1  UNL     1     -11.010 -30.985  96.800  1.00  0.00    -0.172 NA
HETATM    2  C1  UNL     1     -11.807 -31.268  95.999  1.00  0.00     0.186 C 
HETATM    3  N2  UNL     1     -12.770 -31.594  95.012  1.00  0.00    -0.244 N 
ATOM      4  H2  UNL     1     -12.909 -30.973  94.215  1.00  0.00     0.183 HD
HETATM    5  C2  UNL     1     -13.532 -32.760  95.121  1.00  0.00     0.347 C 
HETATM    6  O1  UNL     1     -13.361 -33.529  96.103  1.00  0.00    -0.245 OA
HETATM    7  N3  UNL     1     -14.491 -33.111  94.160  1.00  0.00    -0.248 N 
ATOM      8  H3  UNL     1     -14.633 -32.497  93.357  1.00  0.00     0.192 HD
ENDROOT
BRANCH   7   9
HETATM    9  N4  UNL     1     -15.268 -34.288  94.267  1.00  0.00    -0.264 N 
HETATM   10  C3  UNL     1     -14.916 -35.496  93.650  1.00  0.00     0.269 C 
HETATM   11  O2  UNL     1     -13.829 -35.513  92.968  1.00  0.00    -0.269 OA
ATOM     12  H4  UNL     1     -16.126 -34.257  94.819  1.00  0.00     0.190 HD
BRANCH  10  13
HETATM   13  C4  UNL     1     -15.697 -36.738  93.726  1.00  0.00     0.281 C 
BRANCH  13  14
HETATM   14  N5  UNL     1     -15.495 -37.565  92.546  1.00  0.00    -0.320 N 
ATOM     15  H5  UNL     1     -14.605 -38.025  92.355  1.00  0.00     0.181 HD
BRANCH  14  16
HETATM   16  N6  UNL     1     -16.562 -37.688  91.713  1.00  0.00    -0.348 N 
ATOM     17  H62 UNL     1     -17.512 -37.741  92.080  1.00  0.00     0.176 HD
ATOM     18  H61 UNL     1     -16.351 -37.722  90.716  1.00  0.00     0.176 HD
ENDBRANCH  14  16
ENDBRANCH  13  14
BRANCH  13  19
HETATM   19  C5  UNL     1     -17.148 -36.542  93.859  1.00  0.00     0.264 C 
HETATM   20  N7  UNL     1     -17.968 -37.527  94.426  1.00  0.00    -0.060 NA
HETATM   21  O3  UNL     1     -17.645 -35.448  93.435  1.00  0.00    -0.274 OA
ENDBRANCH  13  19
ENDBRANCH  10  13
ENDBRANCH   7   9
TORSDOF 5
ENDMDL
MODEL 5
REMARK VINA RESULT: -5.489605022      1.210      1.210
REMARK  5 active torsions:
REMARK  status: ('A' for Active; 'I' for Inactive)
REMARK       I    between atoms: N2_3  and  C2_5 
REMARK       I    between atoms: C2_5  and  N3_7 
REMARK    1  A    between atoms: N3_7  and  N4_9 
REMARK       I    between atoms: N4_9  and  C3_11 
REMARK    2  A    between atoms: C3_11  and  C4_13 
REMARK    3  A    between atoms: C4_13  and  N5_14 
REMARK    4  A    between atoms: C4_13  and  C5_19 
REMARK    5  A    between atoms: N5_14  and  N6_16 
ROOT
HETATM    1  N1  UNL     1     -16.545 -39.875  95.140  1.00  0.00    -0.172 NA
HETATM    2  C1  UNL     1     -16.078 -38.882  94.748  1.00  0.00     0.186 C 
HETATM    3  N2  UNL     1     -15.516 -37.679  94.250  1.00  0.00    -0.244 N 
ATOM      4  H2  UNL     1     -15.506 -37.504  93.245  1.00  0.00     0.183 HD
HETATM    5  C2  UNL     1     -14.977 -36.733  95.124  1.00  0.00     0.347 C 
HETATM    6  O1  UNL     1     -14.990 -36.947  96.364  1.00  0.00    -0.245 OA
HETATM    7  N3  UNL     1     -14.416 -35.533  94.662  1.00  0.00    -0.248 N 
ATOM      8  H3  UNL     1     -14.405 -35.347  93.658  1.00  0.00     0.192 HD
ENDROOT
BRANCH   7   9
HETATM    9  N4  UNL     1     -13.865 -34.572  95.542  1.00  0.00    -0.264 N 
HETATM   10  C3  UNL     1     -14.586 -33.469  96.019  1.00  0.00     0.269 C 
HETATM   11  O2  UNL     1     -15.804 -33.351  95.632  1.00  0.00    -0.269 OA
ATOM     12  H4  UNL     1     -12.897 -34.687  95.843  1.00  0.00     0.190 HD
BRANCH  10  13
HETATM   13  C4  UNL     1     -14.052 -32.443  96.924  1.00  0.00     0.281 C 
BRANCH  13  14
HETATM   14  N5  UNL     1     -15.076 -31.480  97.298  1.00  0.00    -0.320 N 
ATOM     15  H5  UNL     1     -15.640 -31.591  98.140  1.00  0.00     0.181 HD
BRANCH  14  16
HETATM   16  N6  UNL     1     -15.236 -30.423  96.459  1.00  0.00    -0.348 N 
ATOM     17  H62 UNL     1     -16.081 -30.321  95.896  1.00  0.00     0.176 HD
ATOM     18  H61 UNL     1     -14.468 -29.752  96.431  1.00  0.00     0.176 HD
ENDBRANCH  14  16
ENDBRANCH  13  14
BRANCH  13  19
HETATM   19  C5  UNL     1     -12.926 -31.670  96.378  1.00  0.00     0.264 C 
HETATM   20  N7  UNL     1     -12.502 -31.837  95.053  1.00  0.00    -0.060 NA
HETATM   21  O3  UNL     1     -12.339 -30.843  97.150  1.00  0.00    -0.274 OA
ENDBRANCH  13  19
ENDBRANCH  10  13
ENDBRANCH   7   9
TORSDOF 5
ENDMDL
