MODEL 1
REMARK VINA RESULT: -6.356910440      0.000      0.000
REMARK  5 active torsions:
REMARK  status: ('A' for Active; 'I' for Inactive)
REMARK    1  A    between atoms: N1_1  and  N2_4 
REMARK       I    between atoms: N2_4  and  C1_6 
REMARK    2  A    between atoms: C1_6  and  C2_8 
REMARK    3  A    between atoms: C2_8  and  N3_9 
REMARK    4  A    between atoms: C2_8  and  C5_20 
REMARK    5  A    between atoms: N3_9  and  C3_11 
ROOT
HETATM    1  C2  UNL     1     -15.101 -34.350  95.022  1.00  0.00     0.282 C 
ENDROOT
BRANCH   1   2
HETATM    2  C1  UNL     1     -14.643 -35.731  94.706  1.00  0.00     0.267 C 
HETATM    3  N2  UNL     1     -14.085 -36.063  93.454  1.00  0.00    -0.274 N 
ATOM      4  H2  UNL     1     -13.990 -35.339  92.742  1.00  0.00     0.189 HD
HETATM    5  O1  UNL     1     -14.750 -36.642  95.567  1.00  0.00    -0.269 OA
BRANCH   3   6
HETATM    6  N1  UNL     1     -13.661 -37.354  93.169  1.00  0.00    -0.343 N 
ATOM      7  H12 UNL     1     -14.202 -37.903  92.501  1.00  0.00     0.176 HD
ATOM      8  H11 UNL     1     -12.832 -37.752  93.609  1.00  0.00     0.176 HD
ENDBRANCH   3   6
ENDBRANCH   1   2
BRANCH   1   9
HETATM    9  N3  UNL     1     -14.151 -33.409  94.510  1.00  0.00    -0.203 N 
ATOM     10  H3  UNL     1     -13.908 -33.440  93.519  1.00  0.00     0.179 HD
BRANCH   9  11
HETATM   11  C3  UNL     1     -13.595 -32.527  95.259  1.00  0.00     0.698 A 
HETATM   12  N4  UNL     1     -14.221 -31.564  95.953  1.00  0.00    -0.128 N 
HETATM   13  N5  UNL     1     -13.285 -30.882  96.583  1.00  0.00    -0.237 N 
ATOM     14  H4  UNL     1     -15.226 -31.391  95.985  1.00  0.00     0.205 HD
HETATM   15  C4  UNL     1     -12.062 -31.402  96.298  1.00  0.00     0.353 A 
ATOM     16  H5  UNL     1     -13.454 -30.083  97.195  1.00  0.00     0.192 HD
HETATM   17  O2  UNL     1     -11.005 -30.934  96.773  1.00  0.00    -0.245 OA
HETATM   18  N6  UNL     1     -12.274 -32.430  95.469  1.00  0.00    -0.139 N 
ATOM     19  H6  UNL     1     -11.556 -33.034  95.068  1.00  0.00     0.189 HD
ENDBRANCH   9  11
ENDBRANCH   1   9
BRANCH   1  20
HETATM   20  C5  UNL     1     -16.427 -34.038  94.455  1.00  0.00     0.263 C 
HETATM   21  N7  UNL     1     -17.137 -34.982  93.677  1.00  0.00    -0.060 NA
HETATM   22  O3  UNL     1     -16.923 -32.907  94.673  1.00  0.00    -0.274 OA
ENDBRANCH   1  20
TORSDOF 5
ENDMDL
MODEL 2
REMARK VINA RESULT: -6.343949965      1.330      1.422
REMARK  5 active torsions:
REMARK  status: ('A' for Active; 'I' for Inactive)
REMARK    1  A    between atoms: N1_1  and  N2_4 
REMARK       I    between atoms: N2_4  and  C1_6 
REMARK    2  A    between atoms: C1_6  and  C2_8 
REMARK    3  A    between atoms: C2_8  and  N3_9 
REMARK    4  A    between atoms: C2_8  and  C5_20 
REMARK    5  A    between atoms: N3_9  and  C3_11 
ROOT
HETATM    1  C2  UNL     1     -14.960 -34.909  94.982  1.00  0.00     0.282 C 
ENDROOT
BRANCH   1   2
HETATM    2  C1  UNL     1     -14.927 -36.285  94.416  1.00  0.00     0.267 C 
HETATM    3  N2  UNL     1     -14.616 -36.528  93.062  1.00  0.00    -0.274 N 
ATOM      4  H2  UNL     1     -14.406 -35.740  92.449  1.00  0.00     0.189 HD
HETATM    5  O1  UNL     1     -15.184 -37.273  95.150  1.00  0.00    -0.269 OA
BRANCH   3   6
HETATM    6  N1  UNL     1     -14.589 -37.815  92.544  1.00  0.00    -0.343 N 
ATOM      7  H12 UNL     1     -15.134 -38.537  93.015  1.00  0.00     0.176 HD
ATOM      8  H11 UNL     1     -14.042 -38.045  91.714  1.00  0.00     0.176 HD
ENDBRANCH   3   6
ENDBRANCH   1   2
BRANCH   1   9
HETATM    9  N3  UNL     1     -13.902 -34.136  94.403  1.00  0.00    -0.203 N 
ATOM     10  H3  UNL     1     -13.481 -34.450  93.528  1.00  0.00     0.179 HD
BRANCH   9  11
HETATM   11  C3  UNL     1     -13.468 -33.060  94.950  1.00  0.00     0.698 A 
HETATM   12  N4  UNL     1     -12.807 -32.065  94.338  1.00  0.00    -0.128 N 
HETATM   13  N5  UNL     1     -12.548 -31.158  95.259  1.00  0.00    -0.237 N 
ATOM     14  H4  UNL     1     -12.553 -32.020  93.351  1.00  0.00     0.205 HD
HETATM   15  C4  UNL     1     -13.038 -31.565  96.460  1.00  0.00     0.353 A 
ATOM     16  H5  UNL     1     -12.053 -30.282  95.095  1.00  0.00     0.192 HD
HETATM   17  O2  UNL     1     -12.922 -30.882  97.500  1.00  0.00    -0.245 OA
HETATM   18  N6  UNL     1     -13.610 -32.756  96.249  1.00  0.00    -0.139 N 
ATOM     19  H6  UNL     1     -14.073 -33.331  96.953  1.00  0.00     0.189 HD
ENDBRANCH   9  11
ENDBRANCH   1   9
BRANCH   1  20
HETATM   20  C5  UNL     1     -16.239 -34.214  94.738  1.00  0.00     0.263 C 
HETATM   21  N7  UNL     1     -16.722 -33.225  95.625  1.00  0.00    -0.060 NA
HETATM   22  O3  UNL     1     -16.902 -34.518  93.718  1.00  0.00    -0.274 OA
ENDBRANCH   1  20
TORSDOF 5
ENDMDL
MODEL 3
REMARK VINA RESULT: -6.317976667      1.287      1.287
REMARK  5 active torsions:
REMARK  status: ('A' for Active; 'I' for Inactive)
REMARK    1  A    between atoms: N1_1  and  N2_4 
REMARK       I    between atoms: N2_4  and  C1_6 
REMARK    2  A    between atoms: C1_6  and  C2_8 
REMARK    3  A    between atoms: C2_8  and  N3_9 
REMARK    4  A    between atoms: C2_8  and  C5_20 
REMARK    5  A    between atoms: N3_9  and  C3_11 
ROOT
HETATM    1  C2  UNL     1     -14.935 -34.144  94.868  1.00  0.00     0.282 C 
ENDROOT
BRANCH   1   2
HETATM    2  C1  UNL     1     -14.484 -35.365  94.147  1.00  0.00     0.267 C 
HETATM    3  N2  UNL     1     -14.454 -36.631  94.769  1.00  0.00    -0.274 N 
ATOM      4  H2  UNL     1     -14.750 -36.716  95.742  1.00  0.00     0.189 HD
HETATM    5  O1  UNL     1     -14.112 -35.287  92.948  1.00  0.00    -0.269 OA
BRANCH   3   6
HETATM    6  N1  UNL     1     -14.030 -37.764  94.088  1.00  0.00    -0.343 N 
ATOM      7  H12 UNL     1     -13.941 -38.636  94.609  1.00  0.00     0.176 HD
ATOM      8  H11 UNL     1     -13.810 -37.736  93.092  1.00  0.00     0.176 HD
ENDBRANCH   3   6
ENDBRANCH   1   2
BRANCH   1   9
HETATM    9  N3  UNL     1     -14.174 -33.019  94.412  1.00  0.00    -0.203 N 
ATOM     10  H3  UNL     1     -14.155 -32.806  93.415  1.00  0.00     0.179 HD
BRANCH   9  11
HETATM   11  C3  UNL     1     -13.516 -32.271  95.221  1.00  0.00     0.698 A 
HETATM   12  N4  UNL     1     -14.024 -31.314  96.012  1.00  0.00    -0.128 N 
HETATM   13  N5  UNL     1     -13.011 -30.793  96.676  1.00  0.00    -0.237 N 
ATOM     14  H4  UNL     1     -15.004 -31.041  96.085  1.00  0.00     0.205 HD
HETATM   15  C4  UNL     1     -11.855 -31.410  96.314  1.00  0.00     0.353 A 
ATOM     16  H5  UNL     1     -13.084 -30.039  97.359  1.00  0.00     0.192 HD
HETATM   17  O2  UNL     1     -10.746 -31.099  96.800  1.00  0.00    -0.245 OA
HETATM   18  N6  UNL     1     -12.189 -32.331  95.404  1.00  0.00    -0.139 N 
ATOM     19  H6  UNL     1     -11.546 -32.968  94.933  1.00  0.00     0.189 HD
ENDBRANCH   9  11
ENDBRANCH   1   9
BRANCH   1  20
HETATM   20  C5  UNL     1     -16.368 -33.854  94.671  1.00  0.00     0.263 C 
HETATM   21  N7  UNL     1     -16.966 -32.691  95.210  1.00  0.00    -0.060 NA
HETATM   22  O3  UNL     1     -17.060 -34.664  94.009  1.00  0.00    -0.274 OA
ENDBRANCH   1  20
TORSDOF 5
ENDMDL
MODEL 4
REMARK VINA RESULT: -6.278849800      1.454      1.479
REMARK  5 active torsions:
REMARK  status: ('A' for Active; 'I' for Inactive)
REMARK    1  A    between atoms: N1_1  and  N2_4 
REMARK       I    between atoms: N2_4  and  C1_6 
REMARK    2  A    between atoms: C1_6  and  C2_8 
REMARK    3  A    between atoms: C2_8  and  N3_9 
REMARK    4  A    between atoms: C2_8  and  C5_20 
REMARK    5  A    between atoms: N3_9  and  C3_11 
ROOT
HETATM    1  C2  UNL     1     -15.264 -33.891  94.777  1.00  0.00     0.282 C 
ENDROOT
BRANCH   1   2
HETATM    2  C1  UNL     1     -14.627 -34.891  95.676  1.00  0.00     0.267 C 
HETATM    3  N2  UNL     1     -14.461 -36.239  95.294  1.00  0.00    -0.274 N 
ATOM      4  H2  UNL     1     -14.785 -36.540  94.374  1.00  0.00     0.189 HD
HETATM    5  O1  UNL     1     -14.221 -34.545  96.814  1.00  0.00    -0.269 OA
BRANCH   3   6
HETATM    6  N1  UNL     1     -13.867 -37.164  96.140  1.00  0.00    -0.343 N 
ATOM      7  H12 UNL     1     -13.938 -37.014  97.146  1.00  0.00     0.176 HD
ATOM      8  H11 UNL     1     -13.369 -37.977  95.776  1.00  0.00     0.176 HD
ENDBRANCH   3   6
ENDBRANCH   1   2
BRANCH   1   9
HETATM    9  N3  UNL     1     -14.282 -32.930  94.369  1.00  0.00    -0.203 N 
ATOM     10  H3  UNL     1     -14.112 -32.788  93.373  1.00  0.00     0.179 HD
BRANCH   9  11
HETATM   11  C3  UNL     1     -13.610 -32.243  95.219  1.00  0.00     0.698 A 
HETATM   12  N4  UNL     1     -14.105 -31.354  96.094  1.00  0.00    -0.128 N 
HETATM   13  N5  UNL     1     -13.079 -30.879  96.773  1.00  0.00    -0.237 N 
ATOM     14  H4  UNL     1     -15.085 -31.095  96.210  1.00  0.00     0.205 HD
HETATM   15  C4  UNL     1     -11.929 -31.458  96.339  1.00  0.00     0.353 A 
ATOM     16  H5  UNL     1     -13.141 -30.181  97.515  1.00  0.00     0.192 HD
HETATM   17  O2  UNL     1     -10.811 -31.178  96.823  1.00  0.00    -0.245 OA
HETATM   18  N6  UNL     1     -12.278 -32.308  95.367  1.00  0.00    -0.139 N 
ATOM     19  H6  UNL     1     -11.643 -32.901  94.833  1.00  0.00     0.189 HD
ENDBRANCH   9  11
ENDBRANCH   1   9
BRANCH   1  20
HETATM   20  C5  UNL     1     -15.860 -34.495  93.570  1.00  0.00     0.263 C 
HETATM   21  N7  UNL     1     -17.155 -35.064  93.594  1.00  0.00    -0.060 NA
HETATM   22  O3  UNL     1     -15.194 -34.498  92.508  1.00  0.00    -0.274 OA
ENDBRANCH   1  20
TORSDOF 5
ENDMDL
MODEL 5
REMARK VINA RESULT: -6.135860615      0.933      1.019
REMARK  5 active torsions:
REMARK  status: ('A' for Active; 'I' for Inactive)
REMARK    1  A    between atoms: N1_1  and  N2_4 
REMARK       I    between atoms: N2_4  and  C1_6 
REMARK    2  A    between atoms: C1_6  and  C2_8 
REMARK    3  A    between atoms: C2_8  and  N3_9 
REMARK    4  A    between atoms: C2_8  and  C5_20 
REMARK    5  A    between atoms: N3_9  and  C3_11 
ROOT
HETATM    1  C2  UNL     1     -15.001 -35.279  94.669  1.00  0.00     0.282 C 
ENDROOT
BRANCH   1   2
HETATM    2  C1  UNL     1     -14.405 -36.624  94.438  1.00  0.00     0.267 C 
HETATM    3  N2  UNL     1     -13.649 -36.917  93.284  1.00  0.00    -0.274 N 
ATOM      4  H2  UNL     1     -13.504 -36.189  92.584  1.00  0.00     0.189 HD
HETATM    5  O1  UNL     1     -14.572 -37.539  95.285  1.00  0.00    -0.269 OA
BRANCH   3   6
HETATM    6  N1  UNL     1     -13.099 -38.174  93.078  1.00  0.00    -0.343 N 
ATOM      7  H12 UNL     1     -12.777 -38.700  93.890  1.00  0.00     0.176 HD
ATOM      8  H11 UNL     1     -13.014 -38.573  92.142  1.00  0.00     0.176 HD
ENDBRANCH   3   6
ENDBRANCH   1   2
BRANCH   1   9
HETATM    9  N3  UNL     1     -14.064 -34.273  94.266  1.00  0.00    -0.203 N 
ATOM     10  H3  UNL     1     -13.562 -34.388  93.384  1.00  0.00     0.179 HD
BRANCH   9  11
HETATM   11  C3  UNL     1     -13.836 -33.231  94.979  1.00  0.00     0.698 A 
HETATM   12  N4  UNL     1     -14.694 -32.228  95.220  1.00  0.00    -0.128 N 
HETATM   13  N5  UNL     1     -14.063 -31.367  95.993  1.00  0.00    -0.237 N 
ATOM     14  H4  UNL     1     -15.650 -32.147  94.872  1.00  0.00     0.205 HD
HETATM   15  C4  UNL     1     -12.804 -31.810  96.249  1.00  0.00     0.353 A 
ATOM     16  H5  UNL     1     -14.461 -30.496  96.347  1.00  0.00     0.192 HD
HETATM   17  O2  UNL     1     -11.998 -31.172  96.961  1.00  0.00    -0.245 OA
HETATM   18  N6  UNL     1     -12.678 -32.977  95.608  1.00  0.00    -0.139 N 
ATOM     19  H6  UNL     1     -11.848 -33.570  95.599  1.00  0.00     0.189 HD
ENDBRANCH   9  11
ENDBRANCH   1   9
BRANCH   1  20
HETATM   20  C5  UNL     1     -16.261 -35.071  93.931  1.00  0.00     0.263 C 
HETATM   21  N7  UNL     1     -16.691 -35.980  92.936  1.00  0.00    -0.060 NA
HETATM   22  O3  UNL     1     -16.957 -34.064  94.201  1.00  0.00    -0.274 OA
ENDBRANCH   1  20
TORSDOF 5
ENDMDL
