MODEL 1
REMARK VINA RESULT: -5.623859377      0.000      0.000
REMARK  5 active torsions:
REMARK  status: ('A' for Active; 'I' for Inactive)
REMARK    1  A    between atoms: C1_4  and  N2_5 
REMARK    2  A    between atoms: N2_5  and  C2_7 
REMARK    3  A    between atoms: C2_7  and  N3_8 
REMARK    4  A    between atoms: C3_12  and  N4_13 
REMARK    5  A    between atoms: C3_12  and  C4_17 
ROOT
HETATM    1  C2  UNL     1     -14.630 -33.357  95.384  1.00  0.00     0.378 C 
HETATM    2  C3  UNL     1     -15.332 -34.638  94.935  1.00  0.00     0.350 C 
HETATM    3  N6  UNL     1     -16.386 -34.394  95.879  1.00  0.00    -0.269 N 
ATOM      4  H6  UNL     1     -16.980 -34.993  96.453  1.00  0.00     0.175 HD
HETATM    5  S1  UNL     1     -16.255 -32.726  95.665  1.00  0.00     0.288 S 
HETATM    6  O2  UNL     1     -16.896 -32.144  94.452  1.00  0.00    -0.201 OA
HETATM    7  O3  UNL     1     -16.419 -31.903  96.931  1.00  0.00    -0.201 OA
ENDROOT
BRANCH   1   8
HETATM    8  N2  UNL     1     -13.782 -32.697  94.510  1.00  0.00    -0.336 N 
ATOM      9  H2  UNL     1     -14.041 -32.662  93.524  1.00  0.00     0.163 HD
BRANCH   8  10
HETATM   10  C1  UNL     1     -12.553 -32.055  94.915  1.00  0.00     0.171 C 
HETATM   11  N1  UNL     1     -12.570 -30.846  95.241  1.00  0.00    -0.395 N 
ATOM     12  H12 UNL     1     -13.452 -30.333  95.215  1.00  0.00     0.156 HD
ATOM     13  H11 UNL     1     -11.702 -30.393  95.527  1.00  0.00     0.156 HD
ENDBRANCH   8  10
ENDBRANCH   1   8
BRANCH   1  14
HETATM   14  N3  UNL     1     -13.936 -33.709  96.642  1.00  0.00    -0.031 N 
ATOM     15  H33 UNL     1     -12.974 -33.371  96.646  1.00  0.00     0.278 HD
ATOM     16  H32 UNL     1     -14.294 -33.170  97.430  1.00  0.00     0.278 HD
ATOM     17  H31 UNL     1     -13.982 -34.712  96.823  1.00  0.00     0.278 HD
ENDBRANCH   1  14
BRANCH   2  18
HETATM   18  N4  UNL     1     -14.476 -35.777  95.141  1.00  0.00    -0.038 N 
ATOM     19  H43 UNL     1     -13.496 -35.552  94.969  1.00  0.00     0.278 HD
ATOM     20  H42 UNL     1     -14.403 -36.025  96.127  1.00  0.00     0.278 HD
ATOM     21  H41 UNL     1     -14.791 -36.564  94.573  1.00  0.00     0.278 HD
ENDBRANCH   2  18
BRANCH   2  22
HETATM   22  C4  UNL     1     -15.829 -34.693  93.562  1.00  0.00     0.294 C 
HETATM   23  N5  UNL     1     -17.137 -35.207  93.376  1.00  0.00    -0.058 NA
HETATM   24  O1  UNL     1     -15.173 -34.288  92.579  1.00  0.00    -0.272 OA
ENDBRANCH   2  22
TORSDOF 5
ENDMDL
MODEL 2
REMARK VINA RESULT: -5.483579614      2.393      2.849
REMARK  5 active torsions:
REMARK  status: ('A' for Active; 'I' for Inactive)
REMARK    1  A    between atoms: C1_4  and  N2_5 
REMARK    2  A    between atoms: N2_5  and  C2_7 
REMARK    3  A    between atoms: C2_7  and  N3_8 
REMARK    4  A    between atoms: C3_12  and  N4_13 
REMARK    5  A    between atoms: C3_12  and  C4_17 
ROOT
HETATM    1  C2  UNL     1     -14.368 -33.703  96.030  1.00  0.00     0.378 C 
HETATM    2  C3  UNL     1     -14.823 -33.737  94.571  1.00  0.00     0.350 C 
HETATM    3  N6  UNL     1     -14.351 -35.088  94.453  1.00  0.00    -0.269 N 
ATOM      4  H6  UNL     1     -13.929 -35.631  93.699  1.00  0.00     0.175 HD
HETATM    5  S1  UNL     1     -14.767 -35.423  96.052  1.00  0.00     0.288 S 
HETATM    6  O2  UNL     1     -16.202 -35.707  96.336  1.00  0.00    -0.201 OA
HETATM    7  O3  UNL     1     -13.782 -36.305  96.800  1.00  0.00    -0.201 OA
ENDROOT
BRANCH   1   8
HETATM    8  N2  UNL     1     -14.990 -32.845  96.922  1.00  0.00    -0.336 N 
ATOM      9  H2  UNL     1     -15.841 -33.166  97.383  1.00  0.00     0.163 HD
BRANCH   8  10
HETATM   10  C1  UNL     1     -14.501 -31.522  97.236  1.00  0.00     0.171 C 
HETATM   11  N1  UNL     1     -14.900 -30.544  96.562  1.00  0.00    -0.395 N 
ATOM     12  H12 UNL     1     -15.563 -30.698  95.802  1.00  0.00     0.156 HD
ATOM     13  H11 UNL     1     -14.555 -29.611  96.783  1.00  0.00     0.156 HD
ENDBRANCH   8  10
ENDBRANCH   1   8
BRANCH   1  14
HETATM   14  N3  UNL     1     -12.909 -33.463  95.981  1.00  0.00    -0.031 N 
ATOM     15  H33 UNL     1     -12.694 -32.466  95.993  1.00  0.00     0.278 HD
ATOM     16  H32 UNL     1     -12.457 -33.731  96.854  1.00  0.00     0.278 HD
ATOM     17  H31 UNL     1     -12.483 -33.929  95.180  1.00  0.00     0.278 HD
ENDBRANCH   1  14
BRANCH   2  18
HETATM   18  N4  UNL     1     -14.158 -32.708  93.815  1.00  0.00    -0.038 N 
ATOM     19  H43 UNL     1     -13.339 -32.347  94.303  1.00  0.00     0.278 HD
ATOM     20  H42 UNL     1     -13.689 -33.084  92.991  1.00  0.00     0.278 HD
ATOM     21  H41 UNL     1     -14.814 -31.966  93.573  1.00  0.00     0.278 HD
ENDBRANCH   2  18
BRANCH   2  22
HETATM   22  C4  UNL     1     -16.256 -33.633  94.305  1.00  0.00     0.294 C 
HETATM   23  N5  UNL     1     -16.911 -32.470  94.782  1.00  0.00    -0.058 NA
HETATM   24  O1  UNL     1     -16.899 -34.492  93.666  1.00  0.00    -0.272 OA
ENDBRANCH   2  22
TORSDOF 5
ENDMDL
MODEL 3
REMARK VINA RESULT: -5.331307015      1.814      3.918
REMARK  5 active torsions:
REMARK  status: ('A' for Active; 'I' for Inactive)
REMARK    1  A    between atoms: C1_4  and  N2_5 
REMARK    2  A    between atoms: N2_5  and  C2_7 
REMARK    3  A    between atoms: C2_7  and  N3_8 
REMARK    4  A    between atoms: C3_12  and  N4_13 
REMARK    5  A    between atoms: C3_12  and  C4_17 
ROOT
HETATM    1  C2  UNL     1     -14.631 -34.379  95.331  1.00  0.00     0.378 C 
HETATM    2  C3  UNL     1     -14.069 -32.960  95.249  1.00  0.00     0.350 C 
HETATM    3  N6  UNL     1     -14.975 -32.660  94.176  1.00  0.00    -0.269 N 
ATOM      4  H6  UNL     1     -14.921 -32.077  93.341  1.00  0.00     0.175 HD
HETATM    5  S1  UNL     1     -16.165 -33.653  94.842  1.00  0.00     0.288 S 
HETATM    6  O2  UNL     1     -16.959 -33.098  95.973  1.00  0.00    -0.201 OA
HETATM    7  O3  UNL     1     -16.967 -34.457  93.832  1.00  0.00    -0.201 OA
ENDROOT
BRANCH   1   8
HETATM    8  N2  UNL     1     -14.556 -35.079  96.524  1.00  0.00    -0.336 N 
ATOM      9  H2  UNL     1     -14.504 -34.545  97.392  1.00  0.00     0.163 HD
BRANCH   8  10
HETATM   10  C1  UNL     1     -14.545 -36.521  96.609  1.00  0.00     0.171 C 
HETATM   11  N1  UNL     1     -13.513 -37.104  97.016  1.00  0.00    -0.395 N 
ATOM     12  H12 UNL     1     -12.698 -36.552  97.281  1.00  0.00     0.156 HD
ATOM     13  H11 UNL     1     -13.506 -38.122  97.075  1.00  0.00     0.156 HD
ENDBRANCH   8  10
ENDBRANCH   1   8
BRANCH   1  14
HETATM   14  N3  UNL     1     -13.982 -35.123  94.229  1.00  0.00    -0.031 N 
ATOM     15  H33 UNL     1     -12.966 -35.074  94.293  1.00  0.00     0.278 HD
ATOM     16  H32 UNL     1     -14.097 -36.130  94.340  1.00  0.00     0.278 HD
ATOM     17  H31 UNL     1     -14.317 -34.806  93.320  1.00  0.00     0.278 HD
ENDBRANCH   1  14
BRANCH   2  18
HETATM   18  N4  UNL     1     -12.658 -32.996  94.966  1.00  0.00    -0.038 N 
ATOM     19  H43 UNL     1     -12.098 -32.903  95.813  1.00  0.00     0.278 HD
ATOM     20  H42 UNL     1     -12.350 -33.926  94.683  1.00  0.00     0.278 HD
ATOM     21  H41 UNL     1     -12.417 -32.288  94.271  1.00  0.00     0.278 HD
ENDBRANCH   2  18
BRANCH   2  22
HETATM   22  C4  UNL     1     -14.273 -32.083  96.399  1.00  0.00     0.294 C 
HETATM   23  N5  UNL     1     -14.493 -30.710  96.125  1.00  0.00    -0.058 NA
HETATM   24  O1  UNL     1     -14.290 -32.492  97.579  1.00  0.00    -0.272 OA
ENDBRANCH   2  22
TORSDOF 5
ENDMDL
MODEL 4
REMARK VINA RESULT: -5.033636575      2.084      3.508
REMARK  5 active torsions:
REMARK  status: ('A' for Active; 'I' for Inactive)
REMARK    1  A    between atoms: C1_4  and  N2_5 
REMARK    2  A    between atoms: N2_5  and  C2_7 
REMARK    3  A    between atoms: C2_7  and  N3_8 
REMARK    4  A    between atoms: C3_12  and  N4_13 
REMARK    5  A    between atoms: C3_12  and  C4_17 
ROOT
HETATM    1  C2  UNL     1     -15.714 -33.621  95.106  1.00  0.00     0.378 C 
HETATM    2  C3  UNL     1     -14.235 -33.798  95.451  1.00  0.00     0.350 C 
HETATM    3  N6  UNL     1     -14.151 -34.904  94.540  1.00  0.00    -0.269 N 
ATOM      4  H6  UNL     1     -13.626 -35.778  94.529  1.00  0.00     0.175 HD
HETATM    5  S1  UNL     1     -15.264 -34.187  93.495  1.00  0.00     0.288 S 
HETATM    6  O2  UNL     1     -14.757 -33.113  92.596  1.00  0.00    -0.201 OA
HETATM    7  O3  UNL     1     -16.247 -35.148  92.849  1.00  0.00    -0.201 OA
ENDROOT
BRANCH   1   8
HETATM    8  N2  UNL     1     -16.309 -32.379  95.252  1.00  0.00    -0.336 N 
ATOM      9  H2  UNL     1     -16.326 -31.756  94.445  1.00  0.00     0.163 HD
BRANCH   8  10
HETATM   10  C1  UNL     1     -16.905 -31.916  96.484  1.00  0.00     0.171 C 
HETATM   11  N1  UNL     1     -16.233 -31.196  97.259  1.00  0.00    -0.395 N 
ATOM     12  H12 UNL     1     -15.276 -30.949  97.008  1.00  0.00     0.156 HD
ATOM     13  H11 UNL     1     -16.654 -30.869  98.128  1.00  0.00     0.156 HD
ENDBRANCH   8  10
ENDBRANCH   1   8
BRANCH   1  14
HETATM   14  N3  UNL     1     -16.426 -34.655  95.888  1.00  0.00    -0.031 N 
ATOM     15  H33 UNL     1     -17.320 -34.898  95.460  1.00  0.00     0.278 HD
ATOM     16  H32 UNL     1     -15.967 -35.562  95.816  1.00  0.00     0.278 HD
ATOM     17  H31 UNL     1     -16.542 -34.369  96.860  1.00  0.00     0.278 HD
ENDBRANCH   1  14
BRANCH   2  18
HETATM   18  N4  UNL     1     -14.078 -34.054  96.859  1.00  0.00    -0.038 N 
ATOM     19  H43 UNL     1     -13.110 -33.945  97.159  1.00  0.00     0.278 HD
ATOM     20  H42 UNL     1     -14.497 -33.319  97.429  1.00  0.00     0.278 HD
ATOM     21  H41 UNL     1     -14.447 -34.975  97.095  1.00  0.00     0.278 HD
ENDBRANCH   2  18
BRANCH   2  22
HETATM   22  C4  UNL     1     -13.321 -32.718  95.088  1.00  0.00     0.294 C 
HETATM   23  N5  UNL     1     -13.482 -31.486  95.770  1.00  0.00    -0.058 NA
HETATM   24  O1  UNL     1     -12.409 -32.847  94.244  1.00  0.00    -0.272 OA
ENDBRANCH   2  22
TORSDOF 5
ENDMDL
MODEL 5
REMARK VINA RESULT: -4.984057432      1.922      3.764
REMARK  5 active torsions:
REMARK  status: ('A' for Active; 'I' for Inactive)
REMARK    1  A    between atoms: C1_4  and  N2_5 
REMARK    2  A    between atoms: N2_5  and  C2_7 
REMARK    3  A    between atoms: C2_7  and  N3_8 
REMARK    4  A    between atoms: C3_12  and  N4_13 
REMARK    5  A    between atoms: C3_12  and  C4_17 
ROOT
HETATM    1  C2  UNL     1     -14.498 -33.893  95.268  1.00  0.00     0.378 C 
HETATM    2  C3  UNL     1     -15.075 -32.492  95.060  1.00  0.00     0.350 C 
HETATM    3  N6  UNL     1     -15.001 -32.669  93.638  1.00  0.00    -0.269 N 
ATOM      4  H6  UNL     1     -14.813 -32.047  92.852  1.00  0.00     0.175 HD
HETATM    5  S1  UNL     1     -15.347 -34.314  93.777  1.00  0.00     0.288 S 
HETATM    6  O2  UNL     1     -16.773 -34.694  93.980  1.00  0.00    -0.201 OA
HETATM    7  O3  UNL     1     -14.575 -35.214  92.827  1.00  0.00    -0.201 OA
ENDROOT
BRANCH   1   8
HETATM    8  N2  UNL     1     -14.780 -34.585  96.434  1.00  0.00    -0.336 N 
ATOM      9  H2  UNL     1     -14.986 -34.046  97.275  1.00  0.00     0.163 HD
BRANCH   8  10
HETATM   10  C1  UNL     1     -14.798 -36.027  96.526  1.00  0.00     0.171 C 
HETATM   11  N1  UNL     1     -13.748 -36.635  96.834  1.00  0.00    -0.395 N 
ATOM     12  H12 UNL     1     -12.896 -36.104  97.015  1.00  0.00     0.156 HD
ATOM     13  H11 UNL     1     -13.760 -37.653  96.899  1.00  0.00     0.156 HD
ENDBRANCH   8  10
ENDBRANCH   1   8
BRANCH   1  14
HETATM   14  N3  UNL     1     -13.040 -33.751  95.066  1.00  0.00    -0.031 N 
ATOM     15  H33 UNL     1     -12.705 -34.357  94.317  1.00  0.00     0.278 HD
ATOM     16  H32 UNL     1     -12.805 -32.849  94.653  1.00  0.00     0.278 HD
ATOM     17  H31 UNL     1     -12.528 -33.909  95.934  1.00  0.00     0.278 HD
ENDBRANCH   1  14
BRANCH   2  18
HETATM   18  N4  UNL     1     -14.226 -31.505  95.675  1.00  0.00    -0.038 N 
ATOM     19  H43 UNL     1     -13.481 -31.202  95.049  1.00  0.00     0.278 HD
ATOM     20  H42 UNL     1     -14.703 -30.611  95.787  1.00  0.00     0.278 HD
ATOM     21  H41 UNL     1     -13.861 -31.855  96.561  1.00  0.00     0.278 HD
ENDBRANCH   2  18
BRANCH   2  22
HETATM   22  C4  UNL     1     -16.444 -32.250  95.511  1.00  0.00     0.294 C 
HETATM   23  N5  UNL     1     -17.230 -31.372  94.723  1.00  0.00    -0.058 NA
HETATM   24  O1  UNL     1     -16.940 -32.795  96.519  1.00  0.00    -0.272 OA
ENDBRANCH   2  22
TORSDOF 5
ENDMDL
