MODEL 1
REMARK VINA RESULT: -6.813745388      0.000      0.000
REMARK  11 active torsions:
REMARK  status: ('A' for Active; 'I' for Inactive)
REMARK    1  A    between atoms: C2_2  and  C3_3 
REMARK    2  A    between atoms: C3_3  and  C4_4 
REMARK    3  A    between atoms: C13_14  and  O1_15 
REMARK    4  A    between atoms: C14_17  and  O2_18 
REMARK    5  A    between atoms: C16_21  and  O3_22 
REMARK    6  A    between atoms: C18_25  and  O4_26 
REMARK    7  A    between atoms: C19_29  and  C20_30 
REMARK    8  A    between atoms: C20_30  and  C21_31 
REMARK    9  A    between atoms: C24_34  and  C25_35 
REMARK   10  A    between atoms: C25_35  and  C27_37 
REMARK   11  A    between atoms: C27_37  and  O6_39 
ROOT
HETATM    1  C4  UNL     1      13.759  50.908  83.254  1.00  0.00     0.064 C 
HETATM    2  N1  UNL     1      12.842  51.059  84.254  1.00  0.00    -0.355 N 
HETATM    3  C5  UNL     1      11.800  50.117  84.448  1.00  0.00     0.099 C 
HETATM    4  C6  UNL     1      11.542  50.165  85.914  1.00  0.00     0.037 C 
HETATM    5  C7  UNL     1      11.032  51.337  86.590  1.00  0.00    -0.020 A 
HETATM    6  C8  UNL     1      11.110  51.038  88.047  1.00  0.00     0.018 C 
HETATM    7  C9  UNL     1      11.290  52.482  88.575  1.00  0.00     0.016 C 
HETATM    8  C10 UNL     1       9.847  52.775  88.061  1.00  0.00     0.013 C 
HETATM    9  C11 UNL     1      10.338  52.574  86.642  1.00  0.00     0.011 A 
HETATM   10  C12 UNL     1      10.000  51.672  85.731  1.00  0.00     0.038 A 
HETATM   11  C13 UNL     1       8.813  50.886  85.339  1.00  0.00     0.160 C 
HETATM   12  C14 UNL     1       9.302  50.125  84.127  1.00  0.00     0.157 C 
HETATM   13  C15 UNL     1      10.628  50.715  83.729  1.00  0.00     0.081 C 
HETATM   14  C16 UNL     1      10.716  52.088  84.412  1.00  0.00     0.120 C 
HETATM   15  C17 UNL     1      12.173  52.308  84.497  1.00  0.00     0.080 C 
HETATM   16  C18 UNL     1      12.856  53.092  85.520  1.00  0.00     0.307 C 
HETATM   17  O5  UNL     1      13.000  52.728  86.801  1.00  0.00    -0.350 OA
HETATM   18  C19 UNL     1      12.303  53.259  87.823  1.00  0.00     0.129 C 
ENDROOT
BRANCH  18  19
HETATM   19  C20 UNL     1      13.385  53.667  88.855  1.00  0.00     0.037 C 
BRANCH  19  20
HETATM   20  C21 UNL     1      12.968  54.723  89.786  1.00  0.00    -0.008 C 
HETATM   21  C22 UNL     1      13.979  55.820  90.075  1.00  0.00     0.005 C 
HETATM   22  C23 UNL     1      14.479  54.877  91.186  1.00  0.00     0.006 C 
HETATM   23  C24 UNL     1      13.023  54.451  91.263  1.00  0.00    -0.004 C 
BRANCH  23  24
HETATM   24  C25 UNL     1      12.730  53.127  91.805  1.00  0.00     0.014 C 
HETATM   25  C26 UNL     1      13.736  52.450  92.657  1.00  0.00     0.013 C 
BRANCH  24  26
HETATM   26  C27 UNL     1      11.436  53.233  92.627  1.00  0.00     0.118 C 
HETATM   27  C28 UNL     1      11.546  54.276  93.687  1.00  0.00     0.040 C 
BRANCH  26  28
HETATM   28  O6  UNL     1      10.381  53.563  91.776  1.00  0.00    -0.396 OA
ATOM     29  H6  UNL     1       9.578  53.184  92.113  1.00  0.00     0.210 HD
ENDBRANCH  26  28
ENDBRANCH  24  26
ENDBRANCH  23  24
ENDBRANCH  19  20
ENDBRANCH  18  19
BRANCH  16  30
HETATM   30  O4  UNL     1      14.196  53.213  85.043  1.00  0.00    -0.366 OA
ATOM     31  H4  UNL     1      14.479  54.069  85.344  1.00  0.00     0.213 HD
ENDBRANCH  16  30
BRANCH  14  32
HETATM   32  O3  UNL     1       9.994  53.050  83.743  1.00  0.00    -0.382 OA
ATOM     33  H3  UNL     1       9.771  52.759  82.866  1.00  0.00     0.211 HD
ENDBRANCH  14  32
BRANCH  11  34
HETATM   34  O1  UNL     1       7.686  51.615  85.044  1.00  0.00    -0.392 OA
ATOM     35  H1  UNL     1       6.951  51.118  84.705  1.00  0.00     0.210 HD
ENDBRANCH  11  34
BRANCH   1  36
HETATM   36  C3  UNL     1      13.385  51.029  81.815  1.00  0.00     0.044 C 
BRANCH  36  37
HETATM   37  C2  UNL     1      14.638  50.999  80.950  1.00  0.00     0.001 C 
HETATM   38  C1  UNL     1      15.821  51.656  81.577  1.00  0.00     0.005 C 
ENDBRANCH  36  37
ENDBRANCH   1  36
BRANCH  12  39
HETATM   39  O2  UNL     1       9.330  48.763  84.319  1.00  0.00    -0.392 OA
ATOM     40  H2  UNL     1      10.205  48.425  84.473  1.00  0.00     0.210 HD
ENDBRANCH  12  39
TORSDOF 11
ENDMDL
MODEL 2
REMARK VINA RESULT: -6.498946108      5.561      8.475
REMARK  11 active torsions:
REMARK  status: ('A' for Active; 'I' for Inactive)
REMARK    1  A    between atoms: C2_2  and  C3_3 
REMARK    2  A    between atoms: C3_3  and  C4_4 
REMARK    3  A    between atoms: C13_14  and  O1_15 
REMARK    4  A    between atoms: C14_17  and  O2_18 
REMARK    5  A    between atoms: C16_21  and  O3_22 
REMARK    6  A    between atoms: C18_25  and  O4_26 
REMARK    7  A    between atoms: C19_29  and  C20_30 
REMARK    8  A    between atoms: C20_30  and  C21_31 
REMARK    9  A    between atoms: C24_34  and  C25_35 
REMARK   10  A    between atoms: C25_35  and  C27_37 
REMARK   11  A    between atoms: C27_37  and  O6_39 
ROOT
HETATM    1  C4  UNL     1      12.427  54.111  91.541  1.00  0.00     0.064 C 
HETATM    2  N1  UNL     1      12.418  53.207  92.565  1.00  0.00    -0.355 N 
HETATM    3  C5  UNL     1      13.495  52.306  92.763  1.00  0.00     0.099 C 
HETATM    4  C6  UNL     1      13.507  52.082  94.234  1.00  0.00     0.037 C 
HETATM    5  C7  UNL     1      12.427  51.436  94.947  1.00  0.00    -0.020 A 
HETATM    6  C8  UNL     1      12.739  51.590  96.395  1.00  0.00     0.018 C 
HETATM    7  C9  UNL     1      11.292  51.589  96.948  1.00  0.00     0.016 C 
HETATM    8  C10 UNL     1      11.187  50.107  96.473  1.00  0.00     0.013 C 
HETATM    9  C11 UNL     1      11.296  50.585  95.040  1.00  0.00     0.011 A 
HETATM   10  C12 UNL     1      12.218  50.347  94.119  1.00  0.00     0.038 A 
HETATM   11  C13 UNL     1      13.149  49.267  93.737  1.00  0.00     0.160 C 
HETATM   12  C14 UNL     1      13.817  49.822  92.499  1.00  0.00     0.157 C 
HETATM   13  C15 UNL     1      13.047  51.047  92.083  1.00  0.00     0.081 C 
HETATM   14  C16 UNL     1      11.687  50.968  92.792  1.00  0.00     0.120 C 
HETATM   15  C17 UNL     1      11.275  52.384  92.848  1.00  0.00     0.080 C 
HETATM   16  C18 UNL     1      10.424  52.981  93.872  1.00  0.00     0.307 C 
HETATM   17  O5  UNL     1      10.788  53.205  95.142  1.00  0.00    -0.350 OA
HETATM   18  C19 UNL     1      10.373  52.469  96.190  1.00  0.00     0.129 C 
ENDROOT
BRANCH  18  19
HETATM   19  C20 UNL     1       9.842  53.512  97.205  1.00  0.00     0.037 C 
BRANCH  19  20
HETATM   20  C21 UNL     1      10.843  54.490  97.650  1.00  0.00    -0.008 C 
HETATM   21  C22 UNL     1      10.717  54.999  99.077  1.00  0.00     0.005 C 
HETATM   22  C23 UNL     1       9.782  56.060  98.470  1.00  0.00     0.006 C 
HETATM   23  C24 UNL     1      10.680  55.930  97.252  1.00  0.00    -0.004 C 
BRANCH  23  24
HETATM   24  C25 UNL     1      10.123  56.302  95.954  1.00  0.00     0.014 C 
HETATM   25  C26 UNL     1       8.978  57.241  95.895  1.00  0.00     0.013 C 
BRANCH  24  26
HETATM   26  C27 UNL     1      11.257  56.915  95.117  1.00  0.00     0.118 C 
HETATM   27  C28 UNL     1      11.978  57.981  95.870  1.00  0.00     0.040 C 
BRANCH  26  28
HETATM   28  O6  UNL     1      12.164  55.912  94.774  1.00  0.00    -0.396 OA
ATOM     29  H6  UNL     1      12.981  56.059  95.236  1.00  0.00     0.210 HD
ENDBRANCH  26  28
ENDBRANCH  24  26
ENDBRANCH  23  24
ENDBRANCH  19  20
ENDBRANCH  18  19
BRANCH  16  30
HETATM   30  O4  UNL     1      10.116  54.281  93.367  1.00  0.00    -0.366 OA
ATOM     31  H4  UNL     1      10.962  54.699  93.253  1.00  0.00     0.213 HD
ENDBRANCH  16  30
BRANCH  14  32
HETATM   32  O3  UNL     1      10.819  50.106  92.159  1.00  0.00    -0.382 OA
ATOM     33  H3  UNL     1       9.934  50.452  92.164  1.00  0.00     0.211 HD
ENDBRANCH  14  32
BRANCH  11  34
HETATM   34  O1  UNL     1      12.574  48.045  93.483  1.00  0.00    -0.392 OA
ATOM     35  H1  UNL     1      12.454  47.829  92.566  1.00  0.00     0.210 HD
ENDBRANCH  11  34
BRANCH   1  36
HETATM   36  C3  UNL     1      12.333  53.688  90.114  1.00  0.00     0.044 C 
BRANCH  36  37
HETATM   37  C2  UNL     1      13.477  54.298  89.316  1.00  0.00     0.001 C 
HETATM   38  C1  UNL     1      14.577  54.847  90.161  1.00  0.00     0.005 C 
ENDBRANCH  36  37
ENDBRANCH   1  36
BRANCH  12  39
HETATM   39  O2  UNL     1      15.166  50.037  92.662  1.00  0.00    -0.392 OA
ATOM     40  H2  UNL     1      15.704  49.382  92.232  1.00  0.00     0.210 HD
ENDBRANCH  12  39
TORSDOF 11
ENDMDL
MODEL 3
REMARK VINA RESULT: -6.488981848      1.642      2.586
REMARK  11 active torsions:
REMARK  status: ('A' for Active; 'I' for Inactive)
REMARK    1  A    between atoms: C2_2  and  C3_3 
REMARK    2  A    between atoms: C3_3  and  C4_4 
REMARK    3  A    between atoms: C13_14  and  O1_15 
REMARK    4  A    between atoms: C14_17  and  O2_18 
REMARK    5  A    between atoms: C16_21  and  O3_22 
REMARK    6  A    between atoms: C18_25  and  O4_26 
REMARK    7  A    between atoms: C19_29  and  C20_30 
REMARK    8  A    between atoms: C20_30  and  C21_31 
REMARK    9  A    between atoms: C24_34  and  C25_35 
REMARK   10  A    between atoms: C25_35  and  C27_37 
REMARK   11  A    between atoms: C27_37  and  O6_39 
ROOT
HETATM    1  C4  UNL     1      13.418  50.645  83.401  1.00  0.00     0.064 C 
HETATM    2  N1  UNL     1      12.154  50.733  83.910  1.00  0.00    -0.355 N 
HETATM    3  C5  UNL     1      11.147  49.800  83.551  1.00  0.00     0.099 C 
HETATM    4  C6  UNL     1      10.275  49.734  84.756  1.00  0.00     0.037 C 
HETATM    5  C7  UNL     1       9.502  50.858  85.237  1.00  0.00    -0.020 A 
HETATM    6  C8  UNL     1       8.941  50.438  86.552  1.00  0.00     0.018 C 
HETATM    7  C9  UNL     1       8.850  51.831  87.224  1.00  0.00     0.016 C 
HETATM    8  C10 UNL     1       7.771  52.195  86.158  1.00  0.00     0.013 C 
HETATM    9  C11 UNL     1       8.835  52.100  85.084  1.00  0.00     0.011 A 
HETATM   10  C12 UNL     1       8.942  51.284  84.046  1.00  0.00     0.038 A 
HETATM   11  C13 UNL     1       8.059  50.558  83.111  1.00  0.00     0.160 C 
HETATM   12  C14 UNL     1       9.039  49.888  82.175  1.00  0.00     0.157 C 
HETATM   13  C15 UNL     1      10.397  50.480  82.446  1.00  0.00     0.081 C 
HETATM   14  C16 UNL     1      10.155  51.791  83.210  1.00  0.00     0.120 C 
HETATM   15  C17 UNL     1      11.426  51.972  83.939  1.00  0.00     0.080 C 
HETATM   16  C18 UNL     1      11.581  52.654  85.219  1.00  0.00     0.307 C 
HETATM   17  O5  UNL     1      11.158  52.184  86.400  1.00  0.00    -0.350 OA
HETATM   18  C19 UNL     1      10.076  52.645  87.055  1.00  0.00     0.129 C 
ENDROOT
BRANCH  18  19
HETATM   19  C20 UNL     1      10.593  52.943  88.485  1.00  0.00     0.037 C 
BRANCH  19  20
HETATM   20  C21 UNL     1      11.873  52.302  88.814  1.00  0.00    -0.008 C 
HETATM   21  C22 UNL     1      11.807  51.025  89.637  1.00  0.00     0.005 C 
HETATM   22  C23 UNL     1      11.837  51.971  90.852  1.00  0.00     0.006 C 
HETATM   23  C24 UNL     1      12.688  52.849  89.951  1.00  0.00    -0.004 C 
BRANCH  23  24
HETATM   24  C25 UNL     1      12.730  54.280  90.239  1.00  0.00     0.014 C 
HETATM   25  C26 UNL     1      12.993  54.738  91.623  1.00  0.00     0.013 C 
BRANCH  24  26
HETATM   26  C27 UNL     1      13.808  54.907  89.339  1.00  0.00     0.118 C 
HETATM   27  C28 UNL     1      15.165  54.780  89.944  1.00  0.00     0.040 C 
BRANCH  26  28
HETATM   28  O6  UNL     1      13.802  54.262  88.102  1.00  0.00    -0.396 OA
ATOM     29  H6  UNL     1      13.681  54.907  87.416  1.00  0.00     0.210 HD
ENDBRANCH  26  28
ENDBRANCH  24  26
ENDBRANCH  23  24
ENDBRANCH  19  20
ENDBRANCH  18  19
BRANCH  16  30
HETATM   30  O4  UNL     1      12.993  52.786  85.385  1.00  0.00    -0.366 OA
ATOM     31  H4  UNL     1      13.209  53.600  84.946  1.00  0.00     0.213 HD
ENDBRANCH  16  30
BRANCH  14  32
HETATM   32  O3  UNL     1       9.782  52.819  82.375  1.00  0.00    -0.382 OA
ATOM     33  H3  UNL     1       8.932  52.648  81.985  1.00  0.00     0.211 HD
ENDBRANCH  14  32
BRANCH  11  34
HETATM   34  O1  UNL     1       7.161  51.333  82.417  1.00  0.00    -0.392 OA
ATOM     35  H1  UNL     1       7.260  51.331  81.472  1.00  0.00     0.210 HD
ENDBRANCH  11  34
BRANCH   1  36
HETATM   36  C3  UNL     1      13.707  50.890  81.958  1.00  0.00     0.044 C 
BRANCH  36  37
HETATM   37  C2  UNL     1      15.187  51.191  81.770  1.00  0.00     0.001 C 
HETATM   38  C1  UNL     1      15.788  51.983  82.883  1.00  0.00     0.005 C 
ENDBRANCH  36  37
ENDBRANCH   1  36
BRANCH  12  39
HETATM   39  O2  UNL     1       9.003  48.515  82.246  1.00  0.00    -0.392 OA
ATOM     40  H2  UNL     1       9.390  48.090  81.489  1.00  0.00     0.210 HD
ENDBRANCH  12  39
TORSDOF 11
ENDMDL
MODEL 4
REMARK VINA RESULT: -6.462793463      3.972      6.981
REMARK  11 active torsions:
REMARK  status: ('A' for Active; 'I' for Inactive)
REMARK    1  A    between atoms: C2_2  and  C3_3 
REMARK    2  A    between atoms: C3_3  and  C4_4 
REMARK    3  A    between atoms: C13_14  and  O1_15 
REMARK    4  A    between atoms: C14_17  and  O2_18 
REMARK    5  A    between atoms: C16_21  and  O3_22 
REMARK    6  A    between atoms: C18_25  and  O4_26 
REMARK    7  A    between atoms: C19_29  and  C20_30 
REMARK    8  A    between atoms: C20_30  and  C21_31 
REMARK    9  A    between atoms: C24_34  and  C25_35 
REMARK   10  A    between atoms: C25_35  and  C27_37 
REMARK   11  A    between atoms: C27_37  and  O6_39 
ROOT
HETATM    1  C4  UNL     1       7.516  54.033  90.195  1.00  0.00     0.064 C 
HETATM    2  N1  UNL     1       8.816  53.755  90.507  1.00  0.00    -0.355 N 
HETATM    3  C5  UNL     1       9.817  53.686  89.504  1.00  0.00     0.099 C 
HETATM    4  C6  UNL     1      11.056  54.120  90.204  1.00  0.00     0.037 C 
HETATM    5  C7  UNL     1      11.654  53.377  91.292  1.00  0.00    -0.020 A 
HETATM    6  C8  UNL     1      12.741  54.240  91.832  1.00  0.00     0.018 C 
HETATM    7  C9  UNL     1      12.729  53.743  93.299  1.00  0.00     0.016 C 
HETATM    8  C10 UNL     1      13.220  52.363  92.759  1.00  0.00     0.013 C 
HETATM    9  C11 UNL     1      11.894  52.199  92.045  1.00  0.00     0.011 A 
HETATM   10  C12 UNL     1      11.617  52.102  90.752  1.00  0.00     0.038 A 
HETATM   11  C13 UNL     1      12.246  51.587  89.520  1.00  0.00     0.160 C 
HETATM   12  C14 UNL     1      11.185  51.840  88.472  1.00  0.00     0.157 C 
HETATM   13  C15 UNL     1       9.921  52.223  89.194  1.00  0.00     0.081 C 
HETATM   14  C16 UNL     1      10.098  51.771  90.651  1.00  0.00     0.120 C 
HETATM   15  C17 UNL     1       9.180  52.670  91.377  1.00  0.00     0.080 C 
HETATM   16  C18 UNL     1       9.342  53.119  92.755  1.00  0.00     0.307 C 
HETATM   17  O5  UNL     1      10.268  53.989  93.178  1.00  0.00    -0.350 OA
HETATM   18  C19 UNL     1      11.368  53.647  93.875  1.00  0.00     0.129 C 
ENDROOT
BRANCH  18  19
HETATM   19  C20 UNL     1      11.354  54.592  95.103  1.00  0.00     0.037 C 
BRANCH  19  20
HETATM   20  C21 UNL     1      10.876  55.951  94.815  1.00  0.00    -0.008 C 
HETATM   21  C22 UNL     1      11.775  57.099  95.248  1.00  0.00     0.005 C 
HETATM   22  C23 UNL     1      11.028  56.995  96.591  1.00  0.00     0.006 C 
HETATM   23  C24 UNL     1       9.854  56.569  95.727  1.00  0.00    -0.004 C 
BRANCH  23  24
HETATM   24  C25 UNL     1       8.806  55.766  96.352  1.00  0.00     0.014 C 
HETATM   25  C26 UNL     1       8.742  55.675  97.829  1.00  0.00     0.013 C 
BRANCH  24  26
HETATM   26  C27 UNL     1       7.451  56.308  95.870  1.00  0.00     0.118 C 
HETATM   27  C28 UNL     1       7.468  57.794  95.750  1.00  0.00     0.040 C 
BRANCH  26  28
HETATM   28  O6  UNL     1       7.157  55.757  94.622  1.00  0.00    -0.396 OA
ATOM     29  H6  UNL     1       7.146  56.449  93.972  1.00  0.00     0.210 HD
ENDBRANCH  26  28
ENDBRANCH  24  26
ENDBRANCH  23  24
ENDBRANCH  19  20
ENDBRANCH  18  19
BRANCH  16  30
HETATM   30  O4  UNL     1       8.102  53.752  93.073  1.00  0.00    -0.366 OA
ATOM     31  H4  UNL     1       8.271  54.680  92.953  1.00  0.00     0.213 HD
ENDBRANCH  16  30
BRANCH  14  32
HETATM   32  O3  UNL     1       9.878  50.421  90.809  1.00  0.00    -0.382 OA
ATOM     33  H3  UNL     1       9.883  49.976  89.969  1.00  0.00     0.211 HD
ENDBRANCH  14  32
BRANCH  11  34
HETATM   34  O1  UNL     1      12.609  50.262  89.546  1.00  0.00    -0.392 OA
ATOM     35  H1  UNL     1      13.465  50.077  89.917  1.00  0.00     0.210 HD
ENDBRANCH  11  34
BRANCH   1  36
HETATM   36  C3  UNL     1       6.669  53.082  89.420  1.00  0.00     0.044 C 
BRANCH  36  37
HETATM   37  C2  UNL     1       6.432  53.623  88.017  1.00  0.00     0.001 C 
HETATM   38  C1  UNL     1       7.023  52.781  86.937  1.00  0.00     0.005 C 
ENDBRANCH  36  37
ENDBRANCH   1  36
BRANCH  12  39
HETATM   39  O2  UNL     1      11.578  52.745  87.513  1.00  0.00    -0.392 OA
ATOM     40  H2  UNL     1      11.012  52.751  86.750  1.00  0.00     0.210 HD
ENDBRANCH  12  39
TORSDOF 11
ENDMDL
MODEL 5
REMARK VINA RESULT: -6.271763276      2.810      8.439
REMARK  11 active torsions:
REMARK  status: ('A' for Active; 'I' for Inactive)
REMARK    1  A    between atoms: C2_2  and  C3_3 
REMARK    2  A    between atoms: C3_3  and  C4_4 
REMARK    3  A    between atoms: C13_14  and  O1_15 
REMARK    4  A    between atoms: C14_17  and  O2_18 
REMARK    5  A    between atoms: C16_21  and  O3_22 
REMARK    6  A    between atoms: C18_25  and  O4_26 
REMARK    7  A    between atoms: C19_29  and  C20_30 
REMARK    8  A    between atoms: C20_30  and  C21_31 
REMARK    9  A    between atoms: C24_34  and  C25_35 
REMARK   10  A    between atoms: C25_35  and  C27_37 
REMARK   11  A    between atoms: C27_37  and  O6_39 
ROOT
HETATM    1  C4  UNL     1      14.494  50.254  93.280  1.00  0.00     0.064 C 
HETATM    2  N1  UNL     1      13.669  51.199  92.739  1.00  0.00    -0.355 N 
HETATM    3  C5  UNL     1      13.664  52.534  93.215  1.00  0.00     0.099 C 
HETATM    4  C6  UNL     1      13.300  53.340  92.018  1.00  0.00     0.037 C 
HETATM    5  C7  UNL     1      12.018  53.241  91.356  1.00  0.00    -0.020 A 
HETATM    6  C8  UNL     1      12.135  54.048  90.109  1.00  0.00     0.018 C 
HETATM    7  C9  UNL     1      11.121  53.274  89.232  1.00  0.00     0.016 C 
HETATM    8  C10 UNL     1      10.008  53.766  90.208  1.00  0.00     0.013 C 
HETATM    9  C11 UNL     1      10.635  52.930  91.305  1.00  0.00     0.011 A 
HETATM   10  C12 UNL     1      11.181  53.289  92.457  1.00  0.00     0.038 A 
HETATM   11  C13 UNL     1      11.028  54.348  93.474  1.00  0.00     0.160 C 
HETATM   12  C14 UNL     1      12.048  53.959  94.520  1.00  0.00     0.157 C 
HETATM   13  C15 UNL     1      12.525  52.570  94.189  1.00  0.00     0.081 C 
HETATM   14  C16 UNL     1      11.486  51.970  93.230  1.00  0.00     0.120 C 
HETATM   15  C17 UNL     1      12.272  50.952  92.506  1.00  0.00     0.080 C 
HETATM   16  C18 UNL     1      12.028  50.501  91.140  1.00  0.00     0.307 C 
HETATM   17  O5  UNL     1      12.255  51.226  90.038  1.00  0.00    -0.350 OA
HETATM   18  C19 UNL     1      11.290  51.804  89.298  1.00  0.00     0.129 C 
ENDROOT
BRANCH  18  19
HETATM   19  C20 UNL     1      11.587  51.340  87.850  1.00  0.00     0.037 C 
BRANCH  19  20
HETATM   20  C21 UNL     1      10.918  52.132  86.809  1.00  0.00    -0.008 C 
HETATM   21  C22 UNL     1       9.601  51.591  86.277  1.00  0.00     0.005 C 
HETATM   22  C23 UNL     1      10.481  50.813  85.282  1.00  0.00     0.006 C 
HETATM   23  C24 UNL     1      11.398  52.019  85.390  1.00  0.00    -0.004 C 
BRANCH  23  24
HETATM   24  C25 UNL     1      12.812  51.828  85.077  1.00  0.00     0.014 C 
HETATM   25  C26 UNL     1      13.193  51.044  83.879  1.00  0.00     0.013 C 
BRANCH  24  26
HETATM   26  C27 UNL     1      13.451  53.219  84.932  1.00  0.00     0.118 C 
HETATM   27  C28 UNL     1      13.731  53.831  86.263  1.00  0.00     0.040 C 
BRANCH  26  28
HETATM   28  O6  UNL     1      14.649  53.100  84.228  1.00  0.00    -0.396 OA
ATOM     29  H6  UNL     1      15.193  53.857  84.408  1.00  0.00     0.210 HD
ENDBRANCH  26  28
ENDBRANCH  24  26
ENDBRANCH  23  24
ENDBRANCH  19  20
ENDBRANCH  18  19
BRANCH  16  30
HETATM   30  O4  UNL     1      12.871  49.360  90.984  1.00  0.00    -0.366 OA
ATOM     31  H4  UNL     1      12.347  48.744  90.485  1.00  0.00     0.213 HD
ENDBRANCH  16  30
BRANCH  14  32
HETATM   32  O3  UNL     1      10.367  51.518  93.890  1.00  0.00    -0.382 OA
ATOM     33  H3  UNL     1       9.574  51.834  93.472  1.00  0.00     0.211 HD
ENDBRANCH  14  32
BRANCH  11  34
HETATM   34  O1  UNL     1       9.775  54.469  94.024  1.00  0.00    -0.392 OA
ATOM     35  H1  UNL     1       9.106  54.825  93.451  1.00  0.00     0.210 HD
ENDBRANCH  11  34
BRANCH   1  36
HETATM   36  C3  UNL     1      14.314  49.754  94.674  1.00  0.00     0.044 C 
BRANCH  36  37
HETATM   37  C2  UNL     1      15.496  50.178  95.534  1.00  0.00     0.001 C 
HETATM   38  C1  UNL     1      15.175  51.259  96.510  1.00  0.00     0.005 C 
ENDBRANCH  36  37
ENDBRANCH   1  36
BRANCH  12  39
HETATM   39  O2  UNL     1      13.060  54.880  94.659  1.00  0.00    -0.392 OA
ATOM     40  H2  UNL     1      13.720  54.817  93.977  1.00  0.00     0.210 HD
ENDBRANCH  12  39
TORSDOF 11
ENDMDL
