MODEL 1
REMARK VINA RESULT: -6.300542723      0.000      0.000
REMARK  9 active torsions:
REMARK  status: ('A' for Active; 'I' for Inactive)
REMARK    1  A    between atoms: C4_5  and  O1_6 
REMARK    2  A    between atoms: N2_8  and  S1_9 
REMARK    3  A    between atoms: S1_9  and  C5_12 
REMARK    4  A    between atoms: C5_12  and  C6_13 
REMARK    5  A    between atoms: C6_13  and  C7_14 
REMARK    6  A    between atoms: C7_14  and  C8_15 
REMARK    7  A    between atoms: C8_15  and  C9_16 
REMARK    8  A    between atoms: C9_16  and  C10_17 
REMARK    9  A    between atoms: C10_17  and  N3_18 
ROOT
HETATM    1  C1  UNL     1      10.154  50.352  86.320  1.00  0.00     0.014 C 
HETATM    2  C2  UNL     1      11.092  50.980  87.290  1.00  0.00     0.032 C 
HETATM    3  C3  UNL     1      12.053  51.980  86.819  1.00  0.00     0.134 C 
HETATM    4  N1  UNL     1      11.883  52.622  88.122  1.00  0.00    -0.332 N 
HETATM    5  C4  UNL     1      12.571  53.434  89.047  1.00  0.00     0.232 C 
HETATM    6  N2  UNL     1      12.391  53.542  90.441  1.00  0.00    -0.235 N 
HETATM    7  C11 UNL     1      11.111  53.593  91.131  1.00  0.00     0.197 C 
HETATM    8  C12 UNL     1      10.968  52.458  92.088  1.00  0.00    -0.001 C 
HETATM    9  N4  UNL     1      11.606  51.393  91.799  1.00  0.00    -0.404 N 
ATOM     10  H41 UNL     1      11.508  50.616  92.453  1.00  0.00     0.155 HD
ATOM     11  H42 UNL     1      12.169  51.360  90.949  1.00  0.00     0.155 HD
HETATM   12  C13 UNL     1      10.158  52.506  93.308  1.00  0.00     0.054 C 
HETATM   13  C14 UNL     1       9.154  53.598  93.363  1.00  0.00     0.006 C 
HETATM   14  C15 UNL     1       7.758  53.050  93.590  1.00  0.00     0.002 C 
HETATM   15  C16 UNL     1       7.436  51.876  92.724  1.00  0.00     0.020 C 
HETATM   16  C17 UNL     1       6.190  52.128  91.873  1.00  0.00     0.122 C 
HETATM   17  N5  UNL     1       6.260  53.419  91.237  1.00  0.00    -0.360 N 
ATOM     18  H5  UNL     1       5.689  54.172  91.621  1.00  0.00     0.162 HD
HETATM   19  C18 UNL     1       7.072  53.708  90.112  1.00  0.00     0.235 C 
HETATM   20  O4  UNL     1       7.368  54.944  89.962  1.00  0.00    -0.272 OA
HETATM   21  C19 UNL     1       7.558  52.671  89.157  1.00  0.00     0.225 C 
HETATM   22  N6  UNL     1       8.331  53.333  88.150  1.00  0.00    -0.351 N 
ATOM     23  H6  UNL     1       8.009  54.261  87.872  1.00  0.00     0.163 HD
HETATM   24  C20 UNL     1       9.494  52.851  87.494  1.00  0.00     0.241 C 
HETATM   25  O5  UNL     1       9.557  53.130  86.264  1.00  0.00    -0.271 OA
HETATM   26  C21 UNL     1      10.572  52.082  88.155  1.00  0.00     0.185 C 
ENDROOT
BRANCH   6  27
HETATM   27  S1  UNL     1      13.751  53.648  91.552  1.00  0.00     0.235 S 
HETATM   28  O2  UNL     1      14.119  52.348  92.137  1.00  0.00    -0.205 OA
HETATM   29  O3  UNL     1      14.926  54.172  90.796  1.00  0.00    -0.205 OA
BRANCH  27  30
HETATM   30  C5  UNL     1      13.394  54.756  92.893  1.00  0.00     0.163 C 
BRANCH  30  31
HETATM   31  C6  UNL     1      13.466  53.899  94.164  1.00  0.00     0.017 C 
BRANCH  31  32
HETATM   32  C7  UNL     1      12.548  54.488  95.217  1.00  0.00     0.001 C 
BRANCH  32  33
HETATM   33  C8  UNL     1      11.925  55.773  94.769  1.00  0.00     0.002 C 
BRANCH  33  34
HETATM   34  C9  UNL     1      10.651  56.086  95.520  1.00  0.00     0.027 C 
BRANCH  34  35
HETATM   35  C10 UNL     1      10.656  57.559  95.888  1.00  0.00     0.229 C 
BRANCH  35  36
HETATM   36  N3  UNL     1      11.996  58.090  95.885  1.00  0.00    -0.079 N 
ATOM     37  H33 UNL     1      12.019  59.057  96.209  1.00  0.00     0.274 HD
ATOM     38  H32 UNL     1      12.569  57.667  96.615  1.00  0.00     0.274 HD
ATOM     39  H31 UNL     1      12.427  57.993  94.965  1.00  0.00     0.274 HD
ENDBRANCH  35  36
ENDBRANCH  34  35
ENDBRANCH  33  34
ENDBRANCH  32  33
ENDBRANCH  31  32
ENDBRANCH  30  31
ENDBRANCH  27  30
ENDBRANCH   6  27
BRANCH   5  40
HETATM   40  O1  UNL     1      13.522  54.226  88.640  1.00  0.00    -0.332 OA
ATOM     41  H1  UNL     1      14.041  54.711  89.271  1.00  0.00     0.221 HD
ENDBRANCH   5  40
TORSDOF 9
ENDMDL
MODEL 2
REMARK VINA RESULT: -5.849269346      3.984      8.821
REMARK  9 active torsions:
REMARK  status: ('A' for Active; 'I' for Inactive)
REMARK    1  A    between atoms: C4_5  and  O1_6 
REMARK    2  A    between atoms: N2_8  and  S1_9 
REMARK    3  A    between atoms: S1_9  and  C5_12 
REMARK    4  A    between atoms: C5_12  and  C6_13 
REMARK    5  A    between atoms: C6_13  and  C7_14 
REMARK    6  A    between atoms: C7_14  and  C8_15 
REMARK    7  A    between atoms: C8_15  and  C9_16 
REMARK    8  A    between atoms: C9_16  and  C10_17 
REMARK    9  A    between atoms: C10_17  and  N3_18 
ROOT
HETATM    1  C1  UNL     1      10.434  52.639  92.545  1.00  0.00     0.014 C 
HETATM    2  C2  UNL     1      10.711  52.905  91.107  1.00  0.00     0.032 C 
HETATM    3  C3  UNL     1      11.741  53.879  90.740  1.00  0.00     0.134 C 
HETATM    4  N1  UNL     1      12.008  53.023  89.584  1.00  0.00    -0.332 N 
HETATM    5  C4  UNL     1      12.488  53.080  88.260  1.00  0.00     0.232 C 
HETATM    6  N2  UNL     1      12.217  52.218  87.178  1.00  0.00    -0.235 N 
HETATM    7  C11 UNL     1      12.155  50.766  87.245  1.00  0.00     0.197 C 
HETATM    8  C12 UNL     1      10.810  50.265  86.837  1.00  0.00    -0.001 C 
HETATM    9  N4  UNL     1       9.829  51.053  87.038  1.00  0.00    -0.404 N 
ATOM     10  H41 UNL     1       8.910  50.711  86.759  1.00  0.00     0.155 HD
ATOM     11  H42 UNL     1       9.998  51.967  87.459  1.00  0.00     0.155 HD
HETATM   12  C13 UNL     1      10.568  48.952  86.232  1.00  0.00     0.054 C 
HETATM   13  C14 UNL     1      11.662  47.962  86.400  1.00  0.00     0.006 C 
HETATM   14  C15 UNL     1      11.160  46.696  87.065  1.00  0.00     0.002 C 
HETATM   15  C16 UNL     1      10.293  46.956  88.254  1.00  0.00     0.020 C 
HETATM   16  C17 UNL     1      10.846  46.288  89.513  1.00  0.00     0.122 C 
HETATM   17  N5  UNL     1      12.256  46.551  89.653  1.00  0.00    -0.360 N 
ATOM     18  H5  UNL     1      12.907  45.800  89.423  1.00  0.00     0.162 HD
HETATM   19  C18 UNL     1      12.795  47.787  90.088  1.00  0.00     0.235 C 
HETATM   20  O4  UNL     1      14.003  48.007  89.729  1.00  0.00    -0.272 OA
HETATM   21  C19 UNL     1      12.034  48.777  90.905  1.00  0.00     0.225 C 
HETATM   22  N6  UNL     1      12.900  49.887  91.163  1.00  0.00    -0.351 N 
ATOM     23  H6  UNL     1      13.886  49.666  91.305  1.00  0.00     0.163 HD
HETATM   24  C20 UNL     1      12.547  51.260  91.244  1.00  0.00     0.241 C 
HETATM   25  O5  UNL     1      13.151  51.905  92.146  1.00  0.00    -0.271 OA
HETATM   26  C21 UNL     1      11.561  51.926  90.364  1.00  0.00     0.185 C 
ENDROOT
BRANCH   6  27
HETATM   27  S1  UNL     1      11.929  52.823  85.552  1.00  0.00     0.235 S 
HETATM   28  O2  UNL     1      10.512  53.136  85.297  1.00  0.00    -0.205 OA
HETATM   29  O3  UNL     1      12.724  54.073  85.376  1.00  0.00    -0.205 OA
BRANCH  27  30
HETATM   30  C5  UNL     1      12.444  51.641  84.331  1.00  0.00     0.163 C 
BRANCH  30  31
HETATM   31  C6  UNL     1      13.848  52.084  83.898  1.00  0.00     0.017 C 
BRANCH  31  32
HETATM   32  C7  UNL     1      14.351  51.158  82.808  1.00  0.00     0.001 C 
BRANCH  32  33
HETATM   33  C8  UNL     1      15.733  51.513  82.356  1.00  0.00     0.002 C 
BRANCH  33  34
HETATM   34  C9  UNL     1      15.826  51.664  80.856  1.00  0.00     0.027 C 
BRANCH  34  35
HETATM   35  C10 UNL     1      15.135  50.478  80.207  1.00  0.00     0.229 C 
BRANCH  35  36
HETATM   36  N3  UNL     1      15.894  49.986  79.084  1.00  0.00    -0.079 N 
ATOM     37  H33 UNL     1      16.812  49.645  79.370  1.00  0.00     0.274 HD
ATOM     38  H32 UNL     1      15.509  49.113  78.723  1.00  0.00     0.274 HD
ATOM     39  H31 UNL     1      15.968  50.695  78.353  1.00  0.00     0.274 HD
ENDBRANCH  35  36
ENDBRANCH  34  35
ENDBRANCH  33  34
ENDBRANCH  32  33
ENDBRANCH  31  32
ENDBRANCH  30  31
ENDBRANCH  27  30
ENDBRANCH   6  27
BRANCH   5  40
HETATM   40  O1  UNL     1      13.302  54.032  87.901  1.00  0.00    -0.332 OA
ATOM     41  H1  UNL     1      12.997  54.731  87.334  1.00  0.00     0.221 HD
ENDBRANCH   5  40
TORSDOF 9
ENDMDL
MODEL 3
REMARK VINA RESULT: -5.803409877      3.018      4.664
REMARK  9 active torsions:
REMARK  status: ('A' for Active; 'I' for Inactive)
REMARK    1  A    between atoms: C4_5  and  O1_6 
REMARK    2  A    between atoms: N2_8  and  S1_9 
REMARK    3  A    between atoms: S1_9  and  C5_12 
REMARK    4  A    between atoms: C5_12  and  C6_13 
REMARK    5  A    between atoms: C6_13  and  C7_14 
REMARK    6  A    between atoms: C7_14  and  C8_15 
REMARK    7  A    between atoms: C8_15  and  C9_16 
REMARK    8  A    between atoms: C9_16  and  C10_17 
REMARK    9  A    between atoms: C10_17  and  N3_18 
ROOT
HETATM    1  C1  UNL     1      10.966  46.431  88.381  1.00  0.00     0.014 C 
HETATM    2  C2  UNL     1      11.362  47.266  89.547  1.00  0.00     0.032 C 
HETATM    3  C3  UNL     1      12.739  47.206  90.041  1.00  0.00     0.134 C 
HETATM    4  N1  UNL     1      12.583  48.622  90.373  1.00  0.00    -0.332 N 
HETATM    5  C4  UNL     1      13.056  49.600  91.272  1.00  0.00     0.232 C 
HETATM    6  N2  UNL     1      12.424  50.780  91.715  1.00  0.00    -0.235 N 
HETATM    7  C11 UNL     1      11.672  51.705  90.880  1.00  0.00     0.197 C 
HETATM    8  C12 UNL     1      10.260  51.823  91.345  1.00  0.00    -0.001 C 
HETATM    9  N4  UNL     1       9.773  50.805  91.937  1.00  0.00    -0.404 N 
ATOM     10  H41 UNL     1       8.807  50.886  92.255  1.00  0.00     0.155 HD
ATOM     11  H42 UNL     1      10.351  49.974  92.064  1.00  0.00     0.155 HD
HETATM   12  C13 UNL     1       9.429  53.017  91.161  1.00  0.00     0.054 C 
HETATM   13  C14 UNL     1       9.912  53.977  90.137  1.00  0.00     0.006 C 
HETATM   14  C15 UNL     1       8.852  54.235  89.083  1.00  0.00     0.002 C 
HETATM   15  C16 UNL     1       8.195  52.989  88.587  1.00  0.00     0.020 C 
HETATM   16  C17 UNL     1       8.338  52.840  87.072  1.00  0.00     0.122 C 
HETATM   17  N5  UNL     1       9.698  53.078  86.662  1.00  0.00    -0.360 N 
ATOM     18  H5  UNL     1       9.914  53.970  86.217  1.00  0.00     0.162 HD
HETATM   19  C18 UNL     1      10.756  52.151  86.839  1.00  0.00     0.235 C 
HETATM   20  O4  UNL     1      11.928  52.665  86.854  1.00  0.00    -0.272 OA
HETATM   21  C19 UNL     1      10.548  50.683  86.999  1.00  0.00     0.225 C 
HETATM   22  N6  UNL     1      11.836  50.073  87.140  1.00  0.00    -0.351 N 
ATOM     23  H6  UNL     1      12.593  50.488  86.595  1.00  0.00     0.163 HD
HETATM   24  C20 UNL     1      12.183  48.959  87.949  1.00  0.00     0.241 C 
HETATM   25  O5  UNL     1      13.005  48.161  87.419  1.00  0.00    -0.271 OA
HETATM   26  C21 UNL     1      11.652  48.712  89.308  1.00  0.00     0.185 C 
ENDROOT
BRANCH   6  27
HETATM   27  S1  UNL     1      12.490  51.301  93.394  1.00  0.00     0.235 S 
HETATM   28  O2  UNL     1      11.628  50.499  94.279  1.00  0.00    -0.205 OA
HETATM   29  O3  UNL     1      13.900  51.166  93.865  1.00  0.00    -0.205 OA
BRANCH  27  30
HETATM   30  C5  UNL     1      11.993  52.998  93.555  1.00  0.00     0.163 C 
BRANCH  30  31
HETATM   31  C6  UNL     1      13.298  53.801  93.647  1.00  0.00     0.017 C 
BRANCH  31  32
HETATM   32  C7  UNL     1      13.462  54.633  92.390  1.00  0.00     0.001 C 
BRANCH  32  33
HETATM   33  C8  UNL     1      14.525  54.090  91.487  1.00  0.00     0.002 C 
BRANCH  33  34
HETATM   34  C9  UNL     1      14.903  55.063  90.395  1.00  0.00     0.027 C 
BRANCH  34  35
HETATM   35  C10 UNL     1      13.734  55.191  89.435  1.00  0.00     0.229 C 
BRANCH  35  36
HETATM   36  N3  UNL     1      13.677  54.066  88.535  1.00  0.00    -0.079 N 
ATOM     37  H33 UNL     1      12.875  54.126  87.907  1.00  0.00     0.274 HD
ATOM     38  H32 UNL     1      14.422  54.104  87.839  1.00  0.00     0.274 HD
ATOM     39  H31 UNL     1      13.686  53.185  89.048  1.00  0.00     0.274 HD
ENDBRANCH  35  36
ENDBRANCH  34  35
ENDBRANCH  33  34
ENDBRANCH  32  33
ENDBRANCH  31  32
ENDBRANCH  30  31
ENDBRANCH  27  30
ENDBRANCH   6  27
BRANCH   5  40
HETATM   40  O1  UNL     1      14.232  49.472  91.817  1.00  0.00    -0.332 OA
ATOM     41  H1  UNL     1      15.015  49.657  91.310  1.00  0.00     0.221 HD
ENDBRANCH   5  40
TORSDOF 9
ENDMDL
MODEL 4
REMARK VINA RESULT: -5.725932886      4.430      9.271
REMARK  9 active torsions:
REMARK  status: ('A' for Active; 'I' for Inactive)
REMARK    1  A    between atoms: C4_5  and  O1_6 
REMARK    2  A    between atoms: N2_8  and  S1_9 
REMARK    3  A    between atoms: S1_9  and  C5_12 
REMARK    4  A    between atoms: C5_12  and  C6_13 
REMARK    5  A    between atoms: C6_13  and  C7_14 
REMARK    6  A    between atoms: C7_14  and  C8_15 
REMARK    7  A    between atoms: C8_15  and  C9_16 
REMARK    8  A    between atoms: C9_16  and  C10_17 
REMARK    9  A    between atoms: C10_17  and  N3_18 
ROOT
HETATM    1  C1  UNL     1      10.036  50.992  91.756  1.00  0.00     0.014 C 
HETATM    2  C2  UNL     1      10.231  51.388  90.336  1.00  0.00     0.032 C 
HETATM    3  C3  UNL     1      10.929  52.638  90.026  1.00  0.00     0.134 C 
HETATM    4  N1  UNL     1      11.447  51.948  88.844  1.00  0.00    -0.332 N 
HETATM    5  C4  UNL     1      11.899  52.200  87.532  1.00  0.00     0.232 C 
HETATM    6  N2  UNL     1      11.904  51.342  86.414  1.00  0.00    -0.235 N 
HETATM    7  C11 UNL     1      12.274  49.936  86.424  1.00  0.00     0.197 C 
HETATM    8  C12 UNL     1      11.142  49.077  85.972  1.00  0.00    -0.001 C 
HETATM    9  N4  UNL     1       9.970  49.530  86.183  1.00  0.00    -0.404 N 
ATOM     10  H41 UNL     1       9.196  48.943  85.874  1.00  0.00     0.155 HD
ATOM     11  H42 UNL     1       9.857  50.434  86.642  1.00  0.00     0.155 HD
HETATM   12  C13 UNL     1      11.305  47.778  85.313  1.00  0.00     0.054 C 
HETATM   13  C14 UNL     1      12.642  47.150  85.466  1.00  0.00     0.006 C 
HETATM   14  C15 UNL     1      12.534  45.765  86.073  1.00  0.00     0.002 C 
HETATM   15  C16 UNL     1      11.620  45.707  87.253  1.00  0.00     0.020 C 
HETATM   16  C17 UNL     1      12.337  45.180  88.497  1.00  0.00     0.122 C 
HETATM   17  N5  UNL     1      13.603  45.843  88.674  1.00  0.00    -0.360 N 
ATOM     18  H5  UNL     1      14.450  45.329  88.429  1.00  0.00     0.162 HD
HETATM   19  C18 UNL     1      13.748  47.165  89.166  1.00  0.00     0.235 C 
HETATM   20  O4  UNL     1      14.839  47.747  88.839  1.00  0.00    -0.272 OA
HETATM   21  C19 UNL     1      12.722  47.850  90.005  1.00  0.00     0.225 C 
HETATM   22  N6  UNL     1      13.217  49.155  90.321  1.00  0.00    -0.351 N 
ATOM     23  H6  UNL     1      14.223  49.230  90.473  1.00  0.00     0.163 HD
HETATM   24  C20 UNL     1      12.472  50.357  90.446  1.00  0.00     0.241 C 
HETATM   25  O5  UNL     1      12.850  51.114  91.384  1.00  0.00    -0.271 OA
HETATM   26  C21 UNL     1      11.339  50.737  89.573  1.00  0.00     0.185 C 
ENDROOT
BRANCH   6  27
HETATM   27  S1  UNL     1      11.461  51.902  84.806  1.00  0.00     0.235 S 
HETATM   28  O2  UNL     1      10.328  51.159  84.229  1.00  0.00    -0.205 OA
HETATM   29  O3  UNL     1      11.075  53.341  84.907  1.00  0.00    -0.205 OA
BRANCH  27  30
HETATM   30  C5  UNL     1      12.826  51.755  83.681  1.00  0.00     0.163 C 
BRANCH  30  31
HETATM   31  C6  UNL     1      13.969  52.561  84.314  1.00  0.00     0.017 C 
BRANCH  31  32
HETATM   32  C7  UNL     1      15.192  52.481  83.422  1.00  0.00     0.001 C 
BRANCH  32  33
HETATM   33  C8  UNL     1      15.197  51.244  82.578  1.00  0.00     0.002 C 
BRANCH  33  34
HETATM   34  C9  UNL     1      15.834  51.473  81.227  1.00  0.00     0.027 C 
BRANCH  34  35
HETATM   35  C10 UNL     1      15.108  50.622  80.200  1.00  0.00     0.229 C 
BRANCH  35  36
HETATM   36  N3  UNL     1      16.017  50.144  79.187  1.00  0.00    -0.079 N 
ATOM     37  H33 UNL     1      15.626  49.354  78.674  1.00  0.00     0.274 HD
ATOM     38  H32 UNL     1      16.101  50.806  78.415  1.00  0.00     0.274 HD
ATOM     39  H31 UNL     1      16.927  49.917  79.589  1.00  0.00     0.274 HD
ENDBRANCH  35  36
ENDBRANCH  34  35
ENDBRANCH  33  34
ENDBRANCH  32  33
ENDBRANCH  31  32
ENDBRANCH  30  31
ENDBRANCH  27  30
ENDBRANCH   6  27
BRANCH   5  40
HETATM   40  O1  UNL     1      12.396  53.365  87.226  1.00  0.00    -0.332 OA
ATOM     41  H1  UNL     1      13.223  53.423  86.763  1.00  0.00     0.221 HD
ENDBRANCH   5  40
TORSDOF 9
ENDMDL
MODEL 5
REMARK VINA RESULT: -5.575418121      3.825      7.757
REMARK  9 active torsions:
REMARK  status: ('A' for Active; 'I' for Inactive)
REMARK    1  A    between atoms: C4_5  and  O1_6 
REMARK    2  A    between atoms: N2_8  and  S1_9 
REMARK    3  A    between atoms: S1_9  and  C5_12 
REMARK    4  A    between atoms: C5_12  and  C6_13 
REMARK    5  A    between atoms: C6_13  and  C7_14 
REMARK    6  A    between atoms: C7_14  and  C8_15 
REMARK    7  A    between atoms: C8_15  and  C9_16 
REMARK    8  A    between atoms: C9_16  and  C10_17 
REMARK    9  A    between atoms: C10_17  and  N3_18 
ROOT
HETATM    1  C1  UNL     1      15.547  51.391  99.204  1.00  0.00     0.014 C 
HETATM    2  C2  UNL     1      15.195  51.360  97.759  1.00  0.00     0.032 C 
HETATM    3  C3  UNL     1      15.052  50.071  97.080  1.00  0.00     0.134 C 
HETATM    4  N1  UNL     1      14.012  50.714  96.276  1.00  0.00    -0.332 N 
HETATM    5  C4  UNL     1      13.403  50.646  95.006  1.00  0.00     0.232 C 
HETATM    6  N2  UNL     1      12.751  51.662  94.278  1.00  0.00    -0.235 N 
HETATM    7  C11 UNL     1      11.826  52.641  94.828  1.00  0.00     0.197 C 
HETATM    8  C12 UNL     1      12.325  54.031  94.620  1.00  0.00    -0.001 C 
HETATM    9  N4  UNL     1      13.590  54.172  94.552  1.00  0.00    -0.404 N 
ATOM     10  H41 UNL     1      13.932  55.123  94.410  1.00  0.00     0.155 HD
ATOM     11  H42 UNL     1      14.192  53.353  94.642  1.00  0.00     0.155 HD
HETATM   12  C13 UNL     1      11.460  55.207  94.492  1.00  0.00     0.054 C 
HETATM   13  C14 UNL     1      10.068  55.028  94.975  1.00  0.00     0.006 C 
HETATM   14  C15 UNL     1       9.715  56.059  96.030  1.00  0.00     0.002 C 
HETATM   15  C16 UNL     1      10.776  56.229  97.068  1.00  0.00     0.020 C 
HETATM   16  C17 UNL     1      10.236  55.969  98.475  1.00  0.00     0.122 C 
HETATM   17  N5  UNL     1       9.466  54.752  98.509  1.00  0.00    -0.360 N 
ATOM     18  H5  UNL     1       8.450  54.830  98.540  1.00  0.00     0.162 HD
HETATM   19  C18 UNL     1      10.033  53.453  98.501  1.00  0.00     0.235 C 
HETATM   20  O4  UNL     1       9.256  52.527  98.081  1.00  0.00    -0.272 OA
HETATM   21  C19 UNL     1      11.427  53.157  98.944  1.00  0.00     0.225 C 
HETATM   22  N6  UNL     1      11.638  51.748  98.808  1.00  0.00    -0.351 N 
ATOM     23  H6  UNL     1      10.836  51.151  99.010  1.00  0.00     0.163 HD
HETATM   24  C20 UNL     1      12.834  51.084  98.426  1.00  0.00     0.241 C 
HETATM   25  O5  UNL     1      13.065  50.014  99.057  1.00  0.00    -0.271 OA
HETATM   26  C21 UNL     1      13.764  51.567  97.381  1.00  0.00     0.185 C 
ENDROOT
BRANCH   6  27
HETATM   27  S1  UNL     1      12.978  51.861  92.544  1.00  0.00     0.235 S 
HETATM   28  O2  UNL     1      13.993  52.874  92.209  1.00  0.00    -0.205 OA
HETATM   29  O3  UNL     1      13.420  50.550  91.983  1.00  0.00    -0.205 OA
BRANCH  27  30
HETATM   30  C5  UNL     1      11.462  52.339  91.754  1.00  0.00     0.163 C 
BRANCH  30  31
HETATM   31  C6  UNL     1      11.777  53.651  91.022  1.00  0.00     0.017 C 
BRANCH  31  32
HETATM   32  C7  UNL     1      12.007  53.360  89.551  1.00  0.00     0.001 C 
BRANCH  32  33
HETATM   33  C8  UNL     1      13.174  54.120  89.001  1.00  0.00     0.002 C 
BRANCH  33  34
HETATM   34  C9  UNL     1      13.406  55.422  89.730  1.00  0.00     0.027 C 
BRANCH  34  35
HETATM   35  C10 UNL     1      14.888  55.545  90.040  1.00  0.00     0.229 C 
BRANCH  35  36
HETATM   36  N3  UNL     1      15.549  54.269  89.927  1.00  0.00    -0.079 N 
ATOM     37  H33 UNL     1      16.470  54.359  89.499  1.00  0.00     0.274 HD
ATOM     38  H32 UNL     1      15.835  53.912  90.839  1.00  0.00     0.274 HD
ATOM     39  H31 UNL     1      14.966  53.598  89.426  1.00  0.00     0.274 HD
ENDBRANCH  35  36
ENDBRANCH  34  35
ENDBRANCH  33  34
ENDBRANCH  32  33
ENDBRANCH  31  32
ENDBRANCH  30  31
ENDBRANCH  27  30
ENDBRANCH   6  27
BRANCH   5  40
HETATM   40  O1  UNL     1      13.398  49.525  94.343  1.00  0.00    -0.332 OA
ATOM     41  H1  UNL     1      12.730  48.872  94.516  1.00  0.00     0.221 HD
ENDBRANCH   5  40
TORSDOF 9
ENDMDL
