MODEL 1
REMARK VINA RESULT: -7.254419569      0.000      0.000
REMARK  11 active torsions:
REMARK  status: ('A' for Active; 'I' for Inactive)
REMARK    1  A    between atoms: C3_5  and  C4_6 
REMARK    2  A    between atoms: C4_6  and  C5_7 
REMARK    3  A    between atoms: C5_7  and  C6_8 
REMARK    4  A    between atoms: C16_18  and  N3_19 
REMARK    5  A    between atoms: N4_22  and  C17_23 
REMARK    6  A    between atoms: C17_23  and  C18_24 
REMARK    7  A    between atoms: C18_24  and  C19_25 
REMARK    8  A    between atoms: C19_25  and  C20_26 
REMARK    9  A    between atoms: C20_26  and  C21_27 
REMARK   10  A    between atoms: C21_27  and  C22_28 
REMARK   11  A    between atoms: C22_28  and  N5_29 
REMARK       I    between atoms: N5_29  and  C23_31 
REMARK       I    between atoms: C23_31  and  N6_33 
ROOT
HETATM    1  C1  UNL     1       9.289  50.599  86.096  1.00  0.00     0.162 C 
HETATM    2  N1  UNL     1      10.384  51.434  86.583  1.00  0.00    -0.290 N 
HETATM    3  C2  UNL     1      10.453  51.648  87.909  1.00  0.00     0.144 A 
HETATM    4  N2  UNL     1       9.517  51.099  88.834  1.00  0.00    -0.081 NA
HETATM    5  C3  UNL     1      11.480  52.435  88.396  1.00  0.00     0.102 A 
HETATM    6  C16 UNL     1      12.387  52.966  87.505  1.00  0.00     0.127 A 
HETATM    7  N4  UNL     1      12.302  52.741  86.171  1.00  0.00    -0.284 N 
HETATM    8  C28 UNL     1      11.290  51.972  85.742  1.00  0.00     0.331 A 
HETATM    9  O2  UNL     1      11.121  51.703  84.523  1.00  0.00    -0.246 OA
ENDROOT
BRANCH   7  10
HETATM   10  C17 UNL     1      13.246  53.311  85.260  1.00  0.00     0.135 C 
BRANCH  10  11
HETATM   11  C18 UNL     1      13.909  52.357  84.326  1.00  0.00     0.020 C 
BRANCH  11  12
HETATM   12  C19 UNL     1      15.097  52.876  83.594  1.00  0.00     0.002 C 
BRANCH  12  13
HETATM   13  C20 UNL     1      15.818  51.782  82.850  1.00  0.00     0.002 C 
BRANCH  13  14
HETATM   14  C21 UNL     1      15.633  51.882  81.376  1.00  0.00     0.020 C 
BRANCH  14  15
HETATM   15  C22 UNL     1      14.940  50.654  80.851  1.00  0.00     0.124 C 
BRANCH  15  16
HETATM   16  N5  UNL     1      13.556  50.945  80.502  1.00  0.00    -0.343 N 
HETATM   17  C23 UNL     1      12.491  50.382  81.241  1.00  0.00     0.318 C 
HETATM   18  O1  UNL     1      12.766  49.619  82.216  1.00  0.00    -0.247 OA
HETATM   19  N6  UNL     1      11.153  50.684  80.876  1.00  0.00    -0.334 N 
HETATM   20  C24 UNL     1      10.728  51.526  79.804  1.00  0.00     0.127 C 
HETATM   21  C27 UNL     1       9.967  50.192  81.528  1.00  0.00     0.127 C 
HETATM   22  C25 UNL     1       9.492  50.835  79.266  1.00  0.00     0.022 C 
HETATM   23  C26 UNL     1       8.867  50.256  80.493  1.00  0.00     0.022 C 
ATOM     24  H5  UNL     1      13.353  51.561  79.716  1.00  0.00     0.164 HD
ENDBRANCH  15  16
ENDBRANCH  14  15
ENDBRANCH  13  14
ENDBRANCH  12  13
ENDBRANCH  11  12
ENDBRANCH  10  11
ENDBRANCH   7  10
BRANCH   6  25
HETATM   25  N3  UNL     1      13.357  53.707  87.942  1.00  0.00    -0.384 N 
ATOM     26  H32 UNL     1      13.255  54.145  88.858  1.00  0.00     0.157 HD
ATOM     27  H31 UNL     1      14.192  53.835  87.371  1.00  0.00     0.157 HD
ENDBRANCH   6  25
BRANCH   5  28
HETATM   28  C4  UNL     1      11.624  52.712  89.807  1.00  0.00    -0.059 C 
BRANCH  28  29
HETATM   29  C5  UNL     1      11.726  52.947  90.992  1.00  0.00    -0.091 C 
BRANCH  29  30
HETATM   30  C6  UNL     1      11.855  53.253  92.425  1.00  0.00     0.025 C 
HETATM   31  C7  UNL     1      12.837  54.378  92.606  1.00  0.00     0.027 C 
HETATM   32  C8  UNL     1      12.910  54.736  94.067  1.00  0.00    -0.012 C 
HETATM   33  C9  UNL     1      11.581  55.116  94.640  1.00  0.00     0.009 C 
HETATM   34  C13 UNL     1      13.395  53.503  94.809  1.00  0.00     0.009 C 
HETATM   35  C10 UNL     1      10.631  53.962  94.443  1.00  0.00    -0.012 C 
HETATM   36  C11 UNL     1      11.101  52.718  95.147  1.00  0.00     0.009 C 
HETATM   37  C15 UNL     1      10.499  53.694  92.976  1.00  0.00     0.027 C 
HETATM   38  C12 UNL     1      12.457  52.345  94.611  1.00  0.00    -0.012 C 
HETATM   39  C14 UNL     1      12.325  52.017  93.120  1.00  0.00     0.027 C 
ENDBRANCH  29  30
ENDBRANCH  28  29
ENDBRANCH   5  28
TORSDOF 11
ENDMDL
MODEL 2
REMARK VINA RESULT: -7.051012977      0.701      1.434
REMARK  11 active torsions:
REMARK  status: ('A' for Active; 'I' for Inactive)
REMARK    1  A    between atoms: C3_5  and  C4_6 
REMARK    2  A    between atoms: C4_6  and  C5_7 
REMARK    3  A    between atoms: C5_7  and  C6_8 
REMARK    4  A    between atoms: C16_18  and  N3_19 
REMARK    5  A    between atoms: N4_22  and  C17_23 
REMARK    6  A    between atoms: C17_23  and  C18_24 
REMARK    7  A    between atoms: C18_24  and  C19_25 
REMARK    8  A    between atoms: C19_25  and  C20_26 
REMARK    9  A    between atoms: C20_26  and  C21_27 
REMARK   10  A    between atoms: C21_27  and  C22_28 
REMARK   11  A    between atoms: C22_28  and  N5_29 
REMARK       I    between atoms: N5_29  and  C23_31 
REMARK       I    between atoms: C23_31  and  N6_33 
ROOT
HETATM    1  C1  UNL     1       9.120  50.914  85.985  1.00  0.00     0.162 C 
HETATM    2  N1  UNL     1      10.268  51.657  86.496  1.00  0.00    -0.290 N 
HETATM    3  C2  UNL     1      10.342  51.838  87.827  1.00  0.00     0.144 A 
HETATM    4  N2  UNL     1       9.361  51.341  88.734  1.00  0.00    -0.081 NA
HETATM    5  C3  UNL     1      11.419  52.539  88.336  1.00  0.00     0.102 A 
HETATM    6  C16 UNL     1      12.369  53.021  87.462  1.00  0.00     0.127 A 
HETATM    7  N4  UNL     1      12.278  52.829  86.123  1.00  0.00    -0.284 N 
HETATM    8  C28 UNL     1      11.217  52.144  85.672  1.00  0.00     0.331 A 
HETATM    9  O2  UNL     1      11.039  51.913  84.447  1.00  0.00    -0.246 OA
ENDROOT
BRANCH   7  10
HETATM   10  C17 UNL     1      13.269  53.347  85.230  1.00  0.00     0.135 C 
BRANCH  10  11
HETATM   11  C18 UNL     1      13.937  52.349  84.348  1.00  0.00     0.020 C 
BRANCH  11  12
HETATM   12  C19 UNL     1      15.099  52.847  83.560  1.00  0.00     0.002 C 
BRANCH  12  13
HETATM   13  C20 UNL     1      15.782  51.733  82.809  1.00  0.00     0.002 C 
BRANCH  13  14
HETATM   14  C21 UNL     1      15.732  51.930  81.334  1.00  0.00     0.020 C 
BRANCH  14  15
HETATM   15  C22 UNL     1      15.061  50.758  80.672  1.00  0.00     0.124 C 
BRANCH  15  16
HETATM   16  N5  UNL     1      13.612  50.877  80.742  1.00  0.00    -0.343 N 
HETATM   17  C23 UNL     1      12.776  49.871  80.206  1.00  0.00     0.318 C 
HETATM   18  O1  UNL     1      13.316  48.861  79.663  1.00  0.00    -0.247 OA
HETATM   19  N6  UNL     1      11.367  50.017  80.290  1.00  0.00    -0.334 N 
HETATM   20  C24 UNL     1      10.653  51.106  80.877  1.00  0.00     0.127 C 
HETATM   21  C27 UNL     1      10.389  49.084  79.794  1.00  0.00     0.127 C 
HETATM   22  C25 UNL     1       9.453  51.286  79.970  1.00  0.00     0.022 C 
HETATM   23  C26 UNL     1       9.133  49.888  79.553  1.00  0.00     0.022 C 
ATOM     24  H5  UNL     1      13.194  51.696  81.183  1.00  0.00     0.164 HD
ENDBRANCH  15  16
ENDBRANCH  14  15
ENDBRANCH  13  14
ENDBRANCH  12  13
ENDBRANCH  11  12
ENDBRANCH  10  11
ENDBRANCH   7  10
BRANCH   6  25
HETATM   25  N3  UNL     1      13.387  53.681  87.921  1.00  0.00    -0.384 N 
ATOM     26  H32 UNL     1      14.149  53.156  88.350  1.00  0.00     0.157 HD
ATOM     27  H31 UNL     1      13.406  54.698  87.844  1.00  0.00     0.157 HD
ENDBRANCH   6  25
BRANCH   5  28
HETATM   28  C4  UNL     1      11.572  52.776  89.753  1.00  0.00    -0.059 C 
BRANCH  28  29
HETATM   29  C5  UNL     1      11.693  52.993  90.940  1.00  0.00    -0.091 C 
BRANCH  29  30
HETATM   30  C6  UNL     1      11.819  53.247  92.383  1.00  0.00     0.025 C 
HETATM   31  C7  UNL     1      12.238  51.979  93.076  1.00  0.00     0.027 C 
HETATM   32  C8  UNL     1      12.436  52.263  94.542  1.00  0.00    -0.012 C 
HETATM   33  C9  UNL     1      13.439  53.343  94.795  1.00  0.00     0.009 C 
HETATM   34  C13 UNL     1      11.102  52.735  95.093  1.00  0.00     0.009 C 
HETATM   35  C10 UNL     1      12.979  54.594  94.090  1.00  0.00    -0.012 C 
HETATM   36  C11 UNL     1      11.645  55.071  94.598  1.00  0.00     0.009 C 
HETATM   37  C15 UNL     1      12.888  54.312  92.623  1.00  0.00     0.027 C 
HETATM   38  C12 UNL     1      10.632  53.978  94.389  1.00  0.00    -0.012 C 
HETATM   39  C14 UNL     1      10.492  53.716  92.886  1.00  0.00     0.027 C 
ENDBRANCH  29  30
ENDBRANCH  28  29
ENDBRANCH   5  28
TORSDOF 11
ENDMDL
MODEL 3
REMARK VINA RESULT: -7.015711473      1.634      2.042
REMARK  11 active torsions:
REMARK  status: ('A' for Active; 'I' for Inactive)
REMARK    1  A    between atoms: C3_5  and  C4_6 
REMARK    2  A    between atoms: C4_6  and  C5_7 
REMARK    3  A    between atoms: C5_7  and  C6_8 
REMARK    4  A    between atoms: C16_18  and  N3_19 
REMARK    5  A    between atoms: N4_22  and  C17_23 
REMARK    6  A    between atoms: C17_23  and  C18_24 
REMARK    7  A    between atoms: C18_24  and  C19_25 
REMARK    8  A    between atoms: C19_25  and  C20_26 
REMARK    9  A    between atoms: C20_26  and  C21_27 
REMARK   10  A    between atoms: C21_27  and  C22_28 
REMARK   11  A    between atoms: C22_28  and  N5_29 
REMARK       I    between atoms: N5_29  and  C23_31 
REMARK       I    between atoms: C23_31  and  N6_33 
ROOT
HETATM    1  C1  UNL     1       7.206  52.624  87.148  1.00  0.00     0.162 C 
HETATM    2  N1  UNL     1       8.612  52.625  87.543  1.00  0.00    -0.290 N 
HETATM    3  C2  UNL     1       8.889  52.883  88.834  1.00  0.00     0.144 A 
HETATM    4  N2  UNL     1       7.881  53.147  89.806  1.00  0.00    -0.081 NA
HETATM    5  C3  UNL     1      10.213  52.890  89.234  1.00  0.00     0.102 A 
HETATM    6  C16 UNL     1      11.189  52.634  88.297  1.00  0.00     0.127 A 
HETATM    7  N4  UNL     1      10.892  52.377  86.999  1.00  0.00    -0.284 N 
HETATM    8  C28 UNL     1       9.595  52.380  86.654  1.00  0.00     0.331 A 
HETATM    9  O2  UNL     1       9.214  52.154  85.476  1.00  0.00    -0.246 OA
ENDROOT
BRANCH   7  10
HETATM   10  C17 UNL     1      11.920  52.124  86.037  1.00  0.00     0.135 C 
BRANCH  10  11
HETATM   11  C18 UNL     1      12.476  53.322  85.346  1.00  0.00     0.020 C 
BRANCH  11  12
HETATM   12  C19 UNL     1      13.912  53.246  84.959  1.00  0.00     0.002 C 
BRANCH  12  13
HETATM   13  C20 UNL     1      14.142  52.244  83.857  1.00  0.00     0.002 C 
BRANCH  13  14
HETATM   14  C21 UNL     1      15.476  52.403  83.216  1.00  0.00     0.020 C 
BRANCH  14  15
HETATM   15  C22 UNL     1      15.500  51.715  81.879  1.00  0.00     0.124 C 
BRANCH  15  16
HETATM   16  N5  UNL     1      14.365  50.813  81.735  1.00  0.00    -0.343 N 
HETATM   17  C23 UNL     1      14.219  50.014  80.579  1.00  0.00     0.318 C 
HETATM   18  O1  UNL     1      15.097  50.097  79.669  1.00  0.00    -0.247 OA
HETATM   19  N6  UNL     1      13.102  49.145  80.469  1.00  0.00    -0.334 N 
HETATM   20  C24 UNL     1      12.056  48.970  81.426  1.00  0.00     0.127 C 
HETATM   21  C27 UNL     1      12.815  48.272  79.360  1.00  0.00     0.127 C 
HETATM   22  C25 UNL     1      10.814  48.786  80.579  1.00  0.00     0.022 C 
HETATM   23  C26 UNL     1      11.323  48.037  79.391  1.00  0.00     0.022 C 
ATOM     24  H5  UNL     1      13.668  50.759  82.477  1.00  0.00     0.164 HD
ENDBRANCH  15  16
ENDBRANCH  14  15
ENDBRANCH  13  14
ENDBRANCH  12  13
ENDBRANCH  11  12
ENDBRANCH  10  11
ENDBRANCH   7  10
BRANCH   6  25
HETATM   25  N3  UNL     1      12.436  52.636  88.652  1.00  0.00    -0.384 N 
ATOM     26  H32 UNL     1      12.749  53.348  89.311  1.00  0.00     0.157 HD
ATOM     27  H31 UNL     1      13.071  51.934  88.271  1.00  0.00     0.157 HD
ENDBRANCH   6  25
BRANCH   5  28
HETATM   28  C4  UNL     1      10.593  53.157  90.602  1.00  0.00    -0.059 C 
BRANCH  28  29
HETATM   29  C5  UNL     1      10.909  53.362  91.754  1.00  0.00    -0.091 C 
BRANCH  29  30
HETATM   30  C6  UNL     1      11.294  53.589  93.155  1.00  0.00     0.025 C 
HETATM   31  C7  UNL     1      12.506  54.479  93.200  1.00  0.00     0.027 C 
HETATM   32  C8  UNL     1      12.853  54.767  94.637  1.00  0.00    -0.012 C 
HETATM   33  C9  UNL     1      11.725  55.397  95.391  1.00  0.00     0.009 C 
HETATM   34  C13 UNL     1      13.163  53.436  95.300  1.00  0.00     0.009 C 
HETATM   35  C10 UNL     1      10.535  54.474  95.328  1.00  0.00    -0.012 C 
HETATM   36  C11 UNL     1      10.823  53.137  95.955  1.00  0.00     0.009 C 
HETATM   37  C15 UNL     1      10.150  54.285  93.893  1.00  0.00     0.027 C 
HETATM   38  C12 UNL     1      11.984  52.507  95.234  1.00  0.00    -0.012 C 
HETATM   39  C14 UNL     1      11.583  52.261  93.775  1.00  0.00     0.027 C 
ENDBRANCH  29  30
ENDBRANCH  28  29
ENDBRANCH   5  28
TORSDOF 11
ENDMDL
MODEL 4
REMARK VINA RESULT: -6.935081663      1.426      2.008
REMARK  11 active torsions:
REMARK  status: ('A' for Active; 'I' for Inactive)
REMARK    1  A    between atoms: C3_5  and  C4_6 
REMARK    2  A    between atoms: C4_6  and  C5_7 
REMARK    3  A    between atoms: C5_7  and  C6_8 
REMARK    4  A    between atoms: C16_18  and  N3_19 
REMARK    5  A    between atoms: N4_22  and  C17_23 
REMARK    6  A    between atoms: C17_23  and  C18_24 
REMARK    7  A    between atoms: C18_24  and  C19_25 
REMARK    8  A    between atoms: C19_25  and  C20_26 
REMARK    9  A    between atoms: C20_26  and  C21_27 
REMARK   10  A    between atoms: C21_27  and  C22_28 
REMARK   11  A    between atoms: C22_28  and  N5_29 
REMARK       I    between atoms: N5_29  and  C23_31 
REMARK       I    between atoms: C23_31  and  N6_33 
ROOT
HETATM    1  C1  UNL     1       9.964  49.732  86.151  1.00  0.00     0.162 C 
HETATM    2  N1  UNL     1      10.795  50.849  86.592  1.00  0.00    -0.290 N 
HETATM    3  C2  UNL     1      10.850  51.091  87.914  1.00  0.00     0.144 A 
HETATM    4  N2  UNL     1      10.141  50.313  88.876  1.00  0.00    -0.081 NA
HETATM    5  C3  UNL     1      11.629  52.143  88.358  1.00  0.00     0.102 A 
HETATM    6  C16 UNL     1      12.315  52.896  87.431  1.00  0.00     0.127 A 
HETATM    7  N4  UNL     1      12.248  52.638  86.102  1.00  0.00    -0.284 N 
HETATM    8  C28 UNL     1      11.480  51.609  85.715  1.00  0.00     0.331 A 
HETATM    9  O2  UNL     1      11.349  51.287  84.504  1.00  0.00    -0.246 OA
ENDROOT
BRANCH   7  10
HETATM   10  C17 UNL     1      12.959  53.439  85.153  1.00  0.00     0.135 C 
BRANCH  10  11
HETATM   11  C18 UNL     1      14.308  52.944  84.762  1.00  0.00     0.020 C 
BRANCH  11  12
HETATM   12  C19 UNL     1      14.364  52.086  83.546  1.00  0.00     0.002 C 
BRANCH  12  13
HETATM   13  C20 UNL     1      15.714  52.147  82.880  1.00  0.00     0.002 C 
BRANCH  13  14
HETATM   14  C21 UNL     1      15.848  51.155  81.779  1.00  0.00     0.020 C 
BRANCH  14  15
HETATM   15  C22 UNL     1      14.870  51.459  80.678  1.00  0.00     0.124 C 
BRANCH  15  16
HETATM   16  N5  UNL     1      14.287  50.236  80.144  1.00  0.00    -0.343 N 
HETATM   17  C23 UNL     1      12.929  49.920  80.377  1.00  0.00     0.318 C 
HETATM   18  O1  UNL     1      12.228  50.725  81.060  1.00  0.00    -0.247 OA
HETATM   19  N6  UNL     1      12.392  48.720  79.844  1.00  0.00    -0.334 N 
HETATM   20  C24 UNL     1      13.084  47.744  79.064  1.00  0.00     0.127 C 
HETATM   21  C27 UNL     1      11.035  48.261  79.993  1.00  0.00     0.127 C 
HETATM   22  C25 UNL     1      12.509  46.425  79.536  1.00  0.00     0.022 C 
HETATM   23  C26 UNL     1      11.081  46.761  79.821  1.00  0.00     0.022 C 
ATOM     24  H5  UNL     1      14.866  49.599  79.596  1.00  0.00     0.164 HD
ENDBRANCH  15  16
ENDBRANCH  14  15
ENDBRANCH  13  14
ENDBRANCH  12  13
ENDBRANCH  11  12
ENDBRANCH  10  11
ENDBRANCH   7  10
BRANCH   6  25
HETATM   25  N3  UNL     1      13.052  53.887  87.828  1.00  0.00    -0.384 N 
ATOM     26  H32 UNL     1      13.006  54.160  88.810  1.00  0.00     0.157 HD
ATOM     27  H31 UNL     1      13.655  54.367  87.160  1.00  0.00     0.157 HD
ENDBRANCH   6  25
BRANCH   5  28
HETATM   28  C4  UNL     1      11.741  52.468  89.762  1.00  0.00    -0.059 C 
BRANCH  28  29
HETATM   29  C5  UNL     1      11.840  52.759  90.935  1.00  0.00    -0.091 C 
BRANCH  29  30
HETATM   30  C6  UNL     1      11.945  53.097  92.362  1.00  0.00     0.025 C 
HETATM   31  C7  UNL     1      10.622  53.624  92.847  1.00  0.00     0.027 C 
HETATM   32  C8  UNL     1      10.713  53.900  94.324  1.00  0.00    -0.012 C 
HETATM   33  C9  UNL     1      11.107  52.693  95.117  1.00  0.00     0.009 C 
HETATM   34  C13 UNL     1      11.792  54.951  94.520  1.00  0.00     0.009 C 
HETATM   35  C10 UNL     1      12.437  52.202  94.606  1.00  0.00    -0.012 C 
HETATM   36  C11 UNL     1      13.520  53.234  94.763  1.00  0.00     0.009 C 
HETATM   37  C15 UNL     1      12.291  51.840  93.160  1.00  0.00     0.027 C 
HETATM   38  C12 UNL     1      13.119  54.471  94.005  1.00  0.00    -0.012 C 
HETATM   39  C14 UNL     1      13.018  54.125  92.515  1.00  0.00     0.027 C 
ENDBRANCH  29  30
ENDBRANCH  28  29
ENDBRANCH   5  28
TORSDOF 11
ENDMDL
MODEL 5
REMARK VINA RESULT: -6.813761825      3.112     10.957
REMARK  11 active torsions:
REMARK  status: ('A' for Active; 'I' for Inactive)
REMARK    1  A    between atoms: C3_5  and  C4_6 
REMARK    2  A    between atoms: C4_6  and  C5_7 
REMARK    3  A    between atoms: C5_7  and  C6_8 
REMARK    4  A    between atoms: C16_18  and  N3_19 
REMARK    5  A    between atoms: N4_22  and  C17_23 
REMARK    6  A    between atoms: C17_23  and  C18_24 
REMARK    7  A    between atoms: C18_24  and  C19_25 
REMARK    8  A    between atoms: C19_25  and  C20_26 
REMARK    9  A    between atoms: C20_26  and  C21_27 
REMARK   10  A    between atoms: C21_27  and  C22_28 
REMARK   11  A    between atoms: C22_28  and  N5_29 
REMARK       I    between atoms: N5_29  and  C23_31 
REMARK       I    between atoms: C23_31  and  N6_33 
ROOT
HETATM    1  C1  UNL     1      10.797  49.310  90.042  1.00  0.00     0.162 C 
HETATM    2  N1  UNL     1      11.177  50.348  89.088  1.00  0.00    -0.290 N 
HETATM    3  C2  UNL     1      11.207  50.009  87.787  1.00  0.00     0.144 A 
HETATM    4  N2  UNL     1      10.888  48.701  87.318  1.00  0.00    -0.081 NA
HETATM    5  C3  UNL     1      11.564  50.973  86.864  1.00  0.00     0.102 A 
HETATM    6  C16 UNL     1      11.872  52.238  87.313  1.00  0.00     0.127 A 
HETATM    7  N4  UNL     1      11.837  52.564  88.629  1.00  0.00    -0.284 N 
HETATM    8  C28 UNL     1      11.486  51.597  89.490  1.00  0.00     0.331 A 
HETATM    9  O2  UNL     1      11.423  51.795  90.732  1.00  0.00    -0.246 OA
ENDROOT
BRANCH   7  10
HETATM   10  C17 UNL     1      12.172  53.880  89.078  1.00  0.00     0.135 C 
BRANCH  10  11
HETATM   11  C18 UNL     1      13.625  54.206  89.118  1.00  0.00     0.020 C 
BRANCH  11  12
HETATM   12  C19 UNL     1      14.057  55.138  90.195  1.00  0.00     0.002 C 
BRANCH  12  13
HETATM   13  C20 UNL     1      13.422  54.795  91.519  1.00  0.00     0.002 C 
BRANCH  13  14
HETATM   14  C21 UNL     1      14.010  53.571  92.129  1.00  0.00     0.020 C 
BRANCH  14  15
HETATM   15  C22 UNL     1      13.176  53.116  93.295  1.00  0.00     0.124 C 
BRANCH  15  16
HETATM   16  N5  UNL     1      12.725  54.250  94.089  1.00  0.00    -0.343 N 
HETATM   17  C23 UNL     1      11.363  54.394  94.436  1.00  0.00     0.318 C 
HETATM   18  O1  UNL     1      10.541  53.513  94.042  1.00  0.00    -0.247 OA
HETATM   19  N6  UNL     1      10.955  55.510  95.211  1.00  0.00    -0.334 N 
HETATM   20  C24 UNL     1      11.789  56.558  95.708  1.00  0.00     0.127 C 
HETATM   21  C27 UNL     1       9.611  55.794  95.643  1.00  0.00     0.127 C 
HETATM   22  C25 UNL     1      10.929  57.798  95.585  1.00  0.00     0.022 C 
HETATM   23  C26 UNL     1       9.555  57.287  95.873  1.00  0.00     0.022 C 
ATOM     24  H5  UNL     1      13.400  54.949  94.398  1.00  0.00     0.164 HD
ENDBRANCH  15  16
ENDBRANCH  14  15
ENDBRANCH  13  14
ENDBRANCH  12  13
ENDBRANCH  11  12
ENDBRANCH  10  11
ENDBRANCH   7  10
BRANCH   6  25
HETATM   25  N3  UNL     1      12.209  53.157  86.462  1.00  0.00    -0.384 N 
ATOM     26  H32 UNL     1      12.973  52.960  85.816  1.00  0.00     0.157 HD
ATOM     27  H31 UNL     1      11.710  54.047  86.456  1.00  0.00     0.157 HD
ENDBRANCH   6  25
BRANCH   5  28
HETATM   28  C4  UNL     1      11.620  50.689  85.448  1.00  0.00    -0.059 C 
BRANCH  28  29
HETATM   29  C5  UNL     1      11.648  50.450  84.259  1.00  0.00    -0.091 C 
BRANCH  29  30
HETATM   30  C6  UNL     1      11.686  50.182  82.814  1.00  0.00     0.025 C 
HETATM   31  C7  UNL     1      11.489  48.709  82.577  1.00  0.00     0.027 C 
HETATM   32  C8  UNL     1      11.458  48.450  81.093  1.00  0.00    -0.012 C 
HETATM   33  C9  UNL     1      10.393  49.231  80.390  1.00  0.00     0.009 C 
HETATM   34  C13 UNL     1      12.798  48.889  80.531  1.00  0.00     0.009 C 
HETATM   35  C10 UNL     1      10.630  50.697  80.647  1.00  0.00    -0.012 C 
HETATM   36  C11 UNL     1      11.964  51.155  80.123  1.00  0.00     0.009 C 
HETATM   37  C15 UNL     1      10.556  50.943  82.123  1.00  0.00     0.027 C 
HETATM   38  C12 UNL     1      13.045  50.349  80.791  1.00  0.00    -0.012 C 
HETATM   39  C14 UNL     1      13.013  50.633  82.297  1.00  0.00     0.027 C 
ENDBRANCH  29  30
ENDBRANCH  28  29
ENDBRANCH   5  28
TORSDOF 11
ENDMDL
