MODEL 1
REMARK VINA RESULT: -6.601924324      0.000      0.000
REMARK  8 active torsions:
REMARK  status: ('A' for Active; 'I' for Inactive)
REMARK    1  A    between atoms: C2_3  and  C3_4 
REMARK    2  A    between atoms: C3_4  and  N2_5 
REMARK    3  A    between atoms: C5_7  and  C6_8 
REMARK    4  A    between atoms: C7_11  and  N4_12 
REMARK    5  A    between atoms: N6_21  and  S2_22 
REMARK    6  A    between atoms: S2_22  and  N7_25 
REMARK    7  A    between atoms: C16_31  and  C17_32 
REMARK    8  A    between atoms: C17_32  and  C18_33 
ROOT
HETATM    1  N1  UNL     1      12.096  49.872  91.735  1.00  0.00    -0.197 NA
HETATM    2  C1  UNL     1      11.061  50.223  91.405  1.00  0.00     0.061 C 
HETATM    3  C2  UNL     1       9.743  50.686  91.000  1.00  0.00     0.156 C 
ENDROOT
BRANCH   3   4
HETATM    4  C3  UNL     1       9.729  52.198  90.875  1.00  0.00     0.065 C 
HETATM    5  C9  UNL     1       8.334  52.623  90.633  1.00  0.00     0.049 C 
HETATM    6  C10 UNL     1       7.760  52.911  92.032  1.00  0.00     0.111 C 
HETATM    7  N6  UNL     1       8.772  52.634  92.966  1.00  0.00    -0.191 NA
HETATM    8  C22 UNL     1      10.045  52.739  92.284  1.00  0.00     0.141 C 
BRANCH   4   9
HETATM    9  N2  UNL     1      10.738  52.690  89.996  1.00  0.00    -0.321 N 
HETATM   10  C4  UNL     1      11.763  53.413  90.485  1.00  0.00     0.115 A 
HETATM   11  C5  UNL     1      12.800  53.934  89.704  1.00  0.00     0.088 A 
HETATM   12  C7  UNL     1      12.750  53.680  88.356  1.00  0.00     0.117 A 
HETATM   13  N5  UNL     1      11.681  52.934  87.897  1.00  0.00    -0.319 N 
HETATM   14  C8  UNL     1      10.716  52.454  88.655  1.00  0.00     0.180 A 
ATOM     15  H5  UNL     1      11.636  52.740  86.897  1.00  0.00     0.170 HD
HETATM   16  S1  UNL     1       9.476  51.576  88.073  1.00  0.00    -0.040 SA
BRANCH  11  17
HETATM   17  C6  UNL     1      13.866  54.703  90.307  1.00  0.00     0.270 C 
HETATM   18  N3  UNL     1      14.196  56.038  90.023  1.00  0.00    -0.057 NA
HETATM   19  O1  UNL     1      14.595  54.128  91.194  1.00  0.00    -0.271 OA
ENDBRANCH  11  17
BRANCH  12  20
HETATM   20  N4  UNL     1      13.592  54.068  87.508  1.00  0.00    -0.385 N 
ATOM     21  H42 UNL     1      13.673  55.072  87.351  1.00  0.00     0.157 HD
ATOM     22  H41 UNL     1      14.204  53.463  86.961  1.00  0.00     0.157 HD
ENDBRANCH  12  20
ENDBRANCH   4   9
BRANCH   7  23
HETATM   23  S2  UNL     1       8.725  53.394  94.479  1.00  0.00     0.304 S 
HETATM   24  O2  UNL     1       8.231  52.354  95.501  1.00  0.00    -0.188 OA
HETATM   25  O3  UNL     1       7.611  54.421  94.405  1.00  0.00    -0.188 OA
BRANCH  23  26
HETATM   26  N7  UNL     1      10.172  54.046  95.020  1.00  0.00    -0.273 N 
HETATM   27  C11 UNL     1      11.085  53.224  95.699  1.00  0.00     0.077 C 
HETATM   28  C12 UNL     1      12.456  53.118  95.084  1.00  0.00     0.045 C 
HETATM   29  C13 UNL     1      13.046  54.357  94.560  1.00  0.00     0.005 C 
HETATM   30  C14 UNL     1      12.198  55.570  94.526  1.00  0.00     0.002 C 
HETATM   31  C15 UNL     1      11.481  55.864  95.808  1.00  0.00     0.026 C 
HETATM   32  C16 UNL     1      10.074  55.327  95.655  1.00  0.00     0.102 C 
BRANCH  32  33
HETATM   33  C17 UNL     1       9.309  55.299  96.952  1.00  0.00     0.031 C 
BRANCH  33  34
HETATM   34  C18 UNL     1       8.677  56.645  97.256  1.00  0.00    -0.013 C 
HETATM   35  C19 UNL     1       8.257  57.361  95.988  1.00  0.00     0.005 C 
HETATM   36  C20 UNL     1       6.851  57.488  96.529  1.00  0.00     0.001 C 
HETATM   37  C21 UNL     1       7.214  56.496  97.607  1.00  0.00     0.005 C 
ENDBRANCH  33  34
ENDBRANCH  32  33
ENDBRANCH  23  26
ENDBRANCH   7  23
ENDBRANCH   3   4
TORSDOF 8
ENDMDL
MODEL 2
REMARK VINA RESULT: -6.441587328      4.237      9.125
REMARK  8 active torsions:
REMARK  status: ('A' for Active; 'I' for Inactive)
REMARK    1  A    between atoms: C2_3  and  C3_4 
REMARK    2  A    between atoms: C3_4  and  N2_5 
REMARK    3  A    between atoms: C5_7  and  C6_8 
REMARK    4  A    between atoms: C7_11  and  N4_12 
REMARK    5  A    between atoms: N6_21  and  S2_22 
REMARK    6  A    between atoms: S2_22  and  N7_25 
REMARK    7  A    between atoms: C16_31  and  C17_32 
REMARK    8  A    between atoms: C17_32  and  C18_33 
ROOT
HETATM    1  N1  UNL     1       7.627  54.466  90.235  1.00  0.00    -0.197 NA
HETATM    2  C1  UNL     1       8.358  53.985  89.501  1.00  0.00     0.061 C 
HETATM    3  C2  UNL     1       9.305  53.374  88.583  1.00  0.00     0.156 C 
ENDROOT
BRANCH   3   4
HETATM    4  C3  UNL     1      10.109  52.298  89.291  1.00  0.00     0.065 C 
HETATM    5  C9  UNL     1       9.170  51.245  89.735  1.00  0.00     0.049 C 
HETATM    6  C10 UNL     1       9.149  50.223  88.584  1.00  0.00     0.111 C 
HETATM    7  N6  UNL     1      10.000  50.707  87.577  1.00  0.00    -0.191 NA
HETATM    8  C22 UNL     1      10.948  51.611  88.195  1.00  0.00     0.141 C 
BRANCH   4   9
HETATM    9  N2  UNL     1      11.018  52.828  90.252  1.00  0.00    -0.321 N 
HETATM   10  C4  UNL     1      12.078  53.551  89.848  1.00  0.00     0.115 A 
HETATM   11  C5  UNL     1      13.022  54.115  90.714  1.00  0.00     0.088 A 
HETATM   12  C7  UNL     1      12.834  53.905  92.057  1.00  0.00     0.117 A 
HETATM   13  N5  UNL     1      11.733  53.157  92.428  1.00  0.00    -0.319 N 
HETATM   14  C8  UNL     1      10.858  52.637  91.591  1.00  0.00     0.180 A 
ATOM     15  H5  UNL     1      11.586  52.997  93.424  1.00  0.00     0.170 HD
HETATM   16  S1  UNL     1       9.571  51.765  92.071  1.00  0.00    -0.040 SA
BRANCH  11  17
HETATM   17  C6  UNL     1      14.136  54.878  90.198  1.00  0.00     0.270 C 
HETATM   18  N3  UNL     1      14.236  56.279  90.146  1.00  0.00    -0.057 NA
HETATM   19  O1  UNL     1      15.147  54.233  89.739  1.00  0.00    -0.271 OA
ENDBRANCH  11  17
BRANCH  12  20
HETATM   20  N4  UNL     1      13.578  54.334  92.974  1.00  0.00    -0.385 N 
ATOM     21  H42 UNL     1      13.549  55.333  93.175  1.00  0.00     0.157 HD
ATOM     22  H41 UNL     1      14.211  53.767  93.537  1.00  0.00     0.157 HD
ENDBRANCH  12  20
ENDBRANCH   4   9
BRANCH   7  23
HETATM   23  S2  UNL     1      10.689  49.611  86.485  1.00  0.00     0.304 S 
HETATM   24  O2  UNL     1       9.961  48.267  86.660  1.00  0.00    -0.188 OA
HETATM   25  O3  UNL     1      12.101  49.352  86.978  1.00  0.00    -0.188 OA
BRANCH  23  26
HETATM   26  N7  UNL     1      10.639  50.053  84.868  1.00  0.00    -0.273 N 
HETATM   27  C11 UNL     1      11.043  49.130  83.891  1.00  0.00     0.077 C 
HETATM   28  C12 UNL     1      10.011  48.783  82.850  1.00  0.00     0.045 C 
HETATM   29  C13 UNL     1       9.200  49.889  82.325  1.00  0.00     0.005 C 
HETATM   30  C14 UNL     1       9.339  51.217  82.965  1.00  0.00     0.002 C 
HETATM   31  C15 UNL     1      10.754  51.678  83.140  1.00  0.00     0.026 C 
HETATM   32  C16 UNL     1      11.141  51.361  84.569  1.00  0.00     0.102 C 
BRANCH  32  33
HETATM   33  C17 UNL     1      12.618  51.513  84.826  1.00  0.00     0.031 C 
BRANCH  33  34
HETATM   34  C18 UNL     1      13.340  52.079  83.617  1.00  0.00    -0.013 C 
HETATM   35  C19 UNL     1      14.583  52.846  84.020  1.00  0.00     0.005 C 
HETATM   36  C20 UNL     1      15.411  51.982  83.098  1.00  0.00     0.001 C 
HETATM   37  C21 UNL     1      14.236  51.043  82.978  1.00  0.00     0.005 C 
ENDBRANCH  33  34
ENDBRANCH  32  33
ENDBRANCH  23  26
ENDBRANCH   7  23
ENDBRANCH   3   4
TORSDOF 8
ENDMDL
MODEL 3
REMARK VINA RESULT: -6.430665038      4.693      9.812
REMARK  8 active torsions:
REMARK  status: ('A' for Active; 'I' for Inactive)
REMARK    1  A    between atoms: C2_3  and  C3_4 
REMARK    2  A    between atoms: C3_4  and  N2_5 
REMARK    3  A    between atoms: C5_7  and  C6_8 
REMARK    4  A    between atoms: C7_11  and  N4_12 
REMARK    5  A    between atoms: N6_21  and  S2_22 
REMARK    6  A    between atoms: S2_22  and  N7_25 
REMARK    7  A    between atoms: C16_31  and  C17_32 
REMARK    8  A    between atoms: C17_32  and  C18_33 
ROOT
HETATM    1  N1  UNL     1       8.784  54.993  89.511  1.00  0.00    -0.197 NA
HETATM    2  C1  UNL     1       8.804  53.869  89.311  1.00  0.00     0.061 C 
HETATM    3  C2  UNL     1       8.846  52.441  89.043  1.00  0.00     0.156 C 
ENDROOT
BRANCH   3   4
HETATM    4  C3  UNL     1      10.283  51.955  88.993  1.00  0.00     0.065 C 
HETATM    5  C9  UNL     1      10.263  50.483  88.850  1.00  0.00     0.049 C 
HETATM    6  C10 UNL     1      10.312  50.232  87.332  1.00  0.00     0.111 C 
HETATM    7  N6  UNL     1      10.332  51.486  86.700  1.00  0.00    -0.191 NA
HETATM    8  C22 UNL     1      10.849  52.452  87.647  1.00  0.00     0.141 C 
BRANCH   4   9
HETATM    9  N2  UNL     1      11.093  52.513  90.025  1.00  0.00    -0.321 N 
HETATM   10  C4  UNL     1      12.116  53.328  89.711  1.00  0.00     0.115 A 
HETATM   11  C5  UNL     1      12.962  53.926  90.652  1.00  0.00     0.088 A 
HETATM   12  C7  UNL     1      12.714  53.650  91.974  1.00  0.00     0.117 A 
HETATM   13  N5  UNL     1      11.653  52.809  92.250  1.00  0.00    -0.319 N 
HETATM   14  C8  UNL     1      10.871  52.258  91.344  1.00  0.00     0.180 A 
ATOM     15  H5  UNL     1      11.461  52.598  93.230  1.00  0.00     0.170 HD
HETATM   16  S1  UNL     1       9.628  51.275  91.715  1.00  0.00    -0.040 SA
BRANCH  11  17
HETATM   17  C6  UNL     1      14.042  54.790  90.232  1.00  0.00     0.270 C 
HETATM   18  N3  UNL     1      14.019  56.194  90.185  1.00  0.00    -0.057 NA
HETATM   19  O1  UNL     1      15.143  54.241  89.862  1.00  0.00    -0.271 OA
ENDBRANCH  11  17
BRANCH  12  20
HETATM   20  N4  UNL     1      13.368  54.097  92.948  1.00  0.00    -0.385 N 
ATOM     21  H42 UNL     1      13.799  55.015  92.844  1.00  0.00     0.157 HD
ATOM     22  H41 UNL     1      13.507  53.618  93.838  1.00  0.00     0.157 HD
ENDBRANCH  12  20
ENDBRANCH   4   9
BRANCH   7  23
HETATM   23  S2  UNL     1      10.989  51.613  85.144  1.00  0.00     0.304 S 
HETATM   24  O2  UNL     1      12.120  52.656  85.206  1.00  0.00    -0.188 OA
HETATM   25  O3  UNL     1       9.919  52.256  84.282  1.00  0.00    -0.188 OA
BRANCH  23  26
HETATM   26  N7  UNL     1      11.590  50.196  84.480  1.00  0.00    -0.273 N 
HETATM   27  C11 UNL     1      12.733  49.605  85.041  1.00  0.00     0.077 C 
HETATM   28  C12 UNL     1      12.566  48.190  85.530  1.00  0.00     0.045 C 
HETATM   29  C13 UNL     1      11.782  47.282  84.682  1.00  0.00     0.005 C 
HETATM   30  C14 UNL     1      11.084  47.857  83.509  1.00  0.00     0.002 C 
HETATM   31  C15 UNL     1      11.939  48.731  82.643  1.00  0.00     0.026 C 
HETATM   32  C16 UNL     1      11.651  50.161  83.048  1.00  0.00     0.102 C 
BRANCH  32  33
HETATM   33  C17 UNL     1      12.628  51.147  82.463  1.00  0.00     0.031 C 
BRANCH  33  34
HETATM   34  C18 UNL     1      13.835  50.448  81.865  1.00  0.00    -0.013 C 
HETATM   35  C19 UNL     1      14.007  50.792  80.399  1.00  0.00     0.005 C 
HETATM   36  C20 UNL     1      15.421  51.249  80.675  1.00  0.00     0.001 C 
HETATM   37  C21 UNL     1      15.108  51.213  82.151  1.00  0.00     0.005 C 
ENDBRANCH  33  34
ENDBRANCH  32  33
ENDBRANCH  23  26
ENDBRANCH   7  23
ENDBRANCH   3   4
TORSDOF 8
ENDMDL
MODEL 4
REMARK VINA RESULT: -6.416801522      3.023      8.207
REMARK  8 active torsions:
REMARK  status: ('A' for Active; 'I' for Inactive)
REMARK    1  A    between atoms: C2_3  and  C3_4 
REMARK    2  A    between atoms: C3_4  and  N2_5 
REMARK    3  A    between atoms: C5_7  and  C6_8 
REMARK    4  A    between atoms: C7_11  and  N4_12 
REMARK    5  A    between atoms: N6_21  and  S2_22 
REMARK    6  A    between atoms: S2_22  and  N7_25 
REMARK    7  A    between atoms: C16_31  and  C17_32 
REMARK    8  A    between atoms: C17_32  and  C18_33 
ROOT
HETATM    1  N1  UNL     1      14.715  55.938  90.228  1.00  0.00    -0.197 NA
HETATM    2  C1  UNL     1      14.494  54.965  90.783  1.00  0.00     0.061 C 
HETATM    3  C2  UNL     1      14.201  53.738  91.505  1.00  0.00     0.156 C 
ENDROOT
BRANCH   3   4
HETATM    4  C3  UNL     1      12.729  53.679  91.872  1.00  0.00     0.065 C 
HETATM    5  C9  UNL     1      11.987  54.535  90.922  1.00  0.00     0.049 C 
HETATM    6  C10 UNL     1      11.559  53.587  89.787  1.00  0.00     0.111 C 
HETATM    7  N6  UNL     1      12.060  52.312  90.094  1.00  0.00    -0.191 NA
HETATM    8  C22 UNL     1      12.266  52.250  91.526  1.00  0.00     0.141 C 
BRANCH   4   9
HETATM    9  N2  UNL     1      12.499  53.874  93.266  1.00  0.00    -0.321 N 
HETATM   10  C4  UNL     1      11.923  55.010  93.700  1.00  0.00     0.115 A 
HETATM   11  C5  UNL     1      11.653  55.291  95.044  1.00  0.00     0.088 A 
HETATM   12  C7  UNL     1      12.004  54.331  95.961  1.00  0.00     0.117 A 
HETATM   13  N5  UNL     1      12.591  53.180  95.471  1.00  0.00    -0.319 N 
HETATM   14  C8  UNL     1      12.835  52.941  94.198  1.00  0.00     0.180 A 
ATOM     15  H5  UNL     1      12.855  52.462  96.145  1.00  0.00     0.170 HD
HETATM   16  S1  UNL     1      13.526  51.568  93.664  1.00  0.00    -0.040 SA
BRANCH  11  17
HETATM   17  C6  UNL     1      11.033  56.539  95.429  1.00  0.00     0.270 C 
HETATM   18  N3  UNL     1       9.764  56.697  96.009  1.00  0.00    -0.057 NA
HETATM   19  O1  UNL     1      11.692  57.624  95.232  1.00  0.00    -0.271 OA
ENDBRANCH  11  17
BRANCH  12  20
HETATM   20  N4  UNL     1      11.837  54.413  97.203  1.00  0.00    -0.385 N 
ATOM     21  H42 UNL     1      11.208  55.137  97.546  1.00  0.00     0.157 HD
ATOM     22  H41 UNL     1      12.279  53.815  97.901  1.00  0.00     0.157 HD
ENDBRANCH  12  20
ENDBRANCH   4   9
BRANCH   7  23
HETATM   23  S2  UNL     1      11.298  50.948  89.439  1.00  0.00     0.304 S 
HETATM   24  O2  UNL     1      10.542  50.250  90.583  1.00  0.00    -0.188 OA
HETATM   25  O3  UNL     1      12.406  49.983  89.062  1.00  0.00    -0.188 OA
BRANCH  23  26
HETATM   26  N7  UNL     1      10.232  51.236  88.176  1.00  0.00    -0.273 N 
HETATM   27  C11 UNL     1       9.568  50.154  87.578  1.00  0.00     0.077 C 
HETATM   28  C12 UNL     1       8.063  50.210  87.608  1.00  0.00     0.045 C 
HETATM   29  C13 UNL     1       7.442  51.514  87.337  1.00  0.00     0.005 C 
HETATM   30  C14 UNL     1       8.328  52.694  87.218  1.00  0.00     0.002 C 
HETATM   31  C15 UNL     1       9.501  52.503  86.305  1.00  0.00     0.026 C 
HETATM   32  C16 UNL     1      10.686  52.164  87.183  1.00  0.00     0.102 C 
BRANCH  32  33
HETATM   33  C17 UNL     1      11.878  51.675  86.402  1.00  0.00     0.031 C 
BRANCH  33  34
HETATM   34  C18 UNL     1      12.247  52.637  85.288  1.00  0.00    -0.013 C 
HETATM   35  C19 UNL     1      13.412  53.523  85.682  1.00  0.00     0.005 C 
HETATM   36  C20 UNL     1      14.164  53.078  84.448  1.00  0.00     0.001 C 
HETATM   37  C21 UNL     1      13.148  51.976  84.269  1.00  0.00     0.005 C 
ENDBRANCH  33  34
ENDBRANCH  32  33
ENDBRANCH  23  26
ENDBRANCH   7  23
ENDBRANCH   3   4
TORSDOF 8
ENDMDL
MODEL 5
REMARK VINA RESULT: -6.222442771      2.268      3.334
REMARK  8 active torsions:
REMARK  status: ('A' for Active; 'I' for Inactive)
REMARK    1  A    between atoms: C2_3  and  C3_4 
REMARK    2  A    between atoms: C3_4  and  N2_5 
REMARK    3  A    between atoms: C5_7  and  C6_8 
REMARK    4  A    between atoms: C7_11  and  N4_12 
REMARK    5  A    between atoms: N6_21  and  S2_22 
REMARK    6  A    between atoms: S2_22  and  N7_25 
REMARK    7  A    between atoms: C16_31  and  C17_32 
REMARK    8  A    between atoms: C17_32  and  C18_33 
ROOT
HETATM    1  N1  UNL     1      12.484  49.761  92.414  1.00  0.00    -0.197 NA
HETATM    2  C1  UNL     1      11.518  50.358  92.301  1.00  0.00     0.061 C 
HETATM    3  C2  UNL     1      10.295  51.134  92.173  1.00  0.00     0.156 C 
ENDROOT
BRANCH   3   4
HETATM    4  C3  UNL     1      10.615  52.614  92.073  1.00  0.00     0.065 C 
HETATM    5  C9  UNL     1       9.396  53.370  92.430  1.00  0.00     0.049 C 
HETATM    6  C10 UNL     1       9.517  53.627  93.942  1.00  0.00     0.111 C 
HETATM    7  N6  UNL     1      10.710  53.027  94.376  1.00  0.00    -0.191 NA
HETATM    8  C22 UNL     1      11.589  52.912  93.231  1.00  0.00     0.141 C 
BRANCH   4   9
HETATM    9  N2  UNL     1      11.281  52.956  90.860  1.00  0.00    -0.321 N 
HETATM   10  C4  UNL     1      12.419  53.673  90.896  1.00  0.00     0.115 A 
HETATM   11  C5  UNL     1      13.145  54.052  89.761  1.00  0.00     0.088 A 
HETATM   12  C7  UNL     1      12.647  53.657  88.545  1.00  0.00     0.117 A 
HETATM   13  N5  UNL     1      11.477  52.922  88.555  1.00  0.00    -0.319 N 
HETATM   14  C8  UNL     1      10.812  52.577  89.639  1.00  0.00     0.180 A 
ATOM     15  H5  UNL     1      11.100  52.624  87.655  1.00  0.00     0.170 HD
HETATM   16  S1  UNL     1       9.437  51.707  89.605  1.00  0.00    -0.040 SA
BRANCH  11  17
HETATM   17  C6  UNL     1      14.360  54.826  89.885  1.00  0.00     0.270 C 
HETATM   18  N3  UNL     1      14.450  56.206  90.133  1.00  0.00    -0.057 NA
HETATM   19  O1  UNL     1      15.480  54.211  89.761  1.00  0.00    -0.271 OA
ENDBRANCH  11  17
BRANCH  12  20
HETATM   20  N4  UNL     1      13.164  53.907  87.428  1.00  0.00    -0.385 N 
ATOM     21  H42 UNL     1      13.779  54.718  87.365  1.00  0.00     0.157 HD
ATOM     22  H41 UNL     1      13.022  53.367  86.575  1.00  0.00     0.157 HD
ENDBRANCH  12  20
ENDBRANCH   4   9
BRANCH   7  23
HETATM   23  S2  UNL     1      11.462  53.607  95.778  1.00  0.00     0.304 S 
HETATM   24  O2  UNL     1      12.936  53.880  95.430  1.00  0.00    -0.188 OA
HETATM   25  O3  UNL     1      11.504  52.443  96.750  1.00  0.00    -0.188 OA
BRANCH  23  26
HETATM   26  N7  UNL     1      10.795  54.990  96.453  1.00  0.00    -0.273 N 
HETATM   27  C11 UNL     1      11.318  56.245  96.105  1.00  0.00     0.077 C 
HETATM   28  C12 UNL     1      10.342  57.216  95.494  1.00  0.00     0.045 C 
HETATM   29  C13 UNL     1       9.001  57.274  96.092  1.00  0.00     0.005 C 
HETATM   30  C14 UNL     1       8.659  56.274  97.129  1.00  0.00     0.002 C 
HETATM   31  C15 UNL     1       9.681  56.129  98.215  1.00  0.00     0.026 C 
HETATM   32  C16 UNL     1      10.526  54.924  97.859  1.00  0.00     0.102 C 
BRANCH  32  33
HETATM   33  C17 UNL     1      11.768  54.804  98.704  1.00  0.00     0.031 C 
BRANCH  33  34
HETATM   34  C18 UNL     1      11.443  54.324 100.107  1.00  0.00    -0.013 C 
HETATM   35  C19 UNL     1      10.623  53.049 100.082  1.00  0.00     0.005 C 
HETATM   36  C20 UNL     1      11.651  52.374 100.961  1.00  0.00     0.001 C 
HETATM   37  C21 UNL     1      12.587  53.527 100.691  1.00  0.00     0.005 C 
ENDBRANCH  33  34
ENDBRANCH  32  33
ENDBRANCH  23  26
ENDBRANCH   7  23
ENDBRANCH   3   4
TORSDOF 8
ENDMDL
