MODEL 1
REMARK VINA RESULT: -8.332306705      0.000      0.000
REMARK  9 active torsions:
REMARK  status: ('A' for Active; 'I' for Inactive)
REMARK    1  A    between atoms: O1_1  and  C1_3 
REMARK    2  A    between atoms: C1_3  and  C2_4 
REMARK    3  A    between atoms: C1_3  and  C20_25 
REMARK    4  A    between atoms: C2_4  and  O2_5 
REMARK    5  A    between atoms: O2_5  and  C3_6 
REMARK    6  A    between atoms: C3_6  and  C4_7 
REMARK    7  A    between atoms: C3_6  and  C10_13 
REMARK    8  A    between atoms: C3_6  and  C16_19 
REMARK    9  A    between atoms: C20_25  and  N2_26 
ROOT
HETATM    1  C2  UNL     1       9.972  51.348  83.868  1.00  0.00     0.203 C 
ENDROOT
BRANCH   1   2
HETATM    2  C1  UNL     1       9.359  52.066  85.058  1.00  0.00     0.161 C 
BRANCH   2   3
HETATM    3  O1  UNL     1       9.737  53.383  85.161  1.00  0.00    -0.392 OA
ATOM      4  H1  UNL     1      10.010  53.634  86.036  1.00  0.00     0.210 HD
ENDBRANCH   2   3
BRANCH   2   5
HETATM    5  C20 UNL     1       9.561  51.319  86.336  1.00  0.00     0.177 C 
BRANCH   5   6
HETATM    6  N2  UNL     1       9.917  52.239  87.429  1.00  0.00    -0.314 N 
HETATM    7  C21 UNL     1       8.843  52.515  88.364  1.00  0.00     0.221 C 
HETATM    8  S1  UNL     1       9.562  52.665  90.048  1.00  0.00    -0.104 SA
HETATM    9  C22 UNL     1      11.228  53.252  89.786  1.00  0.00     0.060 A 
HETATM   10  C23 UNL     1      12.156  53.779  90.571  1.00  0.00     0.014 A 
HETATM   11  C29 UNL     1      11.835  53.207  88.468  1.00  0.00     0.138 A 
HETATM   12  C24 UNL     1      12.053  54.034  91.946  1.00  0.00     0.015 A 
HETATM   13  C28 UNL     1      13.303  54.077  89.887  1.00  0.00     0.084 A 
HETATM   14  C25 UNL     1      13.106  54.588  92.632  1.00  0.00     0.004 A 
HETATM   15  C26 UNL     1      14.254  54.884  91.933  1.00  0.00     0.045 A 
HETATM   16  C27 UNL     1      14.369  54.642  90.590  1.00  0.00     0.143 A 
HETATM   17  F1  UNL     1      15.476  54.916  89.871  1.00  0.00    -0.204 F 
HETATM   18  N3  UNL     1      13.136  53.751  88.661  1.00  0.00    -0.337 N 
ATOM     19  H3  UNL     1      13.835  53.864  87.927  1.00  0.00     0.167 HD
HETATM   20  N4  UNL     1      11.188  52.741  87.468  1.00  0.00    -0.286 N 
ATOM     21  H4  UNL     1      11.688  52.744  86.580  1.00  0.00     0.188 HD
ENDBRANCH   5   6
ENDBRANCH   2   5
ENDBRANCH   1   2
BRANCH   1  22
HETATM   22  O2  UNL     1      11.306  51.634  83.860  1.00  0.00    -0.361 OA
BRANCH  22  23
HETATM   23  C3  UNL     1      12.139  50.646  83.366  1.00  0.00     0.157 C 
BRANCH  23  24
HETATM   24  C4  UNL     1      13.518  51.259  83.261  1.00  0.00    -0.013 A 
HETATM   25  C5  UNL     1      14.499  50.769  82.460  1.00  0.00     0.011 A 
HETATM   26  C6  UNL     1      15.744  51.401  82.419  1.00  0.00     0.001 A 
HETATM   27  C7  UNL     1      15.994  52.515  83.180  1.00  0.00     0.000 A 
HETATM   28  C8  UNL     1      15.006  53.008  83.987  1.00  0.00     0.001 A 
HETATM   29  C9  UNL     1      13.799  52.378  84.013  1.00  0.00     0.011 A 
ENDBRANCH  23  24
BRANCH  23  30
HETATM   30  C10 UNL     1      11.826  50.206  81.993  1.00  0.00    -0.013 A 
HETATM   31  C11 UNL     1      11.359  51.105  81.076  1.00  0.00     0.011 A 
HETATM   32  C12 UNL     1      11.059  50.644  79.786  1.00  0.00     0.001 A 
HETATM   33  C13 UNL     1      11.225  49.324  79.430  1.00  0.00     0.000 A 
HETATM   34  C14 UNL     1      11.695  48.431  80.360  1.00  0.00     0.001 A 
HETATM   35  C15 UNL     1      11.989  48.895  81.641  1.00  0.00     0.011 A 
ENDBRANCH  23  30
BRANCH  23  36
HETATM   36  C16 UNL     1      12.147  49.502  84.336  1.00  0.00     0.053 A 
HETATM   37  C17 UNL     1      13.129  49.152  85.230  1.00  0.00     0.030 A 
HETATM   38  C18 UNL     1      12.694  48.046  85.899  1.00  0.00     0.019 A 
HETATM   39  C19 UNL     1      11.436  47.747  85.388  1.00  0.00     0.088 A 
HETATM   40  N1  UNL     1      11.118  48.645  84.436  1.00  0.00    -0.366 N 
ATOM     41  H1  UNL     1      10.256  48.670  83.892  1.00  0.00     0.165 HD
ENDBRANCH  23  36
ENDBRANCH  22  23
ENDBRANCH   1  22
TORSDOF 9
ENDMDL
MODEL 2
REMARK VINA RESULT: -8.261239489      2.898      8.846
REMARK  9 active torsions:
REMARK  status: ('A' for Active; 'I' for Inactive)
REMARK    1  A    between atoms: O1_1  and  C1_3 
REMARK    2  A    between atoms: C1_3  and  C2_4 
REMARK    3  A    between atoms: C1_3  and  C20_25 
REMARK    4  A    between atoms: C2_4  and  O2_5 
REMARK    5  A    between atoms: O2_5  and  C3_6 
REMARK    6  A    between atoms: C3_6  and  C4_7 
REMARK    7  A    between atoms: C3_6  and  C10_13 
REMARK    8  A    between atoms: C3_6  and  C16_19 
REMARK    9  A    between atoms: C20_25  and  N2_26 
ROOT
HETATM    1  C2  UNL     1       9.957  53.771  91.102  1.00  0.00     0.203 C 
ENDROOT
BRANCH   1   2
HETATM    2  C1  UNL     1       9.422  54.169  89.739  1.00  0.00     0.161 C 
BRANCH   2   3
HETATM    3  O1  UNL     1       8.558  55.237  89.775  1.00  0.00    -0.392 OA
ATOM      4  H1  UNL     1       7.648  54.988  89.891  1.00  0.00     0.210 HD
ENDBRANCH   2   3
BRANCH   2   5
HETATM    5  C20 UNL     1       8.853  53.007  88.991  1.00  0.00     0.177 C 
BRANCH   5   6
HETATM    6  N2  UNL     1       9.904  52.304  88.237  1.00  0.00    -0.314 N 
HETATM    7  C21 UNL     1       9.713  50.871  88.123  1.00  0.00     0.221 C 
HETATM    8  S1  UNL     1      10.291  50.338  86.461  1.00  0.00    -0.104 SA
HETATM    9  C22 UNL     1      11.563  51.511  86.020  1.00  0.00     0.060 A 
HETATM   10  C23 UNL     1      12.510  51.540  85.094  1.00  0.00     0.014 A 
HETATM   11  C29 UNL     1      11.716  52.755  86.751  1.00  0.00     0.138 A 
HETATM   12  C24 UNL     1      12.780  50.559  84.130  1.00  0.00     0.015 A 
HETATM   13  C28 UNL     1      13.259  52.684  85.158  1.00  0.00     0.084 A 
HETATM   14  C25 UNL     1      13.803  50.729  83.229  1.00  0.00     0.004 A 
HETATM   15  C26 UNL     1      14.548  51.884  83.304  1.00  0.00     0.045 A 
HETATM   16  C27 UNL     1      14.298  52.852  84.240  1.00  0.00     0.143 A 
HETATM   17  F1  UNL     1      15.005  53.994  84.345  1.00  0.00    -0.204 F 
HETATM   18  N3  UNL     1      12.812  53.405  86.116  1.00  0.00    -0.337 N 
ATOM     19  H3  UNL     1      13.186  54.315  86.386  1.00  0.00     0.167 HD
HETATM   20  N4  UNL     1      10.938  53.038  87.726  1.00  0.00    -0.286 N 
ATOM     21  H4  UNL     1      11.113  53.932  88.184  1.00  0.00     0.188 HD
ENDBRANCH   5   6
ENDBRANCH   2   5
ENDBRANCH   1   2
BRANCH   1  22
HETATM   22  O2  UNL     1      11.121  53.088  90.903  1.00  0.00    -0.361 OA
BRANCH  22  23
HETATM   23  C3  UNL     1      12.166  53.400  91.754  1.00  0.00     0.157 C 
BRANCH  23  24
HETATM   24  C4  UNL     1      12.774  52.085  92.189  1.00  0.00    -0.013 A 
HETATM   25  C5  UNL     1      13.690  51.973  93.185  1.00  0.00     0.011 A 
HETATM   26  C6  UNL     1      14.197  50.717  93.527  1.00  0.00     0.001 A 
HETATM   27  C7  UNL     1      13.782  49.587  92.868  1.00  0.00     0.000 A 
HETATM   28  C8  UNL     1      12.859  49.699  91.864  1.00  0.00     0.001 A 
HETATM   29  C9  UNL     1      12.377  50.932  91.546  1.00  0.00     0.011 A 
ENDBRANCH  23  24
BRANCH  23  30
HETATM   30  C10 UNL     1      11.760  54.052  93.014  1.00  0.00    -0.013 A 
HETATM   31  C11 UNL     1      12.513  55.065  93.535  1.00  0.00     0.011 A 
HETATM   32  C12 UNL     1      12.101  55.649  94.741  1.00  0.00     0.001 A 
HETATM   33  C13 UNL     1      10.967  55.228  95.401  1.00  0.00     0.000 A 
HETATM   34  C14 UNL     1      10.218  54.209  94.867  1.00  0.00     0.001 A 
HETATM   35  C15 UNL     1      10.635  53.633  93.668  1.00  0.00     0.011 A 
ENDBRANCH  23  30
BRANCH  23  36
HETATM   36  C16 UNL     1      13.170  54.215  90.995  1.00  0.00     0.053 A 
HETATM   37  C17 UNL     1      14.516  54.343  91.233  1.00  0.00     0.030 A 
HETATM   38  C18 UNL     1      15.018  55.187  90.286  1.00  0.00     0.019 A 
HETATM   39  C19 UNL     1      13.946  55.558  89.482  1.00  0.00     0.088 A 
HETATM   40  N1  UNL     1      12.827  54.956  89.929  1.00  0.00    -0.366 N 
ATOM     41  H1  UNL     1      11.892  55.046  89.531  1.00  0.00     0.165 HD
ENDBRANCH  23  36
ENDBRANCH  22  23
ENDBRANCH   1  22
TORSDOF 9
ENDMDL
MODEL 3
REMARK VINA RESULT: -8.230215474      0.740      1.137
REMARK  9 active torsions:
REMARK  status: ('A' for Active; 'I' for Inactive)
REMARK    1  A    between atoms: O1_1  and  C1_3 
REMARK    2  A    between atoms: C1_3  and  C2_4 
REMARK    3  A    between atoms: C1_3  and  C20_25 
REMARK    4  A    between atoms: C2_4  and  O2_5 
REMARK    5  A    between atoms: O2_5  and  C3_6 
REMARK    6  A    between atoms: C3_6  and  C4_7 
REMARK    7  A    between atoms: C3_6  and  C10_13 
REMARK    8  A    between atoms: C3_6  and  C16_19 
REMARK    9  A    between atoms: C20_25  and  N2_26 
ROOT
HETATM    1  C2  UNL     1      10.162  51.821  83.945  1.00  0.00     0.203 C 
ENDROOT
BRANCH   1   2
HETATM    2  C1  UNL     1       9.946  52.601  85.228  1.00  0.00     0.161 C 
BRANCH   2   3
HETATM    3  O1  UNL     1      10.782  53.685  85.362  1.00  0.00    -0.392 OA
ATOM      4  H1  UNL     1      10.360  54.516  85.180  1.00  0.00     0.210 HD
ENDBRANCH   2   3
BRANCH   2   5
HETATM    5  C20 UNL     1       9.962  51.723  86.436  1.00  0.00     0.177 C 
BRANCH   5   6
HETATM    6  N2  UNL     1      10.102  52.524  87.664  1.00  0.00    -0.314 N 
HETATM    7  C21 UNL     1       8.862  52.766  88.375  1.00  0.00     0.221 C 
HETATM    8  S1  UNL     1       9.209  52.730  90.180  1.00  0.00    -0.104 SA
HETATM    9  C22 UNL     1      10.908  53.259  90.330  1.00  0.00     0.060 A 
HETATM   10  C23 UNL     1      11.661  53.668  91.340  1.00  0.00     0.014 A 
HETATM   11  C29 UNL     1      11.780  53.302  89.171  1.00  0.00     0.138 A 
HETATM   12  C24 UNL     1      11.276  53.804  92.681  1.00  0.00     0.015 A 
HETATM   13  C28 UNL     1      12.936  53.972  90.944  1.00  0.00     0.084 A 
HETATM   14  C25 UNL     1      12.172  54.244  93.623  1.00  0.00     0.004 A 
HETATM   15  C26 UNL     1      13.451  54.545  93.212  1.00  0.00     0.045 A 
HETATM   16  C27 UNL     1      13.843  54.419  91.906  1.00  0.00     0.143 A 
HETATM   17  F1  UNL     1      15.084  54.704  91.465  1.00  0.00    -0.204 F 
HETATM   18  N3  UNL     1      13.025  53.764  89.684  1.00  0.00    -0.337 N 
ATOM     19  H3  UNL     1      13.868  53.910  89.127  1.00  0.00     0.167 HD
HETATM   20  N4  UNL     1      11.349  52.959  88.017  1.00  0.00    -0.286 N 
ATOM     21  H4  UNL     1      12.027  53.018  87.258  1.00  0.00     0.188 HD
ENDBRANCH   5   6
ENDBRANCH   2   5
ENDBRANCH   1   2
BRANCH   1  22
HETATM   22  O2  UNL     1      11.488  51.906  83.631  1.00  0.00    -0.361 OA
BRANCH  22  23
HETATM   23  C3  UNL     1      12.056  50.778  83.067  1.00  0.00     0.157 C 
BRANCH  23  24
HETATM   24  C4  UNL     1      13.505  51.117  82.794  1.00  0.00    -0.013 A 
HETATM   25  C5  UNL     1      14.243  50.527  81.818  1.00  0.00     0.011 A 
HETATM   26  C6  UNL     1      15.574  50.905  81.629  1.00  0.00     0.001 A 
HETATM   27  C7  UNL     1      16.153  51.867  82.418  1.00  0.00     0.000 A 
HETATM   28  C8  UNL     1      15.409  52.461  83.401  1.00  0.00     0.001 A 
HETATM   29  C9  UNL     1      14.113  52.079  83.569  1.00  0.00     0.011 A 
ENDBRANCH  23  24
BRANCH  23  30
HETATM   30  C10 UNL     1      11.509  50.407  81.749  1.00  0.00    -0.013 A 
HETATM   31  C11 UNL     1      11.471  49.096  81.366  1.00  0.00     0.011 A 
HETATM   32  C12 UNL     1      10.957  48.787  80.098  1.00  0.00     0.001 A 
HETATM   33  C13 UNL     1      10.494  49.764  79.245  1.00  0.00     0.000 A 
HETATM   34  C14 UNL     1      10.536  51.078  79.641  1.00  0.00     0.001 A 
HETATM   35  C15 UNL     1      11.050  51.378  80.902  1.00  0.00     0.011 A 
ENDBRANCH  23  30
BRANCH  23  36
HETATM   36  C16 UNL     1      11.959  49.653  84.054  1.00  0.00     0.053 A 
HETATM   37  C17 UNL     1      12.910  49.220  84.946  1.00  0.00     0.030 A 
HETATM   38  C18 UNL     1      12.373  48.172  85.635  1.00  0.00     0.019 A 
HETATM   39  C19 UNL     1      11.088  47.991  85.137  1.00  0.00     0.088 A 
HETATM   40  N1  UNL     1      10.852  48.903  84.174  1.00  0.00    -0.366 N 
ATOM     41  H1  UNL     1       9.992  49.004  83.636  1.00  0.00     0.165 HD
ENDBRANCH  23  36
ENDBRANCH  22  23
ENDBRANCH   1  22
TORSDOF 9
ENDMDL
MODEL 4
REMARK VINA RESULT: -8.175140086      1.514      3.760
REMARK  9 active torsions:
REMARK  status: ('A' for Active; 'I' for Inactive)
REMARK    1  A    between atoms: O1_1  and  C1_3 
REMARK    2  A    between atoms: C1_3  and  C2_4 
REMARK    3  A    between atoms: C1_3  and  C20_25 
REMARK    4  A    between atoms: C2_4  and  O2_5 
REMARK    5  A    between atoms: O2_5  and  C3_6 
REMARK    6  A    between atoms: C3_6  and  C4_7 
REMARK    7  A    between atoms: C3_6  and  C10_13 
REMARK    8  A    between atoms: C3_6  and  C16_19 
REMARK    9  A    between atoms: C20_25  and  N2_26 
ROOT
HETATM    1  C2  UNL     1      10.419  51.698  82.931  1.00  0.00     0.203 C 
ENDROOT
BRANCH   1   2
HETATM    2  C1  UNL     1      10.094  52.071  84.366  1.00  0.00     0.161 C 
BRANCH   2   3
HETATM    3  O1  UNL     1      10.090  53.426  84.596  1.00  0.00    -0.392 OA
ATOM      4  H1  UNL     1      10.023  53.657  85.515  1.00  0.00     0.210 HD
ENDBRANCH   2   3
BRANCH   2   5
HETATM    5  C20 UNL     1      10.943  51.334  85.350  1.00  0.00     0.177 C 
BRANCH   5   6
HETATM    6  N2  UNL     1      10.973  52.036  86.644  1.00  0.00    -0.314 N 
HETATM    7  C21 UNL     1       9.875  51.714  87.535  1.00  0.00     0.221 C 
HETATM    8  S1  UNL     1      10.511  51.692  89.259  1.00  0.00    -0.104 SA
HETATM    9  C22 UNL     1      11.879  52.842  89.258  1.00  0.00     0.060 A 
HETATM   10  C23 UNL     1      12.578  53.445  90.207  1.00  0.00     0.014 A 
HETATM   11  C29 UNL     1      12.456  53.310  88.012  1.00  0.00     0.138 A 
HETATM   12  C24 UNL     1      12.404  53.321  91.593  1.00  0.00     0.015 A 
HETATM   13  C28 UNL     1      13.552  54.258  89.694  1.00  0.00     0.084 A 
HETATM   14  C25 UNL     1      13.211  54.014  92.461  1.00  0.00     0.004 A 
HETATM   15  C26 UNL     1      14.187  54.828  91.932  1.00  0.00     0.045 A 
HETATM   16  C27 UNL     1      14.369  54.961  90.581  1.00  0.00     0.143 A 
HETATM   17  F1  UNL     1      15.312  55.746  90.025  1.00  0.00    -0.204 F 
HETATM   18  N3  UNL     1      13.498  54.192  88.416  1.00  0.00    -0.337 N 
ATOM     19  H3  UNL     1      14.113  54.699  87.779  1.00  0.00     0.167 HD
HETATM   20  N4  UNL     1      12.000  52.906  86.888  1.00  0.00    -0.286 N 
ATOM     21  H4  UNL     1      12.463  53.283  86.062  1.00  0.00     0.188 HD
ENDBRANCH   5   6
ENDBRANCH   2   5
ENDBRANCH   1   2
BRANCH   1  22
HETATM   22  O2  UNL     1      11.061  50.493  82.956  1.00  0.00    -0.361 OA
BRANCH  22  23
HETATM   23  C3  UNL     1      11.694  50.115  81.786  1.00  0.00     0.157 C 
BRANCH  23  24
HETATM   24  C4  UNL     1      11.760  48.604  81.802  1.00  0.00    -0.013 A 
HETATM   25  C5  UNL     1      12.100  47.855  80.721  1.00  0.00     0.011 A 
HETATM   26  C6  UNL     1      12.142  46.463  80.825  1.00  0.00     0.001 A 
HETATM   27  C7  UNL     1      11.843  45.835  82.009  1.00  0.00     0.000 A 
HETATM   28  C8  UNL     1      11.500  46.589  83.097  1.00  0.00     0.001 A 
HETATM   29  C9  UNL     1      11.465  47.945  82.975  1.00  0.00     0.011 A 
ENDBRANCH  23  24
BRANCH  23  30
HETATM   30  C10 UNL     1      13.101  50.544  81.681  1.00  0.00    -0.013 A 
HETATM   31  C11 UNL     1      13.736  50.523  80.471  1.00  0.00     0.011 A 
HETATM   32  C12 UNL     1      15.078  50.925  80.416  1.00  0.00     0.001 A 
HETATM   33  C13 UNL     1      15.760  51.335  81.541  1.00  0.00     0.000 A 
HETATM   34  C14 UNL     1      15.112  51.352  82.751  1.00  0.00     0.001 A 
HETATM   35  C15 UNL     1      13.777  50.950  82.798  1.00  0.00     0.011 A 
ENDBRANCH  23  30
BRANCH  23  36
HETATM   36  C16 UNL     1      10.871  50.591  80.625  1.00  0.00     0.053 A 
HETATM   37  C17 UNL     1      11.032  51.733  79.880  1.00  0.00     0.030 A 
HETATM   38  C18 UNL     1      10.050  51.743  78.934  1.00  0.00     0.019 A 
HETATM   39  C19 UNL     1       9.303  50.586  79.131  1.00  0.00     0.088 A 
HETATM   40  N1  UNL     1       9.819  49.895  80.166  1.00  0.00    -0.366 N 
ATOM     41  H1  UNL     1       9.473  49.009  80.533  1.00  0.00     0.165 HD
ENDBRANCH  23  36
ENDBRANCH  22  23
ENDBRANCH   1  22
TORSDOF 9
ENDMDL
MODEL 5
REMARK VINA RESULT: -8.160295270      0.730      3.299
REMARK  9 active torsions:
REMARK  status: ('A' for Active; 'I' for Inactive)
REMARK    1  A    between atoms: O1_1  and  C1_3 
REMARK    2  A    between atoms: C1_3  and  C2_4 
REMARK    3  A    between atoms: C1_3  and  C20_25 
REMARK    4  A    between atoms: C2_4  and  O2_5 
REMARK    5  A    between atoms: O2_5  and  C3_6 
REMARK    6  A    between atoms: C3_6  and  C4_7 
REMARK    7  A    between atoms: C3_6  and  C10_13 
REMARK    8  A    between atoms: C3_6  and  C16_19 
REMARK    9  A    between atoms: C20_25  and  N2_26 
ROOT
HETATM    1  C2  UNL     1      10.016  51.378  83.840  1.00  0.00     0.203 C 
ENDROOT
BRANCH   1   2
HETATM    2  C1  UNL     1       9.379  52.063  85.035  1.00  0.00     0.161 C 
BRANCH   2   3
HETATM    3  O1  UNL     1       9.729  53.387  85.163  1.00  0.00    -0.392 OA
ATOM      4  H1  UNL     1       9.013  53.988  84.993  1.00  0.00     0.210 HD
ENDBRANCH   2   3
BRANCH   2   5
HETATM    5  C20 UNL     1       9.583  51.300  86.303  1.00  0.00     0.177 C 
BRANCH   5   6
HETATM    6  N2  UNL     1       9.922  52.209  87.411  1.00  0.00    -0.314 N 
HETATM    7  C21 UNL     1       8.838  52.461  88.342  1.00  0.00     0.221 C 
HETATM    8  S1  UNL     1       9.543  52.594  90.034  1.00  0.00    -0.104 SA
HETATM    9  C22 UNL     1      11.205  53.202  89.792  1.00  0.00     0.060 A 
HETATM   10  C23 UNL     1      12.122  53.726  90.591  1.00  0.00     0.014 A 
HETATM   11  C29 UNL     1      11.822  53.180  88.478  1.00  0.00     0.138 A 
HETATM   12  C24 UNL     1      12.007  53.961  91.969  1.00  0.00     0.015 A 
HETATM   13  C28 UNL     1      13.271  54.045  89.920  1.00  0.00     0.084 A 
HETATM   14  C25 UNL     1      13.049  54.516  92.670  1.00  0.00     0.004 A 
HETATM   15  C26 UNL     1      14.199  54.832  91.984  1.00  0.00     0.045 A 
HETATM   16  C27 UNL     1      14.327  54.610  90.638  1.00  0.00     0.143 A 
HETATM   17  F1  UNL     1      15.435  54.906  89.932  1.00  0.00    -0.204 F 
HETATM   18  N3  UNL     1      13.116  53.735  88.688  1.00  0.00    -0.337 N 
ATOM     19  H3  UNL     1      13.820  53.865  87.961  1.00  0.00     0.167 HD
HETATM   20  N4  UNL     1      11.188  52.723  87.467  1.00  0.00    -0.286 N 
ATOM     21  H4  UNL     1      11.694  52.743  86.582  1.00  0.00     0.188 HD
ENDBRANCH   5   6
ENDBRANCH   2   5
ENDBRANCH   1   2
BRANCH   1  22
HETATM   22  O2  UNL     1      11.349  51.669  83.863  1.00  0.00    -0.361 OA
BRANCH  22  23
HETATM   23  C3  UNL     1      12.173  50.815  83.153  1.00  0.00     0.157 C 
BRANCH  23  24
HETATM   24  C4  UNL     1      12.253  49.532  83.951  1.00  0.00    -0.013 A 
HETATM   25  C5  UNL     1      11.871  48.322  83.468  1.00  0.00     0.011 A 
HETATM   26  C6  UNL     1      11.984  47.185  84.272  1.00  0.00     0.001 A 
HETATM   27  C7  UNL     1      12.477  47.272  85.550  1.00  0.00     0.000 A 
HETATM   28  C8  UNL     1      12.862  48.492  86.036  1.00  0.00     0.001 A 
HETATM   29  C9  UNL     1      12.744  49.587  85.237  1.00  0.00     0.011 A 
ENDBRANCH  23  24
BRANCH  23  30
HETATM   30  C10 UNL     1      13.573  51.265  83.037  1.00  0.00    -0.013 A 
HETATM   31  C11 UNL     1      14.038  52.271  83.836  1.00  0.00     0.011 A 
HETATM   32  C12 UNL     1      15.371  52.679  83.685  1.00  0.00     0.001 A 
HETATM   33  C13 UNL     1      16.209  52.094  82.761  1.00  0.00     0.000 A 
HETATM   34  C14 UNL     1      15.731  51.083  81.965  1.00  0.00     0.001 A 
HETATM   35  C15 UNL     1      14.404  50.684  82.120  1.00  0.00     0.011 A 
ENDBRANCH  23  30
BRANCH  23  36
HETATM   36  C16 UNL     1      11.550  50.559  81.813  1.00  0.00     0.053 A 
HETATM   37  C17 UNL     1      11.241  51.468  80.831  1.00  0.00     0.030 A 
HETATM   38  C18 UNL     1      10.692  50.775  79.793  1.00  0.00     0.019 A 
HETATM   39  C19 UNL     1      10.680  49.438  80.176  1.00  0.00     0.088 A 
HETATM   40  N1  UNL     1      11.207  49.325  81.410  1.00  0.00    -0.366 N 
ATOM     41  H1  UNL     1      11.325  48.462  81.940  1.00  0.00     0.165 HD
ENDBRANCH  23  36
ENDBRANCH  22  23
ENDBRANCH   1  22
TORSDOF 9
ENDMDL
