MODEL 1
REMARK VINA RESULT: -7.182023307      0.000      0.000
REMARK  13 active torsions:
REMARK  status: ('A' for Active; 'I' for Inactive)
REMARK    1  A    between atoms: O1_1  and  C1_3 
REMARK    2  A    between atoms: C1_3  and  C2_4 
REMARK    3  A    between atoms: C2_4  and  O2_5 
REMARK    4  A    between atoms: C2_4  and  C3_7 
REMARK    5  A    between atoms: C3_7  and  N1_8 
REMARK    6  A    between atoms: N2_11  and  C6_12 
REMARK    7  A    between atoms: C6_12  and  C7_13 
REMARK    8  A    between atoms: C7_13  and  N3_14 
REMARK    9  A    between atoms: N3_14  and  C8_15 
REMARK   10  A    between atoms: C9_18  and  C10_19 
REMARK   11  A    between atoms: C19_31  and  C20_32 
REMARK   12  A    between atoms: C20_32  and  C21_33 
REMARK   13  A    between atoms: C21_33  and  C22_34 
ROOT
HETATM    1  C8  UNL     1      10.953  53.332  88.445  1.00  0.00     0.186 A 
HETATM    2  N4  UNL     1       9.818  53.674  89.160  1.00  0.00    -0.316 N 
ATOM      3  H4  UNL     1       9.924  53.963  90.132  1.00  0.00     0.170 HD
HETATM    4  C9  UNL     1       8.600  53.645  88.638  1.00  0.00     0.118 A 
HETATM    5  N5  UNL     1       8.493  53.258  87.351  1.00  0.00    -0.341 N 
ATOM      6  H5  UNL     1       7.563  53.229  86.933  1.00  0.00     0.167 HD
HETATM    7  C16 UNL     1       9.537  52.909  86.592  1.00  0.00     0.050 A 
HETATM    8  C17 UNL     1       9.366  52.512  85.266  1.00  0.00     0.056 A 
HETATM    9  C18 UNL     1      10.449  52.151  84.497  1.00  0.00     0.055 A 
HETATM   10 CL1  UNL     1      10.243  51.648  82.823  1.00  0.00    -0.083 Cl
HETATM   11  C19 UNL     1      11.728  52.173  85.012  1.00  0.00     0.040 A 
HETATM   12  C26 UNL     1      11.862  52.569  86.321  1.00  0.00     0.041 A 
HETATM   13  C27 UNL     1      10.791  52.938  87.120  1.00  0.00     0.050 A 
ENDROOT
BRANCH   1  14
HETATM   14  N3  UNL     1      12.045  53.368  88.964  1.00  0.00    -0.428 NA
BRANCH  14  15
HETATM   15  C7  UNL     1      13.132  53.766  89.657  1.00  0.00     0.239 C 
BRANCH  15  16
HETATM   16  C6  UNL     1      12.757  54.491  90.974  1.00  0.00     0.150 C 
BRANCH  16  17
HETATM   17  N2  UNL     1      12.612  53.580  92.044  1.00  0.00    -0.407 N 
HETATM   18  C5  UNL     1      13.599  53.577  93.059  1.00  0.00     0.147 C 
HETATM   19  C4  UNL     1      13.315  54.384  94.278  1.00  0.00     0.291 C 
HETATM   20  N1  UNL     1      11.925  54.306  94.733  1.00  0.00     0.094 N 
HETATM   21  C29 UNL     1      11.212  53.312  94.021  1.00  0.00     0.291 C 
HETATM   22  C28 UNL     1      11.267  53.516  92.513  1.00  0.00     0.147 C 
BRANCH  20  23
HETATM   23  C3  UNL     1      11.419  55.621  94.793  1.00  0.00     0.306 C 
BRANCH  23  24
HETATM   24  C2  UNL     1      11.975  56.570  95.786  1.00  0.00     0.170 C 
BRANCH  24  25
HETATM   25  C1  UNL     1      11.326  57.948  95.579  1.00  0.00     0.197 C 
BRANCH  25  26
HETATM   26  O1  UNL     1      12.242  58.943  95.930  1.00  0.00    -0.398 OA
ATOM     27  H1  UNL     1      12.385  59.512  95.182  1.00  0.00     0.209 HD
ENDBRANCH  25  26
ENDBRANCH  24  25
BRANCH  24  28
HETATM   28  O2  UNL     1      11.682  56.200  97.082  1.00  0.00    -0.392 OA
ATOM     29  H2  UNL     1      11.142  55.421  97.018  1.00  0.00     0.210 HD
ENDBRANCH  24  28
ENDBRANCH  23  24
ENDBRANCH  20  23
ENDBRANCH  16  17
ENDBRANCH  15  16
ENDBRANCH  14  15
ENDBRANCH   1  14
BRANCH   4  30
HETATM   30  C10 UNL     1       7.401  54.017  89.405  1.00  0.00     0.008 A 
HETATM   31  C11 UNL     1       6.343  54.687  88.859  1.00  0.00     0.015 A 
HETATM   32  C12 UNL     1       5.215  55.029  89.615  1.00  0.00     0.001 A 
HETATM   33  C13 UNL     1       5.154  54.687  90.949  1.00  0.00     0.000 A 
HETATM   34  C14 UNL     1       6.219  54.011  91.506  1.00  0.00     0.001 A 
HETATM   35  C15 UNL     1       7.329  53.682  90.734  1.00  0.00     0.015 A 
ENDBRANCH   4  30
BRANCH  11  36
HETATM   36  C20 UNL     1      12.877  51.798  84.239  1.00  0.00    -0.065 C 
BRANCH  36  37
HETATM   37  C21 UNL     1      13.833  51.462  83.575  1.00  0.00    -0.096 C 
BRANCH  37  38
HETATM   38  C22 UNL     1      14.979  51.033  82.767  1.00  0.00     0.065 C 
HETATM   39  C23 UNL     1      14.593  50.963  81.326  1.00  0.00     0.017 C 
HETATM   40  C24 UNL     1      15.788  51.815  81.005  1.00  0.00     0.002 C 
HETATM   41  C25 UNL     1      16.008  52.099  82.487  1.00  0.00     0.017 C 
ENDBRANCH  37  38
ENDBRANCH  36  37
ENDBRANCH  11  36
TORSDOF 13
ENDMDL
MODEL 2
REMARK VINA RESULT: -7.119779723      2.135      2.925
REMARK  13 active torsions:
REMARK  status: ('A' for Active; 'I' for Inactive)
REMARK    1  A    between atoms: O1_1  and  C1_3 
REMARK    2  A    between atoms: C1_3  and  C2_4 
REMARK    3  A    between atoms: C2_4  and  O2_5 
REMARK    4  A    between atoms: C2_4  and  C3_7 
REMARK    5  A    between atoms: C3_7  and  N1_8 
REMARK    6  A    between atoms: N2_11  and  C6_12 
REMARK    7  A    between atoms: C6_12  and  C7_13 
REMARK    8  A    between atoms: C7_13  and  N3_14 
REMARK    9  A    between atoms: N3_14  and  C8_15 
REMARK   10  A    between atoms: C9_18  and  C10_19 
REMARK   11  A    between atoms: C19_31  and  C20_32 
REMARK   12  A    between atoms: C20_32  and  C21_33 
REMARK   13  A    between atoms: C21_33  and  C22_34 
ROOT
HETATM    1  C8  UNL     1      10.435  52.682  88.649  1.00  0.00     0.186 A 
HETATM    2  N4  UNL     1       9.296  53.081  89.329  1.00  0.00    -0.316 N 
ATOM      3  H4  UNL     1       9.325  53.115  90.347  1.00  0.00     0.170 HD
HETATM    4  C9  UNL     1       8.172  53.420  88.716  1.00  0.00     0.118 A 
HETATM    5  N5  UNL     1       8.164  53.363  87.369  1.00  0.00    -0.341 N 
ATOM      6  H5  UNL     1       7.307  53.621  86.881  1.00  0.00     0.167 HD
HETATM    7  C16 UNL     1       9.219  52.988  86.637  1.00  0.00     0.050 A 
HETATM    8  C17 UNL     1       9.153  52.944  85.245  1.00  0.00     0.056 A 
HETATM    9  C18 UNL     1      10.245  52.551  84.504  1.00  0.00     0.055 A 
HETATM   10 CL1  UNL     1      10.171  52.491  82.746  1.00  0.00    -0.083 Cl
HETATM   11  C19 UNL     1      11.429  52.193  85.113  1.00  0.00     0.040 A 
HETATM   12  C26 UNL     1      11.461  52.248  86.486  1.00  0.00     0.041 A 
HETATM   13  C27 UNL     1      10.378  52.639  87.259  1.00  0.00     0.050 A 
ENDROOT
BRANCH   1  14
HETATM   14  N3  UNL     1      11.438  52.376  89.250  1.00  0.00    -0.428 NA
BRANCH  14  15
HETATM   15  C7  UNL     1      12.291  51.926  90.195  1.00  0.00     0.239 C 
BRANCH  15  16
HETATM   16  C6  UNL     1      11.556  51.472  91.481  1.00  0.00     0.150 C 
BRANCH  16  17
HETATM   17  N2  UNL     1      11.977  52.214  92.608  1.00  0.00    -0.407 N 
HETATM   18  C5  UNL     1      13.352  52.196  92.945  1.00  0.00     0.147 C 
HETATM   19  C4  UNL     1      14.186  53.320  92.435  1.00  0.00     0.291 C 
HETATM   20  N1  UNL     1      13.526  54.626  92.496  1.00  0.00     0.094 N 
HETATM   21  C29 UNL     1      12.312  54.549  93.220  1.00  0.00     0.291 C 
HETATM   22  C28 UNL     1      11.360  53.499  92.662  1.00  0.00     0.147 C 
BRANCH  20  23
HETATM   23  C3  UNL     1      13.530  55.170  91.194  1.00  0.00     0.306 C 
BRANCH  23  24
HETATM   24  C2  UNL     1      14.774  55.125  90.391  1.00  0.00     0.170 C 
BRANCH  24  25
HETATM   25  C1  UNL     1      14.443  54.595  88.986  1.00  0.00     0.197 C 
BRANCH  25  26
HETATM   26  O1  UNL     1      13.102  54.865  88.701  1.00  0.00    -0.398 OA
ATOM     27  H1  UNL     1      12.660  54.051  88.488  1.00  0.00     0.209 HD
ENDBRANCH  25  26
ENDBRANCH  24  25
BRANCH  24  28
HETATM   28  O2  UNL     1      15.323  56.377  90.209  1.00  0.00    -0.392 OA
ATOM     29  H2  UNL     1      16.219  56.321  90.521  1.00  0.00     0.210 HD
ENDBRANCH  24  28
ENDBRANCH  23  24
ENDBRANCH  20  23
ENDBRANCH  16  17
ENDBRANCH  15  16
ENDBRANCH  14  15
ENDBRANCH   1  14
BRANCH   4  30
HETATM   30  C10 UNL     1       6.969  53.847  89.448  1.00  0.00     0.008 A 
HETATM   31  C11 UNL     1       6.822  53.691  90.798  1.00  0.00     0.015 A 
HETATM   32  C12 UNL     1       5.665  54.107  91.469  1.00  0.00     0.001 A 
HETATM   33  C13 UNL     1       4.636  54.692  90.762  1.00  0.00     0.000 A 
HETATM   34  C14 UNL     1       4.778  54.851  89.400  1.00  0.00     0.001 A 
HETATM   35  C15 UNL     1       5.938  54.430  88.756  1.00  0.00     0.015 A 
ENDBRANCH   4  30
BRANCH  11  36
HETATM   36  C20 UNL     1      12.582  51.775  84.370  1.00  0.00    -0.065 C 
BRANCH  36  37
HETATM   37  C21 UNL     1      13.564  51.446  83.740  1.00  0.00    -0.096 C 
BRANCH  37  38
HETATM   38  C22 UNL     1      14.736  51.034  82.961  1.00  0.00     0.065 C 
HETATM   39  C23 UNL     1      14.408  51.027  81.505  1.00  0.00     0.017 C 
HETATM   40  C24 UNL     1      15.625  51.876  81.266  1.00  0.00     0.002 C 
HETATM   41  C25 UNL     1      15.789  52.097  82.767  1.00  0.00     0.017 C 
ENDBRANCH  37  38
ENDBRANCH  36  37
ENDBRANCH  11  36
TORSDOF 13
ENDMDL
MODEL 3
REMARK VINA RESULT: -6.868583814      3.311      8.323
REMARK  13 active torsions:
REMARK  status: ('A' for Active; 'I' for Inactive)
REMARK    1  A    between atoms: O1_1  and  C1_3 
REMARK    2  A    between atoms: C1_3  and  C2_4 
REMARK    3  A    between atoms: C2_4  and  O2_5 
REMARK    4  A    between atoms: C2_4  and  C3_7 
REMARK    5  A    between atoms: C3_7  and  N1_8 
REMARK    6  A    between atoms: N2_11  and  C6_12 
REMARK    7  A    between atoms: C6_12  and  C7_13 
REMARK    8  A    between atoms: C7_13  and  N3_14 
REMARK    9  A    between atoms: N3_14  and  C8_15 
REMARK   10  A    between atoms: C9_18  and  C10_19 
REMARK   11  A    between atoms: C19_31  and  C20_32 
REMARK   12  A    between atoms: C20_32  and  C21_33 
REMARK   13  A    between atoms: C21_33  and  C22_34 
ROOT
HETATM    1  C8  UNL     1      10.965  51.936  88.246  1.00  0.00     0.186 A 
HETATM    2  N4  UNL     1      10.904  51.641  86.894  1.00  0.00    -0.316 N 
ATOM      3  H4  UNL     1      10.191  50.988  86.571  1.00  0.00     0.170 HD
HETATM    4  C9  UNL     1      11.730  52.169  86.003  1.00  0.00     0.118 A 
HETATM    5  N5  UNL     1      12.662  53.028  86.461  1.00  0.00    -0.341 N 
ATOM      6  H5  UNL     1      13.306  53.444  85.788  1.00  0.00     0.167 HD
HETATM    7  C16 UNL     1      12.790  53.365  87.748  1.00  0.00     0.050 A 
HETATM    8  C17 UNL     1      13.777  54.257  88.167  1.00  0.00     0.056 A 
HETATM    9  C18 UNL     1      13.901  54.592  89.497  1.00  0.00     0.055 A 
HETATM   10 CL1  UNL     1      15.144  55.715  90.036  1.00  0.00    -0.083 Cl
HETATM   11  C19 UNL     1      13.057  54.059  90.449  1.00  0.00     0.040 A 
HETATM   12  C26 UNL     1      12.095  53.184  90.002  1.00  0.00     0.041 A 
HETATM   13  C27 UNL     1      11.946  52.828  88.671  1.00  0.00     0.050 A 
ENDROOT
BRANCH   1  14
HETATM   14  N3  UNL     1      10.195  51.426  89.025  1.00  0.00    -0.428 NA
BRANCH  14  15
HETATM   15  C7  UNL     1       9.086  51.120  89.732  1.00  0.00     0.239 C 
BRANCH  15  16
HETATM   16  C6  UNL     1       8.400  52.378  90.321  1.00  0.00     0.150 C 
BRANCH  16  17
HETATM   17  N2  UNL     1       7.106  52.562  89.784  1.00  0.00    -0.407 N 
HETATM   18  C5  UNL     1       6.083  53.027  90.646  1.00  0.00     0.147 C 
HETATM   19  C4  UNL     1       5.820  54.493  90.650  1.00  0.00     0.291 C 
HETATM   20  N1  UNL     1       5.872  55.110  89.323  1.00  0.00     0.094 N 
HETATM   21  C29 UNL     1       5.961  54.128  88.308  1.00  0.00     0.291 C 
HETATM   22  C28 UNL     1       7.144  53.187  88.503  1.00  0.00     0.147 C 
BRANCH  20  23
HETATM   23  C3  UNL     1       6.820  56.153  89.371  1.00  0.00     0.306 C 
BRANCH  23  24
HETATM   24  C2  UNL     1       6.353  57.559  89.412  1.00  0.00     0.170 C 
BRANCH  24  25
HETATM   25  C1  UNL     1       5.135  57.708  88.487  1.00  0.00     0.197 C 
BRANCH  25  26
HETATM   26  O1  UNL     1       5.387  58.720  87.556  1.00  0.00    -0.398 OA
ATOM     27  H1  UNL     1       4.916  59.503  87.814  1.00  0.00     0.209 HD
ENDBRANCH  25  26
ENDBRANCH  24  25
BRANCH  24  28
HETATM   28  O2  UNL     1       5.926  57.930  90.670  1.00  0.00    -0.392 OA
ATOM     29  H2  UNL     1       6.235  57.255  91.263  1.00  0.00     0.210 HD
ENDBRANCH  24  28
ENDBRANCH  23  24
ENDBRANCH  20  23
ENDBRANCH  16  17
ENDBRANCH  15  16
ENDBRANCH  14  15
ENDBRANCH   1  14
BRANCH   4  30
HETATM   30  C10 UNL     1      11.652  51.853  84.568  1.00  0.00     0.008 A 
HETATM   31  C11 UNL     1      10.577  52.178  83.788  1.00  0.00     0.015 A 
HETATM   32  C12 UNL     1      10.531  51.863  82.425  1.00  0.00     0.001 A 
HETATM   33  C13 UNL     1      11.591  51.206  81.836  1.00  0.00     0.000 A 
HETATM   34  C14 UNL     1      12.677  50.876  82.617  1.00  0.00     0.001 A 
HETATM   35  C15 UNL     1      12.700  51.200  83.971  1.00  0.00     0.015 A 
ENDBRANCH   4  30
BRANCH  11  36
HETATM   36  C20 UNL     1      13.163  54.383  91.841  1.00  0.00    -0.065 C 
BRANCH  36  37
HETATM   37  C21 UNL     1      13.238  54.634  93.024  1.00  0.00    -0.096 C 
BRANCH  37  38
HETATM   38  C22 UNL     1      13.319  54.916  94.461  1.00  0.00     0.065 C 
HETATM   39  C23 UNL     1      12.134  55.715  94.895  1.00  0.00     0.017 C 
HETATM   40  C24 UNL     1      11.902  54.706  95.985  1.00  0.00     0.002 C 
HETATM   41  C25 UNL     1      12.938  53.771  95.366  1.00  0.00     0.017 C 
ENDBRANCH  37  38
ENDBRANCH  36  37
ENDBRANCH  11  36
TORSDOF 13
ENDMDL
MODEL 4
REMARK VINA RESULT: -6.813057771      3.997      8.121
REMARK  13 active torsions:
REMARK  status: ('A' for Active; 'I' for Inactive)
REMARK    1  A    between atoms: O1_1  and  C1_3 
REMARK    2  A    between atoms: C1_3  and  C2_4 
REMARK    3  A    between atoms: C2_4  and  O2_5 
REMARK    4  A    between atoms: C2_4  and  C3_7 
REMARK    5  A    between atoms: C3_7  and  N1_8 
REMARK    6  A    between atoms: N2_11  and  C6_12 
REMARK    7  A    between atoms: C6_12  and  C7_13 
REMARK    8  A    between atoms: C7_13  and  N3_14 
REMARK    9  A    between atoms: N3_14  and  C8_15 
REMARK   10  A    between atoms: C9_18  and  C10_19 
REMARK   11  A    between atoms: C19_31  and  C20_32 
REMARK   12  A    between atoms: C20_32  and  C21_33 
REMARK   13  A    between atoms: C21_33  and  C22_34 
ROOT
HETATM    1  C8  UNL     1      11.260  51.705  88.235  1.00  0.00     0.186 A 
HETATM    2  N4  UNL     1      11.225  51.412  86.882  1.00  0.00    -0.316 N 
ATOM      3  H4  UNL     1      10.589  50.684  86.559  1.00  0.00     0.170 HD
HETATM    4  C9  UNL     1      11.981  52.034  85.989  1.00  0.00     0.118 A 
HETATM    5  N5  UNL     1      12.812  52.990  86.447  1.00  0.00    -0.341 N 
ATOM      6  H5  UNL     1      13.401  53.480  85.774  1.00  0.00     0.167 HD
HETATM    7  C16 UNL     1      12.909  53.334  87.736  1.00  0.00     0.050 A 
HETATM    8  C17 UNL     1      13.791  54.329  88.155  1.00  0.00     0.056 A 
HETATM    9  C18 UNL     1      13.884  54.670  89.486  1.00  0.00     0.055 A 
HETATM   10 CL1  UNL     1      14.995  55.923  90.024  1.00  0.00    -0.083 Cl
HETATM   11  C19 UNL     1      13.111  54.040  90.439  1.00  0.00     0.040 A 
HETATM   12  C26 UNL     1      12.251  53.064  89.992  1.00  0.00     0.041 A 
HETATM   13  C27 UNL     1      12.136  52.700  88.660  1.00  0.00     0.050 A 
ENDROOT
BRANCH   1  14
HETATM   14  N3  UNL     1      10.556  51.107  89.015  1.00  0.00    -0.428 NA
BRANCH  14  15
HETATM   15  C7  UNL     1       9.969  50.130  89.737  1.00  0.00     0.239 C 
BRANCH  15  16
HETATM   16  C6  UNL     1      10.084  48.744  89.052  1.00  0.00     0.150 C 
BRANCH  16  17
HETATM   17  N2  UNL     1      10.977  47.896  89.744  1.00  0.00    -0.407 N 
HETATM   18  C5  UNL     1      12.352  47.959  89.413  1.00  0.00     0.147 C 
HETATM   19  C4  UNL     1      13.210  48.835  90.259  1.00  0.00     0.291 C 
HETATM   20  N1  UNL     1      12.895  48.773  91.688  1.00  0.00     0.094 N 
HETATM   21  C29 UNL     1      11.974  47.734  91.962  1.00  0.00     0.291 C 
HETATM   22  C28 UNL     1      10.696  47.850  91.141  1.00  0.00     0.147 C 
BRANCH  20  23
HETATM   23  C3  UNL     1      12.618  50.086  92.123  1.00  0.00     0.306 C 
BRANCH  23  24
HETATM   24  C2  UNL     1      13.532  50.741  93.088  1.00  0.00     0.170 C 
BRANCH  24  25
HETATM   25  C1  UNL     1      14.002  49.699  94.116  1.00  0.00     0.197 C 
BRANCH  25  26
HETATM   26  O1  UNL     1      15.388  49.552  94.016  1.00  0.00    -0.398 OA
ATOM     27  H1  UNL     1      15.795  49.884  94.807  1.00  0.00     0.209 HD
ENDBRANCH  25  26
ENDBRANCH  24  25
BRANCH  24  28
HETATM   28  O2  UNL     1      14.673  51.222  92.481  1.00  0.00    -0.392 OA
ATOM     29  H2  UNL     1      14.883  50.607  91.788  1.00  0.00     0.210 HD
ENDBRANCH  24  28
ENDBRANCH  23  24
ENDBRANCH  20  23
ENDBRANCH  16  17
ENDBRANCH  15  16
ENDBRANCH  14  15
ENDBRANCH   1  14
BRANCH   4  30
HETATM   30  C10 UNL     1      11.931  51.718  84.553  1.00  0.00     0.008 A 
HETATM   31  C11 UNL     1      10.810  51.887  83.789  1.00  0.00     0.015 A 
HETATM   32  C12 UNL     1      10.792  51.576  82.424  1.00  0.00     0.001 A 
HETATM   33  C13 UNL     1      11.929  51.084  81.818  1.00  0.00     0.000 A 
HETATM   34  C14 UNL     1      13.062  50.911  82.583  1.00  0.00     0.001 A 
HETATM   35  C15 UNL     1      13.055  51.228  83.938  1.00  0.00     0.015 A 
ENDBRANCH   4  30
BRANCH  11  36
HETATM   36  C20 UNL     1      13.187  54.367  91.832  1.00  0.00    -0.065 C 
BRANCH  36  37
HETATM   37  C21 UNL     1      13.262  54.620  93.015  1.00  0.00    -0.096 C 
BRANCH  37  38
HETATM   38  C22 UNL     1      13.352  54.901  94.452  1.00  0.00     0.065 C 
HETATM   39  C23 UNL     1      12.143  55.649  94.906  1.00  0.00     0.017 C 
HETATM   40  C24 UNL     1      11.968  54.628  95.995  1.00  0.00     0.002 C 
HETATM   41  C25 UNL     1      13.031  53.739  95.358  1.00  0.00     0.017 C 
ENDBRANCH  37  38
ENDBRANCH  36  37
ENDBRANCH  11  36
TORSDOF 13
ENDMDL
MODEL 5
REMARK VINA RESULT: -6.751456374      4.566      9.114
REMARK  13 active torsions:
REMARK  status: ('A' for Active; 'I' for Inactive)
REMARK    1  A    between atoms: O1_1  and  C1_3 
REMARK    2  A    between atoms: C1_3  and  C2_4 
REMARK    3  A    between atoms: C2_4  and  O2_5 
REMARK    4  A    between atoms: C2_4  and  C3_7 
REMARK    5  A    between atoms: C3_7  and  N1_8 
REMARK    6  A    between atoms: N2_11  and  C6_12 
REMARK    7  A    between atoms: C6_12  and  C7_13 
REMARK    8  A    between atoms: C7_13  and  N3_14 
REMARK    9  A    between atoms: N3_14  and  C8_15 
REMARK   10  A    between atoms: C9_18  and  C10_19 
REMARK   11  A    between atoms: C19_31  and  C20_32 
REMARK   12  A    between atoms: C20_32  and  C21_33 
REMARK   13  A    between atoms: C21_33  and  C22_34 
ROOT
HETATM    1  C8  UNL     1      11.355  51.567  88.132  1.00  0.00     0.186 A 
HETATM    2  N4  UNL     1      11.341  51.269  86.780  1.00  0.00    -0.316 N 
ATOM      3  H4  UNL     1      10.736  50.516  86.454  1.00  0.00     0.170 HD
HETATM    4  C9  UNL     1      12.077  51.918  85.890  1.00  0.00     0.118 A 
HETATM    5  N5  UNL     1      12.868  52.907  86.351  1.00  0.00    -0.341 N 
ATOM      6  H5  UNL     1      13.442  53.418  85.680  1.00  0.00     0.167 HD
HETATM    7  C16 UNL     1      12.942  53.258  87.640  1.00  0.00     0.050 A 
HETATM    8  C17 UNL     1      13.782  54.288  88.061  1.00  0.00     0.056 A 
HETATM    9  C18 UNL     1      13.852  54.635  89.392  1.00  0.00     0.055 A 
HETATM   10 CL1  UNL     1      14.909  55.933  89.934  1.00  0.00    -0.083 Cl
HETATM   11  C19 UNL     1      13.097  53.978  90.341  1.00  0.00     0.040 A 
HETATM   12  C26 UNL     1      12.280  52.968  89.892  1.00  0.00     0.041 A 
HETATM   13  C27 UNL     1      12.188  52.596  88.560  1.00  0.00     0.050 A 
ENDROOT
BRANCH   1  14
HETATM   14  N3  UNL     1      10.670  50.943  88.909  1.00  0.00    -0.428 NA
BRANCH  14  15
HETATM   15  C7  UNL     1      10.013  49.948  89.539  1.00  0.00     0.239 C 
BRANCH  15  16
HETATM   16  C6  UNL     1       9.001  49.231  88.610  1.00  0.00     0.150 C 
BRANCH  16  17
HETATM   17  N2  UNL     1       9.419  47.916  88.305  1.00  0.00    -0.407 N 
HETATM   18  C5  UNL     1       9.931  47.660  87.010  1.00  0.00     0.147 C 
HETATM   19  C4  UNL     1      11.411  47.703  86.850  1.00  0.00     0.291 C 
HETATM   20  N1  UNL     1      12.148  47.102  87.963  1.00  0.00     0.094 N 
HETATM   21  C29 UNL     1      11.273  46.430  88.849  1.00  0.00     0.291 C 
HETATM   22  C28 UNL     1      10.161  47.330  89.373  1.00  0.00     0.147 C 
BRANCH  20  23
HETATM   23  C3  UNL     1      13.038  48.075  88.464  1.00  0.00     0.306 C 
BRANCH  23  24
HETATM   24  C2  UNL     1      14.230  47.645  89.232  1.00  0.00     0.170 C 
BRANCH  24  25
HETATM   25  C1  UNL     1      15.390  47.395  88.255  1.00  0.00     0.197 C 
BRANCH  25  26
HETATM   26  O1  UNL     1      16.590  47.772  88.865  1.00  0.00    -0.398 OA
ATOM     27  H1  UNL     1      16.998  47.004  89.249  1.00  0.00     0.209 HD
ENDBRANCH  25  26
ENDBRANCH  24  25
BRANCH  24  28
HETATM   28  O2  UNL     1      14.667  48.620  90.104  1.00  0.00    -0.392 OA
ATOM     29  H2  UNL     1      14.457  48.307  90.977  1.00  0.00     0.210 HD
ENDBRANCH  24  28
ENDBRANCH  23  24
ENDBRANCH  20  23
ENDBRANCH  16  17
ENDBRANCH  15  16
ENDBRANCH  14  15
ENDBRANCH   1  14
BRANCH   4  30
HETATM   30  C10 UNL     1      12.050  51.597  84.454  1.00  0.00     0.008 A 
HETATM   31  C11 UNL     1      10.919  51.683  83.691  1.00  0.00     0.015 A 
HETATM   32  C12 UNL     1      10.923  51.370  82.326  1.00  0.00     0.001 A 
HETATM   33  C13 UNL     1      12.092  50.960  81.720  1.00  0.00     0.000 A 
HETATM   34  C14 UNL     1      13.235  50.870  82.485  1.00  0.00     0.001 A 
HETATM   35  C15 UNL     1      13.206  51.188  83.840  1.00  0.00     0.015 A 
ENDBRANCH   4  30
BRANCH  11  36
HETATM   36  C20 UNL     1      13.151  54.311  91.735  1.00  0.00    -0.065 C 
BRANCH  36  37
HETATM   37  C21 UNL     1      13.214  54.574  92.916  1.00  0.00    -0.096 C 
BRANCH  37  38
HETATM   38  C22 UNL     1      13.313  54.877  94.348  1.00  0.00     0.065 C 
HETATM   39  C23 UNL     1      12.068  55.557  94.815  1.00  0.00     0.017 C 
HETATM   40  C24 UNL     1      11.975  54.541  95.919  1.00  0.00     0.002 C 
HETATM   41  C25 UNL     1      13.079  53.710  95.273  1.00  0.00     0.017 C 
ENDBRANCH  37  38
ENDBRANCH  36  37
ENDBRANCH  11  36
TORSDOF 13
ENDMDL
