MODEL 1
REMARK VINA RESULT: -7.776959378      0.000      0.000
REMARK  10 active torsions:
REMARK  status: ('A' for Active; 'I' for Inactive)
REMARK    1  A    between atoms: O1_2  and  C2_3 
REMARK    2  A    between atoms: C5_6  and  N1_7 
REMARK    3  A    between atoms: N1_7  and  C6_9 
REMARK    4  A    between atoms: C9_15  and  N3_16 
REMARK    5  A    between atoms: N3_16  and  C10_18 
REMARK    6  A    between atoms: C10_18  and  C11_19 
REMARK    7  A    between atoms: C11_19  and  C12_20 
REMARK    8  A    between atoms: C12_20  and  N4_21 
REMARK    9  A    between atoms: C19_31  and  C20_32 
REMARK   10  A    between atoms: N8_41  and  O2_42 
ROOT
HETATM    1  N1  UNL     1      10.371  51.937  88.968  1.00  0.00    -0.192 N 
ATOM      2  H1  UNL     1       9.844  51.182  89.408  1.00  0.00     0.184 HD
ENDROOT
BRANCH   1   3
HETATM    3  C5  UNL     1      10.180  52.236  87.567  1.00  0.00     0.050 A 
HETATM    4  C4  UNL     1       8.975  52.706  87.105  1.00  0.00     0.033 A 
HETATM    5  C3  UNL     1       8.831  52.979  85.765  1.00  0.00     0.040 A 
HETATM    6  C2  UNL     1       9.897  52.783  84.861  1.00  0.00     0.082 A 
HETATM    7  C19 UNL     1      11.086  52.323  85.301  1.00  0.00     0.046 A 
HETATM    8  C18 UNL     1      11.201  52.053  86.675  1.00  0.00     0.048 A 
BRANCH   6   9
HETATM    9  O1  UNL     1       9.675  53.073  83.528  1.00  0.00    -0.355 OA
HETATM   10  C1  UNL     1       8.374  52.966  83.003  1.00  0.00     0.210 C 
ENDBRANCH   6   9
BRANCH   7  11
HETATM   11  C20 UNL     1      12.292  52.144  84.472  1.00  0.00     0.147 A 
HETATM   12  N7  UNL     1      12.347  51.267  83.418  1.00  0.00    -0.338 N 
HETATM   13  C21 UNL     1      13.560  51.251  82.866  1.00  0.00     0.063 A 
ATOM     14  H7  UNL     1      11.563  50.700  83.099  1.00  0.00     0.167 HD
HETATM   15  C22 UNL     1      14.125  50.552  81.797  1.00  0.00     0.032 A 
HETATM   16  C26 UNL     1      14.327  52.136  83.566  1.00  0.00     0.091 A 
HETATM   17  C23 UNL     1      15.438  50.746  81.444  1.00  0.00     0.002 A 
HETATM   18  C24 UNL     1      16.198  51.643  82.162  1.00  0.00     0.002 A 
HETATM   19  C25 UNL     1      15.647  52.344  83.227  1.00  0.00     0.034 A 
HETATM   20  N8  UNL     1      13.508  52.658  84.541  1.00  0.00    -0.205 N 
BRANCH  20  21
HETATM   21  O2  UNL     1      14.009  53.565  85.441  1.00  0.00    -0.281 OA
ATOM     22  H2  UNL     1      14.907  53.688  85.726  1.00  0.00     0.245 HD
ENDBRANCH  20  21
ENDBRANCH   7  11
ENDBRANCH   1   3
BRANCH   1  23
HETATM   23  C6  UNL     1      11.215  52.632  89.663  1.00  0.00     0.684 A 
HETATM   24  N2  UNL     1      11.481  53.928  89.412  1.00  0.00    -0.200 N 
HETATM   25  C7  UNL     1      12.376  54.617  90.168  1.00  0.00     0.133 A 
ATOM     26  H2  UNL     1      11.003  54.399  88.643  1.00  0.00     0.183 HD
HETATM   27  C8  UNL     1      13.045  54.026  91.216  1.00  0.00     0.094 A 
HETATM   28 CL1  UNL     1      14.197  54.921  92.186  1.00  0.00    -0.079 Cl
HETATM   29  C9  UNL     1      12.759  52.680  91.464  1.00  0.00     0.140 A 
HETATM   30  N6  UNL     1      11.865  52.048  90.684  1.00  0.00    -0.175 N 
ATOM     31  H6  UNL     1      11.668  51.067  90.880  1.00  0.00     0.186 HD
BRANCH  29  32
HETATM   32  N3  UNL     1      13.379  52.137  92.432  1.00  0.00    -0.374 N 
ATOM     33  H3  UNL     1      14.395  52.104  92.355  1.00  0.00     0.161 HD
BRANCH  32  34
HETATM   34  C10 UNL     1      12.815  51.565  93.618  1.00  0.00     0.123 C 
BRANCH  34  35
HETATM   35  C11 UNL     1      13.552  51.999  94.873  1.00  0.00     0.050 C 
BRANCH  35  36
HETATM   36  C12 UNL     1      13.273  53.448  95.195  1.00  0.00     0.274 C 
BRANCH  36  37
HETATM   37  N4  UNL     1      11.882  53.742  95.314  1.00  0.00     0.091 N 
HETATM   38  C13 UNL     1      11.439  53.832  96.689  1.00  0.00     0.302 C 
HETATM   39  C14 UNL     1      11.647  55.204  97.273  1.00  0.00     0.302 C 
HETATM   40  N5  UNL     1      11.463  56.287  96.377  1.00  0.00     0.087 N 
HETATM   41  C15 UNL     1      10.117  56.814  96.360  1.00  0.00     0.310 C 
HETATM   42  C16 UNL     1      11.994  56.087  95.051  1.00  0.00     0.302 C 
HETATM   43  C17 UNL     1      11.394  54.813  94.504  1.00  0.00     0.302 C 
ENDBRANCH  36  37
ENDBRANCH  35  36
ENDBRANCH  34  35
ENDBRANCH  32  34
ENDBRANCH  29  32
ENDBRANCH   1  23
TORSDOF 10
ENDMDL
MODEL 2
REMARK VINA RESULT: -7.617986026      2.210      3.090
REMARK  10 active torsions:
REMARK  status: ('A' for Active; 'I' for Inactive)
REMARK    1  A    between atoms: O1_2  and  C2_3 
REMARK    2  A    between atoms: C5_6  and  N1_7 
REMARK    3  A    between atoms: N1_7  and  C6_9 
REMARK    4  A    between atoms: C9_15  and  N3_16 
REMARK    5  A    between atoms: N3_16  and  C10_18 
REMARK    6  A    between atoms: C10_18  and  C11_19 
REMARK    7  A    between atoms: C11_19  and  C12_20 
REMARK    8  A    between atoms: C12_20  and  N4_21 
REMARK    9  A    between atoms: C19_31  and  C20_32 
REMARK   10  A    between atoms: N8_41  and  O2_42 
ROOT
HETATM    1  N1  UNL     1      11.071  52.731  87.249  1.00  0.00    -0.192 N 
ATOM      2  H1  UNL     1      10.174  53.169  87.040  1.00  0.00     0.184 HD
ENDROOT
BRANCH   1   3
HETATM    3  C5  UNL     1      11.430  51.477  86.627  1.00  0.00     0.050 A 
HETATM    4  C4  UNL     1      11.015  50.281  87.160  1.00  0.00     0.033 A 
HETATM    5  C3  UNL     1      11.376  49.109  86.540  1.00  0.00     0.040 A 
HETATM    6  C2  UNL     1      12.163  49.114  85.369  1.00  0.00     0.082 A 
HETATM    7  C19 UNL     1      12.578  50.281  84.833  1.00  0.00     0.046 A 
HETATM    8  C18 UNL     1      12.192  51.461  85.491  1.00  0.00     0.048 A 
BRANCH   6   9
HETATM    9  O1  UNL     1      12.492  47.896  84.806  1.00  0.00    -0.355 OA
HETATM   10  C1  UNL     1      12.831  46.816  85.641  1.00  0.00     0.210 C 
ENDBRANCH   6   9
BRANCH   7  11
HETATM   11  C20 UNL     1      13.342  50.421  83.580  1.00  0.00     0.147 A 
HETATM   12  N7  UNL     1      14.392  51.294  83.443  1.00  0.00    -0.338 N 
HETATM   13  C21 UNL     1      14.879  51.272  82.203  1.00  0.00     0.063 A 
ATOM     14  H7  UNL     1      14.753  51.883  84.192  1.00  0.00     0.167 HD
HETATM   15  C22 UNL     1      15.918  51.950  81.560  1.00  0.00     0.032 A 
HETATM   16  C26 UNL     1      14.139  50.365  81.500  1.00  0.00     0.091 A 
HETATM   17  C23 UNL     1      16.200  51.716  80.237  1.00  0.00     0.002 A 
HETATM   18  C24 UNL     1      15.442  50.798  79.544  1.00  0.00     0.002 A 
HETATM   19  C25 UNL     1      14.406  50.117  80.171  1.00  0.00     0.034 A 
HETATM   20  N8  UNL     1      13.208  49.870  82.386  1.00  0.00    -0.205 N 
BRANCH  20  21
HETATM   21  O2  UNL     1      12.282  48.952  81.961  1.00  0.00    -0.281 OA
ATOM     22  H2  UNL     1      11.878  48.864  81.105  1.00  0.00     0.245 HD
ENDBRANCH  20  21
ENDBRANCH   7  11
ENDBRANCH   1   3
BRANCH   1  23
HETATM   23  C6  UNL     1      11.895  53.297  88.073  1.00  0.00     0.684 A 
HETATM   24  N2  UNL     1      13.087  53.794  87.694  1.00  0.00    -0.200 N 
HETATM   25  C7  UNL     1      13.919  54.379  88.596  1.00  0.00     0.133 A 
ATOM     26  H2  UNL     1      13.371  53.729  86.716  1.00  0.00     0.183 HD
HETATM   27  C8  UNL     1      13.582  54.491  89.926  1.00  0.00     0.094 A 
HETATM   28 CL1  UNL     1      14.659  55.247  91.082  1.00  0.00    -0.079 Cl
HETATM   29  C9  UNL     1      12.341  53.971  90.305  1.00  0.00     0.140 A 
HETATM   30  N6  UNL     1      11.558  53.403  89.370  1.00  0.00    -0.175 N 
ATOM     31  H6  UNL     1      10.656  53.029  89.664  1.00  0.00     0.186 HD
BRANCH  29  32
HETATM   32  N3  UNL     1      12.032  54.075  91.534  1.00  0.00    -0.374 N 
ATOM     33  H3  UNL     1      11.518  54.914  91.799  1.00  0.00     0.161 HD
BRANCH  32  34
HETATM   34  C10 UNL     1      12.324  53.151  92.588  1.00  0.00     0.123 C 
BRANCH  34  35
HETATM   35  C11 UNL     1      12.797  53.849  93.851  1.00  0.00     0.050 C 
BRANCH  35  36
HETATM   36  C12 UNL     1      11.979  55.087  94.129  1.00  0.00     0.274 C 
BRANCH  36  37
HETATM   37  N4  UNL     1      12.188  55.619  95.437  1.00  0.00     0.091 N 
HETATM   38  C13 UNL     1      11.764  56.997  95.560  1.00  0.00     0.302 C 
HETATM   39  C14 UNL     1      10.299  57.124  95.883  1.00  0.00     0.302 C 
HETATM   40  N5  UNL     1       9.769  56.121  96.733  1.00  0.00     0.087 N 
HETATM   41  C15 UNL     1       9.812  56.458  98.139  1.00  0.00     0.310 C 
HETATM   42  C16 UNL     1      10.237  54.782  96.472  1.00  0.00     0.302 C 
HETATM   43  C17 UNL     1      11.747  54.805  96.525  1.00  0.00     0.302 C 
ENDBRANCH  36  37
ENDBRANCH  35  36
ENDBRANCH  34  35
ENDBRANCH  32  34
ENDBRANCH  29  32
ENDBRANCH   1  23
TORSDOF 10
ENDMDL
MODEL 3
REMARK VINA RESULT: -7.537994238      0.830      1.283
REMARK  10 active torsions:
REMARK  status: ('A' for Active; 'I' for Inactive)
REMARK    1  A    between atoms: O1_2  and  C2_3 
REMARK    2  A    between atoms: C5_6  and  N1_7 
REMARK    3  A    between atoms: N1_7  and  C6_9 
REMARK    4  A    between atoms: C9_15  and  N3_16 
REMARK    5  A    between atoms: N3_16  and  C10_18 
REMARK    6  A    between atoms: C10_18  and  C11_19 
REMARK    7  A    between atoms: C11_19  and  C12_20 
REMARK    8  A    between atoms: C12_20  and  N4_21 
REMARK    9  A    between atoms: C19_31  and  C20_32 
REMARK   10  A    between atoms: N8_41  and  O2_42 
ROOT
HETATM    1  N1  UNL     1      10.717  51.712  88.831  1.00  0.00    -0.192 N 
ATOM      2  H1  UNL     1      10.313  50.860  89.220  1.00  0.00     0.184 HD
ENDROOT
BRANCH   1   3
HETATM    3  C5  UNL     1      10.440  52.086  87.462  1.00  0.00     0.050 A 
HETATM    4  C4  UNL     1       9.283  52.749  87.132  1.00  0.00     0.033 A 
HETATM    5  C3  UNL     1       9.056  53.088  85.819  1.00  0.00     0.040 A 
HETATM    6  C2  UNL     1       9.988  52.767  84.810  1.00  0.00     0.082 A 
HETATM    7  C19 UNL     1      11.129  52.117  85.119  1.00  0.00     0.046 A 
HETATM    8  C18 UNL     1      11.332  51.784  86.469  1.00  0.00     0.048 A 
BRANCH   6   9
HETATM    9  O1  UNL     1       9.687  53.133  83.512  1.00  0.00    -0.355 OA
HETATM   10  C1  UNL     1       8.452  52.758  82.955  1.00  0.00     0.210 C 
ENDBRANCH   6   9
BRANCH   7  11
HETATM   11  C20 UNL     1      12.209  51.788  84.170  1.00  0.00     0.147 A 
HETATM   12  N7  UNL     1      13.498  52.229  84.328  1.00  0.00    -0.338 N 
HETATM   13  C21 UNL     1      14.268  51.844  83.312  1.00  0.00     0.063 A 
ATOM     14  H7  UNL     1      13.825  52.781  85.121  1.00  0.00     0.167 HD
HETATM   15  C22 UNL     1      15.618  52.025  82.999  1.00  0.00     0.032 A 
HETATM   16  C26 UNL     1      13.476  51.131  82.460  1.00  0.00     0.091 A 
HETATM   17  C23 UNL     1      16.152  51.496  81.850  1.00  0.00     0.002 A 
HETATM   18  C24 UNL     1      15.337  50.780  81.001  1.00  0.00     0.002 A 
HETATM   19  C25 UNL     1      13.994  50.593  81.301  1.00  0.00     0.034 A 
HETATM   20  N8  UNL     1      12.222  51.124  83.027  1.00  0.00    -0.205 N 
BRANCH  20  21
HETATM   21  O2  UNL     1      11.182  50.506  82.379  1.00  0.00    -0.281 OA
ATOM     22  H2  UNL     1      11.005  49.577  82.286  1.00  0.00     0.245 HD
ENDBRANCH  20  21
ENDBRANCH   7  11
ENDBRANCH   1   3
BRANCH   1  23
HETATM   23  C6  UNL     1      11.479  52.463  89.560  1.00  0.00     0.684 A 
HETATM   24  N2  UNL     1      11.687  53.768  89.301  1.00  0.00    -0.200 N 
HETATM   25  C7  UNL     1      12.497  54.518  90.095  1.00  0.00     0.133 A 
ATOM     26  H2  UNL     1      11.231  54.200  88.497  1.00  0.00     0.183 HD
HETATM   27  C8  UNL     1      13.134  53.981  91.191  1.00  0.00     0.094 A 
HETATM   28 CL1  UNL     1      14.176  54.954  92.209  1.00  0.00    -0.079 Cl
HETATM   29  C9  UNL     1      12.908  52.626  91.447  1.00  0.00     0.140 A 
HETATM   30  N6  UNL     1      12.097  51.933  90.628  1.00  0.00    -0.175 N 
ATOM     31  H6  UNL     1      11.943  50.945  90.831  1.00  0.00     0.186 HD
BRANCH  29  32
HETATM   32  N3  UNL     1      13.498  52.133  92.460  1.00  0.00    -0.374 N 
ATOM     33  H3  UNL     1      14.515  52.079  92.407  1.00  0.00     0.161 HD
BRANCH  32  34
HETATM   34  C10 UNL     1      12.901  51.645  93.666  1.00  0.00     0.123 C 
BRANCH  34  35
HETATM   35  C11 UNL     1      13.656  52.093  94.906  1.00  0.00     0.050 C 
BRANCH  35  36
HETATM   36  C12 UNL     1      13.324  53.522  95.260  1.00  0.00     0.274 C 
BRANCH  36  37
HETATM   37  N4  UNL     1      11.921  53.772  95.337  1.00  0.00     0.091 N 
HETATM   38  C13 UNL     1      11.441  53.884  96.698  1.00  0.00     0.302 C 
HETATM   39  C14 UNL     1      11.588  55.276  97.250  1.00  0.00     0.302 C 
HETATM   40  N5  UNL     1      11.392  56.328  96.322  1.00  0.00     0.087 N 
HETATM   41  C15 UNL     1      10.030  56.810  96.257  1.00  0.00     0.310 C 
HETATM   42  C16 UNL     1      11.963  56.112  95.015  1.00  0.00     0.302 C 
HETATM   43  C17 UNL     1      11.418  54.805  94.487  1.00  0.00     0.302 C 
ENDBRANCH  36  37
ENDBRANCH  35  36
ENDBRANCH  34  35
ENDBRANCH  32  34
ENDBRANCH  29  32
ENDBRANCH   1  23
TORSDOF 10
ENDMDL
MODEL 4
REMARK VINA RESULT: -7.498160904      1.535      2.205
REMARK  10 active torsions:
REMARK  status: ('A' for Active; 'I' for Inactive)
REMARK    1  A    between atoms: O1_2  and  C2_3 
REMARK    2  A    between atoms: C5_6  and  N1_7 
REMARK    3  A    between atoms: N1_7  and  C6_9 
REMARK    4  A    between atoms: C9_15  and  N3_16 
REMARK    5  A    between atoms: N3_16  and  C10_18 
REMARK    6  A    between atoms: C10_18  and  C11_19 
REMARK    7  A    between atoms: C11_19  and  C12_20 
REMARK    8  A    between atoms: C12_20  and  N4_21 
REMARK    9  A    between atoms: C19_31  and  C20_32 
REMARK   10  A    between atoms: N8_41  and  O2_42 
ROOT
HETATM    1  N1  UNL     1      11.215  52.137  88.297  1.00  0.00    -0.192 N 
ATOM      2  H1  UNL     1      10.857  51.405  88.912  1.00  0.00     0.184 HD
ENDROOT
BRANCH   1   3
HETATM    3  C5  UNL     1      10.751  52.230  86.932  1.00  0.00     0.050 A 
HETATM    4  C4  UNL     1       9.494  52.704  86.645  1.00  0.00     0.033 A 
HETATM    5  C3  UNL     1       9.089  52.778  85.334  1.00  0.00     0.040 A 
HETATM    6  C2  UNL     1       9.939  52.376  84.282  1.00  0.00     0.082 A 
HETATM    7  C19 UNL     1      11.176  51.908  84.548  1.00  0.00     0.046 A 
HETATM    8  C18 UNL     1      11.561  51.845  85.898  1.00  0.00     0.048 A 
BRANCH   6   9
HETATM    9  O1  UNL     1       9.459  52.472  82.990  1.00  0.00    -0.355 OA
HETATM   10  C1  UNL     1       8.239  53.132  82.751  1.00  0.00     0.210 C 
ENDBRANCH   6   9
BRANCH   7  11
HETATM   11  C20 UNL     1      12.179  51.524  83.538  1.00  0.00     0.147 A 
HETATM   12  N7  UNL     1      13.512  51.826  83.660  1.00  0.00    -0.338 N 
HETATM   13  C21 UNL     1      14.199  51.420  82.594  1.00  0.00     0.063 A 
ATOM     14  H7  UNL     1      13.923  52.301  84.463  1.00  0.00     0.167 HD
HETATM   15  C22 UNL     1      15.546  51.482  82.231  1.00  0.00     0.032 A 
HETATM   16  C26 UNL     1      13.305  50.833  81.745  1.00  0.00     0.091 A 
HETATM   17  C23 UNL     1      15.979  50.963  81.036  1.00  0.00     0.002 A 
HETATM   18  C24 UNL     1      15.063  50.376  80.191  1.00  0.00     0.002 A 
HETATM   19  C25 UNL     1      13.721  50.307  80.540  1.00  0.00     0.034 A 
HETATM   20  N8  UNL     1      12.080  50.922  82.365  1.00  0.00    -0.205 N 
BRANCH  20  21
HETATM   21  O2  UNL     1      10.959  50.445  81.735  1.00  0.00    -0.281 OA
ATOM     22  H2  UNL     1      10.878  49.713  81.134  1.00  0.00     0.245 HD
ENDBRANCH  20  21
ENDBRANCH   7  11
ENDBRANCH   1   3
BRANCH   1  23
HETATM   23  C6  UNL     1      12.089  52.986  88.738  1.00  0.00     0.684 A 
HETATM   24  N2  UNL     1      13.023  53.552  87.950  1.00  0.00    -0.200 N 
HETATM   25  C7  UNL     1      13.920  54.438  88.458  1.00  0.00     0.133 A 
ATOM     26  H2  UNL     1      13.058  53.312  86.959  1.00  0.00     0.183 HD
HETATM   27  C8  UNL     1      13.914  54.794  89.788  1.00  0.00     0.094 A 
HETATM   28 CL1  UNL     1      15.073  55.937  90.433  1.00  0.00    -0.079 Cl
HETATM   29  C9  UNL     1      12.938  54.198  90.592  1.00  0.00     0.140 A 
HETATM   30  N6  UNL     1      12.076  53.328  90.037  1.00  0.00    -0.175 N 
ATOM     31  H6  UNL     1      11.371  52.903  90.639  1.00  0.00     0.186 HD
BRANCH  29  32
HETATM   32  N3  UNL     1      12.935  54.528  91.820  1.00  0.00    -0.374 N 
ATOM     33  H3  UNL     1      12.639  55.481  92.030  1.00  0.00     0.161 HD
BRANCH  32  34
HETATM   34  C10 UNL     1      13.300  53.717  92.943  1.00  0.00     0.123 C 
BRANCH  34  35
HETATM   35  C11 UNL     1      13.340  54.510  94.238  1.00  0.00     0.050 C 
BRANCH  35  36
HETATM   36  C12 UNL     1      12.060  55.284  94.443  1.00  0.00     0.274 C 
BRANCH  36  37
HETATM   37  N4  UNL     1      12.015  55.980  95.688  1.00  0.00     0.091 N 
HETATM   38  C13 UNL     1      11.248  57.205  95.624  1.00  0.00     0.302 C 
HETATM   39  C14 UNL     1       9.777  56.978  95.845  1.00  0.00     0.302 C 
HETATM   40  N5  UNL     1       9.446  55.961  96.776  1.00  0.00     0.087 N 
HETATM   41  C15 UNL     1       9.282  56.436  98.132  1.00  0.00     0.310 C 
HETATM   42  C16 UNL     1      10.257  54.771  96.702  1.00  0.00     0.302 C 
HETATM   43  C17 UNL     1      11.702  55.191  96.838  1.00  0.00     0.302 C 
ENDBRANCH  36  37
ENDBRANCH  35  36
ENDBRANCH  34  35
ENDBRANCH  32  34
ENDBRANCH  29  32
ENDBRANCH   1  23
TORSDOF 10
ENDMDL
MODEL 5
REMARK VINA RESULT: -7.401989695      2.589      4.554
REMARK  10 active torsions:
REMARK  status: ('A' for Active; 'I' for Inactive)
REMARK    1  A    between atoms: O1_2  and  C2_3 
REMARK    2  A    between atoms: C5_6  and  N1_7 
REMARK    3  A    between atoms: N1_7  and  C6_9 
REMARK    4  A    between atoms: C9_15  and  N3_16 
REMARK    5  A    between atoms: N3_16  and  C10_18 
REMARK    6  A    between atoms: C10_18  and  C11_19 
REMARK    7  A    between atoms: C11_19  and  C12_20 
REMARK    8  A    between atoms: C12_20  and  N4_21 
REMARK    9  A    between atoms: C19_31  and  C20_32 
REMARK   10  A    between atoms: N8_41  and  O2_42 
ROOT
HETATM    1  N1  UNL     1      12.111  53.155  85.693  1.00  0.00    -0.192 N 
ATOM      2  H1  UNL     1      11.511  53.942  85.442  1.00  0.00     0.184 HD
ENDROOT
BRANCH   1   3
HETATM    3  C5  UNL     1      13.059  52.632  84.735  1.00  0.00     0.050 A 
HETATM    4  C4  UNL     1      14.328  53.148  84.644  1.00  0.00     0.033 A 
HETATM    5  C3  UNL     1      15.201  52.623  83.721  1.00  0.00     0.040 A 
HETATM    6  C2  UNL     1      14.815  51.568  82.868  1.00  0.00     0.082 A 
HETATM    7  C19 UNL     1      13.572  51.050  82.947  1.00  0.00     0.046 A 
HETATM    8  C18 UNL     1      12.704  51.607  83.900  1.00  0.00     0.048 A 
BRANCH   6   9
HETATM    9  O1  UNL     1      15.745  51.097  81.961  1.00  0.00    -0.355 OA
HETATM   10  C1  UNL     1      16.061  51.870  80.828  1.00  0.00     0.210 C 
ENDBRANCH   6   9
BRANCH   7  11
HETATM   11  C20 UNL     1      13.074  49.904  82.163  1.00  0.00     0.147 A 
HETATM   12  N7  UNL     1      13.281  49.779  80.813  1.00  0.00    -0.338 N 
HETATM   13  C21 UNL     1      12.686  48.689  80.332  1.00  0.00     0.063 A 
ATOM     14  H7  UNL     1      13.821  50.436  80.250  1.00  0.00     0.167 HD
HETATM   15  C22 UNL     1      12.595  48.120  79.059  1.00  0.00     0.032 A 
HETATM   16  C26 UNL     1      12.070  48.075  81.383  1.00  0.00     0.091 A 
HETATM   17  C23 UNL     1      11.895  46.956  78.856  1.00  0.00     0.002 A 
HETATM   18  C24 UNL     1      11.279  46.350  79.929  1.00  0.00     0.002 A 
HETATM   19  C25 UNL     1      11.363  46.906  81.199  1.00  0.00     0.034 A 
HETATM   20  N8  UNL     1      12.334  48.856  82.485  1.00  0.00    -0.205 N 
BRANCH  20  21
HETATM   21  O2  UNL     1      11.812  48.514  83.706  1.00  0.00    -0.281 OA
ATOM     22  H2  UNL     1      10.971  48.118  83.906  1.00  0.00     0.245 HD
ENDBRANCH  20  21
ENDBRANCH   7  11
ENDBRANCH   1   3
BRANCH   1  23
HETATM   23  C6  UNL     1      12.027  52.622  86.870  1.00  0.00     0.684 A 
HETATM   24  N2  UNL     1      11.593  51.364  87.075  1.00  0.00    -0.200 N 
HETATM   25  C7  UNL     1      11.520  50.846  88.330  1.00  0.00     0.133 A 
ATOM     26  H2  UNL     1      11.314  50.791  86.278  1.00  0.00     0.183 HD
HETATM   27  C8  UNL     1      11.885  51.578  89.438  1.00  0.00     0.094 A 
HETATM   28 CL1  UNL     1      11.789  50.903  91.051  1.00  0.00    -0.079 Cl
HETATM   29  C9  UNL     1      12.333  52.882  89.208  1.00  0.00     0.140 A 
HETATM   30  N6  UNL     1      12.385  53.342  87.946  1.00  0.00    -0.175 N 
ATOM     31  H6  UNL     1      12.715  54.296  87.797  1.00  0.00     0.186 HD
BRANCH  29  32
HETATM   32  N3  UNL     1      12.669  53.556  90.233  1.00  0.00    -0.374 N 
ATOM     33  H3  UNL     1      12.224  53.292  91.111  1.00  0.00     0.161 HD
BRANCH  32  34
HETATM   34  C10 UNL     1      13.599  54.643  90.296  1.00  0.00     0.123 C 
BRANCH  34  35
HETATM   35  C11 UNL     1      14.283  54.738  91.649  1.00  0.00     0.050 C 
BRANCH  35  36
HETATM   36  C12 UNL     1      13.857  53.608  92.556  1.00  0.00     0.274 C 
BRANCH  36  37
HETATM   37  N4  UNL     1      13.467  54.047  93.857  1.00  0.00     0.091 N 
HETATM   38  C13 UNL     1      12.294  54.894  93.840  1.00  0.00     0.302 C 
HETATM   39  C14 UNL     1      11.012  54.105  93.863  1.00  0.00     0.302 C 
HETATM   40  N5  UNL     1      11.038  52.914  94.631  1.00  0.00     0.087 N 
HETATM   41  C15 UNL     1      10.616  53.089  96.003  1.00  0.00     0.310 C 
HETATM   42  C16 UNL     1      12.248  52.136  94.521  1.00  0.00     0.302 C 
HETATM   43  C17 UNL     1      13.408  53.040  94.869  1.00  0.00     0.302 C 
ENDBRANCH  36  37
ENDBRANCH  35  36
ENDBRANCH  34  35
ENDBRANCH  32  34
ENDBRANCH  29  32
ENDBRANCH   1  23
TORSDOF 10
ENDMDL
