MODEL 1
REMARK VINA RESULT: -8.502421631      0.000      0.000
REMARK  10 active torsions:
REMARK  status: ('A' for Active; 'I' for Inactive)
REMARK    1  A    between atoms: N1_4  and  C3_5 
REMARK    2  A    between atoms: C3_5  and  C4_6 
REMARK    3  A    between atoms: C8_10  and  C9_11 
REMARK    4  A    between atoms: C9_11  and  N2_12 
REMARK    5  A    between atoms: N2_12  and  C10_14 
REMARK    6  A    between atoms: C14_20  and  N4_21 
REMARK    7  A    between atoms: N4_21  and  C15_23 
REMARK    8  A    between atoms: C18_28  and  O2_29 
REMARK    9  A    between atoms: O2_29  and  C19_30 
REMARK   10  A    between atoms: C28_40  and  O3_41 
ROOT
HETATM    1  C10 UNL     1       8.005  52.096  87.003  1.00  0.00     0.116 A 
HETATM    2  N3  UNL     1       6.791  51.994  86.461  1.00  0.00    -0.352 N 
ATOM      3  H3  UNL     1       6.609  51.335  85.705  1.00  0.00     0.166 HD
HETATM    4  C11 UNL     1       5.800  52.793  86.945  1.00  0.00     0.090 A 
HETATM    5  C12 UNL     1       5.997  53.695  87.963  1.00  0.00     0.033 A 
HETATM    6  C13 UNL     1       7.241  53.799  88.511  1.00  0.00     0.023 A 
HETATM    7  C14 UNL     1       7.483  54.721  89.562  1.00  0.00     0.114 A 
HETATM    8  N5  UNL     1       8.720  54.778  90.064  1.00  0.00    -0.322 N 
ATOM      9  H5  UNL     1       8.894  55.441  90.820  1.00  0.00     0.169 HD
HETATM   10  C18 UNL     1       9.784  54.003  89.634  1.00  0.00     0.150 A 
HETATM   11  C25 UNL     1       9.497  53.118  88.602  1.00  0.00     0.072 A 
HETATM   12  C26 UNL     1       8.241  53.008  88.040  1.00  0.00     0.026 A 
ENDROOT
BRANCH   1  13
HETATM   13  N2  UNL     1       8.983  51.432  86.605  1.00  0.00    -0.351 N 
ATOM     14  H2  UNL     1       9.474  50.960  87.363  1.00  0.00     0.166 HD
BRANCH  13  15
HETATM   15  C9  UNL     1       9.548  51.191  85.375  1.00  0.00     0.104 C 
BRANCH  15  16
HETATM   16  C8  UNL     1      10.908  51.724  85.090  1.00  0.00     0.018 A 
HETATM   17  C7  UNL     1      11.344  52.892  85.621  1.00  0.00     0.016 A 
HETATM   18  C6  UNL     1      12.662  53.272  85.373  1.00  0.00     0.002 A 
HETATM   19  C5  UNL     1      13.482  52.458  84.605  1.00  0.00     0.012 A 
HETATM   20  C4  UNL     1      13.066  51.290  84.065  1.00  0.00    -0.001 A 
HETATM   21  C27 UNL     1      11.725  50.950  84.337  1.00  0.00     0.136 A 
HETATM   22  F1  UNL     1      11.257  49.751  83.815  1.00  0.00    -0.205 F 
BRANCH  20  23
HETATM   23  C3  UNL     1      13.788  50.392  83.112  1.00  0.00     0.168 C 
BRANCH  23  24
HETATM   24  N1  UNL     1      14.339  50.992  81.950  1.00  0.00    -0.333 N 
HETATM   25  C2  UNL     1      13.459  51.073  80.724  1.00  0.00     0.231 C 
HETATM   26  C1  UNL     1      14.235  50.018  79.888  1.00  0.00     0.254 C 
HETATM   27  O1  UNL     1      13.675  49.041  79.482  1.00  0.00    -0.270 OA
HETATM   28  N7  UNL     1      15.601  50.346  79.690  1.00  0.00    -0.266 N 
HETATM   29  N6  UNL     1      16.301  51.051  80.658  1.00  0.00    -0.263 N 
ATOM     30  H7  UNL     1      16.071  50.061  78.830  1.00  0.00     0.190 HD
HETATM   31  C28 UNL     1      15.689  51.401  81.805  1.00  0.00     0.235 C 
ATOM     32  H6  UNL     1      17.276  51.304  80.500  1.00  0.00     0.190 HD
BRANCH  31  33
HETATM   33  O3  UNL     1      16.375  52.122  82.756  1.00  0.00    -0.331 OA
ATOM     34  H3  UNL     1      16.743  51.740  83.543  1.00  0.00     0.221 HD
ENDBRANCH  31  33
ENDBRANCH  23  24
ENDBRANCH  20  23
ENDBRANCH  15  16
ENDBRANCH  13  15
ENDBRANCH   1  13
BRANCH   7  35
HETATM   35  N4  UNL     1       6.519  55.368  89.919  1.00  0.00    -0.371 N 
ATOM     36  H4  UNL     1       6.056  54.709  90.545  1.00  0.00     0.161 HD
BRANCH  35  37
HETATM   37  C15 UNL     1       5.691  56.429  89.988  1.00  0.00     0.083 A 
HETATM   38  C16 UNL     1       6.209  57.885  89.817  1.00  0.00     0.027 A 
HETATM   39  C17 UNL     1       5.381  57.269  88.755  1.00  0.00     0.027 A 
ENDBRANCH  35  37
ENDBRANCH   7  35
BRANCH  10  40
HETATM   40  O2  UNL     1      10.963  54.126  90.186  1.00  0.00    -0.294 OA
BRANCH  40  41
HETATM   41  C19 UNL     1      12.250  54.358  90.120  1.00  0.00     0.077 A 
HETATM   42  C20 UNL     1      13.061  54.376  89.002  1.00  0.00     0.037 A 
HETATM   43  C21 UNL     1      14.429  54.645  89.111  1.00  0.00     0.003 A 
HETATM   44  C22 UNL     1      15.007  54.898  90.315  1.00  0.00     0.000 A 
HETATM   45  C23 UNL     1      14.239  54.889  91.460  1.00  0.00     0.003 A 
HETATM   46  C24 UNL     1      12.911  54.626  91.346  1.00  0.00     0.037 A 
ENDBRANCH  40  41
ENDBRANCH  10  40
TORSDOF 10
ENDMDL
MODEL 2
REMARK VINA RESULT: -8.201623876      2.820      5.774
REMARK  10 active torsions:
REMARK  status: ('A' for Active; 'I' for Inactive)
REMARK    1  A    between atoms: N1_4  and  C3_5 
REMARK    2  A    between atoms: C3_5  and  C4_6 
REMARK    3  A    between atoms: C8_10  and  C9_11 
REMARK    4  A    between atoms: C9_11  and  N2_12 
REMARK    5  A    between atoms: N2_12  and  C10_14 
REMARK    6  A    between atoms: C14_20  and  N4_21 
REMARK    7  A    between atoms: N4_21  and  C15_23 
REMARK    8  A    between atoms: C18_28  and  O2_29 
REMARK    9  A    between atoms: O2_29  and  C19_30 
REMARK   10  A    between atoms: C28_40  and  O3_41 
ROOT
HETATM    1  C10 UNL     1      13.548  54.126  88.944  1.00  0.00     0.116 A 
HETATM    2  N3  UNL     1      14.740  54.619  89.282  1.00  0.00    -0.352 N 
ATOM      3  H3  UNL     1      15.470  54.749  88.581  1.00  0.00     0.166 HD
HETATM    4  C11 UNL     1      14.958  54.943  90.586  1.00  0.00     0.090 A 
HETATM    5  C12 UNL     1      14.006  54.786  91.564  1.00  0.00     0.033 A 
HETATM    6  C13 UNL     1      12.790  54.278  91.215  1.00  0.00     0.023 A 
HETATM    7  C14 UNL     1      11.783  54.099  92.199  1.00  0.00     0.114 A 
HETATM    8  N5  UNL     1      10.608  53.601  91.800  1.00  0.00    -0.322 N 
ATOM      9  H5  UNL     1       9.885  53.473  92.507  1.00  0.00     0.169 HD
HETATM   10  C18 UNL     1      10.302  53.246  90.497  1.00  0.00     0.150 A 
HETATM   11  C25 UNL     1      11.321  53.439  89.572  1.00  0.00     0.072 A 
HETATM   12  C26 UNL     1      12.556  53.950  89.917  1.00  0.00     0.026 A 
ENDROOT
BRANCH   1  13
HETATM   13  N2  UNL     1      13.266  53.769  87.782  1.00  0.00    -0.351 N 
ATOM     14  H2  UNL     1      12.757  52.887  87.754  1.00  0.00     0.166 HD
BRANCH  13  15
HETATM   15  C9  UNL     1      13.487  54.296  86.532  1.00  0.00     0.104 C 
BRANCH  15  16
HETATM   16  C8  UNL     1      13.657  53.370  85.379  1.00  0.00     0.018 A 
HETATM   17  C7  UNL     1      14.740  53.431  84.567  1.00  0.00     0.016 A 
HETATM   18  C6  UNL     1      14.862  52.469  83.565  1.00  0.00     0.002 A 
HETATM   19  C5  UNL     1      13.889  51.489  83.428  1.00  0.00     0.012 A 
HETATM   20  C4  UNL     1      12.800  51.413  84.226  1.00  0.00    -0.001 A 
HETATM   21  C27 UNL     1      12.717  52.409  85.220  1.00  0.00     0.136 A 
HETATM   22  F1  UNL     1      11.622  52.363  86.074  1.00  0.00    -0.205 F 
BRANCH  20  23
HETATM   23  C3  UNL     1      11.615  50.508  84.106  1.00  0.00     0.168 C 
BRANCH  23  24
HETATM   24  N1  UNL     1      10.680  50.801  83.080  1.00  0.00    -0.333 N 
HETATM   25  C2  UNL     1      10.687  49.916  81.856  1.00  0.00     0.231 C 
HETATM   26  C1  UNL     1      11.270  50.978  80.883  1.00  0.00     0.254 C 
HETATM   27  O1  UNL     1      12.294  50.764  80.299  1.00  0.00    -0.270 OA
HETATM   28  N7  UNL     1      10.481  52.154  80.790  1.00  0.00    -0.266 N 
HETATM   29  N6  UNL     1       9.759  52.603  81.884  1.00  0.00    -0.263 N 
ATOM     30  H7  UNL     1      10.445  52.672  79.911  1.00  0.00     0.190 HD
HETATM   31  C28 UNL     1       9.830  51.937  83.052  1.00  0.00     0.235 C 
ATOM     32  H6  UNL     1       9.175  53.435  81.805  1.00  0.00     0.190 HD
BRANCH  31  33
HETATM   33  O3  UNL     1       9.094  52.367  84.133  1.00  0.00    -0.331 OA
ATOM     34  H3  UNL     1       8.799  53.262  84.247  1.00  0.00     0.221 HD
ENDBRANCH  31  33
ENDBRANCH  23  24
ENDBRANCH  20  23
ENDBRANCH  15  16
ENDBRANCH  13  15
ENDBRANCH   1  13
BRANCH   7  35
HETATM   35  N4  UNL     1      12.088  54.438  93.324  1.00  0.00    -0.371 N 
ATOM     36  H4  UNL     1      13.099  54.547  93.233  1.00  0.00     0.161 HD
BRANCH  35  37
HETATM   37  C15 UNL     1      11.900  54.758  94.619  1.00  0.00     0.083 A 
HETATM   38  C16 UNL     1      11.906  56.233  95.108  1.00  0.00     0.027 A 
HETATM   39  C17 UNL     1      10.636  55.472  95.080  1.00  0.00     0.027 A 
ENDBRANCH  35  37
ENDBRANCH   7  35
BRANCH  10  40
HETATM   40  O2  UNL     1       9.122  52.767  90.198  1.00  0.00    -0.294 OA
BRANCH  40  41
HETATM   41  C19 UNL     1       8.073  52.687  89.419  1.00  0.00     0.077 A 
HETATM   42  C20 UNL     1       7.500  51.558  88.867  1.00  0.00     0.037 A 
HETATM   43  C21 UNL     1       6.369  51.653  88.050  1.00  0.00     0.003 A 
HETATM   44  C22 UNL     1       5.795  52.853  87.772  1.00  0.00     0.000 A 
HETATM   45  C23 UNL     1       6.332  54.009  88.299  1.00  0.00     0.003 A 
HETATM   46  C24 UNL     1       7.431  53.909  89.090  1.00  0.00     0.037 A 
ENDBRANCH  40  41
ENDBRANCH  10  40
TORSDOF 10
ENDMDL
MODEL 3
REMARK VINA RESULT: -8.052410542      3.909      6.292
REMARK  10 active torsions:
REMARK  status: ('A' for Active; 'I' for Inactive)
REMARK    1  A    between atoms: N1_4  and  C3_5 
REMARK    2  A    between atoms: C3_5  and  C4_6 
REMARK    3  A    between atoms: C8_10  and  C9_11 
REMARK    4  A    between atoms: C9_11  and  N2_12 
REMARK    5  A    between atoms: N2_12  and  C10_14 
REMARK    6  A    between atoms: C14_20  and  N4_21 
REMARK    7  A    between atoms: N4_21  and  C15_23 
REMARK    8  A    between atoms: C18_28  and  O2_29 
REMARK    9  A    between atoms: O2_29  and  C19_30 
REMARK   10  A    between atoms: C28_40  and  O3_41 
ROOT
HETATM    1  C10 UNL     1      10.515  50.276  88.971  1.00  0.00     0.116 A 
HETATM    2  N3  UNL     1      10.181  50.257  90.261  1.00  0.00    -0.352 N 
ATOM      3  H3  UNL     1       9.640  49.485  90.650  1.00  0.00     0.166 HD
HETATM    4  C11 UNL     1      10.580  51.295  91.046  1.00  0.00     0.090 A 
HETATM    5  C12 UNL     1      11.310  52.356  90.567  1.00  0.00     0.033 A 
HETATM    6  C13 UNL     1      11.647  52.373  89.246  1.00  0.00     0.023 A 
HETATM    7  C14 UNL     1      12.397  53.454  88.715  1.00  0.00     0.114 A 
HETATM    8  N5  UNL     1      12.702  53.418  87.414  1.00  0.00    -0.322 N 
ATOM      9  H5  UNL     1      13.243  54.194  87.033  1.00  0.00     0.169 HD
HETATM   10  C18 UNL     1      12.339  52.402  86.546  1.00  0.00     0.150 A 
HETATM   11  C25 UNL     1      11.604  51.368  87.113  1.00  0.00     0.072 A 
HETATM   12  C26 UNL     1      11.256  51.344  88.449  1.00  0.00     0.026 A 
ENDROOT
BRANCH   1  13
HETATM   13  N2  UNL     1      10.167  49.387  88.167  1.00  0.00    -0.351 N 
ATOM     14  H2  UNL     1      10.960  48.905  87.745  1.00  0.00     0.166 HD
BRANCH  13  15
HETATM   15  C9  UNL     1       8.957  48.912  87.721  1.00  0.00     0.104 C 
BRANCH  15  16
HETATM   16  C8  UNL     1       8.605  49.072  86.284  1.00  0.00     0.018 A 
HETATM   17  C7  UNL     1       8.744  48.057  85.397  1.00  0.00     0.016 A 
HETATM   18  C6  UNL     1       8.307  48.266  84.089  1.00  0.00     0.002 A 
HETATM   19  C5  UNL     1       7.748  49.486  83.735  1.00  0.00     0.012 A 
HETATM   20  C4  UNL     1       7.603  50.511  84.605  1.00  0.00    -0.001 A 
HETATM   21  C27 UNL     1       8.064  50.256  85.912  1.00  0.00     0.136 A 
HETATM   22  F1  UNL     1       7.922  51.276  86.845  1.00  0.00    -0.205 F 
BRANCH  20  23
HETATM   23  C3  UNL     1       7.153  51.911  84.331  1.00  0.00     0.168 C 
BRANCH  23  24
HETATM   24  N1  UNL     1       7.832  52.618  83.305  1.00  0.00    -0.333 N 
HETATM   25  C2  UNL     1       7.025  53.043  82.100  1.00  0.00     0.231 C 
HETATM   26  C1  UNL     1       7.677  52.048  81.100  1.00  0.00     0.254 C 
HETATM   27  O1  UNL     1       7.001  51.252  80.515  1.00  0.00    -0.270 OA
HETATM   28  N7  UNL     1       9.083  52.200  80.986  1.00  0.00    -0.266 N 
HETATM   29  N6  UNL     1       9.835  52.613  82.075  1.00  0.00    -0.263 N 
ATOM     30  H7  UNL     1       9.543  52.004  80.096  1.00  0.00     0.190 HD
HETATM   31  C28 UNL     1       9.232  52.842  83.257  1.00  0.00     0.235 C 
ATOM     32  H6  UNL     1      10.842  52.742  81.981  1.00  0.00     0.190 HD
BRANCH  31  33
HETATM   33  O3  UNL     1       9.974  53.276  84.333  1.00  0.00    -0.331 OA
ATOM     34  H3  UNL     1       9.660  53.908  84.968  1.00  0.00     0.221 HD
ENDBRANCH  31  33
ENDBRANCH  23  24
ENDBRANCH  20  23
ENDBRANCH  15  16
ENDBRANCH  13  15
ENDBRANCH   1  13
BRANCH   7  35
HETATM   35  N4  UNL     1      12.709  54.313  89.515  1.00  0.00    -0.371 N 
ATOM     36  H4  UNL     1      11.846  54.413  90.049  1.00  0.00     0.161 HD
BRANCH  35  37
HETATM   37  C15 UNL     1      13.505  55.215  90.123  1.00  0.00     0.083 A 
HETATM   38  C16 UNL     1      14.278  54.876  91.428  1.00  0.00     0.027 A 
HETATM   39  C17 UNL     1      15.018  55.036  90.155  1.00  0.00     0.027 A 
ENDBRANCH  35  37
ENDBRANCH   7  35
BRANCH  10  40
HETATM   40  O2  UNL     1      12.684  52.449  85.286  1.00  0.00    -0.294 OA
BRANCH  40  41
HETATM   41  C19 UNL     1      13.452  52.097  84.286  1.00  0.00     0.077 A 
HETATM   42  C20 UNL     1      13.227  51.120  83.336  1.00  0.00     0.037 A 
HETATM   43  C21 UNL     1      14.162  50.873  82.325  1.00  0.00     0.003 A 
HETATM   44  C22 UNL     1      15.318  51.582  82.240  1.00  0.00     0.000 A 
HETATM   45  C23 UNL     1      15.588  52.568  83.167  1.00  0.00     0.003 A 
HETATM   46  C24 UNL     1      14.676  52.801  84.146  1.00  0.00     0.037 A 
ENDBRANCH  40  41
ENDBRANCH  10  40
TORSDOF 10
ENDMDL
MODEL 4
REMARK VINA RESULT: -8.043466318      4.972      7.203
REMARK  10 active torsions:
REMARK  status: ('A' for Active; 'I' for Inactive)
REMARK    1  A    between atoms: N1_4  and  C3_5 
REMARK    2  A    between atoms: C3_5  and  C4_6 
REMARK    3  A    between atoms: C8_10  and  C9_11 
REMARK    4  A    between atoms: C9_11  and  N2_12 
REMARK    5  A    between atoms: N2_12  and  C10_14 
REMARK    6  A    between atoms: C14_20  and  N4_21 
REMARK    7  A    between atoms: N4_21  and  C15_23 
REMARK    8  A    between atoms: C18_28  and  O2_29 
REMARK    9  A    between atoms: O2_29  and  C19_30 
REMARK   10  A    between atoms: C28_40  and  O3_41 
ROOT
HETATM    1  C10 UNL     1      10.253  50.653  88.987  1.00  0.00     0.116 A 
HETATM    2  N3  UNL     1       9.849  50.670  90.258  1.00  0.00    -0.352 N 
ATOM      3  H3  UNL     1       9.240  49.938  90.622  1.00  0.00     0.166 HD
HETATM    4  C11 UNL     1      10.272  51.689  91.055  1.00  0.00     0.090 A 
HETATM    5  C12 UNL     1      11.093  52.696  90.608  1.00  0.00     0.033 A 
HETATM    6  C13 UNL     1      11.500  52.677  89.307  1.00  0.00     0.023 A 
HETATM    7  C14 UNL     1      12.346  53.702  88.810  1.00  0.00     0.114 A 
HETATM    8  N5  UNL     1      12.717  53.632  87.528  1.00  0.00    -0.322 N 
ATOM      9  H5  UNL     1      13.326  54.368  87.171  1.00  0.00     0.169 HD
HETATM   10  C18 UNL     1      12.336  52.632  86.648  1.00  0.00     0.150 A 
HETATM   11  C25 UNL     1      11.507  51.654  87.183  1.00  0.00     0.072 A 
HETATM   12  C26 UNL     1      11.088  51.666  88.498  1.00  0.00     0.026 A 
ENDROOT
BRANCH   1  13
HETATM   13  N2  UNL     1       9.892  49.780  88.172  1.00  0.00    -0.351 N 
ATOM     14  H2  UNL     1       9.253  50.142  87.465  1.00  0.00     0.166 HD
BRANCH  13  15
HETATM   15  C9  UNL     1      10.160  48.442  88.012  1.00  0.00     0.104 C 
BRANCH  15  16
HETATM   16  C8  UNL     1      11.460  48.033  87.413  1.00  0.00     0.018 A 
HETATM   17  C7  UNL     1      11.571  47.709  86.102  1.00  0.00     0.016 A 
HETATM   18  C6  UNL     1      12.842  47.423  85.605  1.00  0.00     0.002 A 
HETATM   19  C5  UNL     1      13.942  47.480  86.449  1.00  0.00     0.012 A 
HETATM   20  C4  UNL     1      13.850  47.798  87.760  1.00  0.00    -0.001 A 
HETATM   21  C27 UNL     1      12.547  48.073  88.219  1.00  0.00     0.136 A 
HETATM   22  F1  UNL     1      12.405  48.419  89.556  1.00  0.00    -0.205 F 
BRANCH  20  23
HETATM   23  C3  UNL     1      14.918  47.761  88.807  1.00  0.00     0.168 C 
BRANCH  23  24
HETATM   24  N1  UNL     1      15.559  46.514  89.032  1.00  0.00    -0.333 N 
HETATM   25  C2  UNL     1      14.983  45.618  90.103  1.00  0.00     0.231 C 
HETATM   26  C1  UNL     1      16.152  45.788  91.112  1.00  0.00     0.254 C 
HETATM   27  O1  UNL     1      15.943  46.217  92.211  1.00  0.00    -0.270 OA
HETATM   28  N7  UNL     1      17.412  45.394  90.591  1.00  0.00    -0.266 N 
HETATM   29  N6  UNL     1      17.691  45.548  89.241  1.00  0.00    -0.263 N 
ATOM     30  H7  UNL     1      18.116  44.996  91.213  1.00  0.00     0.190 HD
HETATM   31  C28 UNL     1      16.773  46.100  88.426  1.00  0.00     0.235 C 
ATOM     32  H6  UNL     1      18.589  45.242  88.867  1.00  0.00     0.190 HD
BRANCH  31  33
HETATM   33  O3  UNL     1      17.039  46.230  87.082  1.00  0.00    -0.331 OA
ATOM     34  H3  UNL     1      17.115  45.494  86.486  1.00  0.00     0.221 HD
ENDBRANCH  31  33
ENDBRANCH  23  24
ENDBRANCH  20  23
ENDBRANCH  15  16
ENDBRANCH  13  15
ENDBRANCH   1  13
BRANCH   7  35
HETATM   35  N4  UNL     1      12.669  54.548  89.618  1.00  0.00    -0.371 N 
ATOM     36  H4  UNL     1      11.760  54.911  89.905  1.00  0.00     0.161 HD
BRANCH  35  37
HETATM   37  C15 UNL     1      13.503  55.298  90.367  1.00  0.00     0.083 A 
HETATM   38  C16 UNL     1      14.365  54.679  91.502  1.00  0.00     0.027 A 
HETATM   39  C17 UNL     1      15.015  55.146  90.256  1.00  0.00     0.027 A 
ENDBRANCH  35  37
ENDBRANCH   7  35
BRANCH  10  40
HETATM   40  O2  UNL     1      12.750  52.644  85.408  1.00  0.00    -0.294 OA
BRANCH  40  41
HETATM   41  C19 UNL     1      13.594  52.294  84.470  1.00  0.00     0.077 A 
HETATM   42  C20 UNL     1      14.760  52.927  84.088  1.00  0.00     0.037 A 
HETATM   43  C21 UNL     1      15.552  52.412  83.057  1.00  0.00     0.003 A 
HETATM   44  C22 UNL     1      15.205  51.275  82.398  1.00  0.00     0.000 A 
HETATM   45  C23 UNL     1      14.048  50.608  82.742  1.00  0.00     0.003 A 
HETATM   46  C24 UNL     1      13.283  51.115  83.744  1.00  0.00     0.037 A 
ENDBRANCH  40  41
ENDBRANCH  10  40
TORSDOF 10
ENDMDL
MODEL 5
REMARK VINA RESULT: -7.990917052      3.427      5.332
REMARK  10 active torsions:
REMARK  status: ('A' for Active; 'I' for Inactive)
REMARK    1  A    between atoms: N1_4  and  C3_5 
REMARK    2  A    between atoms: C3_5  and  C4_6 
REMARK    3  A    between atoms: C8_10  and  C9_11 
REMARK    4  A    between atoms: C9_11  and  N2_12 
REMARK    5  A    between atoms: N2_12  and  C10_14 
REMARK    6  A    between atoms: C14_20  and  N4_21 
REMARK    7  A    between atoms: N4_21  and  C15_23 
REMARK    8  A    between atoms: C18_28  and  O2_29 
REMARK    9  A    between atoms: O2_29  and  C19_30 
REMARK   10  A    between atoms: C28_40  and  O3_41 
ROOT
HETATM    1  C10 UNL     1      13.707  54.502  88.442  1.00  0.00     0.116 A 
HETATM    2  N3  UNL     1      14.307  55.606  88.888  1.00  0.00    -0.352 N 
ATOM      3  H3  UNL     1      14.896  56.167  88.272  1.00  0.00     0.166 HD
HETATM    4  C11 UNL     1      14.113  55.966  90.187  1.00  0.00     0.090 A 
HETATM    5  C12 UNL     1      13.329  55.243  91.052  1.00  0.00     0.033 A 
HETATM    6  C13 UNL     1      12.721  54.112  90.593  1.00  0.00     0.023 A 
HETATM    7  C14 UNL     1      11.906  53.338  91.460  1.00  0.00     0.114 A 
HETATM    8  N5  UNL     1      11.332  52.241  90.956  1.00  0.00    -0.322 N 
ATOM      9  H5  UNL     1      10.746  51.686  91.579  1.00  0.00     0.169 HD
HETATM   10  C18 UNL     1      11.474  51.804  89.650  1.00  0.00     0.150 A 
HETATM   11  C25 UNL     1      12.282  52.595  88.842  1.00  0.00     0.072 A 
HETATM   12  C26 UNL     1      12.904  53.740  89.299  1.00  0.00     0.026 A 
ENDROOT
BRANCH   1  13
HETATM   13  N2  UNL     1      13.852  54.075  87.279  1.00  0.00    -0.351 N 
ATOM     14  H2  UNL     1      14.638  53.432  87.190  1.00  0.00     0.166 HD
BRANCH  13  15
HETATM   15  C9  UNL     1      13.191  54.274  86.090  1.00  0.00     0.104 C 
BRANCH  15  16
HETATM   16  C8  UNL     1      12.554  53.110  85.415  1.00  0.00     0.018 A 
HETATM   17  C7  UNL     1      11.226  52.861  85.521  1.00  0.00     0.016 A 
HETATM   18  C6  UNL     1      10.698  51.801  84.785  1.00  0.00     0.002 A 
HETATM   19  C5  UNL     1      11.531  51.043  83.974  1.00  0.00     0.012 A 
HETATM   20  C4  UNL     1      12.858  51.274  83.857  1.00  0.00    -0.001 A 
HETATM   21  C27 UNL     1      13.347  52.350  84.623  1.00  0.00     0.136 A 
HETATM   22  F1  UNL     1      14.703  52.634  84.524  1.00  0.00    -0.205 F 
BRANCH  20  23
HETATM   23  C3  UNL     1      13.888  50.459  83.139  1.00  0.00     0.168 C 
BRANCH  23  24
HETATM   24  N1  UNL     1      14.313  50.930  81.870  1.00  0.00    -0.333 N 
HETATM   25  C2  UNL     1      13.304  50.913  80.746  1.00  0.00     0.231 C 
HETATM   26  C1  UNL     1      13.968  49.762  79.940  1.00  0.00     0.254 C 
HETATM   27  O1  UNL     1      13.352  48.764  79.696  1.00  0.00    -0.270 OA
HETATM   28  N7  UNL     1      15.308  50.036  79.561  1.00  0.00    -0.266 N 
HETATM   29  N6  UNL     1      16.120  50.814  80.371  1.00  0.00    -0.263 N 
ATOM     30  H7  UNL     1      15.675  49.657  78.688  1.00  0.00     0.190 HD
HETATM   31  C28 UNL     1      15.645  51.289  81.538  1.00  0.00     0.235 C 
ATOM     32  H6  UNL     1      17.075  51.026  80.084  1.00  0.00     0.190 HD
BRANCH  31  33
HETATM   33  O3  UNL     1      16.442  52.083  82.331  1.00  0.00    -0.331 OA
ATOM     34  H3  UNL     1      17.389  52.020  82.357  1.00  0.00     0.221 HD
ENDBRANCH  31  33
ENDBRANCH  23  24
ENDBRANCH  20  23
ENDBRANCH  15  16
ENDBRANCH  13  15
ENDBRANCH   1  13
BRANCH   7  35
HETATM   35  N4  UNL     1      11.796  53.766  92.591  1.00  0.00    -0.371 N 
ATOM     36  H4  UNL     1      11.365  54.675  92.420  1.00  0.00     0.161 HD
BRANCH  35  37
HETATM   37  C15 UNL     1      11.898  53.768  93.935  1.00  0.00     0.083 A 
HETATM   38  C16 UNL     1      13.194  54.232  94.657  1.00  0.00     0.027 A 
HETATM   39  C17 UNL     1      11.976  55.071  94.719  1.00  0.00     0.027 A 
ENDBRANCH  35  37
ENDBRANCH   7  35
BRANCH  10  40
HETATM   40  O2  UNL     1      10.871  50.718  89.243  1.00  0.00    -0.294 OA
BRANCH  40  41
HETATM   41  C19 UNL     1      10.478  49.901  88.298  1.00  0.00     0.077 A 
HETATM   42  C20 UNL     1       9.188  49.598  87.909  1.00  0.00     0.037 A 
HETATM   43  C21 UNL     1       8.945  48.696  86.868  1.00  0.00     0.003 A 
HETATM   44  C22 UNL     1       9.964  48.090  86.204  1.00  0.00     0.000 A 
HETATM   45  C23 UNL     1      11.269  48.359  86.557  1.00  0.00     0.003 A 
HETATM   46  C24 UNL     1      11.498  49.235  87.569  1.00  0.00     0.037 A 
ENDBRANCH  40  41
ENDBRANCH  10  40
TORSDOF 10
ENDMDL
