MODEL 1
REMARK VINA RESULT: -8.187706070      0.000      0.000
REMARK  9 active torsions:
REMARK  status: ('A' for Active; 'I' for Inactive)
REMARK    1  A    between atoms: C2_5  and  O2_6 
REMARK    2  A    between atoms: C3_8  and  C4_9 
REMARK    3  A    between atoms: N2_10  and  C5_12 
REMARK    4  A    between atoms: C5_12  and  C6_13 
REMARK    5  A    between atoms: C5_12  and  C13_22 
REMARK    6  A    between atoms: C6_13  and  O3_14 
REMARK    7  A    between atoms: O3_14  and  C7_15 
REMARK    8  A    between atoms: C13_22  and  O4_23 
REMARK    9  A    between atoms: O4_23  and  C14_24 
ROOT
HETATM    1  C5  UNL     1      11.135  51.169  86.080  1.00  0.00     0.129 C 
ENDROOT
BRANCH   1   2
HETATM    2  N2  UNL     1      12.007  51.866  87.002  1.00  0.00    -0.389 N 
HETATM    3  C4  UNL     1      11.517  52.570  87.963  1.00  0.00     0.105 C 
ATOM      4  H2  UNL     1      13.018  51.800  86.888  1.00  0.00     0.159 HD
BRANCH   3   5
HETATM    5  C3  UNL     1      12.440  53.259  88.871  1.00  0.00     0.098 A 
HETATM    6  C2  UNL     1      13.440  54.059  88.382  1.00  0.00     0.161 A 
HETATM    7  N1  UNL     1      14.293  54.697  89.182  1.00  0.00    -0.288 N 
HETATM    8  C1  UNL     1      14.144  54.532  90.511  1.00  0.00     0.329 A 
ATOM      9  H1  UNL     1      15.032  55.289  88.802  1.00  0.00     0.172 HD
HETATM   10  O1  UNL     1      14.965  55.148  91.257  1.00  0.00    -0.247 OA
HETATM   11  N3  UNL     1      13.186  53.764  91.042  1.00  0.00    -0.275 N 
HETATM   12  C24 UNL     1      12.324  53.120  90.238  1.00  0.00     0.265 A 
ATOM     13  H3  UNL     1      13.110  53.668  92.054  1.00  0.00     0.173 HD
HETATM   14  O5  UNL     1      11.422  52.396  90.735  1.00  0.00    -0.267 OA
BRANCH   6  15
HETATM   15  O2  UNL     1      13.557  54.199  87.011  1.00  0.00    -0.345 OA
ATOM     16  H2  UNL     1      12.913  53.793  86.443  1.00  0.00     0.219 HD
ENDBRANCH   6  15
ENDBRANCH   3   5
ENDBRANCH   1   2
BRANCH   1  17
HETATM   17  C6  UNL     1      11.543  49.733  86.064  1.00  0.00     0.203 C 
BRANCH  17  18
HETATM   18  O3  UNL     1      11.553  49.124  87.319  1.00  0.00    -0.349 OA
BRANCH  18  19
HETATM   19  C7  UNL     1      12.725  48.507  87.735  1.00  0.00     0.068 A 
HETATM   20  C8  UNL     1      13.099  48.539  89.063  1.00  0.00     0.038 A 
HETATM   21  C9  UNL     1      14.264  47.928  89.495  1.00  0.00     0.022 A 
HETATM   22  C10 UNL     1      15.098  47.265  88.617  1.00  0.00     0.011 A 
HETATM   23 BR1  UNL     1      16.706  46.427  89.235  1.00  0.00    -0.051 Br
HETATM   24  C11 UNL     1      14.725  47.232  87.291  1.00  0.00     0.022 A 
HETATM   25  C12 UNL     1      13.563  47.841  86.860  1.00  0.00     0.038 A 
ENDBRANCH  18  19
ENDBRANCH  17  18
ENDBRANCH   1  17
BRANCH   1  26
HETATM   26  C13 UNL     1      11.287  51.835  84.728  1.00  0.00     0.203 C 
BRANCH  26  27
HETATM   27  O4  UNL     1      12.076  50.995  83.871  1.00  0.00    -0.348 OA
BRANCH  27  28
HETATM   28  C14 UNL     1      13.319  51.407  83.417  1.00  0.00     0.080 A 
HETATM   29  C15 UNL     1      14.090  52.282  84.150  1.00  0.00     0.037 A 
HETATM   30  C16 UNL     1      15.319  52.658  83.651  1.00  0.00     0.004 A 
HETATM   31  C17 UNL     1      15.775  52.174  82.442  1.00  0.00     0.012 A 
HETATM   32  C18 UNL     1      14.973  51.302  81.739  1.00  0.00    -0.023 A 
HETATM   33  C19 UNL     1      15.390  50.793  80.525  1.00  0.00     0.012 A 
HETATM   34  C23 UNL     1      13.732  50.888  82.189  1.00  0.00     0.007 A 
HETATM   35  C20 UNL     1      14.609  49.923  79.808  1.00  0.00     0.001 A 
HETATM   36  C21 UNL     1      13.375  49.519  80.267  1.00  0.00     0.001 A 
HETATM   37  C22 UNL     1      12.939  50.014  81.477  1.00  0.00     0.015 A 
ENDBRANCH  27  28
ENDBRANCH  26  27
ENDBRANCH   1  26
TORSDOF 9
ENDMDL
MODEL 2
REMARK VINA RESULT: -7.993140627      1.195      2.351
REMARK  9 active torsions:
REMARK  status: ('A' for Active; 'I' for Inactive)
REMARK    1  A    between atoms: C2_5  and  O2_6 
REMARK    2  A    between atoms: C3_8  and  C4_9 
REMARK    3  A    between atoms: N2_10  and  C5_12 
REMARK    4  A    between atoms: C5_12  and  C6_13 
REMARK    5  A    between atoms: C5_12  and  C13_22 
REMARK    6  A    between atoms: C6_13  and  O3_14 
REMARK    7  A    between atoms: O3_14  and  C7_15 
REMARK    8  A    between atoms: C13_22  and  O4_23 
REMARK    9  A    between atoms: O4_23  and  C14_24 
ROOT
HETATM    1  C5  UNL     1       9.993  51.973  87.268  1.00  0.00     0.129 C 
ENDROOT
BRANCH   1   2
HETATM    2  N2  UNL     1      10.992  52.918  87.718  1.00  0.00    -0.389 N 
HETATM    3  C4  UNL     1      11.611  52.737  88.833  1.00  0.00     0.105 C 
ATOM      4  H2  UNL     1      11.209  53.734  87.147  1.00  0.00     0.159 HD
BRANCH   3   5
HETATM    5  C3  UNL     1      12.615  53.722  89.248  1.00  0.00     0.098 A 
HETATM    6  C2  UNL     1      13.481  54.270  88.337  1.00  0.00     0.161 A 
HETATM    7  N1  UNL     1      14.404  55.166  88.683  1.00  0.00    -0.288 N 
HETATM    8  C1  UNL     1      14.466  55.526  89.980  1.00  0.00     0.329 A 
ATOM      9  H1  UNL     1      15.040  55.564  87.992  1.00  0.00     0.172 HD
HETATM   10  O1  UNL     1      15.350  56.381  90.292  1.00  0.00    -0.247 OA
HETATM   11  N3  UNL     1      13.646  55.024  90.911  1.00  0.00    -0.275 N 
HETATM   12  C24 UNL     1      12.715  54.121  90.564  1.00  0.00     0.265 A 
ATOM     13  H3  UNL     1      13.729  55.327  91.881  1.00  0.00     0.173 HD
HETATM   14  O5  UNL     1      11.944  53.647  91.439  1.00  0.00    -0.267 OA
BRANCH   6  15
HETATM   15  O2  UNL     1      13.382  53.870  87.016  1.00  0.00    -0.345 OA
ATOM     16  H2  UNL     1      13.439  54.520  86.326  1.00  0.00     0.219 HD
ENDBRANCH   6  15
ENDBRANCH   3   5
ENDBRANCH   1   2
BRANCH   1  17
HETATM   17  C6  UNL     1      10.250  50.673  87.956  1.00  0.00     0.203 C 
BRANCH  17  18
HETATM   18  O3  UNL     1      10.748  49.671  87.125  1.00  0.00    -0.349 OA
BRANCH  18  19
HETATM   19  C7  UNL     1      11.926  49.038  87.499  1.00  0.00     0.068 A 
HETATM   20  C8  UNL     1      12.686  48.365  86.564  1.00  0.00     0.038 A 
HETATM   21  C9  UNL     1      13.863  47.729  86.919  1.00  0.00     0.022 A 
HETATM   22  C10 UNL     1      14.323  47.741  88.221  1.00  0.00     0.011 A 
HETATM   23 BR1  UNL     1      15.954  46.854  88.693  1.00  0.00    -0.051 Br
HETATM   24  C11 UNL     1      13.565  48.413  89.155  1.00  0.00     0.022 A 
HETATM   25  C12 UNL     1      12.392  49.047  88.800  1.00  0.00     0.038 A 
ENDBRANCH  18  19
ENDBRANCH  17  18
ENDBRANCH   1  17
BRANCH   1  26
HETATM   26  C13 UNL     1      10.117  51.871  85.762  1.00  0.00     0.203 C 
BRANCH  26  27
HETATM   27  O4  UNL     1      11.502  51.965  85.393  1.00  0.00    -0.348 OA
BRANCH  27  28
HETATM   28  C14 UNL     1      12.006  51.238  84.325  1.00  0.00     0.080 A 
HETATM   29  C15 UNL     1      11.284  50.209  83.761  1.00  0.00     0.037 A 
HETATM   30  C16 UNL     1      11.833  49.519  82.701  1.00  0.00     0.004 A 
HETATM   31  C17 UNL     1      13.081  49.845  82.211  1.00  0.00     0.012 A 
HETATM   32  C18 UNL     1      13.771  50.879  82.803  1.00  0.00    -0.023 A 
HETATM   33  C19 UNL     1      15.023  51.238  82.344  1.00  0.00     0.012 A 
HETATM   34  C23 UNL     1      13.272  51.607  83.868  1.00  0.00     0.007 A 
HETATM   35  C20 UNL     1      15.729  52.264  82.918  1.00  0.00     0.001 A 
HETATM   36  C21 UNL     1      15.220  52.982  83.978  1.00  0.00     0.001 A 
HETATM   37  C22 UNL     1      13.971  52.640  84.453  1.00  0.00     0.015 A 
ENDBRANCH  27  28
ENDBRANCH  26  27
ENDBRANCH   1  26
TORSDOF 9
ENDMDL
MODEL 3
REMARK VINA RESULT: -7.972092612      2.736      7.635
REMARK  9 active torsions:
REMARK  status: ('A' for Active; 'I' for Inactive)
REMARK    1  A    between atoms: C2_5  and  O2_6 
REMARK    2  A    between atoms: C3_8  and  C4_9 
REMARK    3  A    between atoms: N2_10  and  C5_12 
REMARK    4  A    between atoms: C5_12  and  C6_13 
REMARK    5  A    between atoms: C5_12  and  C13_22 
REMARK    6  A    between atoms: C6_13  and  O3_14 
REMARK    7  A    between atoms: O3_14  and  C7_15 
REMARK    8  A    between atoms: C13_22  and  O4_23 
REMARK    9  A    between atoms: O4_23  and  C14_24 
ROOT
HETATM    1  C5  UNL     1      10.555  51.801  87.584  1.00  0.00     0.129 C 
ENDROOT
BRANCH   1   2
HETATM    2  N2  UNL     1      11.640  50.969  88.059  1.00  0.00    -0.389 N 
HETATM    3  C4  UNL     1      11.521  49.687  88.085  1.00  0.00     0.105 C 
ATOM      4  H2  UNL     1      12.507  51.402  88.375  1.00  0.00     0.159 HD
BRANCH   3   5
HETATM    5  C3  UNL     1      12.647  48.886  88.574  1.00  0.00     0.098 A 
HETATM    6  C2  UNL     1      13.196  49.126  89.807  1.00  0.00     0.161 A 
HETATM    7  N1  UNL     1      14.220  48.415  90.279  1.00  0.00    -0.288 N 
HETATM    8  C1  UNL     1      14.710  47.434  89.496  1.00  0.00     0.329 A 
ATOM      9  H1  UNL     1      14.617  48.606  91.199  1.00  0.00     0.172 HD
HETATM   10  O1  UNL     1      15.684  46.767  89.962  1.00  0.00    -0.247 OA
HETATM   11  N3  UNL     1      14.212  47.157  88.286  1.00  0.00    -0.275 N 
HETATM   12  C24 UNL     1      13.181  47.871  87.808  1.00  0.00     0.265 A 
ATOM     13  H3  UNL     1      14.615  46.404  87.727  1.00  0.00     0.173 HD
HETATM   14  O5  UNL     1      12.711  47.612  86.669  1.00  0.00    -0.267 OA
BRANCH   6  15
HETATM   15  O2  UNL     1      12.662  50.143  90.577  1.00  0.00    -0.345 OA
ATOM     16  H2  UNL     1      11.864  50.573  90.294  1.00  0.00     0.219 HD
ENDBRANCH   6  15
ENDBRANCH   3   5
ENDBRANCH   1   2
BRANCH   1  17
HETATM   17  C6  UNL     1      10.856  52.183  86.173  1.00  0.00     0.203 C 
BRANCH  17  18
HETATM   18  O3  UNL     1      11.955  53.029  86.028  1.00  0.00    -0.349 OA
BRANCH  18  19
HETATM   19  C7  UNL     1      12.924  52.686  85.094  1.00  0.00     0.068 A 
HETATM   20  C8  UNL     1      12.749  51.587  84.277  1.00  0.00     0.038 A 
HETATM   21  C9  UNL     1      13.704  51.231  83.340  1.00  0.00     0.022 A 
HETATM   22  C10 UNL     1      14.868  51.958  83.187  1.00  0.00     0.011 A 
HETATM   23 BR1  UNL     1      16.178  51.448  81.885  1.00  0.00    -0.051 Br
HETATM   24  C11 UNL     1      15.043  53.054  84.002  1.00  0.00     0.022 A 
HETATM   25  C12 UNL     1      14.090  53.409  84.936  1.00  0.00     0.038 A 
ENDBRANCH  18  19
ENDBRANCH  17  18
ENDBRANCH   1  17
BRANCH   1  26
HETATM   26  C13 UNL     1      10.470  52.998  88.508  1.00  0.00     0.203 C 
BRANCH  26  27
HETATM   27  O4  UNL     1      11.213  52.726  89.707  1.00  0.00    -0.348 OA
BRANCH  27  28
HETATM   28  C14 UNL     1      12.284  53.525  90.078  1.00  0.00     0.080 A 
HETATM   29  C15 UNL     1      13.154  54.031  89.138  1.00  0.00     0.037 A 
HETATM   30  C16 UNL     1      14.201  54.821  89.563  1.00  0.00     0.004 A 
HETATM   31  C17 UNL     1      14.382  55.102  90.902  1.00  0.00     0.012 A 
HETATM   32  C18 UNL     1      13.490  54.576  91.810  1.00  0.00    -0.023 A 
HETATM   33  C19 UNL     1      13.634  54.832  93.160  1.00  0.00     0.012 A 
HETATM   34  C23 UNL     1      12.421  53.779  91.444  1.00  0.00     0.007 A 
HETATM   35  C20 UNL     1      12.759  54.319  94.083  1.00  0.00     0.001 A 
HETATM   36  C21 UNL     1      11.698  53.527  93.704  1.00  0.00     0.001 A 
HETATM   37  C22 UNL     1      11.535  53.258  92.361  1.00  0.00     0.015 A 
ENDBRANCH  27  28
ENDBRANCH  26  27
ENDBRANCH   1  26
TORSDOF 9
ENDMDL
MODEL 4
REMARK VINA RESULT: -7.950191396      3.555      5.061
REMARK  9 active torsions:
REMARK  status: ('A' for Active; 'I' for Inactive)
REMARK    1  A    between atoms: C2_5  and  O2_6 
REMARK    2  A    between atoms: C3_8  and  C4_9 
REMARK    3  A    between atoms: N2_10  and  C5_12 
REMARK    4  A    between atoms: C5_12  and  C6_13 
REMARK    5  A    between atoms: C5_12  and  C13_22 
REMARK    6  A    between atoms: C6_13  and  O3_14 
REMARK    7  A    between atoms: O3_14  and  C7_15 
REMARK    8  A    between atoms: C13_22  and  O4_23 
REMARK    9  A    between atoms: O4_23  and  C14_24 
ROOT
HETATM    1  C5  UNL     1      10.939  52.333  86.701  1.00  0.00     0.129 C 
ENDROOT
BRANCH   1   2
HETATM    2  N2  UNL     1       9.937  53.234  87.229  1.00  0.00    -0.389 N 
HETATM    3  C4  UNL     1       9.031  52.806  88.038  1.00  0.00     0.105 C 
ATOM      4  H2  UNL     1       9.948  54.216  86.957  1.00  0.00     0.159 HD
BRANCH   3   5
HETATM    5  C3  UNL     1       8.036  53.756  88.546  1.00  0.00     0.098 A 
HETATM    6  C2  UNL     1       8.417  54.835  89.302  1.00  0.00     0.161 A 
HETATM    7  N1  UNL     1       7.537  55.714  89.778  1.00  0.00    -0.288 N 
HETATM    8  C1  UNL     1       6.236  55.512  89.491  1.00  0.00     0.329 A 
ATOM      9  H1  UNL     1       7.837  56.512  90.339  1.00  0.00     0.172 HD
HETATM   10  O1  UNL     1       5.412  56.360  89.952  1.00  0.00    -0.247 OA
HETATM   11  N3  UNL     1       5.809  54.477  88.758  1.00  0.00    -0.275 N 
HETATM   12  C24 UNL     1       6.694  53.589  88.277  1.00  0.00     0.265 A 
ATOM     13  H3  UNL     1       4.814  54.363  88.566  1.00  0.00     0.173 HD
HETATM   14  O5  UNL     1       6.295  52.614  87.588  1.00  0.00    -0.267 OA
BRANCH   6  15
HETATM   15  O2  UNL     1       9.763  55.004  89.573  1.00  0.00    -0.345 OA
ATOM     16  H2  UNL     1      10.052  55.778  90.041  1.00  0.00     0.219 HD
ENDBRANCH   6  15
ENDBRANCH   3   5
ENDBRANCH   1   2
BRANCH   1  17
HETATM   17  C6  UNL     1      11.954  52.102  87.771  1.00  0.00     0.203 C 
BRANCH  17  18
HETATM   18  O3  UNL     1      12.720  53.224  88.088  1.00  0.00    -0.349 OA
BRANCH  18  19
HETATM   19  C7  UNL     1      12.837  53.576  89.427  1.00  0.00     0.068 A 
HETATM   20  C8  UNL     1      12.239  52.809  90.406  1.00  0.00     0.038 A 
HETATM   21  C9  UNL     1      12.346  53.144  91.745  1.00  0.00     0.022 A 
HETATM   22  C10 UNL     1      13.053  54.257  92.154  1.00  0.00     0.011 A 
HETATM   23 BR1  UNL     1      13.189  54.705  94.011  1.00  0.00    -0.051 Br
HETATM   24  C11 UNL     1      13.651  55.023  91.176  1.00  0.00     0.022 A 
HETATM   25  C12 UNL     1      13.543  54.688  89.841  1.00  0.00     0.038 A 
ENDBRANCH  18  19
ENDBRANCH  17  18
ENDBRANCH   1  17
BRANCH   1  26
HETATM   26  C13 UNL     1      11.527  52.988  85.468  1.00  0.00     0.203 C 
BRANCH  26  27
HETATM   27  O4  UNL     1      12.008  51.972  84.574  1.00  0.00    -0.348 OA
BRANCH  27  28
HETATM   28  C14 UNL     1      13.265  52.067  83.996  1.00  0.00     0.080 A 
HETATM   29  C15 UNL     1      14.238  52.876  84.540  1.00  0.00     0.037 A 
HETATM   30  C16 UNL     1      15.471  52.932  83.924  1.00  0.00     0.004 A 
HETATM   31  C17 UNL     1      15.731  52.197  82.785  1.00  0.00     0.012 A 
HETATM   32  C18 UNL     1      14.731  51.401  82.274  1.00  0.00    -0.023 A 
HETATM   33  C19 UNL     1      14.949  50.649  81.136  1.00  0.00     0.012 A 
HETATM   34  C23 UNL     1      13.476  51.303  82.847  1.00  0.00     0.007 A 
HETATM   35  C20 UNL     1      13.968  49.849  80.608  1.00  0.00     0.001 A 
HETATM   36  C21 UNL     1      12.723  49.761  81.190  1.00  0.00     0.001 A 
HETATM   37  C22 UNL     1      12.483  50.503  82.326  1.00  0.00     0.015 A 
ENDBRANCH  27  28
ENDBRANCH  26  27
ENDBRANCH   1  26
TORSDOF 9
ENDMDL
MODEL 5
REMARK VINA RESULT: -7.887628410      1.316      2.156
REMARK  9 active torsions:
REMARK  status: ('A' for Active; 'I' for Inactive)
REMARK    1  A    between atoms: C2_5  and  O2_6 
REMARK    2  A    between atoms: C3_8  and  C4_9 
REMARK    3  A    between atoms: N2_10  and  C5_12 
REMARK    4  A    between atoms: C5_12  and  C6_13 
REMARK    5  A    between atoms: C5_12  and  C13_22 
REMARK    6  A    between atoms: C6_13  and  O3_14 
REMARK    7  A    between atoms: O3_14  and  C7_15 
REMARK    8  A    between atoms: C13_22  and  O4_23 
REMARK    9  A    between atoms: O4_23  and  C14_24 
ROOT
HETATM    1  C5  UNL     1      11.284  52.706  86.567  1.00  0.00     0.129 C 
ENDROOT
BRANCH   1   2
HETATM    2  N2  UNL     1      11.520  53.093  87.941  1.00  0.00    -0.389 N 
HETATM    3  C4  UNL     1      12.706  53.397  88.342  1.00  0.00     0.105 C 
ATOM      4  H2  UNL     1      10.741  53.127  88.598  1.00  0.00     0.159 HD
BRANCH   3   5
HETATM    5  C3  UNL     1      12.897  53.783  89.744  1.00  0.00     0.098 A 
HETATM    6  C2  UNL     1      12.431  52.990  90.761  1.00  0.00     0.161 A 
HETATM    7  N1  UNL     1      12.589  53.315  92.043  1.00  0.00    -0.288 N 
HETATM    8  C1  UNL     1      13.232  54.465  92.321  1.00  0.00     0.329 A 
ATOM      9  H1  UNL     1      12.236  52.714  92.788  1.00  0.00     0.172 HD
HETATM   10  O1  UNL     1      13.375  54.758  93.547  1.00  0.00    -0.247 OA
HETATM   11  N3  UNL     1      13.708  55.276  91.368  1.00  0.00    -0.275 N 
HETATM   12  C24 UNL     1      13.550  54.952  90.074  1.00  0.00     0.265 A 
ATOM     13  H3  UNL     1      14.189  56.138  91.624  1.00  0.00     0.173 HD
HETATM   14  O5  UNL     1      13.996  55.713  89.177  1.00  0.00    -0.267 OA
BRANCH   6  15
HETATM   15  O2  UNL     1      11.775  51.818  90.431  1.00  0.00    -0.345 OA
ATOM     16  H2  UNL     1      12.277  51.073  90.121  1.00  0.00     0.219 HD
ENDBRANCH   6  15
ENDBRANCH   3   5
ENDBRANCH   1   2
BRANCH   1  17
HETATM   17  C6  UNL     1      10.803  51.293  86.567  1.00  0.00     0.203 C 
BRANCH  17  18
HETATM   18  O3  UNL     1      11.173  50.560  87.694  1.00  0.00    -0.349 OA
BRANCH  18  19
HETATM   19  C7  UNL     1      12.069  49.513  87.526  1.00  0.00     0.068 A 
HETATM   20  C8  UNL     1      12.372  49.048  86.263  1.00  0.00     0.038 A 
HETATM   21  C9  UNL     1      13.264  48.005  86.076  1.00  0.00     0.022 A 
HETATM   22  C10 UNL     1      13.884  47.389  87.145  1.00  0.00     0.011 A 
HETATM   23 BR1  UNL     1      15.114  45.947  86.867  1.00  0.00    -0.051 Br
HETATM   24  C11 UNL     1      13.582  47.853  88.407  1.00  0.00     0.022 A 
HETATM   25  C12 UNL     1      12.693  48.893  88.592  1.00  0.00     0.038 A 
ENDBRANCH  18  19
ENDBRANCH  17  18
ENDBRANCH   1  17
BRANCH   1  26
HETATM   26  C13 UNL     1      12.590  52.879  85.821  1.00  0.00     0.203 C 
BRANCH  26  27
HETATM   27  O4  UNL     1      12.648  51.937  84.738  1.00  0.00    -0.348 OA
BRANCH  27  28
HETATM   28  C14 UNL     1      13.723  51.920  83.863  1.00  0.00     0.080 A 
HETATM   29  C15 UNL     1      14.857  52.660  84.116  1.00  0.00     0.037 A 
HETATM   30  C16 UNL     1      15.897  52.606  83.212  1.00  0.00     0.004 A 
HETATM   31  C17 UNL     1      15.811  51.830  82.074  1.00  0.00     0.012 A 
HETATM   32  C18 UNL     1      14.659  51.106  81.858  1.00  0.00    -0.023 A 
HETATM   33  C19 UNL     1      14.531  50.316  80.732  1.00  0.00     0.012 A 
HETATM   34  C23 UNL     1      13.585  51.120  82.728  1.00  0.00     0.007 A 
HETATM   35  C20 UNL     1      13.394  49.587  80.496  1.00  0.00     0.001 A 
HETATM   36  C21 UNL     1      12.331  49.609  81.371  1.00  0.00     0.001 A 
HETATM   37  C22 UNL     1      12.437  50.390  82.502  1.00  0.00     0.015 A 
ENDBRANCH  27  28
ENDBRANCH  26  27
ENDBRANCH   1  26
TORSDOF 9
ENDMDL
