MODEL 1
REMARK VINA RESULT: -5.780041442      0.000      0.000
REMARK  7 active torsions:
REMARK  status: ('A' for Active; 'I' for Inactive)
REMARK    1  A    between atoms: C2_2  and  C3_3 
REMARK    2  A    between atoms: C3_3  and  C4_4 
REMARK    3  A    between atoms: C4_4  and  C5_5 
REMARK    4  A    between atoms: C5_5  and  C6_6 
REMARK    5  A    between atoms: C6_6  and  C7_7 
REMARK    6  A    between atoms: C18_27  and  C19_28 
REMARK    7  A    between atoms: C19_28  and  N3_29 
ROOT
HETATM    1  C7  UNL     1      12.799  52.156  92.262  1.00  0.00     0.176 C 
HETATM    2  N1  UNL     1      13.482  53.066  93.155  1.00  0.00    -0.348 N 
ATOM      3  H1  UNL     1      14.363  52.740  93.553  1.00  0.00     0.163 HD
HETATM    4  C8  UNL     1      13.057  54.359  93.536  1.00  0.00     0.218 C 
HETATM    5  O1  UNL     1      13.883  55.309  93.353  1.00  0.00    -0.274 OA
HETATM    6  C9  UNL     1      11.755  54.723  94.124  1.00  0.00     0.103 C 
HETATM    7  C10 UNL     1      11.960  55.994  94.958  1.00  0.00     0.009 C 
HETATM    8  C11 UNL     1      10.681  56.499  95.539  1.00  0.00     0.003 C 
HETATM    9  C12 UNL     1      10.157  55.627  96.657  1.00  0.00     0.039 C 
HETATM   10  C13 UNL     1      11.171  55.602  97.780  1.00  0.00     0.194 C 
HETATM   11  F1  UNL     1      11.885  54.415  97.656  1.00  0.00    -0.247 F 
HETATM   12  C14 UNL     1      10.419  55.547  99.091  1.00  0.00     0.204 C 
HETATM   13  O2  UNL     1      11.268  55.289 100.167  1.00  0.00    -0.386 OA
HETATM   14  C15 UNL     1      11.199  53.982 100.588  1.00  0.00     0.194 C 
HETATM   15  C16 UNL     1      12.574  53.518 100.980  1.00  0.00     0.207 C 
HETATM   16  O3  UNL     1      12.574  52.557 101.988  1.00  0.00    -0.302 OA
HETATM   17  C17 UNL     1      13.326  51.419 102.059  1.00  0.00     0.360 C 
HETATM   18  O4  UNL     1      14.046  51.096 103.055  1.00  0.00    -0.239 OA
HETATM   19  N2  UNL     1      13.333  50.508 100.964  1.00  0.00    -0.331 N 
ATOM     20  H2  UNL     1      14.180  49.961 100.811  1.00  0.00     0.165 HD
HETATM   21  C18 UNL     1      12.240  50.303 100.065  1.00  0.00     0.112 C 
HETATM   22  C20 UNL     1      12.498  49.090  99.197  1.00  0.00     0.030 C 
HETATM   23  C21 UNL     1      12.251  49.375  97.739  1.00  0.00     0.029 C 
HETATM   24  C22 UNL     1      13.405  50.100  97.156  1.00  0.00    -0.029 C 
HETATM   25  C23 UNL     1      13.399  50.639  95.958  1.00  0.00    -0.011 C 
HETATM   26  C24 UNL     1      12.238  50.596  95.019  1.00  0.00     0.152 C 
HETATM   27  N4  UNL     1      12.599  50.055  93.725  1.00  0.00    -0.351 N 
HETATM   28  C25 UNL     1      12.418  48.600  93.556  1.00  0.00     0.153 C 
HETATM   29  C26 UNL     1      13.102  50.774  92.629  1.00  0.00     0.242 C 
HETATM   30  O5  UNL     1      13.907  50.153  91.879  1.00  0.00    -0.271 OA
ENDROOT
BRANCH   1  31
HETATM   31  C6  UNL     1      11.339  52.448  92.076  1.00  0.00     0.035 C 
BRANCH  31  32
HETATM   32  C5  UNL     1      11.102  52.718  90.597  1.00  0.00     0.002 C 
BRANCH  32  33
HETATM   33  C4  UNL     1      11.476  54.116  90.195  1.00  0.00     0.000 C 
BRANCH  33  34
HETATM   34  C3  UNL     1      12.785  54.155  89.444  1.00  0.00    -0.000 C 
BRANCH  34  35
HETATM   35  C2  UNL     1      13.580  55.369  89.883  1.00  0.00    -0.005 C 
HETATM   36  C1  UNL     1      15.016  54.986  90.179  1.00  0.00     0.005 C 
ENDBRANCH  34  35
ENDBRANCH  33  34
ENDBRANCH  32  33
ENDBRANCH  31  32
ENDBRANCH   1  31
BRANCH  21  37
HETATM   37  C19 UNL     1      10.930  50.058 100.783  1.00  0.00     0.254 C 
BRANCH  37  38
HETATM   38  N3  UNL     1       9.824  50.705 100.152  1.00  0.00    -0.077 N 
ATOM     39  H33 UNL     1       9.486  50.159  99.358  1.00  0.00     0.274 HD
ATOM     40  H32 UNL     1       8.994  50.669 100.743  1.00  0.00     0.274 HD
ATOM     41  H31 UNL     1      10.032  51.664  99.874  1.00  0.00     0.274 HD
ENDBRANCH  37  38
ENDBRANCH  21  37
TORSDOF 7
ENDMDL
MODEL 2
REMARK VINA RESULT: -5.777743970      5.937      9.919
REMARK  7 active torsions:
REMARK  status: ('A' for Active; 'I' for Inactive)
REMARK    1  A    between atoms: C2_2  and  C3_3 
REMARK    2  A    between atoms: C3_3  and  C4_4 
REMARK    3  A    between atoms: C4_4  and  C5_5 
REMARK    4  A    between atoms: C5_5  and  C6_6 
REMARK    5  A    between atoms: C6_6  and  C7_7 
REMARK    6  A    between atoms: C18_27  and  C19_28 
REMARK    7  A    between atoms: C19_28  and  N3_29 
ROOT
HETATM    1  C7  UNL     1      11.898  50.125  84.083  1.00  0.00     0.176 C 
HETATM    2  N1  UNL     1      11.273  49.185  84.987  1.00  0.00    -0.348 N 
ATOM      3  H1  UNL     1      10.366  49.452  85.368  1.00  0.00     0.163 HD
HETATM    4  C8  UNL     1      11.788  47.934  85.398  1.00  0.00     0.218 C 
HETATM    5  O1  UNL     1      11.037  46.922  85.226  1.00  0.00    -0.274 OA
HETATM    6  C9  UNL     1      13.107  47.680  86.008  1.00  0.00     0.103 C 
HETATM    7  C10 UNL     1      12.987  46.413  86.865  1.00  0.00     0.009 C 
HETATM    8  C11 UNL     1      14.292  46.017  87.470  1.00  0.00     0.003 C 
HETATM    9  C12 UNL     1      14.737  46.946  88.576  1.00  0.00     0.039 C 
HETATM   10  C13 UNL     1      13.709  46.917  89.687  1.00  0.00     0.194 C 
HETATM   11  F1  UNL     1      12.911  48.045  89.531  1.00  0.00    -0.247 F 
HETATM   12  C14 UNL     1      14.439  47.054  91.004  1.00  0.00     0.204 C 
HETATM   13  O2  UNL     1      13.560  47.269  92.065  1.00  0.00    -0.386 OA
HETATM   14  C15 UNL     1      13.528  48.585  92.461  1.00  0.00     0.194 C 
HETATM   15  C16 UNL     1      12.117  48.953  92.829  1.00  0.00     0.207 C 
HETATM   16  O3  UNL     1      12.034  49.931  93.817  1.00  0.00    -0.302 OA
HETATM   17  C17 UNL     1      11.198  51.011  93.856  1.00  0.00     0.360 C 
HETATM   18  O4  UNL     1      10.445  51.299  94.838  1.00  0.00    -0.239 OA
HETATM   19  N2  UNL     1      11.137  51.898  92.744  1.00  0.00    -0.331 N 
ATOM     20  H2  UNL     1      10.253  52.377  92.570  1.00  0.00     0.165 HD
HETATM   21  C18 UNL     1      12.222  52.166  91.853  1.00  0.00     0.112 C 
HETATM   22  C20 UNL     1      11.886  53.339  90.957  1.00  0.00     0.030 C 
HETATM   23  C21 UNL     1      12.171  53.046  89.508  1.00  0.00     0.029 C 
HETATM   24  C22 UNL     1      11.081  52.225  88.928  1.00  0.00    -0.029 C 
HETATM   25  C23 UNL     1      11.142  51.665  87.740  1.00  0.00    -0.011 C 
HETATM   26  C24 UNL     1      12.308  51.776  86.814  1.00  0.00     0.152 C 
HETATM   27  N4  UNL     1      11.923  52.263  85.505  1.00  0.00    -0.351 N 
HETATM   28  C25 UNL     1      11.998  53.724  85.309  1.00  0.00     0.153 C 
HETATM   29  C26 UNL     1      11.489  51.488  84.419  1.00  0.00     0.242 C 
HETATM   30  O5  UNL     1      10.649  52.033  83.648  1.00  0.00    -0.271 OA
ENDROOT
BRANCH   1  31
HETATM   31  C6  UNL     1      13.378  49.939  83.918  1.00  0.00     0.035 C 
BRANCH  31  32
HETATM   32  C5  UNL     1      13.827  50.788  82.738  1.00  0.00     0.002 C 
BRANCH  32  33
HETATM   33  C4  UNL     1      14.986  51.682  83.074  1.00  0.00     0.000 C 
BRANCH  33  34
HETATM   34  C3  UNL     1      16.109  51.547  82.074  1.00  0.00    -0.000 C 
BRANCH  34  35
HETATM   35  C2  UNL     1      15.623  51.988  80.708  1.00  0.00    -0.005 C 
HETATM   36  C1  UNL     1      15.741  50.854  79.710  1.00  0.00     0.005 C 
ENDBRANCH  34  35
ENDBRANCH  33  34
ENDBRANCH  32  33
ENDBRANCH  31  32
ENDBRANCH   1  31
BRANCH  21  37
HETATM   37  C19 UNL     1      13.502  52.521  92.579  1.00  0.00     0.254 C 
BRANCH  37  38
HETATM   38  N3  UNL     1      14.261  53.527  91.906  1.00  0.00    -0.077 N 
ATOM     39  H33 UNL     1      15.129  53.142  91.533  1.00  0.00     0.274 HD
ATOM     40  H32 UNL     1      13.811  53.799  91.032  1.00  0.00     0.274 HD
ATOM     41  H31 UNL     1      14.444  54.342  92.491  1.00  0.00     0.274 HD
ENDBRANCH  37  38
ENDBRANCH  21  37
TORSDOF 7
ENDMDL
MODEL 3
REMARK VINA RESULT: -5.757492782      4.472      6.461
REMARK  7 active torsions:
REMARK  status: ('A' for Active; 'I' for Inactive)
REMARK    1  A    between atoms: C2_2  and  C3_3 
REMARK    2  A    between atoms: C3_3  and  C4_4 
REMARK    3  A    between atoms: C4_4  and  C5_5 
REMARK    4  A    between atoms: C5_5  and  C6_6 
REMARK    5  A    between atoms: C6_6  and  C7_7 
REMARK    6  A    between atoms: C18_27  and  C19_28 
REMARK    7  A    between atoms: C19_28  and  N3_29 
ROOT
HETATM    1  C7  UNL     1      12.945  53.215  91.762  1.00  0.00     0.176 C 
HETATM    2  N1  UNL     1      12.626  53.015  93.159  1.00  0.00    -0.348 N 
ATOM      3  H1  UNL     1      12.195  52.124  93.405  1.00  0.00     0.163 HD
HETATM    4  C8  UNL     1      12.848  53.924  94.219  1.00  0.00     0.218 C 
HETATM    5  O1  UNL     1      13.512  53.491  95.214  1.00  0.00    -0.274 OA
HETATM    6  C9  UNL     1      12.390  55.324  94.291  1.00  0.00     0.103 C 
HETATM    7  C10 UNL     1      12.251  55.691  95.774  1.00  0.00     0.009 C 
HETATM    8  C11 UNL     1      11.866  57.120  95.966  1.00  0.00     0.003 C 
HETATM    9  C12 UNL     1      10.435  57.404  95.571  1.00  0.00     0.039 C 
HETATM   10  C13 UNL     1       9.511  56.577  96.440  1.00  0.00     0.194 C 
HETATM   11  F1  UNL     1       9.133  55.468  95.691  1.00  0.00    -0.247 F 
HETATM   12  C14 UNL     1       8.265  57.392  96.707  1.00  0.00     0.204 C 
HETATM   13  O2  UNL     1       7.262  56.628  97.304  1.00  0.00    -0.386 OA
HETATM   14  C15 UNL     1       6.284  56.256  96.411  1.00  0.00     0.194 C 
HETATM   15  C16 UNL     1       5.835  54.857  96.729  1.00  0.00     0.207 C 
HETATM   16  O3  UNL     1       4.502  54.612  96.408  1.00  0.00    -0.302 OA
HETATM   17  C17 UNL     1       3.978  53.506  95.801  1.00  0.00     0.360 C 
HETATM   18  O4  UNL     1       3.006  52.829  96.261  1.00  0.00    -0.239 OA
HETATM   19  N2  UNL     1       4.529  53.047  94.571  1.00  0.00    -0.331 N 
ATOM     20  H2  UNL     1       4.483  52.047  94.376  1.00  0.00     0.165 HD
HETATM   21  C18 UNL     1       5.144  53.885  93.589  1.00  0.00     0.112 C 
HETATM   22  C20 UNL     1       5.377  53.108  92.311  1.00  0.00     0.030 C 
HETATM   23  C21 UNL     1       6.778  53.284  91.788  1.00  0.00     0.029 C 
HETATM   24  C22 UNL     1       7.719  52.423  92.543  1.00  0.00    -0.029 C 
HETATM   25  C23 UNL     1       9.026  52.499  92.434  1.00  0.00    -0.011 C 
HETATM   26  C24 UNL     1       9.744  53.455  91.539  1.00  0.00     0.152 C 
HETATM   27  N4  UNL     1      10.670  52.783  90.650  1.00  0.00    -0.351 N 
HETATM   28  C25 UNL     1      10.139  52.398  89.329  1.00  0.00     0.153 C 
HETATM   29  C26 UNL     1      12.010  52.467  90.924  1.00  0.00     0.242 C 
HETATM   30  O5  UNL     1      12.453  51.414  90.384  1.00  0.00    -0.271 OA
ENDROOT
BRANCH   1  31
HETATM   31  C6  UNL     1      13.126  54.652  91.367  1.00  0.00     0.035 C 
BRANCH  31  32
HETATM   32  C5  UNL     1      14.604  54.872  91.074  1.00  0.00     0.002 C 
BRANCH  32  33
HETATM   33  C4  UNL     1      14.902  54.925  89.603  1.00  0.00     0.000 C 
BRANCH  33  34
HETATM   34  C3  UNL     1      13.641  54.911  88.772  1.00  0.00    -0.000 C 
BRANCH  34  35
HETATM   35  C2  UNL     1      13.898  54.161  87.481  1.00  0.00    -0.005 C 
HETATM   36  C1  UNL     1      12.769  53.191  87.195  1.00  0.00     0.005 C 
ENDBRANCH  34  35
ENDBRANCH  33  34
ENDBRANCH  32  33
ENDBRANCH  31  32
ENDBRANCH   1  31
BRANCH  21  37
HETATM   37  C19 UNL     1       4.291  55.082  93.225  1.00  0.00     0.254 C 
BRANCH  37  38
HETATM   38  N3  UNL     1       5.066  56.248  92.940  1.00  0.00    -0.077 N 
ATOM     39  H33 UNL     1       4.525  57.096  93.107  1.00  0.00     0.274 HD
ATOM     40  H32 UNL     1       5.799  56.379  93.637  1.00  0.00     0.274 HD
ATOM     41  H31 UNL     1       5.457  56.243  91.998  1.00  0.00     0.274 HD
ENDBRANCH  37  38
ENDBRANCH  21  37
TORSDOF 7
ENDMDL
MODEL 4
REMARK VINA RESULT: -5.628430178      6.669     10.892
REMARK  7 active torsions:
REMARK  status: ('A' for Active; 'I' for Inactive)
REMARK    1  A    between atoms: C2_2  and  C3_3 
REMARK    2  A    between atoms: C3_3  and  C4_4 
REMARK    3  A    between atoms: C4_4  and  C5_5 
REMARK    4  A    between atoms: C5_5  and  C6_6 
REMARK    5  A    between atoms: C6_6  and  C7_7 
REMARK    6  A    between atoms: C18_27  and  C19_28 
REMARK    7  A    between atoms: C19_28  and  N3_29 
ROOT
HETATM    1  C7  UNL     1      10.891  48.977  82.728  1.00  0.00     0.176 C 
HETATM    2  N1  UNL     1      10.513  48.095  83.810  1.00  0.00    -0.348 N 
ATOM      3  H1  UNL     1       9.553  48.171  84.147  1.00  0.00     0.163 HD
HETATM    4  C8  UNL     1      11.333  47.139  84.451  1.00  0.00     0.218 C 
HETATM    5  O1  UNL     1      10.894  45.946  84.494  1.00  0.00    -0.274 OA
HETATM    6  C9  UNL     1      12.647  47.380  85.077  1.00  0.00     0.103 C 
HETATM    7  C10 UNL     1      12.844  46.321  86.169  1.00  0.00     0.009 C 
HETATM    8  C11 UNL     1      14.184  46.424  86.817  1.00  0.00     0.003 C 
HETATM    9  C12 UNL     1      14.315  47.636  87.711  1.00  0.00     0.039 C 
HETATM   10  C13 UNL     1      13.293  47.542  88.823  1.00  0.00     0.194 C 
HETATM   11  F1  UNL     1      12.224  48.355  88.461  1.00  0.00    -0.247 F 
HETATM   12  C14 UNL     1      13.907  48.127  90.075  1.00  0.00     0.204 C 
HETATM   13  O2  UNL     1      12.962  48.294  91.088  1.00  0.00    -0.386 OA
HETATM   14  C15 UNL     1      12.557  49.602  91.217  1.00  0.00     0.194 C 
HETATM   15  C16 UNL     1      11.086  49.631  91.528  1.00  0.00     0.207 C 
HETATM   16  O3  UNL     1      10.702  50.721  92.306  1.00  0.00    -0.302 OA
HETATM   17  C17 UNL     1       9.602  51.516  92.145  1.00  0.00     0.360 C 
HETATM   18  O4  UNL     1       8.762  51.770  93.064  1.00  0.00    -0.239 OA
HETATM   19  N2  UNL     1       9.345  52.118  90.881  1.00  0.00    -0.331 N 
ATOM     20  H2  UNL     1       8.371  52.293  90.631  1.00  0.00     0.165 HD
HETATM   21  C18 UNL     1      10.349  52.496  89.936  1.00  0.00     0.112 C 
HETATM   22  C20 UNL     1       9.740  53.335  88.833  1.00  0.00     0.030 C 
HETATM   23  C21 UNL     1      10.149  52.855  87.466  1.00  0.00     0.029 C 
HETATM   24  C22 UNL     1       9.348  51.670  87.077  1.00  0.00    -0.029 C 
HETATM   25  C23 UNL     1       9.605  50.929  86.022  1.00  0.00    -0.011 C 
HETATM   26  C24 UNL     1      10.731  51.174  85.072  1.00  0.00     0.152 C 
HETATM   27  N4  UNL     1      10.278  51.274  83.700  1.00  0.00    -0.351 N 
HETATM   28  C25 UNL     1       9.959  52.631  83.218  1.00  0.00     0.153 C 
HETATM   29  C26 UNL     1      10.114  50.213  82.796  1.00  0.00     0.242 C 
HETATM   30  O5  UNL     1       9.187  50.345  81.947  1.00  0.00    -0.271 OA
ENDROOT
BRANCH   1  31
HETATM   31  C6  UNL     1      12.371  49.176  82.579  1.00  0.00     0.035 C 
BRANCH  31  32
HETATM   32  C5  UNL     1      12.604  50.026  81.337  1.00  0.00     0.002 C 
BRANCH  32  33
HETATM   33  C4  UNL     1      13.818  50.903  81.454  1.00  0.00     0.000 C 
BRANCH  33  34
HETATM   34  C3  UNL     1      14.312  50.994  82.878  1.00  0.00    -0.000 C 
BRANCH  34  35
HETATM   35  C2  UNL     1      15.327  52.114  82.987  1.00  0.00    -0.005 C 
HETATM   36  C1  UNL     1      14.935  53.082  84.085  1.00  0.00     0.005 C 
ENDBRANCH  34  35
ENDBRANCH  33  34
ENDBRANCH  32  33
ENDBRANCH  31  32
ENDBRANCH   1  31
BRANCH  21  37
HETATM   37  C19 UNL     1      11.454  53.324  90.557  1.00  0.00     0.254 C 
BRANCH  37  38
HETATM   38  N3  UNL     1      12.746  53.000  90.039  1.00  0.00    -0.077 N 
ATOM     39  H33 UNL     1      13.000  53.625  89.274  1.00  0.00     0.274 HD
ATOM     40  H32 UNL     1      13.478  53.247  90.704  1.00  0.00     0.274 HD
ATOM     41  H31 UNL     1      12.825  52.024  89.755  1.00  0.00     0.274 HD
ENDBRANCH  37  38
ENDBRANCH  21  37
TORSDOF 7
ENDMDL
MODEL 5
REMARK VINA RESULT: -5.582585778      7.065     11.008
REMARK  7 active torsions:
REMARK  status: ('A' for Active; 'I' for Inactive)
REMARK    1  A    between atoms: C2_2  and  C3_3 
REMARK    2  A    between atoms: C3_3  and  C4_4 
REMARK    3  A    between atoms: C4_4  and  C5_5 
REMARK    4  A    between atoms: C5_5  and  C6_6 
REMARK    5  A    between atoms: C6_6  and  C7_7 
REMARK    6  A    between atoms: C18_27  and  C19_28 
REMARK    7  A    between atoms: C19_28  and  N3_29 
ROOT
HETATM    1  C7  UNL     1       9.513  50.345  82.464  1.00  0.00     0.176 C 
HETATM    2  N1  UNL     1      10.483  49.878  83.429  1.00  0.00    -0.348 N 
ATOM      3  H1  UNL     1      10.172  49.152  84.074  1.00  0.00     0.163 HD
HETATM    4  C8  UNL     1      11.818  50.322  83.574  1.00  0.00     0.218 C 
HETATM    5  O1  UNL     1      12.724  49.430  83.541  1.00  0.00    -0.274 OA
HETATM    6  C9  UNL     1      12.270  51.714  83.759  1.00  0.00     0.103 C 
HETATM    7  C10 UNL     1      13.607  51.672  84.509  1.00  0.00     0.009 C 
HETATM    8  C11 UNL     1      14.198  53.032  84.681  1.00  0.00     0.003 C 
HETATM    9  C12 UNL     1      13.449  53.877  85.685  1.00  0.00     0.039 C 
HETATM   10  C13 UNL     1      13.502  53.199  87.037  1.00  0.00     0.194 C 
HETATM   11  F1  UNL     1      12.289  52.540  87.208  1.00  0.00    -0.247 F 
HETATM   12  C14 UNL     1      13.589  54.274  88.098  1.00  0.00     0.204 C 
HETATM   13  O2  UNL     1      13.409  53.754  89.380  1.00  0.00    -0.386 OA
HETATM   14  C15 UNL     1      12.150  54.000  89.874  1.00  0.00     0.194 C 
HETATM   15  C16 UNL     1      11.688  52.803  90.658  1.00  0.00     0.207 C 
HETATM   16  O3  UNL     1      10.825  53.120  91.705  1.00  0.00    -0.302 OA
HETATM   17  C17 UNL     1       9.678  52.472  92.068  1.00  0.00     0.360 C 
HETATM   18  O4  UNL     1       9.431  52.060  93.244  1.00  0.00    -0.239 OA
HETATM   19  N2  UNL     1       8.670  52.222  91.095  1.00  0.00    -0.331 N 
ATOM     20  H2  UNL     1       8.088  51.393  91.220  1.00  0.00     0.165 HD
HETATM   21  C18 UNL     1       8.411  53.046  89.956  1.00  0.00     0.112 C 
HETATM   22  C20 UNL     1       7.116  52.630  89.292  1.00  0.00     0.030 C 
HETATM   23  C21 UNL     1       7.270  52.466  87.803  1.00  0.00     0.029 C 
HETATM   24  C22 UNL     1       7.907  51.164  87.493  1.00  0.00    -0.029 C 
HETATM   25  C23 UNL     1       8.331  50.825  86.297  1.00  0.00    -0.011 C 
HETATM   26  C24 UNL     1       8.233  51.696  85.088  1.00  0.00     0.152 C 
HETATM   27  N4  UNL     1       7.564  51.033  83.988  1.00  0.00    -0.351 N 
HETATM   28  C25 UNL     1       6.105  51.237  83.897  1.00  0.00     0.153 C 
HETATM   29  C26 UNL     1       8.163  50.222  83.012  1.00  0.00     0.242 C 
HETATM   30  O5  UNL     1       7.454  49.280  82.559  1.00  0.00    -0.271 OA
ENDROOT
BRANCH   1  31
HETATM   31  C6  UNL     1       9.826  51.687  81.869  1.00  0.00     0.035 C 
BRANCH  31  32
HETATM   32  C5  UNL     1      10.176  51.477  80.402  1.00  0.00     0.002 C 
BRANCH  32  33
HETATM   33  C4  UNL     1      11.652  51.309  80.177  1.00  0.00     0.000 C 
BRANCH  33  34
HETATM   34  C3  UNL     1      12.022  49.867  79.927  1.00  0.00    -0.000 C 
BRANCH  34  35
HETATM   35  C2  UNL     1      13.503  49.676  80.186  1.00  0.00    -0.005 C 
HETATM   36  C1  UNL     1      14.145  50.986  80.598  1.00  0.00     0.005 C 
ENDBRANCH  34  35
ENDBRANCH  33  34
ENDBRANCH  32  33
ENDBRANCH  31  32
ENDBRANCH   1  31
BRANCH  21  37
HETATM   37  C19 UNL     1       8.270  54.511  90.313  1.00  0.00     0.254 C 
BRANCH  37  38
HETATM   38  N3  UNL     1       6.933  54.869  90.663  1.00  0.00    -0.077 N 
ATOM     39  H33 UNL     1       6.527  55.492  89.964  1.00  0.00     0.274 HD
ATOM     40  H32 UNL     1       6.303  54.074  90.561  1.00  0.00     0.274 HD
ATOM     41  H31 UNL     1       6.862  55.273  91.597  1.00  0.00     0.274 HD
ENDBRANCH  37  38
ENDBRANCH  21  37
TORSDOF 7
ENDMDL
