MODEL 1
REMARK VINA RESULT: -8.337494703      0.000      0.000
REMARK  10 active torsions:
REMARK  status: ('A' for Active; 'I' for Inactive)
REMARK    1  A    between atoms: N1_2  and  C2_5 
REMARK    2  A    between atoms: C2_5  and  C3_6 
REMARK    3  A    between atoms: C2_5  and  C22_42 
REMARK    4  A    between atoms: C3_6  and  C4_7 
REMARK    5  A    between atoms: C4_7  and  N2_8 
REMARK    6  A    between atoms: C9_14  and  N3_15 
REMARK    7  A    between atoms: N3_15  and  C10_16 
REMARK    8  A    between atoms: N6_22  and  C12_24 
REMARK    9  A    between atoms: C15_27  and  S1_28 
REMARK   10  A    between atoms: S1_28  and  N7_29 
ROOT
HETATM    1  N2  UNL     1      11.018  51.501  83.662  1.00  0.00    -0.280 N 
HETATM    2  C5  UNL     1      10.346  52.674  84.205  1.00  0.00     0.261 A 
HETATM    3  O1  UNL     1       9.642  53.488  83.558  1.00  0.00    -0.267 OA
HETATM    4  C6  UNL     1      10.603  52.782  85.630  1.00  0.00     0.048 A 
HETATM    5  C7  UNL     1      10.200  53.702  86.598  1.00  0.00     0.021 A 
HETATM    6  C8  UNL     1      10.627  53.510  87.873  1.00  0.00     0.046 A 
HETATM    7  C9  UNL     1      11.455  52.433  88.280  1.00  0.00     0.112 A 
HETATM    8  C19 UNL     1      11.811  51.550  87.226  1.00  0.00     0.063 A 
HETATM    9  C20 UNL     1      11.399  51.716  85.939  1.00  0.00     0.051 A 
HETATM   10  C21 UNL     1      11.676  50.898  84.733  1.00  0.00     0.261 A 
HETATM   11  O4  UNL     1      12.390  49.856  84.768  1.00  0.00    -0.267 OA
ENDROOT
BRANCH   7  12
HETATM   12  N3  UNL     1      11.872  52.238  89.497  1.00  0.00    -0.370 NA
BRANCH  12  13
HETATM   13  C10 UNL     1      12.260  52.060  90.608  1.00  0.00     0.291 A 
HETATM   14  N4  UNL     1      12.990  51.001  91.115  1.00  0.00    -0.244 N 
HETATM   15  N5  UNL     1      13.223  51.152  92.368  1.00  0.00    -0.128 N 
ATOM     16  H4  UNL     1      13.303  50.202  90.564  1.00  0.00     0.191 HD
HETATM   17  C11 UNL     1      12.657  52.336  92.785  1.00  0.00     0.702 A 
ATOM     18  H5  UNL     1      13.743  50.501  92.958  1.00  0.00     0.205 HD
HETATM   19  N6  UNL     1      12.740  52.737  94.008  1.00  0.00    -0.190 N 
HETATM   20  N8  UNL     1      12.086  52.868  91.725  1.00  0.00    -0.142 N 
ATOM     21  H6  UNL     1      13.254  52.110  94.626  1.00  0.00     0.184 HD
HETATM   22  C18 UNL     1      11.356  54.119  91.622  1.00  0.00     0.180 C 
BRANCH  19  23
HETATM   23  C12 UNL     1      12.247  53.880  94.625  1.00  0.00     0.049 A 
HETATM   24  C13 UNL     1      10.927  53.935  95.102  1.00  0.00     0.031 A 
HETATM   25  C14 UNL     1      10.437  55.054  95.728  1.00  0.00     0.027 A 
HETATM   26  C15 UNL     1      11.199  56.186  95.929  1.00  0.00     0.079 A 
HETATM   27  C16 UNL     1      12.497  56.147  95.466  1.00  0.00     0.027 A 
HETATM   28  C17 UNL     1      12.996  55.028  94.837  1.00  0.00     0.031 A 
BRANCH  26  29
HETATM   29  S1  UNL     1      10.558  57.601  96.730  1.00  0.00     0.256 S 
HETATM   30  O2  UNL     1      11.280  58.847  96.316  1.00  0.00    -0.201 OA
HETATM   31  O3  UNL     1       9.103  57.727  96.382  1.00  0.00    -0.201 OA
BRANCH  29  32
HETATM   32  N7  UNL     1      10.658  57.474  98.448  1.00  0.00    -0.324 N 
ATOM     33  H72 UNL     1       9.844  57.530  99.059  1.00  0.00     0.169 HD
ATOM     34  H71 UNL     1      11.617  57.338  98.767  1.00  0.00     0.169 HD
ENDBRANCH  29  32
ENDBRANCH  26  29
ENDBRANCH  19  23
ENDBRANCH  12  13
ENDBRANCH   7  12
BRANCH   1  35
HETATM   35  C4  UNL     1      10.919  51.133  82.286  1.00  0.00     0.138 C 
BRANCH  35  36
HETATM   36  C3  UNL     1      11.881  51.741  81.348  1.00  0.00     0.058 C 
BRANCH  36  37
HETATM   37  C2  UNL     1      12.993  50.865  80.910  1.00  0.00     0.220 C 
BRANCH  37  38
HETATM   38  N1  UNL     1      12.941  49.581  81.664  1.00  0.00    -0.071 N 
HETATM   39  C1  UNL     1      12.947  48.456  80.768  1.00  0.00     0.267 C 
ATOM     40  H12 UNL     1      12.146  49.551  82.302  1.00  0.00     0.277 HD
ATOM     41  H11 UNL     1      13.693  49.519  82.351  1.00  0.00     0.277 HD
ENDBRANCH  37  38
BRANCH  37  42
HETATM   42  C22 UNL     1      14.253  51.470  81.503  1.00  0.00    -0.028 A 
HETATM   43  C23 UNL     1      15.161  51.997  80.628  1.00  0.00     0.009 A 
HETATM   44  C24 UNL     1      16.313  52.583  81.139  1.00  0.00     0.001 A 
HETATM   45  C25 UNL     1      16.507  52.615  82.502  1.00  0.00     0.000 A 
HETATM   46  C26 UNL     1      15.592  52.084  83.372  1.00  0.00     0.001 A 
HETATM   47  C27 UNL     1      14.463  51.513  82.845  1.00  0.00     0.009 A 
ENDBRANCH  37  42
ENDBRANCH  36  37
ENDBRANCH  35  36
ENDBRANCH   1  35
TORSDOF 10
ENDMDL
MODEL 2
REMARK VINA RESULT: -7.919907716      2.002      2.504
REMARK  10 active torsions:
REMARK  status: ('A' for Active; 'I' for Inactive)
REMARK    1  A    between atoms: N1_2  and  C2_5 
REMARK    2  A    between atoms: C2_5  and  C3_6 
REMARK    3  A    between atoms: C2_5  and  C22_42 
REMARK    4  A    between atoms: C3_6  and  C4_7 
REMARK    5  A    between atoms: C4_7  and  N2_8 
REMARK    6  A    between atoms: C9_14  and  N3_15 
REMARK    7  A    between atoms: N3_15  and  C10_16 
REMARK    8  A    between atoms: N6_22  and  C12_24 
REMARK    9  A    between atoms: C15_27  and  S1_28 
REMARK   10  A    between atoms: S1_28  and  N7_29 
ROOT
HETATM    1  N2  UNL     1      11.380  51.799  85.251  1.00  0.00    -0.280 N 
HETATM    2  C5  UNL     1      10.478  51.271  86.266  1.00  0.00     0.261 A 
HETATM    3  O1  UNL     1       9.519  50.485  86.065  1.00  0.00    -0.267 OA
HETATM    4  C6  UNL     1      10.841  51.786  87.574  1.00  0.00     0.048 A 
HETATM    5  C7  UNL     1      10.309  51.593  88.849  1.00  0.00     0.021 A 
HETATM    6  C8  UNL     1      10.899  52.238  89.888  1.00  0.00     0.046 A 
HETATM    7  C9  UNL     1      12.023  53.095  89.756  1.00  0.00     0.112 A 
HETATM    8  C19 UNL     1      12.492  53.227  88.423  1.00  0.00     0.063 A 
HETATM    9  C20 UNL     1      11.921  52.594  87.361  1.00  0.00     0.051 A 
HETATM   10  C21 UNL     1      12.283  52.623  85.922  1.00  0.00     0.261 A 
HETATM   11  O4  UNL     1      13.252  53.301  85.480  1.00  0.00    -0.267 OA
ENDROOT
BRANCH   7  12
HETATM   12  N3  UNL     1      12.597  53.720  90.742  1.00  0.00    -0.370 NA
BRANCH  12  13
HETATM   13  C10 UNL     1      13.129  54.290  91.641  1.00  0.00     0.291 A 
HETATM   14  N4  UNL     1      14.415  54.795  91.710  1.00  0.00    -0.244 N 
HETATM   15  N5  UNL     1      14.641  55.344  92.848  1.00  0.00    -0.128 N 
ATOM     16  H4  UNL     1      15.097  54.738  90.953  1.00  0.00     0.191 HD
HETATM   17  C11 UNL     1      13.508  55.240  93.623  1.00  0.00     0.702 A 
ATOM     18  H5  UNL     1      15.516  55.784  93.131  1.00  0.00     0.205 HD
HETATM   19  N6  UNL     1      13.457  55.711  94.822  1.00  0.00    -0.190 N 
HETATM   20  N8  UNL     1      12.614  54.610  92.891  1.00  0.00    -0.142 N 
ATOM     21  H6  UNL     1      14.317  56.160  95.138  1.00  0.00     0.184 HD
HETATM   22  C18 UNL     1      11.249  54.251  93.237  1.00  0.00     0.180 C 
BRANCH  19  23
HETATM   23  C12 UNL     1      12.428  55.710  95.756  1.00  0.00     0.049 A 
HETATM   24  C13 UNL     1      12.204  54.601  96.589  1.00  0.00     0.031 A 
HETATM   25  C14 UNL     1      11.202  54.598  97.526  1.00  0.00     0.027 A 
HETATM   26  C15 UNL     1      10.357  55.673  97.712  1.00  0.00     0.079 A 
HETATM   27  C16 UNL     1      10.565  56.769  96.902  1.00  0.00     0.027 A 
HETATM   28  C17 UNL     1      11.569  56.779  95.959  1.00  0.00     0.031 A 
BRANCH  26  29
HETATM   29  S1  UNL     1       9.087  55.652  98.912  1.00  0.00     0.256 S 
HETATM   30  O2  UNL     1       9.607  55.998 100.275  1.00  0.00    -0.201 OA
HETATM   31  O3  UNL     1       8.036  56.647  98.511  1.00  0.00    -0.201 OA
BRANCH  29  32
HETATM   32  N7  UNL     1       8.315  54.112  99.012  1.00  0.00    -0.324 N 
ATOM     33  H72 UNL     1       7.454  53.887  98.514  1.00  0.00     0.169 HD
ATOM     34  H71 UNL     1       8.820  53.469  99.621  1.00  0.00     0.169 HD
ENDBRANCH  29  32
ENDBRANCH  26  29
ENDBRANCH  19  23
ENDBRANCH  12  13
ENDBRANCH   7  12
BRANCH   1  35
HETATM   35  C4  UNL     1      11.273  51.441  83.873  1.00  0.00     0.138 C 
BRANCH  35  36
HETATM   36  C3  UNL     1      12.330  50.580  83.311  1.00  0.00     0.058 C 
BRANCH  36  37
HETATM   37  C2  UNL     1      12.737  50.888  81.920  1.00  0.00     0.220 C 
BRANCH  37  38
HETATM   38  N1  UNL     1      13.062  49.623  81.204  1.00  0.00    -0.071 N 
HETATM   39  C1  UNL     1      12.281  48.528  81.713  1.00  0.00     0.267 C 
ATOM     40  H12 UNL     1      14.061  49.420  81.234  1.00  0.00     0.277 HD
ATOM     41  H11 UNL     1      12.954  49.724  80.195  1.00  0.00     0.277 HD
ENDBRANCH  37  38
BRANCH  37  42
HETATM   42  C22 UNL     1      14.124  51.498  82.022  1.00  0.00    -0.028 A 
HETATM   43  C23 UNL     1      14.713  51.901  80.856  1.00  0.00     0.009 A 
HETATM   44  C24 UNL     1      15.972  52.488  80.916  1.00  0.00     0.001 A 
HETATM   45  C25 UNL     1      16.586  52.646  82.139  1.00  0.00     0.000 A 
HETATM   46  C26 UNL     1      15.989  52.239  83.302  1.00  0.00     0.001 A 
HETATM   47  C27 UNL     1      14.747  51.664  83.218  1.00  0.00     0.009 A 
ENDBRANCH  37  42
ENDBRANCH  36  37
ENDBRANCH  35  36
ENDBRANCH   1  35
TORSDOF 10
ENDMDL
MODEL 3
REMARK VINA RESULT: -7.806419524      1.982      2.890
REMARK  10 active torsions:
REMARK  status: ('A' for Active; 'I' for Inactive)
REMARK    1  A    between atoms: N1_2  and  C2_5 
REMARK    2  A    between atoms: C2_5  and  C3_6 
REMARK    3  A    between atoms: C2_5  and  C22_42 
REMARK    4  A    between atoms: C3_6  and  C4_7 
REMARK    5  A    between atoms: C4_7  and  N2_8 
REMARK    6  A    between atoms: C9_14  and  N3_15 
REMARK    7  A    between atoms: N3_15  and  C10_16 
REMARK    8  A    between atoms: N6_22  and  C12_24 
REMARK    9  A    between atoms: C15_27  and  S1_28 
REMARK   10  A    between atoms: S1_28  and  N7_29 
ROOT
HETATM    1  N2  UNL     1      10.898  51.819  85.518  1.00  0.00    -0.280 N 
HETATM    2  C5  UNL     1      10.965  50.737  86.491  1.00  0.00     0.261 A 
HETATM    3  O1  UNL     1      10.644  49.540  86.289  1.00  0.00    -0.267 OA
HETATM    4  C6  UNL     1      11.465  51.237  87.759  1.00  0.00     0.048 A 
HETATM    5  C7  UNL     1      11.712  50.623  88.988  1.00  0.00     0.021 A 
HETATM    6  C8  UNL     1      12.191  51.395  89.998  1.00  0.00     0.046 A 
HETATM    7  C9  UNL     1      12.454  52.785  89.880  1.00  0.00     0.112 A 
HETATM    8  C19 UNL     1      12.173  53.316  88.595  1.00  0.00     0.063 A 
HETATM    9  C20 UNL     1      11.692  52.569  87.563  1.00  0.00     0.051 A 
HETATM   10  C21 UNL     1      11.349  52.963  86.174  1.00  0.00     0.261 A 
HETATM   11  O4  UNL     1      11.478  54.147  85.753  1.00  0.00    -0.267 OA
ENDROOT
BRANCH   7  12
HETATM   12  N3  UNL     1      12.912  53.535  90.839  1.00  0.00    -0.370 NA
BRANCH  12  13
HETATM   13  C10 UNL     1      13.336  54.223  91.712  1.00  0.00     0.291 A 
HETATM   14  N4  UNL     1      14.549  54.885  91.786  1.00  0.00    -0.244 N 
HETATM   15  N5  UNL     1      14.663  55.530  92.890  1.00  0.00    -0.128 N 
ATOM     16  H4  UNL     1      15.261  54.863  91.056  1.00  0.00     0.191 HD
HETATM   17  C11 UNL     1      13.521  55.339  93.635  1.00  0.00     0.702 A 
ATOM     18  H5  UNL     1      15.467  56.092  93.168  1.00  0.00     0.205 HD
HETATM   19  N6  UNL     1      13.367  55.876  94.797  1.00  0.00    -0.190 N 
HETATM   20  N8  UNL     1      12.738  54.557  92.921  1.00  0.00    -0.142 N 
ATOM     21  H6  UNL     1      14.154  56.446  95.108  1.00  0.00     0.184 HD
HETATM   22  C18 UNL     1      11.414  54.057  93.249  1.00  0.00     0.180 C 
BRANCH  19  23
HETATM   23  C12 UNL     1      12.311  55.810  95.697  1.00  0.00     0.049 A 
HETATM   24  C13 UNL     1      11.452  56.905  95.890  1.00  0.00     0.031 A 
HETATM   25  C14 UNL     1      10.395  56.842  96.764  1.00  0.00     0.027 A 
HETATM   26  C15 UNL     1      10.109  55.712  97.502  1.00  0.00     0.079 A 
HETATM   27  C16 UNL     1      10.943  54.629  97.322  1.00  0.00     0.027 A 
HETATM   28  C17 UNL     1      12.005  54.685  96.447  1.00  0.00     0.031 A 
BRANCH  26  29
HETATM   29  S1  UNL     1       8.758  55.650  98.608  1.00  0.00     0.256 S 
HETATM   30  O2  UNL     1       9.186  55.911 100.021  1.00  0.00    -0.201 OA
HETATM   31  O3  UNL     1       7.753  56.685  98.192  1.00  0.00    -0.201 OA
BRANCH  29  32
HETATM   32  N7  UNL     1       7.957  54.123  98.568  1.00  0.00    -0.324 N 
ATOM     33  H72 UNL     1       7.333  53.840  97.812  1.00  0.00     0.169 HD
ATOM     34  H71 UNL     1       8.182  53.550  99.381  1.00  0.00     0.169 HD
ENDBRANCH  29  32
ENDBRANCH  26  29
ENDBRANCH  19  23
ENDBRANCH  12  13
ENDBRANCH   7  12
BRANCH   1  35
HETATM   35  C4  UNL     1      10.464  51.611  84.174  1.00  0.00     0.138 C 
BRANCH  35  36
HETATM   36  C3  UNL     1      11.393  51.991  83.093  1.00  0.00     0.058 C 
BRANCH  36  37
HETATM   37  C2  UNL     1      12.180  50.882  82.503  1.00  0.00     0.220 C 
BRANCH  37  38
HETATM   38  N1  UNL     1      12.365  49.808  83.518  1.00  0.00    -0.071 N 
HETATM   39  C1  UNL     1      12.079  48.514  82.959  1.00  0.00     0.267 C 
ATOM     40  H12 UNL     1      11.814  49.985  84.358  1.00  0.00     0.277 HD
ATOM     41  H11 UNL     1      13.296  49.840  83.934  1.00  0.00     0.277 HD
ENDBRANCH  37  38
BRANCH  37  42
HETATM   42  C22 UNL     1      13.605  51.397  82.399  1.00  0.00    -0.028 A 
HETATM   43  C23 UNL     1      14.223  51.755  83.565  1.00  0.00     0.009 A 
HETATM   44  C24 UNL     1      15.537  52.205  83.508  1.00  0.00     0.001 A 
HETATM   45  C25 UNL     1      16.175  52.277  82.289  1.00  0.00     0.000 A 
HETATM   46  C26 UNL     1      15.548  51.915  81.127  1.00  0.00     0.001 A 
HETATM   47  C27 UNL     1      14.252  51.474  81.207  1.00  0.00     0.009 A 
ENDBRANCH  37  42
ENDBRANCH  36  37
ENDBRANCH  35  36
ENDBRANCH   1  35
TORSDOF 10
ENDMDL
MODEL 4
REMARK VINA RESULT: -7.595693385      2.051      2.666
REMARK  10 active torsions:
REMARK  status: ('A' for Active; 'I' for Inactive)
REMARK    1  A    between atoms: N1_2  and  C2_5 
REMARK    2  A    between atoms: C2_5  and  C3_6 
REMARK    3  A    between atoms: C2_5  and  C22_42 
REMARK    4  A    between atoms: C3_6  and  C4_7 
REMARK    5  A    between atoms: C4_7  and  N2_8 
REMARK    6  A    between atoms: C9_14  and  N3_15 
REMARK    7  A    between atoms: N3_15  and  C10_16 
REMARK    8  A    between atoms: N6_22  and  C12_24 
REMARK    9  A    between atoms: C15_27  and  S1_28 
REMARK   10  A    between atoms: S1_28  and  N7_29 
ROOT
HETATM    1  N2  UNL     1      10.658  50.682  85.873  1.00  0.00    -0.280 N 
HETATM    2  C5  UNL     1       9.606  51.540  86.402  1.00  0.00     0.261 A 
HETATM    3  O1  UNL     1       8.431  51.623  85.966  1.00  0.00    -0.267 OA
HETATM    4  C6  UNL     1      10.107  52.307  87.528  1.00  0.00     0.048 A 
HETATM    5  C7  UNL     1       9.516  53.253  88.368  1.00  0.00     0.021 A 
HETATM    6  C8  UNL     1      10.281  53.795  89.351  1.00  0.00     0.046 A 
HETATM    7  C9  UNL     1      11.642  53.460  89.574  1.00  0.00     0.112 A 
HETATM    8  C19 UNL     1      12.152  52.491  88.671  1.00  0.00     0.063 A 
HETATM    9  C20 UNL     1      11.410  51.929  87.677  1.00  0.00     0.051 A 
HETATM   10  C21 UNL     1      11.785  50.915  86.660  1.00  0.00     0.261 A 
HETATM   11  O4  UNL     1      12.941  50.411  86.598  1.00  0.00    -0.267 OA
ENDROOT
BRANCH   7  12
HETATM   12  N3  UNL     1      12.386  53.972  90.510  1.00  0.00    -0.370 NA
BRANCH  12  13
HETATM   13  C10 UNL     1      13.073  54.438  91.363  1.00  0.00     0.291 A 
HETATM   14  N4  UNL     1      14.408  54.794  91.306  1.00  0.00    -0.244 N 
HETATM   15  N5  UNL     1      14.816  55.261  92.430  1.00  0.00    -0.128 N 
ATOM     16  H4  UNL     1      14.995  54.697  90.477  1.00  0.00     0.191 HD
HETATM   17  C11 UNL     1      13.767  55.248  93.322  1.00  0.00     0.702 A 
ATOM     18  H5  UNL     1      15.761  55.589  92.629  1.00  0.00     0.205 HD
HETATM   19  N6  UNL     1      13.899  55.665  94.535  1.00  0.00    -0.190 N 
HETATM   20  N8  UNL     1      12.734  54.754  92.673  1.00  0.00    -0.142 N 
ATOM     21  H6  UNL     1      14.833  56.001  94.769  1.00  0.00     0.184 HD
HETATM   22  C18 UNL     1      11.381  54.533  93.156  1.00  0.00     0.180 C 
BRANCH  19  23
HETATM   23  C12 UNL     1      12.982  55.735  95.577  1.00  0.00     0.049 A 
HETATM   24  C13 UNL     1      12.814  54.662  96.469  1.00  0.00     0.031 A 
HETATM   25  C14 UNL     1      11.923  54.729  97.511  1.00  0.00     0.027 A 
HETATM   26  C15 UNL     1      11.144  55.841  97.751  1.00  0.00     0.079 A 
HETATM   27  C16 UNL     1      11.298  56.902  96.884  1.00  0.00     0.027 A 
HETATM   28  C17 UNL     1      12.190  56.842  95.836  1.00  0.00     0.031 A 
BRANCH  26  29
HETATM   29  S1  UNL     1      10.017  55.908  99.085  1.00  0.00     0.256 S 
HETATM   30  O2  UNL     1      10.663  56.438 100.329  1.00  0.00    -0.201 OA
HETATM   31  O3  UNL     1       8.873  56.800  98.697  1.00  0.00    -0.201 OA
BRANCH  29  32
HETATM   32  N7  UNL     1       9.350  54.360  99.448  1.00  0.00    -0.324 N 
ATOM     33  H72 UNL     1       9.908  53.507  99.486  1.00  0.00     0.169 HD
ATOM     34  H71 UNL     1       8.346  54.405  99.617  1.00  0.00     0.169 HD
ENDBRANCH  29  32
ENDBRANCH  26  29
ENDBRANCH  19  23
ENDBRANCH  12  13
ENDBRANCH   7  12
BRANCH   1  35
HETATM   35  C4  UNL     1      10.440  49.795  84.776  1.00  0.00     0.138 C 
BRANCH  35  36
HETATM   36  C3  UNL     1      11.235  50.016  83.554  1.00  0.00     0.058 C 
BRANCH  36  37
HETATM   37  C2  UNL     1      11.543  51.431  83.236  1.00  0.00     0.220 C 
BRANCH  37  38
HETATM   38  N1  UNL     1      10.838  51.824  81.984  1.00  0.00    -0.071 N 
HETATM   39  C1  UNL     1       9.602  52.499  82.278  1.00  0.00     0.267 C 
ATOM     40  H12 UNL     1      10.692  51.025  81.368  1.00  0.00     0.277 HD
ATOM     41  H11 UNL     1      11.436  52.383  81.376  1.00  0.00     0.277 HD
ENDBRANCH  37  38
BRANCH  37  42
HETATM   42  C22 UNL     1      12.980  51.440  82.745  1.00  0.00    -0.028 A 
HETATM   43  C23 UNL     1      13.191  51.108  81.436  1.00  0.00     0.009 A 
HETATM   44  C24 UNL     1      14.492  51.133  80.946  1.00  0.00     0.001 A 
HETATM   45  C25 UNL     1      15.524  51.489  81.787  1.00  0.00     0.000 A 
HETATM   46  C26 UNL     1      15.303  51.820  83.097  1.00  0.00     0.001 A 
HETATM   47  C27 UNL     1      14.011  51.789  83.558  1.00  0.00     0.009 A 
ENDBRANCH  37  42
ENDBRANCH  36  37
ENDBRANCH  35  36
ENDBRANCH   1  35
TORSDOF 10
ENDMDL
MODEL 5
REMARK VINA RESULT: -7.535803113      4.175      4.991
REMARK  10 active torsions:
REMARK  status: ('A' for Active; 'I' for Inactive)
REMARK    1  A    between atoms: N1_2  and  C2_5 
REMARK    2  A    between atoms: C2_5  and  C3_6 
REMARK    3  A    between atoms: C2_5  and  C22_42 
REMARK    4  A    between atoms: C3_6  and  C4_7 
REMARK    5  A    between atoms: C4_7  and  N2_8 
REMARK    6  A    between atoms: C9_14  and  N3_15 
REMARK    7  A    between atoms: N3_15  and  C10_16 
REMARK    8  A    between atoms: N6_22  and  C12_24 
REMARK    9  A    between atoms: C15_27  and  S1_28 
REMARK   10  A    between atoms: S1_28  and  N7_29 
ROOT
HETATM    1  N2  UNL     1      12.144  52.897  86.159  1.00  0.00    -0.280 N 
HETATM    2  C5  UNL     1      13.176  53.857  86.526  1.00  0.00     0.261 A 
HETATM    3  O1  UNL     1      13.954  54.445  85.734  1.00  0.00    -0.267 OA
HETATM    4  C6  UNL     1      13.189  54.051  87.965  1.00  0.00     0.048 A 
HETATM    5  C7  UNL     1      13.967  54.847  88.806  1.00  0.00     0.021 A 
HETATM    6  C8  UNL     1      13.717  54.795  90.140  1.00  0.00     0.046 A 
HETATM    7  C9  UNL     1      12.714  53.981  90.729  1.00  0.00     0.112 A 
HETATM    8  C19 UNL     1      11.976  53.210  89.793  1.00  0.00     0.063 A 
HETATM    9  C20 UNL     1      12.204  53.241  88.451  1.00  0.00     0.051 A 
HETATM   10  C21 UNL     1      11.532  52.508  87.350  1.00  0.00     0.261 A 
HETATM   11  O4  UNL     1      10.584  51.698  87.552  1.00  0.00    -0.267 OA
ENDROOT
BRANCH   7  12
HETATM   12  N3  UNL     1      12.465  53.920  92.004  1.00  0.00    -0.370 NA
BRANCH  12  13
HETATM   13  C10 UNL     1      12.244  53.861  93.172  1.00  0.00     0.291 A 
HETATM   14  N4  UNL     1      11.181  54.387  93.883  1.00  0.00    -0.244 N 
HETATM   15  N5  UNL     1      11.282  54.126  95.136  1.00  0.00    -0.128 N 
ATOM     16  H4  UNL     1      10.414  54.914  93.466  1.00  0.00     0.191 HD
HETATM   17  C11 UNL     1      12.433  53.401  95.346  1.00  0.00     0.702 A 
ATOM     18  H5  UNL     1      10.618  54.409  95.857  1.00  0.00     0.205 HD
HETATM   19  N6  UNL     1      12.783  53.004  96.522  1.00  0.00    -0.190 N 
HETATM   20  N8  UNL     1      12.998  53.250  94.167  1.00  0.00    -0.142 N 
ATOM     21  H6  UNL     1      12.141  53.270  97.268  1.00  0.00     0.184 HD
HETATM   22  C18 UNL     1      14.230  52.557  93.834  1.00  0.00     0.180 C 
BRANCH  19  23
HETATM   23  C12 UNL     1      13.888  52.274  96.944  1.00  0.00     0.049 A 
HETATM   24  C13 UNL     1      13.880  50.869  96.928  1.00  0.00     0.031 A 
HETATM   25  C14 UNL     1      14.973  50.141  97.326  1.00  0.00     0.027 A 
HETATM   26  C15 UNL     1      16.140  50.732  97.762  1.00  0.00     0.079 A 
HETATM   27  C16 UNL     1      16.163  52.111  97.782  1.00  0.00     0.027 A 
HETATM   28  C17 UNL     1      15.071  52.849  97.384  1.00  0.00     0.031 A 
BRANCH  26  29
HETATM   29  S1  UNL     1      17.522  49.788  98.263  1.00  0.00     0.256 S 
HETATM   30  O2  UNL     1      18.557  50.636  98.938  1.00  0.00    -0.201 OA
HETATM   31  O3  UNL     1      17.053  48.723  99.211  1.00  0.00    -0.201 OA
BRANCH  29  32
HETATM   32  N7  UNL     1      18.275  48.987  96.934  1.00  0.00    -0.324 N 
ATOM     33  H72 UNL     1      18.187  47.985  96.764  1.00  0.00     0.169 HD
ATOM     34  H71 UNL     1      18.810  49.630  96.351  1.00  0.00     0.169 HD
ENDBRANCH  29  32
ENDBRANCH  26  29
ENDBRANCH  19  23
ENDBRANCH  12  13
ENDBRANCH   7  12
BRANCH   1  35
HETATM   35  C4  UNL     1      11.887  52.532  84.803  1.00  0.00     0.138 C 
BRANCH  35  36
HETATM   36  C3  UNL     1      12.645  51.394  84.250  1.00  0.00     0.058 C 
BRANCH  36  37
HETATM   37  C2  UNL     1      12.717  51.329  82.771  1.00  0.00     0.220 C 
BRANCH  37  38
HETATM   38  N1  UNL     1      12.746  49.904  82.337  1.00  0.00    -0.071 N 
HETATM   39  C1  UNL     1      12.169  49.048  83.338  1.00  0.00     0.267 C 
ATOM     40  H12 UNL     1      13.689  49.607  82.085  1.00  0.00     0.277 HD
ATOM     41  H11 UNL     1      12.297  49.779  81.430  1.00  0.00     0.277 HD
ENDBRANCH  37  38
BRANCH  37  42
HETATM   42  C22 UNL     1      14.132  51.745  82.408  1.00  0.00    -0.028 A 
HETATM   43  C23 UNL     1      14.457  51.751  81.081  1.00  0.00     0.009 A 
HETATM   44  C24 UNL     1      15.736  52.152  80.712  1.00  0.00     0.001 A 
HETATM   45  C25 UNL     1      16.633  52.530  81.687  1.00  0.00     0.000 A 
HETATM   46  C26 UNL     1      16.299  52.521  83.015  1.00  0.00     0.001 A 
HETATM   47  C27 UNL     1      15.032  52.122  83.355  1.00  0.00     0.009 A 
ENDBRANCH  37  42
ENDBRANCH  36  37
ENDBRANCH  35  36
ENDBRANCH   1  35
TORSDOF 10
ENDMDL
