MODEL 1
REMARK VINA RESULT: -8.210638974      0.000      0.000
REMARK  12 active torsions:
REMARK  status: ('A' for Active; 'I' for Inactive)
REMARK    1  A    between atoms: C3_3  and  N1_4 
REMARK    2  A    between atoms: N2_7  and  C6_8 
REMARK    3  A    between atoms: C6_8  and  C7_10 
REMARK    4  A    between atoms: C7_10  and  C8_11 
REMARK    5  A    between atoms: C8_11  and  C9_12 
REMARK    6  A    between atoms: C9_12  and  C10_13 
REMARK    7  A    between atoms: C10_13  and  C11_14 
REMARK    8  A    between atoms: C11_14  and  N3_15 
REMARK    9  A    between atoms: C18_23  and  O2_24 
REMARK   10  A    between atoms: C19_26  and  C20_27 
REMARK   11  A    between atoms: C20_27  and  C21_28 
REMARK   12  A    between atoms: C22_29  and  O3_30 
ROOT
HETATM    1  C1  UNL     1      14.008  55.104  89.465  1.00  0.00     0.032 C 
HETATM    2  C2  UNL     1      13.781  54.920  90.737  1.00  0.00     0.052 A 
HETATM    3  C3  UNL     1      12.831  54.124  91.294  1.00  0.00     0.081 A 
HETATM    4  C18 UNL     1      12.658  54.020  92.699  1.00  0.00     0.120 A 
HETATM    5  C19 UNL     1      13.502  54.767  93.511  1.00  0.00     0.071 A 
HETATM    6  N5  UNL     1      14.435  55.547  92.942  1.00  0.00    -0.320 N 
ATOM      7  H5  UNL     1      15.052  56.094  93.544  1.00  0.00     0.169 HD
HETATM    8  C29 UNL     1      14.586  55.634  91.623  1.00  0.00     0.257 A 
HETATM    9  O4  UNL     1      15.495  56.397  91.156  1.00  0.00    -0.267 OA
ENDROOT
BRANCH   3  10
HETATM   10  N1  UNL     1      11.977  53.359  90.444  1.00  0.00    -0.375 N 
HETATM   11  C4  UNL     1      12.160  51.981  90.107  1.00  0.00     0.143 C 
HETATM   12  C5  UNL     1      12.101  51.748  88.631  1.00  0.00     0.143 C 
HETATM   13  N2  UNL     1      11.036  52.510  88.046  1.00  0.00    -0.372 N 
HETATM   14  C16 UNL     1      10.078  53.166  88.914  1.00  0.00     0.143 C 
HETATM   15  C17 UNL     1      10.803  54.053  89.912  1.00  0.00     0.143 C 
BRANCH  13  16
HETATM   16  C6  UNL     1      10.905  52.644  86.658  1.00  0.00     0.075 C 
HETATM   17  S1  UNL     1       9.901  51.604  85.868  1.00  0.00    -0.066 SA
BRANCH  16  18
HETATM   18  C7  UNL     1      11.595  53.649  85.797  1.00  0.00     0.069 C 
BRANCH  18  19
HETATM   19  C8  UNL     1      12.952  53.167  85.439  1.00  0.00     0.007 C 
BRANCH  19  20
HETATM   20  C9  UNL     1      14.087  54.088  85.908  1.00  0.00     0.002 C 
BRANCH  20  21
HETATM   21  C10 UNL     1      15.298  53.937  85.084  1.00  0.00     0.030 C 
BRANCH  21  22
HETATM   22  C11 UNL     1      15.089  53.457  83.705  1.00  0.00     0.272 C 
BRANCH  22  23
HETATM   23  N3  UNL     1      15.684  52.287  83.223  1.00  0.00     0.092 N 
HETATM   24  C12 UNL     1      14.928  51.120  82.974  1.00  0.00     0.298 C 
HETATM   25  C13 UNL     1      13.813  51.398  81.965  1.00  0.00     0.198 C 
HETATM   26  O1  UNL     1      14.310  52.199  80.931  1.00  0.00    -0.388 OA
HETATM   27  C14 UNL     1      15.689  52.099  80.782  1.00  0.00     0.198 C 
HETATM   28  C15 UNL     1      16.464  52.556  81.999  1.00  0.00     0.298 C 
ENDBRANCH  22  23
ENDBRANCH  21  22
ENDBRANCH  20  21
ENDBRANCH  19  20
ENDBRANCH  18  19
ENDBRANCH  16  18
ENDBRANCH  13  16
ENDBRANCH   3  10
BRANCH   4  29
HETATM   29  O2  UNL     1      11.683  53.197  93.090  1.00  0.00    -0.356 OA
ATOM     30  H2  UNL     1      11.512  53.190  94.025  1.00  0.00     0.218 HD
ENDBRANCH   4  29
BRANCH   5  31
HETATM   31  C20 UNL     1      13.417  54.748  94.819  1.00  0.00     0.049 C 
BRANCH  31  32
HETATM   32  C21 UNL     1      12.281  54.928  95.677  1.00  0.00     0.029 A 
HETATM   33  C22 UNL     1      11.515  53.953  96.269  1.00  0.00     0.151 A 
HETATM   34  N4  UNL     1      10.562  54.552  97.035  1.00  0.00    -0.336 N 
HETATM   35  C23 UNL     1      10.696  55.887  96.949  1.00  0.00     0.045 A 
ATOM     36  H4  UNL     1       9.857  54.065  97.587  1.00  0.00     0.168 HD
HETATM   37  C24 UNL     1      10.000  56.959  97.518  1.00  0.00     0.030 A 
HETATM   38  C28 UNL     1      11.758  56.138  96.111  1.00  0.00     0.005 A 
HETATM   39  C25 UNL     1      10.363  58.259  97.251  1.00  0.00     0.002 A 
HETATM   40  C26 UNL     1      11.420  58.490  96.416  1.00  0.00     0.001 A 
HETATM   41  C27 UNL     1      12.106  57.427  95.855  1.00  0.00     0.014 A 
BRANCH  33  42
HETATM   42  O3  UNL     1      11.652  52.581  96.140  1.00  0.00    -0.345 OA
ATOM     43  H3  UNL     1      12.086  51.985  96.739  1.00  0.00     0.219 HD
ENDBRANCH  33  42
ENDBRANCH  31  32
ENDBRANCH   5  31
TORSDOF 12
ENDMDL
MODEL 2
REMARK VINA RESULT: -7.896072824      2.770     10.647
REMARK  12 active torsions:
REMARK  status: ('A' for Active; 'I' for Inactive)
REMARK    1  A    between atoms: C3_3  and  N1_4 
REMARK    2  A    between atoms: N2_7  and  C6_8 
REMARK    3  A    between atoms: C6_8  and  C7_10 
REMARK    4  A    between atoms: C7_10  and  C8_11 
REMARK    5  A    between atoms: C8_11  and  C9_12 
REMARK    6  A    between atoms: C9_12  and  C10_13 
REMARK    7  A    between atoms: C10_13  and  C11_14 
REMARK    8  A    between atoms: C11_14  and  N3_15 
REMARK    9  A    between atoms: C18_23  and  O2_24 
REMARK   10  A    between atoms: C19_26  and  C20_27 
REMARK   11  A    between atoms: C20_27  and  C21_28 
REMARK   12  A    between atoms: C22_29  and  O3_30 
ROOT
HETATM    1  C1  UNL     1      13.779  54.816  91.861  1.00  0.00     0.032 C 
HETATM    2  C2  UNL     1      13.368  54.545  90.651  1.00  0.00     0.052 A 
HETATM    3  C3  UNL     1      12.390  53.673  90.293  1.00  0.00     0.081 A 
HETATM    4  C18 UNL     1      12.043  53.439  88.937  1.00  0.00     0.120 A 
HETATM    5  C19 UNL     1      12.740  54.139  87.962  1.00  0.00     0.071 A 
HETATM    6  N5  UNL     1      13.702  54.997  88.335  1.00  0.00    -0.320 N 
ATOM      7  H5  UNL     1      14.212  55.509  87.614  1.00  0.00     0.169 HD
HETATM    8  C29 UNL     1      14.017  55.207  89.611  1.00  0.00     0.257 A 
HETATM    9  O4  UNL     1      14.943  56.039  89.888  1.00  0.00    -0.267 OA
ENDROOT
BRANCH   3  10
HETATM   10  N1  UNL     1      11.680  52.966  91.310  1.00  0.00    -0.375 N 
HETATM   11  C4  UNL     1      10.470  53.405  91.936  1.00  0.00     0.143 C 
HETATM   12  C5  UNL     1      10.559  53.365  93.428  1.00  0.00     0.143 C 
HETATM   13  N2  UNL     1      11.210  52.162  93.858  1.00  0.00    -0.372 N 
HETATM   14  C16 UNL     1      11.464  51.113  92.891  1.00  0.00     0.143 C 
HETATM   15  C17 UNL     1      12.234  51.671  91.707  1.00  0.00     0.143 C 
BRANCH  13  16
HETATM   16  C6  UNL     1      11.617  51.983  95.186  1.00  0.00     0.075 C 
HETATM   17  S1  UNL     1      10.453  51.838  96.342  1.00  0.00    -0.066 SA
BRANCH  16  18
HETATM   18  C7  UNL     1      13.024  51.908  95.678  1.00  0.00     0.069 C 
BRANCH  18  19
HETATM   19  C8  UNL     1      13.768  53.130  95.283  1.00  0.00     0.007 C 
BRANCH  19  20
HETATM   20  C9  UNL     1      13.467  54.355  96.158  1.00  0.00     0.002 C 
BRANCH  20  21
HETATM   21  C10 UNL     1      13.076  55.525  95.354  1.00  0.00     0.030 C 
BRANCH  21  22
HETATM   22  C11 UNL     1      12.403  56.618  96.083  1.00  0.00     0.272 C 
BRANCH  22  23
HETATM   23  N3  UNL     1      11.044  56.901  95.916  1.00  0.00     0.092 N 
HETATM   24  C12 UNL     1      10.047  55.943  96.200  1.00  0.00     0.298 C 
HETATM   25  C13 UNL     1      10.140  55.475  97.654  1.00  0.00     0.198 C 
HETATM   26  O1  UNL     1      10.374  56.577  98.484  1.00  0.00    -0.388 OA
HETATM   27  C14 UNL     1       9.951  57.777  97.924  1.00  0.00     0.198 C 
HETATM   28  C15 UNL     1      10.669  58.132  96.640  1.00  0.00     0.298 C 
ENDBRANCH  22  23
ENDBRANCH  21  22
ENDBRANCH  20  21
ENDBRANCH  19  20
ENDBRANCH  18  19
ENDBRANCH  16  18
ENDBRANCH  13  16
ENDBRANCH   3  10
BRANCH   4  29
HETATM   29  O2  UNL     1      11.062  52.553  88.749  1.00  0.00    -0.356 OA
ATOM     30  H2  UNL     1      10.327  52.869  88.234  1.00  0.00     0.218 HD
ENDBRANCH   4  29
BRANCH   5  31
HETATM   31  C20 UNL     1      12.501  53.987  86.681  1.00  0.00     0.049 C 
BRANCH  31  32
HETATM   32  C21 UNL     1      12.937  52.965  85.772  1.00  0.00     0.029 A 
HETATM   33  C22 UNL     1      12.280  51.805  85.439  1.00  0.00     0.151 A 
HETATM   34  N4  UNL     1      13.020  51.136  84.512  1.00  0.00    -0.336 N 
HETATM   35  C23 UNL     1      14.135  51.837  84.242  1.00  0.00     0.045 A 
ATOM     36  H4  UNL     1      12.768  50.243  84.089  1.00  0.00     0.168 HD
HETATM   37  C24 UNL     1      15.220  51.620  83.387  1.00  0.00     0.030 A 
HETATM   38  C28 UNL     1      14.100  52.975  85.015  1.00  0.00     0.005 A 
HETATM   39  C25 UNL     1      16.251  52.528  83.308  1.00  0.00     0.002 A 
HETATM   40  C26 UNL     1      16.200  53.653  84.083  1.00  0.00     0.001 A 
HETATM   41  C27 UNL     1      15.125  53.864  84.928  1.00  0.00     0.014 A 
BRANCH  33  42
HETATM   42  O3  UNL     1      11.070  51.351  85.935  1.00  0.00    -0.345 OA
ATOM     43  H3  UNL     1      10.906  50.945  86.778  1.00  0.00     0.219 HD
ENDBRANCH  33  42
ENDBRANCH  31  32
ENDBRANCH   5  31
TORSDOF 12
ENDMDL
MODEL 3
REMARK VINA RESULT: -7.711617588      2.700     11.231
REMARK  12 active torsions:
REMARK  status: ('A' for Active; 'I' for Inactive)
REMARK    1  A    between atoms: C3_3  and  N1_4 
REMARK    2  A    between atoms: N2_7  and  C6_8 
REMARK    3  A    between atoms: C6_8  and  C7_10 
REMARK    4  A    between atoms: C7_10  and  C8_11 
REMARK    5  A    between atoms: C8_11  and  C9_12 
REMARK    6  A    between atoms: C9_12  and  C10_13 
REMARK    7  A    between atoms: C10_13  and  C11_14 
REMARK    8  A    between atoms: C11_14  and  N3_15 
REMARK    9  A    between atoms: C18_23  and  O2_24 
REMARK   10  A    between atoms: C19_26  and  C20_27 
REMARK   11  A    between atoms: C20_27  and  C21_28 
REMARK   12  A    between atoms: C22_29  and  O3_30 
ROOT
HETATM    1  C1  UNL     1      10.241  49.530  89.871  1.00  0.00     0.032 C 
HETATM    2  C2  UNL     1      10.690  50.471  89.085  1.00  0.00     0.052 A 
HETATM    3  C3  UNL     1      11.221  51.664  89.455  1.00  0.00     0.081 A 
HETATM    4  C18 UNL     1      11.656  52.627  88.507  1.00  0.00     0.120 A 
HETATM    5  C19 UNL     1      11.525  52.314  87.161  1.00  0.00     0.071 A 
HETATM    6  N5  UNL     1      10.998  51.128  86.814  1.00  0.00    -0.320 N 
ATOM      7  H5  UNL     1      10.904  50.904  85.824  1.00  0.00     0.169 HD
HETATM    8  C29 UNL     1      10.595  50.235  87.714  1.00  0.00     0.257 A 
HETATM    9  O4  UNL     1      10.105  49.130  87.308  1.00  0.00    -0.267 OA
ENDROOT
BRANCH   3  10
HETATM   10  N1  UNL     1      11.355  51.968  90.844  1.00  0.00    -0.375 N 
HETATM   11  C4  UNL     1      10.462  52.787  91.604  1.00  0.00     0.143 C 
HETATM   12  C5  UNL     1      11.183  53.849  92.370  1.00  0.00     0.143 C 
HETATM   13  N2  UNL     1      12.373  53.315  92.967  1.00  0.00    -0.372 N 
HETATM   14  C16 UNL     1      12.585  51.881  92.956  1.00  0.00     0.143 C 
HETATM   15  C17 UNL     1      12.488  51.351  91.536  1.00  0.00     0.143 C 
BRANCH  13  16
HETATM   16  C6  UNL     1      13.339  54.145  93.548  1.00  0.00     0.075 C 
HETATM   17  S1  UNL     1      14.274  55.066  92.551  1.00  0.00    -0.066 SA
BRANCH  16  18
HETATM   18  C7  UNL     1      13.622  54.288  95.007  1.00  0.00     0.069 C 
BRANCH  18  19
HETATM   19  C8  UNL     1      13.515  55.712  95.409  1.00  0.00     0.007 C 
BRANCH  19  20
HETATM   20  C9  UNL     1      12.072  56.213  95.555  1.00  0.00     0.002 C 
BRANCH  20  21
HETATM   21  C10 UNL     1      11.964  57.311  96.530  1.00  0.00     0.030 C 
BRANCH  21  22
HETATM   22  C11 UNL     1      10.705  58.080  96.506  1.00  0.00     0.272 C 
BRANCH  22  23
HETATM   23  N3  UNL     1       9.766  58.009  97.540  1.00  0.00     0.092 N 
HETATM   24  C12 UNL     1       8.389  57.836  97.281  1.00  0.00     0.298 C 
HETATM   25  C13 UNL     1       8.142  56.555  96.483  1.00  0.00     0.198 C 
HETATM   26  O1  UNL     1       8.939  55.526  96.996  1.00  0.00    -0.388 OA
HETATM   27  C14 UNL     1       9.307  55.733  98.320  1.00  0.00     0.198 C 
HETATM   28  C15 UNL     1      10.145  56.978  98.527  1.00  0.00     0.298 C 
ENDBRANCH  22  23
ENDBRANCH  21  22
ENDBRANCH  20  21
ENDBRANCH  19  20
ENDBRANCH  18  19
ENDBRANCH  16  18
ENDBRANCH  13  16
ENDBRANCH   3  10
BRANCH   4  29
HETATM   29  O2  UNL     1      12.155  53.750  89.029  1.00  0.00    -0.356 OA
ATOM     30  H2  UNL     1      11.948  54.544  88.549  1.00  0.00     0.218 HD
ENDBRANCH   4  29
BRANCH   5  31
HETATM   31  C20 UNL     1      11.888  53.138  86.208  1.00  0.00     0.049 C 
BRANCH  31  32
HETATM   32  C21 UNL     1      13.195  53.459  85.709  1.00  0.00     0.029 A 
HETATM   33  C22 UNL     1      14.047  54.438  86.161  1.00  0.00     0.151 A 
HETATM   34  N4  UNL     1      15.200  54.379  85.439  1.00  0.00    -0.336 N 
HETATM   35  C23 UNL     1      15.110  53.387  84.536  1.00  0.00     0.045 A 
ATOM     36  H4  UNL     1      16.006  54.991  85.565  1.00  0.00     0.168 HD
HETATM   37  C24 UNL     1      15.984  52.897  83.560  1.00  0.00     0.030 A 
HETATM   38  C28 UNL     1      13.873  52.805  84.690  1.00  0.00     0.005 A 
HETATM   39  C25 UNL     1      15.624  51.843  82.753  1.00  0.00     0.002 A 
HETATM   40  C26 UNL     1      14.390  51.277  82.919  1.00  0.00     0.001 A 
HETATM   41  C27 UNL     1      13.529  51.765  83.885  1.00  0.00     0.014 A 
BRANCH  33  42
HETATM   42  O3  UNL     1      13.816  55.352  87.175  1.00  0.00    -0.345 OA
ATOM     43  H3  UNL     1      14.171  55.338  88.056  1.00  0.00     0.219 HD
ENDBRANCH  33  42
ENDBRANCH  31  32
ENDBRANCH   5  31
TORSDOF 12
ENDMDL
MODEL 4
REMARK VINA RESULT: -7.662731559      1.161      1.529
REMARK  12 active torsions:
REMARK  status: ('A' for Active; 'I' for Inactive)
REMARK    1  A    between atoms: C3_3  and  N1_4 
REMARK    2  A    between atoms: N2_7  and  C6_8 
REMARK    3  A    between atoms: C6_8  and  C7_10 
REMARK    4  A    between atoms: C7_10  and  C8_11 
REMARK    5  A    between atoms: C8_11  and  C9_12 
REMARK    6  A    between atoms: C9_12  and  C10_13 
REMARK    7  A    between atoms: C10_13  and  C11_14 
REMARK    8  A    between atoms: C11_14  and  N3_15 
REMARK    9  A    between atoms: C18_23  and  O2_24 
REMARK   10  A    between atoms: C19_26  and  C20_27 
REMARK   11  A    between atoms: C20_27  and  C21_28 
REMARK   12  A    between atoms: C22_29  and  O3_30 
ROOT
HETATM    1  C1  UNL     1      13.990  55.162  89.464  1.00  0.00     0.032 C 
HETATM    2  C2  UNL     1      13.767  54.966  90.735  1.00  0.00     0.052 A 
HETATM    3  C3  UNL     1      12.796  54.195  91.289  1.00  0.00     0.081 A 
HETATM    4  C18 UNL     1      12.631  54.076  92.694  1.00  0.00     0.120 A 
HETATM    5  C19 UNL     1      13.507  54.781  93.509  1.00  0.00     0.071 A 
HETATM    6  N5  UNL     1      14.461  55.537  92.943  1.00  0.00    -0.320 N 
ATOM      7  H5  UNL     1      15.102  56.053  93.547  1.00  0.00     0.169 HD
HETATM    8  C29 UNL     1      14.604  55.639  91.624  1.00  0.00     0.257 A 
HETATM    9  O4  UNL     1      15.535  56.377  91.161  1.00  0.00    -0.267 OA
ENDROOT
BRANCH   3  10
HETATM   10  N1  UNL     1      11.908  53.473  90.436  1.00  0.00    -0.375 N 
HETATM   11  C4  UNL     1      12.125  52.149  89.941  1.00  0.00     0.143 C 
HETATM   12  C5  UNL     1      11.951  52.063  88.459  1.00  0.00     0.143 C 
HETATM   13  N2  UNL     1      10.804  52.819  88.046  1.00  0.00    -0.372 N 
HETATM   14  C16 UNL     1       9.896  53.329  89.052  1.00  0.00     0.143 C 
HETATM   15  C17 UNL     1      10.661  54.151  90.076  1.00  0.00     0.143 C 
BRANCH  13  16
HETATM   16  C6  UNL     1      10.548  53.084  86.695  1.00  0.00     0.075 C 
HETATM   17  S1  UNL     1       9.062  52.703  86.096  1.00  0.00    -0.066 SA
BRANCH  16  18
HETATM   18  C7  UNL     1      11.499  53.688  85.715  1.00  0.00     0.069 C 
BRANCH  18  19
HETATM   19  C8  UNL     1      12.181  52.619  84.943  1.00  0.00     0.007 C 
BRANCH  19  20
HETATM   20  C9  UNL     1      13.705  52.782  84.862  1.00  0.00     0.002 C 
BRANCH  20  21
HETATM   21  C10 UNL     1      14.299  51.918  83.829  1.00  0.00     0.030 C 
BRANCH  21  22
HETATM   22  C11 UNL     1      13.521  50.719  83.459  1.00  0.00     0.272 C 
BRANCH  22  23
HETATM   23  N3  UNL     1      13.371  50.307  82.131  1.00  0.00     0.092 N 
HETATM   24  C12 UNL     1      12.280  49.510  81.722  1.00  0.00     0.298 C 
HETATM   25  C13 UNL     1      10.952  50.202  82.035  1.00  0.00     0.198 C 
HETATM   26  O1  UNL     1      11.047  51.559  81.711  1.00  0.00    -0.388 OA
HETATM   27  C14 UNL     1      12.025  51.823  80.759  1.00  0.00     0.198 C 
HETATM   28  C15 UNL     1      13.423  51.460  81.211  1.00  0.00     0.298 C 
ENDBRANCH  22  23
ENDBRANCH  21  22
ENDBRANCH  20  21
ENDBRANCH  19  20
ENDBRANCH  18  19
ENDBRANCH  16  18
ENDBRANCH  13  16
ENDBRANCH   3  10
BRANCH   4  29
HETATM   29  O2  UNL     1      11.632  53.281  93.081  1.00  0.00    -0.356 OA
ATOM     30  H2  UNL     1      11.117  52.906  92.375  1.00  0.00     0.218 HD
ENDBRANCH   4  29
BRANCH   5  31
HETATM   31  C20 UNL     1      13.433  54.745  94.817  1.00  0.00     0.049 C 
BRANCH  31  32
HETATM   32  C21 UNL     1      12.303  54.908  95.687  1.00  0.00     0.029 A 
HETATM   33  C22 UNL     1      11.555  53.921  96.283  1.00  0.00     0.151 A 
HETATM   34  N4  UNL     1      10.602  54.506  97.060  1.00  0.00    -0.336 N 
HETATM   35  C23 UNL     1      10.718  55.843  96.977  1.00  0.00     0.045 A 
ATOM     36  H4  UNL     1       9.908  54.008  97.617  1.00  0.00     0.168 HD
HETATM   37  C24 UNL     1      10.014  56.904  97.555  1.00  0.00     0.030 A 
HETATM   38  C28 UNL     1      11.768  56.110  96.129  1.00  0.00     0.005 A 
HETATM   39  C25 UNL     1      10.357  58.210  97.288  1.00  0.00     0.002 A 
HETATM   40  C26 UNL     1      11.403  58.457  96.443  1.00  0.00     0.001 A 
HETATM   41  C27 UNL     1      12.097  57.404  95.873  1.00  0.00     0.014 A 
BRANCH  33  42
HETATM   42  O3  UNL     1      11.708  52.552  96.149  1.00  0.00    -0.345 OA
ATOM     43  H3  UNL     1      11.259  51.977  95.540  1.00  0.00     0.219 HD
ENDBRANCH  33  42
ENDBRANCH  31  32
ENDBRANCH   5  31
TORSDOF 12
ENDMDL
MODEL 5
REMARK VINA RESULT: -7.624281738      2.668     11.212
REMARK  12 active torsions:
REMARK  status: ('A' for Active; 'I' for Inactive)
REMARK    1  A    between atoms: C3_3  and  N1_4 
REMARK    2  A    between atoms: N2_7  and  C6_8 
REMARK    3  A    between atoms: C6_8  and  C7_10 
REMARK    4  A    between atoms: C7_10  and  C8_11 
REMARK    5  A    between atoms: C8_11  and  C9_12 
REMARK    6  A    between atoms: C9_12  and  C10_13 
REMARK    7  A    between atoms: C10_13  and  C11_14 
REMARK    8  A    between atoms: C11_14  and  N3_15 
REMARK    9  A    between atoms: C18_23  and  O2_24 
REMARK   10  A    between atoms: C19_26  and  C20_27 
REMARK   11  A    between atoms: C20_27  and  C21_28 
REMARK   12  A    between atoms: C22_29  and  O3_30 
ROOT
HETATM    1  C1  UNL     1       8.940  50.724  89.119  1.00  0.00     0.032 C 
HETATM    2  C2  UNL     1       9.670  51.256  88.177  1.00  0.00     0.052 A 
HETATM    3  C3  UNL     1      10.615  52.221  88.318  1.00  0.00     0.081 A 
HETATM    4  C18 UNL     1      11.334  52.745  87.212  1.00  0.00     0.120 A 
HETATM    5  C19 UNL     1      11.044  52.237  85.953  1.00  0.00     0.071 A 
HETATM    6  N5  UNL     1      10.107  51.282  85.833  1.00  0.00    -0.320 N 
ATOM      7  H5  UNL     1       9.898  50.912  84.906  1.00  0.00     0.169 HD
HETATM    8  C29 UNL     1       9.442  50.799  86.880  1.00  0.00     0.257 A 
HETATM    9  O4  UNL     1       8.566  49.893  86.688  1.00  0.00    -0.267 OA
ENDROOT
BRANCH   3  10
HETATM   10  N1  UNL     1      10.905  52.729  89.620  1.00  0.00    -0.375 N 
HETATM   11  C4  UNL     1      10.217  53.805  90.264  1.00  0.00     0.143 C 
HETATM   12  C5  UNL     1      11.157  54.843  90.788  1.00  0.00     0.143 C 
HETATM   13  N2  UNL     1      12.290  54.223  91.411  1.00  0.00    -0.372 N 
HETATM   14  C16 UNL     1      12.270  52.794  91.649  1.00  0.00     0.143 C 
HETATM   15  C17 UNL     1      11.977  52.055  90.354  1.00  0.00     0.143 C 
BRANCH  13  16
HETATM   16  C6  UNL     1      13.419  54.963  91.783  1.00  0.00     0.075 C 
HETATM   17  S1  UNL     1      13.829  56.270  90.867  1.00  0.00    -0.066 SA
BRANCH  16  18
HETATM   18  C7  UNL     1      14.313  54.689  92.946  1.00  0.00     0.069 C 
BRANCH  18  19
HETATM   19  C8  UNL     1      13.688  55.185  94.198  1.00  0.00     0.007 C 
BRANCH  19  20
HETATM   20  C9  UNL     1      13.167  54.073  95.119  1.00  0.00     0.002 C 
BRANCH  20  21
HETATM   21  C10 UNL     1      11.696  54.031  95.157  1.00  0.00     0.030 C 
BRANCH  21  22
HETATM   22  C11 UNL     1      11.016  55.314  95.419  1.00  0.00     0.272 C 
BRANCH  22  23
HETATM   23  N3  UNL     1      10.798  55.793  96.715  1.00  0.00     0.092 N 
HETATM   24  C12 UNL     1      11.796  56.496  97.423  1.00  0.00     0.298 C 
HETATM   25  C13 UNL     1      12.239  57.740  96.651  1.00  0.00     0.198 C 
HETATM   26  O1  UNL     1      11.116  58.379  96.114  1.00  0.00    -0.388 OA
HETATM   27  C14 UNL     1       9.944  58.086  96.803  1.00  0.00     0.198 C 
HETATM   28  C15 UNL     1       9.575  56.618  96.774  1.00  0.00     0.298 C 
ENDBRANCH  22  23
ENDBRANCH  21  22
ENDBRANCH  20  21
ENDBRANCH  19  20
ENDBRANCH  18  19
ENDBRANCH  16  18
ENDBRANCH  13  16
ENDBRANCH   3  10
BRANCH   4  29
HETATM   29  O2  UNL     1      12.230  53.688  87.513  1.00  0.00    -0.356 OA
ATOM     30  H2  UNL     1      12.541  53.677  88.412  1.00  0.00     0.218 HD
ENDBRANCH   4  29
BRANCH   5  31
HETATM   31  C20 UNL     1      11.645  52.660  84.867  1.00  0.00     0.049 C 
BRANCH  31  32
HETATM   32  C21 UNL     1      12.632  52.019  84.045  1.00  0.00     0.029 A 
HETATM   33  C22 UNL     1      12.448  50.968  83.179  1.00  0.00     0.151 A 
HETATM   34  N4  UNL     1      13.633  50.694  82.568  1.00  0.00    -0.336 N 
HETATM   35  C23 UNL     1      14.574  51.542  83.020  1.00  0.00     0.045 A 
ATOM     36  H4  UNL     1      13.784  49.961  81.875  1.00  0.00     0.168 HD
HETATM   37  C24 UNL     1      15.935  51.703  82.737  1.00  0.00     0.030 A 
HETATM   38  C28 UNL     1      13.971  52.371  83.937  1.00  0.00     0.005 A 
HETATM   39  C25 UNL     1      16.676  52.678  83.364  1.00  0.00     0.002 A 
HETATM   40  C26 UNL     1      16.061  53.493  84.273  1.00  0.00     0.001 A 
HETATM   41  C27 UNL     1      14.715  53.330  84.550  1.00  0.00     0.014 A 
BRANCH  33  42
HETATM   42  O3  UNL     1      11.275  50.276  82.935  1.00  0.00    -0.345 OA
ATOM     43  H3  UNL     1      10.419  50.437  83.315  1.00  0.00     0.219 HD
ENDBRANCH  33  42
ENDBRANCH  31  32
ENDBRANCH   5  31
TORSDOF 12
ENDMDL
