MODEL 1
REMARK VINA RESULT: -8.643917988      0.000      0.000
REMARK  11 active torsions:
REMARK  status: ('A' for Active; 'I' for Inactive)
REMARK    1  A    between atoms: O1_2  and  C2_3 
REMARK    2  A    between atoms: C6_7  and  C7_8 
REMARK    3  A    between atoms: C7_8  and  N1_9 
REMARK    4  A    between atoms: N1_9  and  N2_11 
REMARK    5  A    between atoms: N2_11  and  C8_13 
REMARK    6  A    between atoms: C8_13  and  N3_15 
REMARK    7  A    between atoms: C11_18  and  C12_19 
REMARK    8  A    between atoms: C12_19  and  N4_20 
REMARK    9  A    between atoms: N4_20  and  C14_22 
REMARK   10  A    between atoms: C14_22  and  C15_23 
REMARK   11  A    between atoms: C15_23  and  N5_24 
ROOT
HETATM    1  N3  UNL     1      13.160  54.786  91.880  1.00  0.00    -0.357 N 
HETATM    2  C9  UNL     1      14.094  54.833  93.028  1.00  0.00     0.125 C 
HETATM    3  C10 UNL     1      13.291  55.345  94.200  1.00  0.00     0.026 C 
HETATM    4  C11 UNL     1      12.333  54.208  94.540  1.00  0.00     0.017 C 
HETATM    5  C24 UNL     1      11.319  54.138  93.449  1.00  0.00     0.026 C 
HETATM    6  C25 UNL     1      11.809  54.405  92.083  1.00  0.00     0.125 C 
ENDROOT
BRANCH   1   7
HETATM    7  C8  UNL     1      13.720  55.149  90.636  1.00  0.00     0.188 C 
HETATM    8  S1  UNL     1      15.071  56.124  90.634  1.00  0.00    -0.039 SA
BRANCH   7   9
HETATM    9  N2  UNL     1      13.256  54.773  89.376  1.00  0.00    -0.277 N 
ATOM     10  H2  UNL     1      12.280  54.488  89.283  1.00  0.00     0.189 HD
BRANCH   9  11
HETATM   11  N1  UNL     1      14.060  54.766  88.235  1.00  0.00    -0.309 N 
ATOM     12  H1  UNL     1      15.075  54.796  88.331  1.00  0.00     0.186 HD
BRANCH  11  13
HETATM   13  C7  UNL     1      13.541  54.724  87.079  1.00  0.00     0.120 C 
BRANCH  13  14
HETATM   14  C6  UNL     1      13.193  53.642  86.205  1.00  0.00     0.007 A 
HETATM   15  C5  UNL     1      13.939  53.164  85.152  1.00  0.00    -0.009 A 
HETATM   16  C4  UNL     1      15.170  53.727  84.901  1.00  0.00     0.016 A 
HETATM   17  C28 UNL     1      13.492  52.117  84.329  1.00  0.00     0.021 A 
HETATM   18  C3  UNL     1      15.916  53.230  83.838  1.00  0.00     0.037 A 
HETATM   19  C2  UNL     1      15.486  52.209  83.030  1.00  0.00     0.069 A 
HETATM   20  C29 UNL     1      14.260  51.648  83.281  1.00  0.00     0.053 A 
HETATM   21  C27 UNL     1      12.259  51.546  84.586  1.00  0.00     0.110 A 
HETATM   22  N7  UNL     1      11.532  52.004  85.606  1.00  0.00    -0.351 N 
HETATM   23  N8  UNL     1      11.871  50.590  83.821  1.00  0.00    -0.385 N 
HETATM   24  C26 UNL     1      11.958  52.991  86.378  1.00  0.00     0.103 A 
ATOM     25  H7  UNL     1      10.622  51.583  85.796  1.00  0.00     0.166 HD
ATOM     26  H82 UNL     1      10.962  50.169  84.010  1.00  0.00     0.157 HD
ATOM     27  H81 UNL     1      12.428  50.240  83.041  1.00  0.00     0.157 HD
BRANCH  19  28
HETATM   28  O1  UNL     1      16.297  51.773  81.986  1.00  0.00    -0.356 OA
HETATM   29  C1  UNL     1      15.895  52.060  80.657  1.00  0.00     0.210 C 
ENDBRANCH  19  28
ENDBRANCH  13  14
ENDBRANCH  11  13
ENDBRANCH   9  11
ENDBRANCH   7   9
ENDBRANCH   1   7
BRANCH   4  30
HETATM   30  C12 UNL     1      11.690  54.434  95.893  1.00  0.00     0.276 C 
BRANCH  30  31
HETATM   31  N4  UNL     1      11.221  53.185  96.451  1.00  0.00     0.086 N 
HETATM   32  C13 UNL     1      10.561  53.362  97.713  1.00  0.00     0.310 C 
BRANCH  31  33
HETATM   33  C14 UNL     1      12.346  52.298  96.600  1.00  0.00     0.302 C 
BRANCH  33  34
HETATM   34  C15 UNL     1      12.658  52.012  98.057  1.00  0.00     0.303 C 
BRANCH  34  35
HETATM   35  N5  UNL     1      13.927  52.544  98.453  1.00  0.00     0.094 N 
HETATM   36  C16 UNL     1      14.798  52.652  97.336  1.00  0.00     0.277 C 
HETATM   37  C17 UNL     1      16.056  51.795  97.431  1.00  0.00     0.069 C 
HETATM   38  C18 UNL     1      16.683  52.116  98.731  1.00  0.00    -0.042 A 
HETATM   39  C19 UNL     1      18.028  52.381  98.878  1.00  0.00     0.082 A 
HETATM   40  C22 UNL     1      15.865  52.148  99.839  1.00  0.00    -0.008 A 
HETATM   41  C20 UNL     1      18.512  52.671 100.144  1.00  0.00     0.245 A 
HETATM   42  O2  UNL     1      19.728  52.926 100.366  1.00  0.00    -0.268 OA
HETATM   43  N6  UNL     1      17.694  52.701 101.238  1.00  0.00    -0.333 N 
HETATM   44  C21 UNL     1      16.368  52.439 101.090  1.00  0.00     0.100 A 
ATOM     45  H6  UNL     1      18.075  52.917 102.159  1.00  0.00     0.168 HD
HETATM   46  C23 UNL     1      14.430  51.854  99.600  1.00  0.00     0.313 C 
ENDBRANCH  34  35
ENDBRANCH  33  34
ENDBRANCH  31  33
ENDBRANCH  30  31
ENDBRANCH   4  30
TORSDOF 11
ENDMDL
MODEL 2
REMARK VINA RESULT: -8.416507239      3.448      5.551
REMARK  11 active torsions:
REMARK  status: ('A' for Active; 'I' for Inactive)
REMARK    1  A    between atoms: O1_2  and  C2_3 
REMARK    2  A    between atoms: C6_7  and  C7_8 
REMARK    3  A    between atoms: C7_8  and  N1_9 
REMARK    4  A    between atoms: N1_9  and  N2_11 
REMARK    5  A    between atoms: N2_11  and  C8_13 
REMARK    6  A    between atoms: C8_13  and  N3_15 
REMARK    7  A    between atoms: C11_18  and  C12_19 
REMARK    8  A    between atoms: C12_19  and  N4_20 
REMARK    9  A    between atoms: N4_20  and  C14_22 
REMARK   10  A    between atoms: C14_22  and  C15_23 
REMARK   11  A    between atoms: C15_23  and  N5_24 
ROOT
HETATM    1  N3  UNL     1      13.413  54.349  91.720  1.00  0.00    -0.357 N 
HETATM    2  C9  UNL     1      14.309  54.629  92.865  1.00  0.00     0.125 C 
HETATM    3  C10 UNL     1      13.430  54.639  94.092  1.00  0.00     0.026 C 
HETATM    4  C11 UNL     1      13.018  53.182  94.285  1.00  0.00     0.017 C 
HETATM    5  C24 UNL     1      12.060  52.843  93.194  1.00  0.00     0.026 C 
HETATM    6  C25 UNL     1      12.335  53.440  91.873  1.00  0.00     0.125 C 
ENDROOT
BRANCH   1   7
HETATM    7  C8  UNL     1      13.720  55.048  90.533  1.00  0.00     0.188 C 
HETATM    8  S1  UNL     1      14.759  56.346  90.628  1.00  0.00    -0.039 SA
BRANCH   7   9
HETATM    9  N2  UNL     1      13.238  54.764  89.255  1.00  0.00    -0.277 N 
ATOM     10  H2  UNL     1      12.247  54.543  89.148  1.00  0.00     0.189 HD
BRANCH   9  11
HETATM   11  N1  UNL     1      14.043  54.768  88.114  1.00  0.00    -0.309 N 
ATOM     12  H1  UNL     1      15.057  54.832  88.211  1.00  0.00     0.186 HD
BRANCH  11  13
HETATM   13  C7  UNL     1      13.527  54.692  86.959  1.00  0.00     0.120 C 
BRANCH  13  14
HETATM   14  C6  UNL     1      13.193  53.586  86.110  1.00  0.00     0.007 A 
HETATM   15  C5  UNL     1      13.941  53.101  85.062  1.00  0.00    -0.009 A 
HETATM   16  C4  UNL     1      15.160  53.681  84.790  1.00  0.00     0.016 A 
HETATM   17  C28 UNL     1      13.509  52.029  84.263  1.00  0.00     0.021 A 
HETATM   18  C3  UNL     1      15.908  53.177  83.733  1.00  0.00     0.037 A 
HETATM   19  C2  UNL     1      15.492  52.132  82.948  1.00  0.00     0.069 A 
HETATM   20  C29 UNL     1      14.279  51.553  83.220  1.00  0.00     0.053 A 
HETATM   21  C27 UNL     1      12.289  51.441  84.541  1.00  0.00     0.110 A 
HETATM   22  N7  UNL     1      11.560  51.906  85.557  1.00  0.00    -0.351 N 
HETATM   23  N8  UNL     1      11.914  50.462  83.798  1.00  0.00    -0.385 N 
HETATM   24  C26 UNL     1      11.972  52.916  86.305  1.00  0.00     0.103 A 
ATOM     25  H7  UNL     1      10.660  51.471  85.762  1.00  0.00     0.166 HD
ATOM     26  H82 UNL     1      11.014  50.028  84.003  1.00  0.00     0.157 HD
ATOM     27  H81 UNL     1      12.472  50.106  83.022  1.00  0.00     0.157 HD
BRANCH  19  28
HETATM   28  O1  UNL     1      16.305  51.690  81.908  1.00  0.00    -0.356 OA
HETATM   29  C1  UNL     1      15.852  51.873  80.577  1.00  0.00     0.210 C 
ENDBRANCH  19  28
ENDBRANCH  13  14
ENDBRANCH  11  13
ENDBRANCH   9  11
ENDBRANCH   7   9
ENDBRANCH   1   7
BRANCH   4  30
HETATM   30  C12 UNL     1      12.407  52.974  95.656  1.00  0.00     0.276 C 
BRANCH  30  31
HETATM   31  N4  UNL     1      13.241  53.560  96.681  1.00  0.00     0.086 N 
HETATM   32  C13 UNL     1      14.189  52.625  97.216  1.00  0.00     0.310 C 
BRANCH  31  33
HETATM   33  C14 UNL     1      12.393  54.063  97.732  1.00  0.00     0.302 C 
BRANCH  33  34
HETATM   34  C15 UNL     1      12.198  55.564  97.637  1.00  0.00     0.303 C 
BRANCH  34  35
HETATM   35  N5  UNL     1      10.895  55.911  97.154  1.00  0.00     0.094 N 
HETATM   36  C16 UNL     1      10.964  57.025  96.274  1.00  0.00     0.277 C 
HETATM   37  C17 UNL     1      10.210  58.259  96.757  1.00  0.00     0.069 C 
HETATM   38  C18 UNL     1       8.836  57.812  97.074  1.00  0.00    -0.042 A 
HETATM   39  C19 UNL     1       7.707  58.482  96.656  1.00  0.00     0.082 A 
HETATM   40  C22 UNL     1       8.700  56.664  97.824  1.00  0.00    -0.008 A 
HETATM   41  C20 UNL     1       6.466  57.976  97.009  1.00  0.00     0.245 A 
HETATM   42  O2  UNL     1       5.384  58.527  96.668  1.00  0.00    -0.268 OA
HETATM   43  N6  UNL     1       6.340  56.837  97.754  1.00  0.00    -0.333 N 
HETATM   44  C21 UNL     1       7.455  56.177  98.164  1.00  0.00     0.100 A 
ATOM     45  H6  UNL     1       5.415  56.484  98.000  1.00  0.00     0.168 HD
HETATM   46  C23 UNL     1       9.962  55.999  98.234  1.00  0.00     0.313 C 
ENDBRANCH  34  35
ENDBRANCH  33  34
ENDBRANCH  31  33
ENDBRANCH  30  31
ENDBRANCH   4  30
TORSDOF 11
ENDMDL
MODEL 3
REMARK VINA RESULT: -8.363364872      4.551      6.307
REMARK  11 active torsions:
REMARK  status: ('A' for Active; 'I' for Inactive)
REMARK    1  A    between atoms: O1_2  and  C2_3 
REMARK    2  A    between atoms: C6_7  and  C7_8 
REMARK    3  A    between atoms: C7_8  and  N1_9 
REMARK    4  A    between atoms: N1_9  and  N2_11 
REMARK    5  A    between atoms: N2_11  and  C8_13 
REMARK    6  A    between atoms: C8_13  and  N3_15 
REMARK    7  A    between atoms: C11_18  and  C12_19 
REMARK    8  A    between atoms: C12_19  and  N4_20 
REMARK    9  A    between atoms: N4_20  and  C14_22 
REMARK   10  A    between atoms: C14_22  and  C15_23 
REMARK   11  A    between atoms: C15_23  and  N5_24 
ROOT
HETATM    1  N3  UNL     1      10.529  51.749  88.089  1.00  0.00    -0.357 N 
HETATM    2  C9  UNL     1      11.706  50.876  87.873  1.00  0.00     0.125 C 
HETATM    3  C10 UNL     1      12.138  50.408  89.241  1.00  0.00     0.026 C 
HETATM    4  C11 UNL     1      11.036  49.452  89.690  1.00  0.00     0.017 C 
HETATM    5  C24 UNL     1       9.827  50.272  89.986  1.00  0.00     0.026 C 
HETATM    6  C25 UNL     1       9.588  51.427  89.100  1.00  0.00     0.125 C 
ENDROOT
BRANCH   1   7
HETATM    7  C8  UNL     1      10.453  52.875  87.241  1.00  0.00     0.188 C 
HETATM    8  S1  UNL     1       9.271  52.901  86.068  1.00  0.00    -0.039 SA
BRANCH   7   9
HETATM    9  N2  UNL     1      11.280  53.998  87.277  1.00  0.00    -0.277 N 
ATOM     10  H2  UNL     1      11.201  54.633  88.072  1.00  0.00     0.189 HD
BRANCH   9  11
HETATM   11  N1  UNL     1      12.210  54.295  86.280  1.00  0.00    -0.309 N 
ATOM     12  H1  UNL     1      12.016  55.045  85.615  1.00  0.00     0.186 HD
BRANCH  11  13
HETATM   13  C7  UNL     1      13.294  53.644  86.191  1.00  0.00     0.120 C 
BRANCH  13  14
HETATM   14  C6  UNL     1      14.063  53.175  85.076  1.00  0.00     0.007 A 
HETATM   15  C5  UNL     1      13.707  52.182  84.193  1.00  0.00    -0.009 A 
HETATM   16  C4  UNL     1      12.479  51.576  84.333  1.00  0.00     0.016 A 
HETATM   17  C28 UNL     1      14.550  51.768  83.148  1.00  0.00     0.021 A 
HETATM   18  C3  UNL     1      12.129  50.579  83.430  1.00  0.00     0.037 A 
HETATM   19  C2  UNL     1      12.947  50.170  82.408  1.00  0.00     0.069 A 
HETATM   20  C29 UNL     1      14.171  50.774  82.268  1.00  0.00     0.053 A 
HETATM   21  C27 UNL     1      15.781  52.382  83.002  1.00  0.00     0.110 A 
HETATM   22  N7  UNL     1      16.131  53.346  83.854  1.00  0.00    -0.351 N 
HETATM   23  N8  UNL     1      16.535  51.988  82.039  1.00  0.00    -0.385 N 
HETATM   24  C26 UNL     1      15.333  53.731  84.837  1.00  0.00     0.103 A 
ATOM     25  H7  UNL     1      17.039  53.799  83.746  1.00  0.00     0.166 HD
ATOM     26  H82 UNL     1      17.442  52.441  81.931  1.00  0.00     0.157 HD
ATOM     27  H81 UNL     1      16.267  51.251  81.387  1.00  0.00     0.157 HD
BRANCH  19  28
HETATM   28  O1  UNL     1      12.519  49.162  81.548  1.00  0.00    -0.356 OA
HETATM   29  C1  UNL     1      12.309  49.486  80.185  1.00  0.00     0.210 C 
ENDBRANCH  19  28
ENDBRANCH  13  14
ENDBRANCH  11  13
ENDBRANCH   9  11
ENDBRANCH   7   9
ENDBRANCH   1   7
BRANCH   4  30
HETATM   30  C12 UNL     1      11.481  48.648  90.895  1.00  0.00     0.276 C 
BRANCH  30  31
HETATM   31  N4  UNL     1      12.486  49.367  91.646  1.00  0.00     0.086 N 
HETATM   32  C13 UNL     1      13.715  48.636  91.756  1.00  0.00     0.310 C 
BRANCH  31  33
HETATM   33  C14 UNL     1      11.961  49.656  92.957  1.00  0.00     0.302 C 
BRANCH  33  34
HETATM   34  C15 UNL     1      11.602  51.121  93.117  1.00  0.00     0.303 C 
BRANCH  34  35
HETATM   35  N5  UNL     1      12.580  51.985  92.528  1.00  0.00     0.094 N 
HETATM   36  C16 UNL     1      13.595  52.311  93.468  1.00  0.00     0.277 C 
HETATM   37  C17 UNL     1      13.690  53.795  93.805  1.00  0.00     0.069 C 
HETATM   38  C18 UNL     1      13.796  54.511  92.515  1.00  0.00    -0.042 A 
HETATM   39  C19 UNL     1      14.723  55.502  92.274  1.00  0.00     0.082 A 
HETATM   40  C22 UNL     1      12.916  54.153  91.518  1.00  0.00    -0.008 A 
HETATM   41  C20 UNL     1      14.736  56.108  91.027  1.00  0.00     0.245 A 
HETATM   42  O2  UNL     1      15.551  57.022  90.723  1.00  0.00    -0.268 OA
HETATM   43  N6  UNL     1      13.859  55.747  90.043  1.00  0.00    -0.333 N 
HETATM   44  C21 UNL     1      12.946  54.770  90.284  1.00  0.00     0.100 A 
ATOM     45  H6  UNL     1      13.889  56.209  89.134  1.00  0.00     0.168 HD
HETATM   46  C23 UNL     1      11.950  53.077  91.854  1.00  0.00     0.313 C 
ENDBRANCH  34  35
ENDBRANCH  33  34
ENDBRANCH  31  33
ENDBRANCH  30  31
ENDBRANCH   4  30
TORSDOF 11
ENDMDL
MODEL 4
REMARK VINA RESULT: -8.269618404      1.866      2.451
REMARK  11 active torsions:
REMARK  status: ('A' for Active; 'I' for Inactive)
REMARK    1  A    between atoms: O1_2  and  C2_3 
REMARK    2  A    between atoms: C6_7  and  C7_8 
REMARK    3  A    between atoms: C7_8  and  N1_9 
REMARK    4  A    between atoms: N1_9  and  N2_11 
REMARK    5  A    between atoms: N2_11  and  C8_13 
REMARK    6  A    between atoms: C8_13  and  N3_15 
REMARK    7  A    between atoms: C11_18  and  C12_19 
REMARK    8  A    between atoms: C12_19  and  N4_20 
REMARK    9  A    between atoms: N4_20  and  C14_22 
REMARK   10  A    between atoms: C14_22  and  C15_23 
REMARK   11  A    between atoms: C15_23  and  N5_24 
ROOT
HETATM    1  N3  UNL     1      13.066  54.648  91.287  1.00  0.00    -0.357 N 
HETATM    2  C9  UNL     1      11.732  54.788  91.915  1.00  0.00     0.125 C 
HETATM    3  C10 UNL     1      11.900  54.364  93.354  1.00  0.00     0.026 C 
HETATM    4  C11 UNL     1      12.735  55.471  93.990  1.00  0.00     0.017 C 
HETATM    5  C24 UNL     1      14.118  55.354  93.447  1.00  0.00     0.026 C 
HETATM    6  C25 UNL     1      14.233  54.966  92.028  1.00  0.00     0.125 C 
ENDROOT
BRANCH   1   7
HETATM    7  C8  UNL     1      13.055  54.182  89.955  1.00  0.00     0.188 C 
HETATM    8  S1  UNL     1      11.865  53.106  89.505  1.00  0.00    -0.039 SA
BRANCH   7   9
HETATM    9  N2  UNL     1      13.954  54.531  88.947  1.00  0.00    -0.277 N 
ATOM     10  H2  UNL     1      14.953  54.462  89.142  1.00  0.00     0.189 HD
BRANCH   9  11
HETATM   11  N1  UNL     1      13.554  54.970  87.683  1.00  0.00    -0.309 N 
ATOM     12  H1  UNL     1      12.874  55.726  87.602  1.00  0.00     0.186 HD
BRANCH  11  13
HETATM   13  C7  UNL     1      14.028  54.438  86.635  1.00  0.00     0.120 C 
BRANCH  13  14
HETATM   14  C6  UNL     1      13.531  53.434  85.739  1.00  0.00     0.007 A 
HETATM   15  C5  UNL     1      14.177  52.927  84.636  1.00  0.00    -0.009 A 
HETATM   16  C4  UNL     1      15.448  53.371  84.347  1.00  0.00     0.016 A 
HETATM   17  C28 UNL     1      13.590  51.965  83.797  1.00  0.00     0.021 A 
HETATM   18  C3  UNL     1      16.092  52.845  83.233  1.00  0.00     0.037 A 
HETATM   19  C2  UNL     1      15.524  51.907  82.409  1.00  0.00     0.069 A 
HETATM   20  C29 UNL     1      14.258  51.464  82.697  1.00  0.00     0.053 A 
HETATM   21  C27 UNL     1      12.317  51.512  84.091  1.00  0.00     0.110 A 
HETATM   22  N7  UNL     1      11.685  52.000  85.161  1.00  0.00    -0.351 N 
HETATM   23  N8  UNL     1      11.798  50.633  83.311  1.00  0.00    -0.385 N 
HETATM   24  C26 UNL     1      12.245  52.905  85.947  1.00  0.00     0.103 A 
ATOM     25  H7  UNL     1      10.746  51.665  85.379  1.00  0.00     0.166 HD
ATOM     26  H82 UNL     1      10.860  50.299  83.528  1.00  0.00     0.157 HD
ATOM     27  H81 UNL     1      12.281  50.260  82.494  1.00  0.00     0.157 HD
BRANCH  19  28
HETATM   28  O1  UNL     1      16.239  51.434  81.312  1.00  0.00    -0.356 OA
HETATM   29  C1  UNL     1      15.516  50.885  80.224  1.00  0.00     0.210 C 
ENDBRANCH  19  28
ENDBRANCH  13  14
ENDBRANCH  11  13
ENDBRANCH   9  11
ENDBRANCH   7   9
ENDBRANCH   1   7
BRANCH   4  30
HETATM   30  C12 UNL     1      12.712  55.359  95.501  1.00  0.00     0.276 C 
BRANCH  30  31
HETATM   31  N4  UNL     1      11.382  55.041  95.970  1.00  0.00     0.086 N 
HETATM   32  C13 UNL     1      10.655  56.204  96.388  1.00  0.00     0.310 C 
BRANCH  31  33
HETATM   33  C14 UNL     1      11.491  54.105  97.061  1.00  0.00     0.302 C 
BRANCH  33  34
HETATM   34  C15 UNL     1      11.403  52.666  96.588  1.00  0.00     0.303 C 
BRANCH  34  35
HETATM   35  N5  UNL     1      12.588  51.923  96.894  1.00  0.00     0.094 N 
HETATM   36  C16 UNL     1      13.120  52.318  98.151  1.00  0.00     0.277 C 
HETATM   37  C17 UNL     1      14.514  52.930  98.082  1.00  0.00     0.069 C 
HETATM   38  C18 UNL     1      15.356  51.971  97.335  1.00  0.00    -0.042 A 
HETATM   39  C19 UNL     1      16.609  51.577  97.753  1.00  0.00     0.082 A 
HETATM   40  C22 UNL     1      14.843  51.456  96.164  1.00  0.00    -0.008 A 
HETATM   41  C20 UNL     1      17.313  50.671  96.976  1.00  0.00     0.245 A 
HETATM   42  O2  UNL     1      18.464  50.259  97.286  1.00  0.00    -0.268 OA
HETATM   43  N6  UNL     1      16.797  50.165  95.816  1.00  0.00    -0.333 N 
HETATM   44  C21 UNL     1      15.561  50.555  95.406  1.00  0.00     0.100 A 
ATOM     45  H6  UNL     1      17.335  49.499  95.262  1.00  0.00     0.168 HD
HETATM   46  C23 UNL     1      13.488  51.927  95.783  1.00  0.00     0.313 C 
ENDBRANCH  34  35
ENDBRANCH  33  34
ENDBRANCH  31  33
ENDBRANCH  30  31
ENDBRANCH   4  30
TORSDOF 11
ENDMDL
MODEL 5
REMARK VINA RESULT: -7.977120236      3.897      6.182
REMARK  11 active torsions:
REMARK  status: ('A' for Active; 'I' for Inactive)
REMARK    1  A    between atoms: O1_2  and  C2_3 
REMARK    2  A    between atoms: C6_7  and  C7_8 
REMARK    3  A    between atoms: C7_8  and  N1_9 
REMARK    4  A    between atoms: N1_9  and  N2_11 
REMARK    5  A    between atoms: N2_11  and  C8_13 
REMARK    6  A    between atoms: C8_13  and  N3_15 
REMARK    7  A    between atoms: C11_18  and  C12_19 
REMARK    8  A    between atoms: C12_19  and  N4_20 
REMARK    9  A    between atoms: N4_20  and  C14_22 
REMARK   10  A    between atoms: C14_22  and  C15_23 
REMARK   11  A    between atoms: C15_23  and  N5_24 
ROOT
HETATM    1  N3  UNL     1      13.116  54.933  91.994  1.00  0.00    -0.357 N 
HETATM    2  C9  UNL     1      13.933  55.112  93.216  1.00  0.00     0.125 C 
HETATM    3  C10 UNL     1      12.976  55.552  94.298  1.00  0.00     0.026 C 
HETATM    4  C11 UNL     1      12.126  54.319  94.590  1.00  0.00     0.017 C 
HETATM    5  C24 UNL     1      11.228  54.110  93.419  1.00  0.00     0.026 C 
HETATM    6  C25 UNL     1      11.804  54.403  92.092  1.00  0.00     0.125 C 
ENDROOT
BRANCH   1   7
HETATM    7  C8  UNL     1      13.740  55.333  90.792  1.00  0.00     0.188 C 
HETATM    8  S1  UNL     1      15.211  56.107  90.887  1.00  0.00    -0.039 SA
BRANCH   7   9
HETATM    9  N2  UNL     1      13.248  55.145  89.501  1.00  0.00    -0.277 N 
ATOM     10  H2  UNL     1      12.251  55.286  89.336  1.00  0.00     0.189 HD
BRANCH   9  11
HETATM   11  N1  UNL     1      14.052  54.774  88.422  1.00  0.00    -0.309 N 
ATOM     12  H1  UNL     1      15.026  54.517  88.582  1.00  0.00     0.186 HD
BRANCH  11  13
HETATM   13  C7  UNL     1      13.584  54.754  87.244  1.00  0.00     0.120 C 
BRANCH  13  14
HETATM   14  C6  UNL     1      13.165  53.690  86.378  1.00  0.00     0.007 A 
HETATM   15  C5  UNL     1      13.853  53.194  85.295  1.00  0.00    -0.009 A 
HETATM   16  C4  UNL     1      15.092  53.716  84.999  1.00  0.00     0.016 A 
HETATM   17  C28 UNL     1      13.339  52.169  84.484  1.00  0.00     0.021 A 
HETATM   18  C3  UNL     1      15.779  53.201  83.906  1.00  0.00     0.037 A 
HETATM   19  C2  UNL     1      15.283  52.200  83.109  1.00  0.00     0.069 A 
HETATM   20  C29 UNL     1      14.049  51.680  83.405  1.00  0.00     0.053 A 
HETATM   21  C27 UNL     1      12.098  51.639  84.786  1.00  0.00     0.110 A 
HETATM   22  N7  UNL     1      11.426  52.115  85.837  1.00  0.00    -0.351 N 
HETATM   23  N8  UNL     1      11.647  50.701  84.032  1.00  0.00    -0.385 N 
HETATM   24  C26 UNL     1      11.916  53.081  86.596  1.00  0.00     0.103 A 
ATOM     25  H7  UNL     1      10.511  51.723  86.059  1.00  0.00     0.166 HD
ATOM     26  H82 UNL     1      10.733  50.310  84.254  1.00  0.00     0.157 HD
ATOM     27  H81 UNL     1      12.161  50.337  83.229  1.00  0.00     0.157 HD
BRANCH  19  28
HETATM   28  O1  UNL     1      16.038  51.744  82.032  1.00  0.00    -0.356 OA
HETATM   29  C1  UNL     1      15.899  52.405  80.786  1.00  0.00     0.210 C 
ENDBRANCH  19  28
ENDBRANCH  13  14
ENDBRANCH  11  13
ENDBRANCH   9  11
ENDBRANCH   7   9
ENDBRANCH   1   7
BRANCH   4  30
HETATM   30  C12 UNL     1      11.344  54.498  95.875  1.00  0.00     0.276 C 
BRANCH  30  31
HETATM   31  N4  UNL     1      12.183  55.059  96.911  1.00  0.00     0.086 N 
HETATM   32  C13 UNL     1      12.569  54.085  97.891  1.00  0.00     0.310 C 
BRANCH  31  33
HETATM   33  C14 UNL     1      11.473  56.143  97.541  1.00  0.00     0.302 C 
BRANCH  33  34
HETATM   34  C15 UNL     1      10.423  55.646  98.515  1.00  0.00     0.303 C 
BRANCH  34  35
HETATM   35  N5  UNL     1       9.118  56.153  98.210  1.00  0.00     0.094 N 
HETATM   36  C16 UNL     1       8.232  55.092  97.879  1.00  0.00     0.277 C 
HETATM   37  C17 UNL     1       7.684  55.147  96.458  1.00  0.00     0.069 C 
HETATM   38  C18 UNL     1       7.114  56.501  96.281  1.00  0.00    -0.042 A 
HETATM   39  C19 UNL     1       5.872  56.734  95.730  1.00  0.00     0.082 A 
HETATM   40  C22 UNL     1       7.878  57.569  96.697  1.00  0.00    -0.008 A 
HETATM   41  C20 UNL     1       5.434  58.043  95.611  1.00  0.00     0.245 A 
HETATM   42  O2  UNL     1       4.312  58.344  95.119  1.00  0.00    -0.268 OA
HETATM   43  N6  UNL     1       6.198  59.097  96.026  1.00  0.00    -0.333 N 
HETATM   44  C21 UNL     1       7.422  58.865  96.570  1.00  0.00     0.100 A 
ATOM     45  H6  UNL     1       5.853  60.052  95.928  1.00  0.00     0.168 HD
HETATM   46  C23 UNL     1       9.201  57.237  97.282  1.00  0.00     0.313 C 
ENDBRANCH  34  35
ENDBRANCH  33  34
ENDBRANCH  31  33
ENDBRANCH  30  31
ENDBRANCH   4  30
TORSDOF 11
ENDMDL
