MODEL 1
REMARK VINA RESULT: -7.322421896      0.000      0.000
REMARK  12 active torsions:
REMARK  status: ('A' for Active; 'I' for Inactive)
REMARK    1  A    between atoms: C1_4  and  C2_5 
REMARK    2  A    between atoms: C1_4  and  N6_40 
REMARK    3  A    between atoms: C4_9  and  N3_10 
REMARK    4  A    between atoms: C5_13  and  N4_14 
REMARK       I    between atoms: N4_14  and  C6_16 
REMARK    5  A    between atoms: C6_16  and  C7_18 
REMARK    6  A    between atoms: C14_25  and  S1_26 
REMARK    7  A    between atoms: S1_26  and  C15_27 
REMARK    8  A    between atoms: C15_27  and  C16_28 
REMARK    9  A    between atoms: C16_28  and  N5_29 
REMARK   10  A    between atoms: N5_29  and  C17_30 
REMARK   11  A    between atoms: C17_30  and  C18_31 
REMARK   12  A    between atoms: C18_31  and  O2_32 
ROOT
HETATM    1  N4  UNL     1      10.451  53.225  85.415  1.00  0.00    -0.318 N 
ATOM      2  H4  UNL     1       9.474  53.315  85.692  1.00  0.00     0.169 HD
HETATM    3  C6  UNL     1      11.323  53.540  86.440  1.00  0.00     0.228 C 
HETATM    4  O1  UNL     1      12.021  54.614  86.297  1.00  0.00    -0.273 OA
ENDROOT
BRANCH   3   5
HETATM    5  C7  UNL     1      11.533  52.775  87.674  1.00  0.00     0.097 C 
HETATM    6  C8  UNL     1      11.792  51.316  87.499  1.00  0.00     0.016 C 
HETATM    7  C9  UNL     1      10.424  50.724  87.551  1.00  0.00     0.007 C 
HETATM    8  C10 UNL     1       9.612  51.592  88.446  1.00  0.00     0.005 C 
HETATM    9  C11 UNL     1       8.322  51.976  87.808  1.00  0.00     0.006 C 
HETATM   10  C14 UNL     1      10.400  52.893  88.678  1.00  0.00     0.024 C 
HETATM   11  C12 UNL     1       8.128  53.442  87.976  1.00  0.00     0.002 C 
HETATM   12  C13 UNL     1       9.468  54.005  88.399  1.00  0.00     0.022 C 
BRANCH  10  13
HETATM   13  S1  UNL     1      11.072  52.783  90.325  1.00  0.00    -0.156 SA
BRANCH  13  14
HETATM   14  C15 UNL     1      11.575  54.281  91.105  1.00  0.00     0.102 C 
BRANCH  14  15
HETATM   15  C16 UNL     1      12.056  54.273  92.493  1.00  0.00     0.247 C 
BRANCH  15  16
HETATM   16  N5  UNL     1      13.252  54.943  92.846  1.00  0.00    -0.060 N 
HETATM   17  C19 UNL     1      13.178  55.563  94.167  1.00  0.00     0.263 C 
HETATM   18  C20 UNL     1      12.909  54.553  95.263  1.00  0.00     0.195 C 
HETATM   19  O3  UNL     1      13.793  53.505  95.295  1.00  0.00    -0.388 OA
HETATM   20  C21 UNL     1      13.885  52.914  94.062  1.00  0.00     0.195 C 
HETATM   21  C22 UNL     1      14.308  53.926  93.002  1.00  0.00     0.263 C 
BRANCH  16  22
HETATM   22  C17 UNL     1      13.678  55.890  91.881  1.00  0.00     0.263 C 
BRANCH  22  23
HETATM   23  C18 UNL     1      15.075  55.669  91.326  1.00  0.00     0.192 C 
BRANCH  23  24
HETATM   24  O2  UNL     1      15.510  56.962  90.928  1.00  0.00    -0.399 OA
ATOM     25  H2  UNL     1      16.446  56.960  91.091  1.00  0.00     0.209 HD
ENDBRANCH  23  24
ENDBRANCH  22  23
ENDBRANCH  16  22
ENDBRANCH  15  16
ENDBRANCH  14  15
ENDBRANCH  13  14
ENDBRANCH  10  13
ENDBRANCH   3   5
BRANCH   1  26
HETATM   26  C5  UNL     1      10.581  52.856  84.227  1.00  0.00     0.121 A 
HETATM   27  C4  UNL     1       9.815  53.184  83.133  1.00  0.00     0.133 A 
HETATM   28  N2  UNL     1       9.980  52.773  81.886  1.00  0.00    -0.349 N 
HETATM   29  C3  UNL     1      10.926  51.949  81.416  1.00  0.00     0.112 A 
ATOM     30  H2  UNL     1       9.309  53.125  81.203  1.00  0.00     0.167 HD
HETATM   31  C2  UNL     1      11.917  51.371  82.176  1.00  0.00     0.066 A 
HETATM   32  S2  UNL     1      11.877  51.780  83.825  1.00  0.00    -0.064 SA
BRANCH  27  33
HETATM   33  N3  UNL     1       8.800  53.999  83.324  1.00  0.00    -0.383 N 
ATOM     34  H32 UNL     1       8.996  55.000  83.344  1.00  0.00     0.157 HD
ATOM     35  H31 UNL     1       7.893  53.544  83.434  1.00  0.00     0.157 HD
ENDBRANCH  27  33
BRANCH  31  36
HETATM   36  C1  UNL     1      12.921  50.476  81.594  1.00  0.00     0.115 C 
HETATM   37  N1  UNL     1      12.534  49.367  81.070  1.00  0.00    -0.384 N 
ATOM     38  H12 UNL     1      11.536  49.151  81.080  1.00  0.00     0.157 HD
ATOM     39  H11 UNL     1      13.233  48.743  80.665  1.00  0.00     0.157 HD
BRANCH  36  40
HETATM   40  N6  UNL     1      14.294  50.774  81.581  1.00  0.00    -0.367 N 
HETATM   41  C23 UNL     1      14.856  51.352  82.806  1.00  0.00     0.124 C 
HETATM   42  C24 UNL     1      16.115  52.126  82.531  1.00  0.00     0.020 C 
HETATM   43  C25 UNL     1      16.099  52.805  81.194  1.00  0.00     0.003 C 
HETATM   44  C26 UNL     1      15.917  51.833  80.076  1.00  0.00     0.020 C 
HETATM   45  C27 UNL     1      15.196  50.567  80.488  1.00  0.00     0.124 C 
ENDBRANCH  36  40
ENDBRANCH  31  36
ENDBRANCH   1  26
TORSDOF 12
ENDMDL
MODEL 2
REMARK VINA RESULT: -7.256967920      3.494      5.768
REMARK  12 active torsions:
REMARK  status: ('A' for Active; 'I' for Inactive)
REMARK    1  A    between atoms: C1_4  and  C2_5 
REMARK    2  A    between atoms: C1_4  and  N6_40 
REMARK    3  A    between atoms: C4_9  and  N3_10 
REMARK    4  A    between atoms: C5_13  and  N4_14 
REMARK       I    between atoms: N4_14  and  C6_16 
REMARK    5  A    between atoms: C6_16  and  C7_18 
REMARK    6  A    between atoms: C14_25  and  S1_26 
REMARK    7  A    between atoms: S1_26  and  C15_27 
REMARK    8  A    between atoms: C15_27  and  C16_28 
REMARK    9  A    between atoms: C16_28  and  N5_29 
REMARK   10  A    between atoms: N5_29  and  C17_30 
REMARK   11  A    between atoms: C17_30  and  C18_31 
REMARK   12  A    between atoms: C18_31  and  O2_32 
ROOT
HETATM    1  N4  UNL     1      12.625  53.245  90.306  1.00  0.00    -0.318 N 
ATOM      2  H4  UNL     1      13.164  52.427  90.590  1.00  0.00     0.169 HD
HETATM    3  C6  UNL     1      11.762  53.680  91.293  1.00  0.00     0.228 C 
HETATM    4  O1  UNL     1      10.502  53.535  91.066  1.00  0.00    -0.273 OA
ENDROOT
BRANCH   3   5
HETATM    5  C7  UNL     1      12.137  54.287  92.575  1.00  0.00     0.097 C 
HETATM    6  C8  UNL     1      13.354  55.150  92.555  1.00  0.00     0.016 C 
HETATM    7  C9  UNL     1      14.450  54.189  92.870  1.00  0.00     0.007 C 
HETATM    8  C10 UNL     1      13.866  53.140  93.748  1.00  0.00     0.005 C 
HETATM    9  C11 UNL     1      14.183  51.773  93.250  1.00  0.00     0.006 C 
HETATM   10  C14 UNL     1      12.336  53.288  93.701  1.00  0.00     0.024 C 
HETATM   11  C12 UNL     1      12.933  50.966  93.253  1.00  0.00     0.002 C 
HETATM   12  C13 UNL     1      11.791  51.946  93.413  1.00  0.00     0.022 C 
BRANCH  10  13
HETATM   13  S1  UNL     1      11.860  54.050  95.241  1.00  0.00    -0.156 SA
BRANCH  13  14
HETATM   14  C15 UNL     1      11.125  55.651  95.169  1.00  0.00     0.102 C 
BRANCH  14  15
HETATM   15  C16 UNL     1      10.106  56.047  96.150  1.00  0.00     0.247 C 
BRANCH  15  16
HETATM   16  N5  UNL     1      10.344  57.118  97.044  1.00  0.00    -0.060 N 
HETATM   17  C19 UNL     1       9.350  58.183  96.919  1.00  0.00     0.263 C 
HETATM   18  C20 UNL     1       7.944  57.693  97.196  1.00  0.00     0.195 C 
HETATM   19  O3  UNL     1       7.793  57.061  98.404  1.00  0.00    -0.388 OA
HETATM   20  C21 UNL     1       8.722  56.064  98.546  1.00  0.00     0.195 C 
HETATM   21  C22 UNL     1      10.139  56.616  98.415  1.00  0.00     0.263 C 
BRANCH  16  22
HETATM   22  C17 UNL     1      11.653  57.655  96.952  1.00  0.00     0.263 C 
BRANCH  22  23
HETATM   23  C18 UNL     1      11.760  58.989  96.232  1.00  0.00     0.192 C 
BRANCH  23  24
HETATM   24  O2  UNL     1      12.705  59.729  96.991  1.00  0.00    -0.399 OA
ATOM     25  H2  UNL     1      13.537  59.566  96.561  1.00  0.00     0.209 HD
ENDBRANCH  23  24
ENDBRANCH  22  23
ENDBRANCH  16  22
ENDBRANCH  15  16
ENDBRANCH  14  15
ENDBRANCH  13  14
ENDBRANCH  10  13
ENDBRANCH   3   5
BRANCH   1  26
HETATM   26  C5  UNL     1      12.901  53.621  89.144  1.00  0.00     0.121 A 
HETATM   27  C4  UNL     1      13.593  54.738  88.740  1.00  0.00     0.133 A 
HETATM   28  N2  UNL     1      13.866  55.107  87.499  1.00  0.00    -0.349 N 
HETATM   29  C3  UNL     1      13.529  54.476  86.366  1.00  0.00     0.112 A 
ATOM     30  H2  UNL     1      14.395  55.973  87.392  1.00  0.00     0.167 HD
HETATM   31  C2  UNL     1      12.818  53.300  86.300  1.00  0.00     0.066 A 
HETATM   32  S2  UNL     1      12.368  52.656  87.808  1.00  0.00    -0.064 SA
BRANCH  27  33
HETATM   33  N3  UNL     1      14.046  55.544  89.676  1.00  0.00    -0.383 N 
ATOM     34  H32 UNL     1      14.883  55.254  90.184  1.00  0.00     0.157 HD
ATOM     35  H31 UNL     1      13.509  56.401  89.807  1.00  0.00     0.157 HD
ENDBRANCH  27  33
BRANCH  31  36
HETATM   36  C1  UNL     1      12.483  52.664  85.023  1.00  0.00     0.115 C 
HETATM   37  N1  UNL     1      11.293  52.805  84.554  1.00  0.00    -0.384 N 
ATOM     38  H12 UNL     1      10.625  53.358  85.092  1.00  0.00     0.157 HD
ATOM     39  H11 UNL     1      11.059  52.362  83.665  1.00  0.00     0.157 HD
BRANCH  36  40
HETATM   40  N6  UNL     1      13.403  51.904  84.284  1.00  0.00    -0.367 N 
HETATM   41  C23 UNL     1      14.746  52.470  84.119  1.00  0.00     0.124 C 
HETATM   42  C24 UNL     1      15.444  51.909  82.912  1.00  0.00     0.020 C 
HETATM   43  C25 UNL     1      14.501  51.604  81.786  1.00  0.00     0.003 C 
HETATM   44  C26 UNL     1      13.448  50.626  82.189  1.00  0.00     0.020 C 
HETATM   45  C27 UNL     1      13.156  50.631  83.674  1.00  0.00     0.124 C 
ENDBRANCH  36  40
ENDBRANCH  31  36
ENDBRANCH   1  26
TORSDOF 12
ENDMDL
MODEL 3
REMARK VINA RESULT: -6.971421060      2.324      3.398
REMARK  12 active torsions:
REMARK  status: ('A' for Active; 'I' for Inactive)
REMARK    1  A    between atoms: C1_4  and  C2_5 
REMARK    2  A    between atoms: C1_4  and  N6_40 
REMARK    3  A    between atoms: C4_9  and  N3_10 
REMARK    4  A    between atoms: C5_13  and  N4_14 
REMARK       I    between atoms: N4_14  and  C6_16 
REMARK    5  A    between atoms: C6_16  and  C7_18 
REMARK    6  A    between atoms: C14_25  and  S1_26 
REMARK    7  A    between atoms: S1_26  and  C15_27 
REMARK    8  A    between atoms: C15_27  and  C16_28 
REMARK    9  A    between atoms: C16_28  and  N5_29 
REMARK   10  A    between atoms: N5_29  and  C17_30 
REMARK   11  A    between atoms: C17_30  and  C18_31 
REMARK   12  A    between atoms: C18_31  and  O2_32 
ROOT
HETATM    1  N4  UNL     1      12.026  53.717  88.300  1.00  0.00    -0.318 N 
ATOM      2  H4  UNL     1      11.158  54.235  88.170  1.00  0.00     0.169 HD
HETATM    3  C6  UNL     1      12.282  53.438  89.629  1.00  0.00     0.228 C 
HETATM    4  O1  UNL     1      13.283  54.046  90.166  1.00  0.00    -0.273 OA
ENDROOT
BRANCH   3   5
HETATM    5  C7  UNL     1      11.527  52.522  90.490  1.00  0.00     0.097 C 
HETATM    6  C8  UNL     1      11.007  51.289  89.829  1.00  0.00     0.016 C 
HETATM    7  C9  UNL     1       9.655  51.707  89.357  1.00  0.00     0.007 C 
HETATM    8  C10 UNL     1       9.158  52.726  90.320  1.00  0.00     0.005 C 
HETATM    9  C11 UNL     1       8.667  53.945  89.618  1.00  0.00     0.006 C 
HETATM   10  C14 UNL     1      10.345  53.163  91.195  1.00  0.00     0.024 C 
HETATM   11  C12 UNL     1       9.243  55.142  90.289  1.00  0.00     0.002 C 
HETATM   12  C13 UNL     1      10.365  54.639  91.172  1.00  0.00     0.022 C 
BRANCH  10  13
HETATM   13  S1  UNL     1      10.117  52.373  92.777  1.00  0.00    -0.156 SA
BRANCH  13  14
HETATM   14  C15 UNL     1      11.410  52.531  93.964  1.00  0.00     0.102 C 
BRANCH  14  15
HETATM   15  C16 UNL     1      11.528  53.747  94.780  1.00  0.00     0.247 C 
BRANCH  15  16
HETATM   16  N5  UNL     1      12.783  54.378  94.955  1.00  0.00    -0.060 N 
HETATM   17  C19 UNL     1      12.663  55.828  95.106  1.00  0.00     0.263 C 
HETATM   18  C20 UNL     1      11.814  56.214  96.299  1.00  0.00     0.195 C 
HETATM   19  O3  UNL     1      12.221  55.659  97.485  1.00  0.00    -0.388 OA
HETATM   20  C21 UNL     1      12.348  54.300  97.364  1.00  0.00     0.195 C 
HETATM   21  C22 UNL     1      13.330  53.942  96.252  1.00  0.00     0.263 C 
BRANCH  16  22
HETATM   22  C17 UNL     1      13.722  54.065  93.941  1.00  0.00     0.263 C 
BRANCH  22  23
HETATM   23  C18 UNL     1      14.126  55.226  93.048  1.00  0.00     0.192 C 
BRANCH  23  24
HETATM   24  O2  UNL     1      15.068  54.669  92.142  1.00  0.00    -0.399 OA
ATOM     25  H2  UNL     1      14.543  54.350  91.417  1.00  0.00     0.209 HD
ENDBRANCH  23  24
ENDBRANCH  22  23
ENDBRANCH  16  22
ENDBRANCH  15  16
ENDBRANCH  14  15
ENDBRANCH  13  14
ENDBRANCH  10  13
ENDBRANCH   3   5
BRANCH   1  26
HETATM   26  C5  UNL     1      12.612  53.482  87.219  1.00  0.00     0.121 A 
HETATM   27  C4  UNL     1      13.605  54.205  86.602  1.00  0.00     0.133 A 
HETATM   28  N2  UNL     1      14.204  53.928  85.454  1.00  0.00    -0.349 N 
HETATM   29  C3  UNL     1      13.974  52.886  84.644  1.00  0.00     0.112 A 
ATOM     30  H2  UNL     1      14.924  54.584  85.151  1.00  0.00     0.167 HD
HETATM   31  C2  UNL     1      13.046  51.896  84.876  1.00  0.00     0.066 A 
HETATM   32  S2  UNL     1      12.163  52.074  86.318  1.00  0.00    -0.064 SA
BRANCH  27  33
HETATM   33  N3  UNL     1      14.025  55.298  87.202  1.00  0.00    -0.383 N 
ATOM     34  H32 UNL     1      13.903  56.183  86.710  1.00  0.00     0.157 HD
ATOM     35  H31 UNL     1      14.440  55.154  88.123  1.00  0.00     0.157 HD
ENDBRANCH  27  33
BRANCH  31  36
HETATM   36  C1  UNL     1      12.847  50.783  83.944  1.00  0.00     0.115 C 
HETATM   37  N1  UNL     1      12.667  49.601  84.419  1.00  0.00    -0.384 N 
ATOM     38  H12 UNL     1      12.672  49.483  85.433  1.00  0.00     0.157 HD
ATOM     39  H11 UNL     1      12.529  48.826  83.770  1.00  0.00     0.157 HD
BRANCH  36  40
HETATM   40  N6  UNL     1      12.841  50.946  82.549  1.00  0.00    -0.367 N 
HETATM   41  C23 UNL     1      11.633  51.533  81.958  1.00  0.00     0.124 C 
HETATM   42  C24 UNL     1      11.485  51.162  80.509  1.00  0.00     0.020 C 
HETATM   43  C25 UNL     1      12.007  49.789  80.204  1.00  0.00     0.003 C 
HETATM   44  C26 UNL     1      13.451  49.649  80.557  1.00  0.00     0.020 C 
HETATM   45  C27 UNL     1      13.899  50.596  81.650  1.00  0.00     0.124 C 
ENDBRANCH  36  40
ENDBRANCH  31  36
ENDBRANCH   1  26
TORSDOF 12
ENDMDL
MODEL 4
REMARK VINA RESULT: -6.949744116      3.415      4.850
REMARK  12 active torsions:
REMARK  status: ('A' for Active; 'I' for Inactive)
REMARK    1  A    between atoms: C1_4  and  C2_5 
REMARK    2  A    between atoms: C1_4  and  N6_40 
REMARK    3  A    between atoms: C4_9  and  N3_10 
REMARK    4  A    between atoms: C5_13  and  N4_14 
REMARK       I    between atoms: N4_14  and  C6_16 
REMARK    5  A    between atoms: C6_16  and  C7_18 
REMARK    6  A    between atoms: C14_25  and  S1_26 
REMARK    7  A    between atoms: S1_26  and  C15_27 
REMARK    8  A    between atoms: C15_27  and  C16_28 
REMARK    9  A    between atoms: C16_28  and  N5_29 
REMARK   10  A    between atoms: N5_29  and  C17_30 
REMARK   11  A    between atoms: C17_30  and  C18_31 
REMARK   12  A    between atoms: C18_31  and  O2_32 
ROOT
HETATM    1  N4  UNL     1      10.203  53.134  89.633  1.00  0.00    -0.318 N 
ATOM      2  H4  UNL     1       9.838  52.340  90.158  1.00  0.00     0.169 HD
HETATM    3  C6  UNL     1      10.474  54.223  90.439  1.00  0.00     0.228 C 
HETATM    4  O1  UNL     1       9.719  55.256  90.289  1.00  0.00    -0.273 OA
ENDROOT
BRANCH   3   5
HETATM    5  C7  UNL     1      11.531  54.318  91.451  1.00  0.00     0.097 C 
HETATM    6  C8  UNL     1      12.766  53.525  91.179  1.00  0.00     0.016 C 
HETATM    7  C9  UNL     1      12.475  52.218  91.834  1.00  0.00     0.007 C 
HETATM    8  C10 UNL     1      11.593  52.504  92.997  1.00  0.00     0.005 C 
HETATM    9  C11 UNL     1      10.392  51.623  93.001  1.00  0.00     0.006 C 
HETATM   10  C14 UNL     1      11.085  53.949  92.854  1.00  0.00     0.024 C 
HETATM   11  C12 UNL     1       9.187  52.464  93.238  1.00  0.00     0.002 C 
HETATM   12  C13 UNL     1       9.618  53.898  93.020  1.00  0.00     0.022 C 
BRANCH  10  13
HETATM   13  S1  UNL     1      12.007  54.921  94.030  1.00  0.00    -0.156 SA
BRANCH  13  14
HETATM   14  C15 UNL     1      11.403  54.994  95.684  1.00  0.00     0.102 C 
BRANCH  14  15
HETATM   15  C16 UNL     1      10.345  55.947  96.049  1.00  0.00     0.247 C 
BRANCH  15  16
HETATM   16  N5  UNL     1      10.628  57.049  96.891  1.00  0.00    -0.060 N 
HETATM   17  C19 UNL     1       9.564  58.052  96.877  1.00  0.00     0.263 C 
HETATM   18  C20 UNL     1       8.235  57.488  97.333  1.00  0.00     0.195 C 
HETATM   19  O3  UNL     1       8.272  56.874  98.559  1.00  0.00    -0.388 OA
HETATM   20  C21 UNL     1       9.269  55.936  98.598  1.00  0.00     0.195 C 
HETATM   21  C22 UNL     1      10.623  56.565  98.284  1.00  0.00     0.263 C 
BRANCH  16  22
HETATM   22  C17 UNL     1      11.881  57.657  96.630  1.00  0.00     0.263 C 
BRANCH  22  23
HETATM   23  C18 UNL     1      11.824  59.128  96.254  1.00  0.00     0.192 C 
BRANCH  23  24
HETATM   24  O2  UNL     1      12.886  59.726  96.984  1.00  0.00    -0.399 OA
ATOM     25  H2  UNL     1      12.617  60.629  97.102  1.00  0.00     0.209 HD
ENDBRANCH  23  24
ENDBRANCH  22  23
ENDBRANCH  16  22
ENDBRANCH  15  16
ENDBRANCH  14  15
ENDBRANCH  13  14
ENDBRANCH  10  13
ENDBRANCH   3   5
BRANCH   1  26
HETATM   26  C5  UNL     1      10.301  52.895  88.408  1.00  0.00     0.121 A 
HETATM   27  C4  UNL     1       9.389  53.131  87.407  1.00  0.00     0.133 A 
HETATM   28  N2  UNL     1       9.525  52.865  86.118  1.00  0.00    -0.349 N 
HETATM   29  C3  UNL     1      10.579  52.307  85.507  1.00  0.00     0.112 A 
ATOM     30  H2  UNL     1       8.737  53.113  85.521  1.00  0.00     0.167 HD
HETATM   31  C2  UNL     1      11.735  51.905  86.137  1.00  0.00     0.066 A 
HETATM   32  S2  UNL     1      11.756  52.166  87.816  1.00  0.00    -0.064 SA
BRANCH  27  33
HETATM   33  N3  UNL     1       8.245  53.686  87.746  1.00  0.00    -0.383 N 
ATOM     34  H32 UNL     1       7.975  54.543  87.262  1.00  0.00     0.157 HD
ATOM     35  H31 UNL     1       7.724  53.196  88.473  1.00  0.00     0.157 HD
ENDBRANCH  27  33
BRANCH  31  36
HETATM   36  C1  UNL     1      12.850  51.300  85.404  1.00  0.00     0.115 C 
HETATM   37  N1  UNL     1      13.168  50.079  85.656  1.00  0.00    -0.384 N 
ATOM     38  H12 UNL     1      12.629  49.576  86.361  1.00  0.00     0.157 HD
ATOM     39  H11 UNL     1      13.945  49.658  85.145  1.00  0.00     0.157 HD
BRANCH  36  40
HETATM   40  N6  UNL     1      13.592  51.993  84.433  1.00  0.00    -0.367 N 
HETATM   41  C23 UNL     1      13.653  51.394  83.096  1.00  0.00     0.124 C 
HETATM   42  C24 UNL     1      14.859  51.861  82.330  1.00  0.00     0.020 C 
HETATM   43  C25 UNL     1      16.047  52.110  83.211  1.00  0.00     0.003 C 
HETATM   44  C26 UNL     1      15.760  53.131  84.262  1.00  0.00     0.020 C 
HETATM   45  C27 UNL     1      14.293  53.228  84.624  1.00  0.00     0.124 C 
ENDBRANCH  36  40
ENDBRANCH  31  36
ENDBRANCH   1  26
TORSDOF 12
ENDMDL
MODEL 5
REMARK VINA RESULT: -6.940457261      2.985      4.172
REMARK  12 active torsions:
REMARK  status: ('A' for Active; 'I' for Inactive)
REMARK    1  A    between atoms: C1_4  and  C2_5 
REMARK    2  A    between atoms: C1_4  and  N6_40 
REMARK    3  A    between atoms: C4_9  and  N3_10 
REMARK    4  A    between atoms: C5_13  and  N4_14 
REMARK       I    between atoms: N4_14  and  C6_16 
REMARK    5  A    between atoms: C6_16  and  C7_18 
REMARK    6  A    between atoms: C14_25  and  S1_26 
REMARK    7  A    between atoms: S1_26  and  C15_27 
REMARK    8  A    between atoms: C15_27  and  C16_28 
REMARK    9  A    between atoms: C16_28  and  N5_29 
REMARK   10  A    between atoms: N5_29  and  C17_30 
REMARK   11  A    between atoms: C17_30  and  C18_31 
REMARK   12  A    between atoms: C18_31  and  O2_32 
ROOT
HETATM    1  N4  UNL     1      11.771  52.605  88.564  1.00  0.00    -0.318 N 
ATOM      2  H4  UNL     1      10.775  52.813  88.629  1.00  0.00     0.169 HD
HETATM    3  C6  UNL     1      12.515  53.276  89.515  1.00  0.00     0.228 C 
HETATM    4  O1  UNL     1      13.307  54.198  89.086  1.00  0.00    -0.273 OA
ENDROOT
BRANCH   3   5
HETATM    5  C7  UNL     1      12.493  53.046  90.963  1.00  0.00     0.097 C 
HETATM    6  C8  UNL     1      12.167  51.656  91.396  1.00  0.00     0.016 C 
HETATM    7  C9  UNL     1      10.683  51.688  91.537  1.00  0.00     0.007 C 
HETATM    8  C10 UNL     1      10.317  53.073  91.938  1.00  0.00     0.005 C 
HETATM    9  C11 UNL     1       9.233  53.622  91.076  1.00  0.00     0.006 C 
HETATM   10  C14 UNL     1      11.552  53.964  91.723  1.00  0.00     0.024 C 
HETATM   11  C12 UNL     1       9.622  54.991  90.640  1.00  0.00     0.002 C 
HETATM   12  C13 UNL     1      11.098  55.133  90.943  1.00  0.00     0.022 C 
BRANCH  10  13
HETATM   13  S1  UNL     1      12.231  54.276  93.343  1.00  0.00    -0.156 SA
BRANCH  13  14
HETATM   14  C15 UNL     1      11.156  54.957  94.562  1.00  0.00     0.102 C 
BRANCH  14  15
HETATM   15  C16 UNL     1      11.583  55.043  95.966  1.00  0.00     0.247 C 
BRANCH  15  16
HETATM   16  N5  UNL     1      11.385  56.232  96.708  1.00  0.00    -0.060 N 
HETATM   17  C19 UNL     1       9.974  56.600  96.809  1.00  0.00     0.263 C 
HETATM   18  C20 UNL     1       9.146  55.527  97.483  1.00  0.00     0.195 C 
HETATM   19  O3  UNL     1       9.611  55.144  98.715  1.00  0.00    -0.388 OA
HETATM   20  C21 UNL     1      10.936  54.803  98.645  1.00  0.00     0.195 C 
HETATM   21  C22 UNL     1      11.770  55.960  98.105  1.00  0.00     0.263 C 
BRANCH  16  22
HETATM   22  C17 UNL     1      12.147  57.329  96.236  1.00  0.00     0.263 C 
BRANCH  22  23
HETATM   23  C18 UNL     1      11.479  58.688  96.363  1.00  0.00     0.192 C 
BRANCH  23  24
HETATM   24  O2  UNL     1      12.526  59.566  96.752  1.00  0.00    -0.399 OA
ATOM     25  H2  UNL     1      12.325  59.793  97.653  1.00  0.00     0.209 HD
ENDBRANCH  23  24
ENDBRANCH  22  23
ENDBRANCH  16  22
ENDBRANCH  15  16
ENDBRANCH  14  15
ENDBRANCH  13  14
ENDBRANCH  10  13
ENDBRANCH   3   5
BRANCH   1  26
HETATM   26  C5  UNL     1      12.034  51.801  87.641  1.00  0.00     0.121 A 
HETATM   27  C4  UNL     1      12.157  50.433  87.698  1.00  0.00     0.133 A 
HETATM   28  N2  UNL     1      12.437  49.610  86.700  1.00  0.00    -0.349 N 
HETATM   29  C3  UNL     1      12.663  49.929  85.419  1.00  0.00     0.112 A 
ATOM     30  H2  UNL     1      12.487  48.619  86.934  1.00  0.00     0.167 HD
HETATM   31  C2  UNL     1      12.642  51.206  84.907  1.00  0.00     0.066 A 
HETATM   32  S2  UNL     1      12.294  52.420  86.045  1.00  0.00    -0.064 SA
BRANCH  27  33
HETATM   33  N3  UNL     1      11.977  49.854  88.866  1.00  0.00    -0.383 N 
ATOM     34  H32 UNL     1      12.761  49.333  89.260  1.00  0.00     0.157 HD
ATOM     35  H31 UNL     1      11.052  49.986  89.277  1.00  0.00     0.157 HD
ENDBRANCH  27  33
BRANCH  31  36
HETATM   36  C1  UNL     1      12.900  51.482  83.492  1.00  0.00     0.115 C 
HETATM   37  N1  UNL     1      11.910  51.787  82.729  1.00  0.00    -0.384 N 
ATOM     38  H12 UNL     1      10.977  51.824  83.141  1.00  0.00     0.157 HD
ATOM     39  H11 UNL     1      12.089  51.979  81.743  1.00  0.00     0.157 HD
BRANCH  36  40
HETATM   40  N6  UNL     1      14.184  51.431  82.925  1.00  0.00    -0.367 N 
HETATM   41  C23 UNL     1      15.260  52.099  83.665  1.00  0.00     0.124 C 
HETATM   42  C24 UNL     1      16.406  52.472  82.768  1.00  0.00     0.020 C 
HETATM   43  C25 UNL     1      15.964  52.841  81.383  1.00  0.00     0.003 C 
HETATM   44  C26 UNL     1      15.219  51.729  80.720  1.00  0.00     0.020 C 
HETATM   45  C27 UNL     1      14.543  50.790  81.696  1.00  0.00     0.124 C 
ENDBRANCH  36  40
ENDBRANCH  31  36
ENDBRANCH   1  26
TORSDOF 12
ENDMDL
