MODEL 1
REMARK VINA RESULT: -7.576752331      0.000      0.000
REMARK  8 active torsions:
REMARK  status: ('A' for Active; 'I' for Inactive)
REMARK    1  A    between atoms: C2_3  and  C3_4 
REMARK       I    between atoms: C3_4  and  N2_6 
REMARK    2  A    between atoms: N2_6  and  C4_8 
REMARK    3  A    between atoms: C7_11  and  S1_12 
REMARK    4  A    between atoms: S1_12  and  N3_15 
REMARK    5  A    between atoms: N3_15  and  C8_16 
REMARK    6  A    between atoms: C15_25  and  N5_26 
REMARK    7  A    between atoms: N5_26  and  S2_28 
REMARK    8  A    between atoms: S2_28  and  C16_31 
ROOT
HETATM    1  N1  UNL     1      15.470  56.980  91.005  1.00  0.00    -0.197 NA
HETATM    2  C1  UNL     1      14.408  56.535  90.837  1.00  0.00     0.068 C 
HETATM    3  C2  UNL     1      13.088  55.999  90.648  1.00  0.00     0.226 C 
ENDROOT
BRANCH   3   4
HETATM    4  C3  UNL     1      12.765  55.071  91.814  1.00  0.00     0.235 C 
HETATM    5  O1  UNL     1      11.793  54.333  91.684  1.00  0.00    -0.272 OA
HETATM    6  N2  UNL     1      13.632  55.169  92.919  1.00  0.00    -0.326 N 
ATOM      7  H2  UNL     1      14.394  55.843  92.845  1.00  0.00     0.169 HD
BRANCH   6   8
HETATM    8  C4  UNL     1      13.554  54.432  94.117  1.00  0.00     0.045 A 
HETATM    9  C5  UNL     1      13.927  53.106  94.201  1.00  0.00     0.032 A 
HETATM   10  C6  UNL     1      13.807  52.444  95.406  1.00  0.00     0.029 A 
HETATM   11  C7  UNL     1      13.336  53.021  96.542  1.00  0.00     0.104 A 
HETATM   12  C13 UNL     1      12.959  54.345  96.470  1.00  0.00     0.003 A 
HETATM   13  C14 UNL     1      12.481  54.940  97.618  1.00  0.00     0.044 A 
HETATM   14  C24 UNL     1      13.060  55.068  95.269  1.00  0.00     0.003 A 
HETATM   15  C15 UNL     1      12.084  56.288  97.615  1.00  0.00     0.043 A 
HETATM   16  C22 UNL     1      12.196  56.958  96.436  1.00  0.00     0.031 A 
HETATM   17  C23 UNL     1      12.676  56.384  95.251  1.00  0.00     0.017 A 
BRANCH  11  18
HETATM   18  S1  UNL     1      13.222  52.163  98.078  1.00  0.00     0.326 S 
HETATM   19  O2  UNL     1      11.886  52.525  98.742  1.00  0.00    -0.186 OA
HETATM   20  O3  UNL     1      12.979  50.696  97.669  1.00  0.00    -0.186 OA
BRANCH  18  21
HETATM   21  N3  UNL     1      14.511  52.246  99.035  1.00  0.00    -0.319 NA
BRANCH  21  22
HETATM   22  C8  UNL     1      15.474  52.320  99.706  1.00  0.00     0.124 A 
HETATM   23  C9  UNL     1      16.753  52.049  99.209  1.00  0.00     0.062 A 
HETATM   24  C10 UNL     1      17.882  52.132  99.964  1.00  0.00     0.091 A 
HETATM   25  N4  UNL     1      17.756  52.493 101.267  1.00  0.00    -0.375 N 
HETATM   26  C11 UNL     1      16.574  52.771 101.835  1.00  0.00     0.091 A 
ATOM     27  H4  UNL     1      18.599  52.557 101.838  1.00  0.00     0.164 HD
HETATM   28  C12 UNL     1      15.447  52.685 101.066  1.00  0.00     0.062 A 
ENDBRANCH  21  22
ENDBRANCH  18  21
ENDBRANCH  11  18
BRANCH  15  29
HETATM   29  N5  UNL     1      11.592  56.865  98.811  1.00  0.00    -0.281 N 
ATOM     30  H5  UNL     1      12.217  57.445  99.372  1.00  0.00     0.179 HD
BRANCH  29  31
HETATM   31  S2  UNL     1       9.994  56.625  99.344  1.00  0.00     0.263 S 
HETATM   32  O4  UNL     1       9.802  57.256 100.723  1.00  0.00    -0.200 OA
HETATM   33  O5  UNL     1       9.776  55.121  99.548  1.00  0.00    -0.200 OA
BRANCH  31  34
HETATM   34  C16 UNL     1       8.739  57.214  98.334  1.00  0.00     0.079 A 
HETATM   35  C17 UNL     1       8.963  58.314  97.516  1.00  0.00     0.025 A 
HETATM   36  C18 UNL     1       7.920  58.811  96.729  1.00  0.00     0.002 A 
HETATM   37  C19 UNL     1       6.668  58.248  96.735  1.00  0.00     0.000 A 
HETATM   38  C20 UNL     1       6.432  57.160  97.541  1.00  0.00     0.002 A 
HETATM   39  C21 UNL     1       7.474  56.657  98.331  1.00  0.00     0.025 A 
ENDBRANCH  31  34
ENDBRANCH  29  31
ENDBRANCH  15  29
ENDBRANCH   6   8
ENDBRANCH   3   4
TORSDOF 8
ENDMDL
MODEL 2
REMARK VINA RESULT: -7.354016562      6.400     11.136
REMARK  8 active torsions:
REMARK  status: ('A' for Active; 'I' for Inactive)
REMARK    1  A    between atoms: C2_3  and  C3_4 
REMARK       I    between atoms: C3_4  and  N2_6 
REMARK    2  A    between atoms: N2_6  and  C4_8 
REMARK    3  A    between atoms: C7_11  and  S1_12 
REMARK    4  A    between atoms: S1_12  and  N3_15 
REMARK    5  A    between atoms: N3_15  and  C8_16 
REMARK    6  A    between atoms: C15_25  and  N5_26 
REMARK    7  A    between atoms: N5_26  and  S2_28 
REMARK    8  A    between atoms: S2_28  and  C16_31 
ROOT
HETATM    1  N1  UNL     1       8.619  48.545  92.114  1.00  0.00    -0.197 NA
HETATM    2  C1  UNL     1       9.531  47.936  91.727  1.00  0.00     0.068 C 
HETATM    3  C2  UNL     1      10.673  47.197  91.262  1.00  0.00     0.226 C 
ENDROOT
BRANCH   3   4
HETATM    4  C3  UNL     1      11.431  48.053  90.253  1.00  0.00     0.235 C 
HETATM    5  O1  UNL     1      12.591  47.730  90.011  1.00  0.00    -0.272 OA
HETATM    6  N2  UNL     1      10.702  49.126  89.706  1.00  0.00    -0.326 N 
ATOM      7  H2  UNL     1       9.741  49.237  90.028  1.00  0.00     0.169 HD
BRANCH   6   8
HETATM    8  C4  UNL     1      11.166  50.063  88.762  1.00  0.00     0.045 A 
HETATM    9  C5  UNL     1      11.328  49.755  87.427  1.00  0.00     0.032 A 
HETATM   10  C6  UNL     1      11.803  50.722  86.562  1.00  0.00     0.029 A 
HETATM   11  C7  UNL     1      12.130  51.983  86.945  1.00  0.00     0.104 A 
HETATM   12  C13 UNL     1      11.973  52.302  88.277  1.00  0.00     0.003 A 
HETATM   13  C14 UNL     1      12.300  53.580  88.675  1.00  0.00     0.044 A 
HETATM   14  C24 UNL     1      11.493  51.357  89.201  1.00  0.00     0.003 A 
HETATM   15  C15 UNL     1      12.160  53.972  90.017  1.00  0.00     0.043 A 
HETATM   16  C22 UNL     1      11.692  53.033  90.884  1.00  0.00     0.031 A 
HETATM   17  C23 UNL     1      11.351  51.725  90.514  1.00  0.00     0.017 A 
BRANCH  11  18
HETATM   18  S1  UNL     1      12.704  53.210  85.816  1.00  0.00     0.326 S 
HETATM   19  O2  UNL     1      11.513  54.082  85.394  1.00  0.00    -0.186 OA
HETATM   20  O3  UNL     1      13.506  54.185  86.702  1.00  0.00    -0.186 OA
BRANCH  18  21
HETATM   21  N3  UNL     1      13.636  52.688  84.615  1.00  0.00    -0.319 NA
BRANCH  21  22
HETATM   22  C8  UNL     1      14.339  52.336  83.740  1.00  0.00     0.124 A 
HETATM   23  C9  UNL     1      15.670  52.752  83.638  1.00  0.00     0.062 A 
HETATM   24  C10 UNL     1      16.504  52.356  82.638  1.00  0.00     0.091 A 
HETATM   25  N4  UNL     1      16.014  51.514  81.692  1.00  0.00    -0.375 N 
HETATM   26  C11 UNL     1      14.752  51.061  81.703  1.00  0.00     0.091 A 
ATOM     27  H4  UNL     1      16.634  51.213  80.940  1.00  0.00     0.164 HD
HETATM   28  C12 UNL     1      13.924  51.466  82.713  1.00  0.00     0.062 A 
ENDBRANCH  21  22
ENDBRANCH  18  21
ENDBRANCH  11  18
BRANCH  15  29
HETATM   29  N5  UNL     1      12.512  55.291  90.391  1.00  0.00    -0.281 N 
ATOM     30  H5  UNL     1      11.932  56.066  90.068  1.00  0.00     0.179 HD
BRANCH  29  31
HETATM   31  S2  UNL     1      13.868  55.628  91.363  1.00  0.00     0.263 S 
HETATM   32  O4  UNL     1      14.166  57.127  91.343  1.00  0.00    -0.200 OA
HETATM   33  O5  UNL     1      15.091  54.958  90.728  1.00  0.00    -0.200 OA
BRANCH  31  34
HETATM   34  C16 UNL     1      13.788  55.146  93.007  1.00  0.00     0.079 A 
HETATM   35  C17 UNL     1      14.036  53.826  93.357  1.00  0.00     0.025 A 
HETATM   36  C18 UNL     1      13.926  53.436  94.695  1.00  0.00     0.002 A 
HETATM   37  C19 UNL     1      13.577  54.318  95.687  1.00  0.00     0.000 A 
HETATM   38  C20 UNL     1      13.327  55.629  95.354  1.00  0.00     0.002 A 
HETATM   39  C21 UNL     1      13.437  56.025  94.015  1.00  0.00     0.025 A 
ENDBRANCH  31  34
ENDBRANCH  29  31
ENDBRANCH  15  29
ENDBRANCH   6   8
ENDBRANCH   3   4
TORSDOF 8
ENDMDL
MODEL 3
REMARK VINA RESULT: -7.287264878      7.171     12.531
REMARK  8 active torsions:
REMARK  status: ('A' for Active; 'I' for Inactive)
REMARK    1  A    between atoms: C2_3  and  C3_4 
REMARK       I    between atoms: C3_4  and  N2_6 
REMARK    2  A    between atoms: N2_6  and  C4_8 
REMARK    3  A    between atoms: C7_11  and  S1_12 
REMARK    4  A    between atoms: S1_12  and  N3_15 
REMARK    5  A    between atoms: N3_15  and  C8_16 
REMARK    6  A    between atoms: C15_25  and  N5_26 
REMARK    7  A    between atoms: N5_26  and  S2_28 
REMARK    8  A    between atoms: S2_28  and  C16_31 
ROOT
HETATM    1  N1  UNL     1      13.596  55.055  93.711  1.00  0.00    -0.197 NA
HETATM    2  C1  UNL     1      14.085  55.636  92.830  1.00  0.00     0.068 C 
HETATM    3  C2  UNL     1      14.668  56.356  91.731  1.00  0.00     0.226 C 
ENDROOT
BRANCH   3   4
HETATM    4  C3  UNL     1      14.707  55.441  90.512  1.00  0.00     0.235 C 
HETATM    5  O1  UNL     1      15.781  54.904  90.256  1.00  0.00    -0.272 OA
HETATM    6  N2  UNL     1      13.491  55.315  89.814  1.00  0.00    -0.326 N 
ATOM      7  H2  UNL     1      12.697  55.840  90.180  1.00  0.00     0.169 HD
BRANCH   6   8
HETATM    8  C4  UNL     1      13.260  54.540  88.661  1.00  0.00     0.045 A 
HETATM    9  C5  UNL     1      13.692  54.922  87.408  1.00  0.00     0.032 A 
HETATM   10  C6  UNL     1      13.414  54.117  86.321  1.00  0.00     0.029 A 
HETATM   11  C7  UNL     1      12.726  52.949  86.402  1.00  0.00     0.104 A 
HETATM   12  C13 UNL     1      12.287  52.557  87.649  1.00  0.00     0.003 A 
HETATM   13  C14 UNL     1      11.590  51.372  87.742  1.00  0.00     0.044 A 
HETATM   14  C24 UNL     1      12.543  53.338  88.790  1.00  0.00     0.003 A 
HETATM   15  C15 UNL     1      11.119  50.913  88.984  1.00  0.00     0.043 A 
HETATM   16  C22 UNL     1      11.385  51.692  90.067  1.00  0.00     0.031 A 
HETATM   17  C23 UNL     1      12.089  52.902  90.008  1.00  0.00     0.017 A 
BRANCH  11  18
HETATM   18  S1  UNL     1      12.409  51.922  85.004  1.00  0.00     0.326 S 
HETATM   19  O2  UNL     1      11.920  50.555  85.503  1.00  0.00    -0.186 OA
HETATM   20  O3  UNL     1      11.121  52.511  84.393  1.00  0.00    -0.186 OA
BRANCH  18  21
HETATM   21  N3  UNL     1      13.560  51.875  83.883  1.00  0.00    -0.319 NA
BRANCH  21  22
HETATM   22  C8  UNL     1      14.405  51.877  83.065  1.00  0.00     0.124 A 
HETATM   23  C9  UNL     1      14.285  51.167  81.866  1.00  0.00     0.062 A 
HETATM   24  C10 UNL     1      15.245  51.158  80.902  1.00  0.00     0.091 A 
HETATM   25  N4  UNL     1      16.378  51.874  81.120  1.00  0.00    -0.375 N 
HETATM   26  C11 UNL     1      16.587  52.585  82.237  1.00  0.00     0.091 A 
ATOM     27  H4  UNL     1      17.102  51.871  80.401  1.00  0.00     0.164 HD
HETATM   28  C12 UNL     1      15.614  52.587  83.198  1.00  0.00     0.062 A 
ENDBRANCH  21  22
ENDBRANCH  18  21
ENDBRANCH  11  18
BRANCH  15  29
HETATM   29  N5  UNL     1      10.400  49.694  89.041  1.00  0.00    -0.281 N 
ATOM     30  H5  UNL     1       9.387  49.725  89.158  1.00  0.00     0.179 HD
BRANCH  29  31
HETATM   31  S2  UNL     1      11.169  48.181  88.922  1.00  0.00     0.263 S 
HETATM   32  O4  UNL     1      10.690  47.447  87.670  1.00  0.00    -0.200 OA
HETATM   33  O5  UNL     1      10.713  47.317  90.103  1.00  0.00    -0.200 OA
BRANCH  31  34
HETATM   34  C16 UNL     1      12.884  48.178  88.890  1.00  0.00     0.079 A 
HETATM   35  C17 UNL     1      13.557  47.810  87.732  1.00  0.00     0.025 A 
HETATM   36  C18 UNL     1      14.954  47.771  87.730  1.00  0.00     0.002 A 
HETATM   37  C19 UNL     1      15.695  48.086  88.842  1.00  0.00     0.000 A 
HETATM   38  C20 UNL     1      15.042  48.451  89.995  1.00  0.00     0.002 A 
HETATM   39  C21 UNL     1      13.642  48.493  90.002  1.00  0.00     0.025 A 
ENDBRANCH  31  34
ENDBRANCH  29  31
ENDBRANCH  15  29
ENDBRANCH   6   8
ENDBRANCH   3   4
TORSDOF 8
ENDMDL
MODEL 4
REMARK VINA RESULT: -7.229972443      1.309      1.660
REMARK  8 active torsions:
REMARK  status: ('A' for Active; 'I' for Inactive)
REMARK    1  A    between atoms: C2_3  and  C3_4 
REMARK       I    between atoms: C3_4  and  N2_6 
REMARK    2  A    between atoms: N2_6  and  C4_8 
REMARK    3  A    between atoms: C7_11  and  S1_12 
REMARK    4  A    between atoms: S1_12  and  N3_15 
REMARK    5  A    between atoms: N3_15  and  C8_16 
REMARK    6  A    between atoms: C15_25  and  N5_26 
REMARK    7  A    between atoms: N5_26  and  S2_28 
REMARK    8  A    between atoms: S2_28  and  C16_31 
ROOT
HETATM    1  N1  UNL     1      15.538  57.011  91.006  1.00  0.00    -0.197 NA
HETATM    2  C1  UNL     1      14.740  56.247  90.642  1.00  0.00     0.068 C 
HETATM    3  C2  UNL     1      13.736  55.317  90.202  1.00  0.00     0.226 C 
ENDROOT
BRANCH   3   4
HETATM    4  C3  UNL     1      13.232  54.534  91.410  1.00  0.00     0.235 C 
HETATM    5  O1  UNL     1      12.141  53.983  91.298  1.00  0.00    -0.272 OA
HETATM    6  N2  UNL     1      14.088  54.534  92.527  1.00  0.00    -0.326 N 
ATOM      7  H2  UNL     1      14.963  55.049  92.433  1.00  0.00     0.169 HD
BRANCH   6   8
HETATM    8  C4  UNL     1      13.860  53.895  93.762  1.00  0.00     0.045 A 
HETATM    9  C5  UNL     1      14.124  52.556  93.966  1.00  0.00     0.032 A 
HETATM   10  C6  UNL     1      13.859  51.995  95.200  1.00  0.00     0.029 A 
HETATM   11  C7  UNL     1      13.343  52.685  96.249  1.00  0.00     0.104 A 
HETATM   12  C13 UNL     1      13.074  54.023  96.056  1.00  0.00     0.003 A 
HETATM   13  C14 UNL     1      12.552  54.733  97.116  1.00  0.00     0.044 A 
HETATM   14  C24 UNL     1      13.325  54.646  94.821  1.00  0.00     0.003 A 
HETATM   15  C15 UNL     1      12.259  56.101  96.987  1.00  0.00     0.043 A 
HETATM   16  C22 UNL     1      12.514  56.673  95.779  1.00  0.00     0.031 A 
HETATM   17  C23 UNL     1      13.043  55.981  94.681  1.00  0.00     0.017 A 
BRANCH  11  18
HETATM   18  S1  UNL     1      13.042  51.953  97.825  1.00  0.00     0.326 S 
HETATM   19  O2  UNL     1      11.586  52.233  98.224  1.00  0.00    -0.186 OA
HETATM   20  O3  UNL     1      13.000  50.440  97.531  1.00  0.00    -0.186 OA
BRANCH  18  21
HETATM   21  N3  UNL     1      14.138  52.247  98.964  1.00  0.00    -0.319 NA
BRANCH  21  22
HETATM   22  C8  UNL     1      14.953  52.429  99.792  1.00  0.00     0.124 A 
HETATM   23  C9  UNL     1      16.287  52.043  99.624  1.00  0.00     0.062 A 
HETATM   24  C10 UNL     1      17.249  52.246 100.564  1.00  0.00     0.091 A 
HETATM   25  N4  UNL     1      16.892  52.855 101.724  1.00  0.00    -0.375 N 
HETATM   26  C11 UNL     1      15.641  53.260 101.979  1.00  0.00     0.091 A 
ATOM     27  H4  UNL     1      17.610  53.011 102.433  1.00  0.00     0.164 HD
HETATM   28  C12 UNL     1      14.682  53.051 101.026  1.00  0.00     0.062 A 
ENDBRANCH  21  22
ENDBRANCH  18  21
ENDBRANCH  11  18
BRANCH  15  29
HETATM   29  N5  UNL     1      11.717  56.798  98.095  1.00  0.00    -0.281 N 
ATOM     30  H5  UNL     1      12.329  57.031  98.877  1.00  0.00     0.179 HD
BRANCH  29  31
HETATM   31  S2  UNL     1      10.081  57.260  98.165  1.00  0.00     0.263 S 
HETATM   32  O4  UNL     1       9.859  58.528  97.340  1.00  0.00    -0.200 OA
HETATM   33  O5  UNL     1       9.754  57.649  99.611  1.00  0.00    -0.200 OA
BRANCH  31  34
HETATM   34  C16 UNL     1       8.922  56.106  97.647  1.00  0.00     0.079 A 
HETATM   35  C17 UNL     1       8.883  54.849  98.235  1.00  0.00     0.025 A 
HETATM   36  C18 UNL     1       7.963  53.902  97.775  1.00  0.00     0.002 A 
HETATM   37  C19 UNL     1       7.087  54.171  96.752  1.00  0.00     0.000 A 
HETATM   38  C20 UNL     1       7.116  55.412  96.161  1.00  0.00     0.002 A 
HETATM   39  C21 UNL     1       8.036  56.364  96.618  1.00  0.00     0.025 A 
ENDBRANCH  31  34
ENDBRANCH  29  31
ENDBRANCH  15  29
ENDBRANCH   6   8
ENDBRANCH   3   4
TORSDOF 8
ENDMDL
MODEL 5
REMARK VINA RESULT: -7.216496779      2.667      6.342
REMARK  8 active torsions:
REMARK  status: ('A' for Active; 'I' for Inactive)
REMARK    1  A    between atoms: C2_3  and  C3_4 
REMARK       I    between atoms: C3_4  and  N2_6 
REMARK    2  A    between atoms: N2_6  and  C4_8 
REMARK    3  A    between atoms: C7_11  and  S1_12 
REMARK    4  A    between atoms: S1_12  and  N3_15 
REMARK    5  A    between atoms: N3_15  and  C8_16 
REMARK    6  A    between atoms: C15_25  and  N5_26 
REMARK    7  A    between atoms: N5_26  and  S2_28 
REMARK    8  A    between atoms: S2_28  and  C16_31 
ROOT
HETATM    1  N1  UNL     1      15.578  57.094  90.927  1.00  0.00    -0.197 NA
HETATM    2  C1  UNL     1      14.678  56.390  90.707  1.00  0.00     0.068 C 
HETATM    3  C2  UNL     1      13.552  55.539  90.439  1.00  0.00     0.226 C 
ENDROOT
BRANCH   3   4
HETATM    4  C3  UNL     1      12.874  55.195  91.761  1.00  0.00     0.235 C 
HETATM    5  O1  UNL     1      11.730  54.755  91.701  1.00  0.00    -0.272 OA
HETATM    6  N2  UNL     1      13.650  55.424  92.913  1.00  0.00    -0.326 N 
ATOM      7  H2  UNL     1      14.590  55.794  92.766  1.00  0.00     0.169 HD
BRANCH   6   8
HETATM    8  C4  UNL     1      13.263  55.194  94.248  1.00  0.00     0.045 A 
HETATM    9  C5  UNL     1      12.720  56.181  95.045  1.00  0.00     0.032 A 
HETATM   10  C6  UNL     1      12.379  55.885  96.350  1.00  0.00     0.029 A 
HETATM   11  C7  UNL     1      12.547  54.662  96.917  1.00  0.00     0.104 A 
HETATM   12  C13 UNL     1      13.090  53.669  96.130  1.00  0.00     0.003 A 
HETATM   13  C14 UNL     1      13.262  52.424  96.695  1.00  0.00     0.044 A 
HETATM   14  C24 UNL     1      13.454  53.914  94.795  1.00  0.00     0.003 A 
HETATM   15  C15 UNL     1      13.805  51.366  95.947  1.00  0.00     0.043 A 
HETATM   16  C22 UNL     1      14.147  51.637  94.658  1.00  0.00     0.031 A 
HETATM   17  C23 UNL     1      13.987  52.891  94.053  1.00  0.00     0.017 A 
BRANCH  11  18
HETATM   18  S1  UNL     1      12.074  54.300  98.577  1.00  0.00     0.326 S 
HETATM   19  O2  UNL     1      11.655  55.609  99.261  1.00  0.00    -0.186 OA
HETATM   20  O3  UNL     1      10.719  53.578  98.429  1.00  0.00    -0.186 OA
BRANCH  18  21
HETATM   21  N3  UNL     1      13.086  53.376  99.416  1.00  0.00    -0.319 NA
BRANCH  21  22
HETATM   22  C8  UNL     1      13.800  52.696 100.057  1.00  0.00     0.124 A 
HETATM   23  C9  UNL     1      13.745  51.299 100.007  1.00  0.00     0.062 A 
HETATM   24  C10 UNL     1      14.564  50.491 100.734  1.00  0.00     0.091 A 
HETATM   25  N4  UNL     1      15.478  51.075 101.550  1.00  0.00    -0.375 N 
HETATM   26  C11 UNL     1      15.607  52.404 101.668  1.00  0.00     0.091 A 
ATOM     27  H4  UNL     1      16.095  50.474 102.098  1.00  0.00     0.164 HD
HETATM   28  C12 UNL     1      14.779  53.205 100.931  1.00  0.00     0.062 A 
ENDBRANCH  21  22
ENDBRANCH  18  21
ENDBRANCH  11  18
BRANCH  15  29
HETATM   29  N5  UNL     1      13.974  50.101  96.562  1.00  0.00    -0.281 N 
ATOM     30  H5  UNL     1      13.147  49.588  96.868  1.00  0.00     0.179 HD
BRANCH  29  31
HETATM   31  S2  UNL     1      15.509  49.408  96.807  1.00  0.00     0.263 S 
HETATM   32  O4  UNL     1      16.178  49.128  95.461  1.00  0.00    -0.200 OA
HETATM   33  O5  UNL     1      15.316  48.036  97.462  1.00  0.00    -0.200 OA
BRANCH  31  34
HETATM   34  C16 UNL     1      16.624  50.302  97.755  1.00  0.00     0.079 A 
HETATM   35  C17 UNL     1      17.446  49.646  98.664  1.00  0.00     0.025 A 
HETATM   36  C18 UNL     1      18.321  50.390  99.461  1.00  0.00     0.002 A 
HETATM   37  C19 UNL     1      18.399  51.758  99.381  1.00  0.00     0.000 A 
HETATM   38  C20 UNL     1      17.592  52.419  98.486  1.00  0.00     0.002 A 
HETATM   39  C21 UNL     1      16.713  51.679  97.683  1.00  0.00     0.025 A 
ENDBRANCH  31  34
ENDBRANCH  29  31
ENDBRANCH  15  29
ENDBRANCH   6   8
ENDBRANCH   3   4
TORSDOF 8
ENDMDL
