MODEL 1
REMARK VINA RESULT: -8.304097797      0.000      0.000
REMARK  10 active torsions:
REMARK  status: ('A' for Active; 'I' for Inactive)
REMARK    1  A    between atoms: O1_2  and  C2_3 
REMARK    2  A    between atoms: C5_6  and  N1_7 
REMARK    3  A    between atoms: N2_10  and  C8_11 
REMARK    4  A    between atoms: C10_13  and  N3_14 
REMARK    5  A    between atoms: N3_14  and  C11_16 
REMARK    6  A    between atoms: C11_16  and  C12_17 
REMARK    7  A    between atoms: C12_17  and  N4_18 
REMARK    8  A    between atoms: N4_18  and  C13_20 
REMARK    9  A    between atoms: C18_29  and  N7_30 
REMARK   10  A    between atoms: N7_30  and  C19_32 
ROOT
HETATM    1  C8  UNL     1      10.950  54.138  89.662  1.00  0.00     0.122 A 
HETATM    2  C9  UNL     1      11.293  54.146  90.988  1.00  0.00     0.098 A 
HETATM    3  C10 UNL     1      10.390  54.530  91.990  1.00  0.00     0.124 A 
HETATM    4  N6  UNL     1       9.178  54.888  91.585  1.00  0.00    -0.176 N 
ATOM      5  H6  UNL     1       8.495  55.173  92.286  1.00  0.00     0.186 HD
HETATM    6  C18 UNL     1       8.802  54.891  90.266  1.00  0.00     0.685 A 
HETATM    7  N8  UNL     1       9.709  54.513  89.341  1.00  0.00    -0.176 N 
ATOM      8  H8  UNL     1       9.436  54.513  88.358  1.00  0.00     0.186 HD
ENDROOT
BRANCH   1   9
HETATM    9  N2  UNL     1      11.893  53.735  88.687  1.00  0.00    -0.364 N 
HETATM   10  C7  UNL     1      13.260  54.222  88.670  1.00  0.00     0.144 C 
HETATM   11  C6  UNL     1      13.692  54.627  87.282  1.00  0.00     0.143 C 
HETATM   12  N1  UNL     1      13.132  53.816  86.241  1.00  0.00    -0.378 N 
HETATM   13  C27 UNL     1      11.709  53.555  86.321  1.00  0.00     0.143 C 
HETATM   14  C26 UNL     1      11.500  52.800  87.646  1.00  0.00     0.144 C 
BRANCH  12  15
HETATM   15  C5  UNL     1      13.853  53.239  85.162  1.00  0.00     0.030 A 
HETATM   16  C4  UNL     1      15.088  53.746  84.785  1.00  0.00     0.032 A 
HETATM   17  C3  UNL     1      15.781  53.206  83.727  1.00  0.00     0.039 A 
HETATM   18  C2  UNL     1      15.316  52.149  82.982  1.00  0.00     0.068 A 
HETATM   19  C29 UNL     1      14.093  51.633  83.342  1.00  0.00     0.039 A 
HETATM   20  C28 UNL     1      13.382  52.180  84.418  1.00  0.00     0.032 A 
BRANCH  18  21
HETATM   21  O1  UNL     1      16.071  51.656  81.927  1.00  0.00    -0.356 OA
HETATM   22  C1  UNL     1      15.537  51.284  80.691  1.00  0.00     0.210 C 
ENDBRANCH  18  21
ENDBRANCH  12  15
ENDBRANCH   1   9
BRANCH   3  23
HETATM   23  N3  UNL     1      10.819  54.502  93.174  1.00  0.00    -0.354 N 
ATOM     24  H3  UNL     1      10.135  54.640  93.918  1.00  0.00     0.166 HD
BRANCH  23  25
HETATM   25  C11 UNL     1      12.155  54.300  93.566  1.00  0.00     0.082 C 
BRANCH  25  26
HETATM   26  C12 UNL     1      12.808  55.561  94.114  1.00  0.00     0.165 C 
BRANCH  26  27
HETATM   27  N4  UNL     1      12.566  55.695  95.519  1.00  0.00    -0.372 N 
ATOM     28  H4  UNL     1      13.011  55.048  96.169  1.00  0.00     0.161 HD
BRANCH  27  29
HETATM   29  C13 UNL     1      11.800  56.615  95.971  1.00  0.00     0.101 A 
HETATM   30  C14 UNL     1      12.214  57.904  96.216  1.00  0.00     0.048 A 
HETATM   31  C15 UNL     1      11.314  58.812  96.700  1.00  0.00     0.005 A 
HETATM   32  C16 UNL     1      10.000  58.485  96.954  1.00  0.00     0.017 A 
HETATM   33  C17 UNL     1       9.626  57.176  96.693  1.00  0.00     0.089 A 
HETATM   34  N5  UNL     1      10.502  56.275  96.217  1.00  0.00    -0.353 N 
ATOM     35  H5  UNL     1      10.192  55.320  96.036  1.00  0.00     0.166 HD
ENDBRANCH  27  29
ENDBRANCH  26  27
ENDBRANCH  25  26
ENDBRANCH  23  25
ENDBRANCH   3  23
BRANCH   6  36
HETATM   36  N7  UNL     1       7.606  55.252  89.946  1.00  0.00    -0.191 N 
ATOM     37  H7  UNL     1       7.021  54.607  89.416  1.00  0.00     0.184 HD
BRANCH  36  38
HETATM   38  C19 UNL     1       7.082  56.511  90.307  1.00  0.00     0.055 A 
HETATM   39  C20 UNL     1       7.719  57.673  89.952  1.00  0.00     0.030 A 
HETATM   40  C21 UNL     1       7.208  58.896  90.306  1.00  0.00     0.002 A 
HETATM   41  C22 UNL     1       6.036  58.956  91.030  1.00  0.00     0.001 A 
HETATM   42  C23 UNL     1       5.365  57.808  91.407  1.00  0.00     0.009 A 
HETATM   43  C24 UNL     1       5.916  56.586  91.028  1.00  0.00    -0.035 A 
HETATM   44  C25 UNL     1       5.216  55.344  91.420  1.00  0.00     0.050 C 
ENDBRANCH  36  38
ENDBRANCH   6  36
TORSDOF 10
ENDMDL
MODEL 2
REMARK VINA RESULT: -8.061091971      1.099      1.820
REMARK  10 active torsions:
REMARK  status: ('A' for Active; 'I' for Inactive)
REMARK    1  A    between atoms: O1_2  and  C2_3 
REMARK    2  A    between atoms: C5_6  and  N1_7 
REMARK    3  A    between atoms: N2_10  and  C8_11 
REMARK    4  A    between atoms: C10_13  and  N3_14 
REMARK    5  A    between atoms: N3_14  and  C11_16 
REMARK    6  A    between atoms: C11_16  and  C12_17 
REMARK    7  A    between atoms: C12_17  and  N4_18 
REMARK    8  A    between atoms: N4_18  and  C13_20 
REMARK    9  A    between atoms: C18_29  and  N7_30 
REMARK   10  A    between atoms: N7_30  and  C19_32 
ROOT
HETATM    1  C8  UNL     1      11.374  54.187  90.104  1.00  0.00     0.122 A 
HETATM    2  C9  UNL     1      11.613  53.751  91.380  1.00  0.00     0.098 A 
HETATM    3  C10 UNL     1      10.765  54.072  92.450  1.00  0.00     0.124 A 
HETATM    4  N6  UNL     1       9.712  54.827  92.161  1.00  0.00    -0.176 N 
ATOM      5  H6  UNL     1       9.074  55.081  92.914  1.00  0.00     0.186 HD
HETATM    6  C18 UNL     1       9.443  55.281  90.895  1.00  0.00     0.685 A 
HETATM    7  N8  UNL     1      10.291  54.943  89.901  1.00  0.00    -0.176 N 
ATOM      8  H8  UNL     1      10.097  55.277  88.957  1.00  0.00     0.186 HD
ENDROOT
BRANCH   1   9
HETATM    9  N2  UNL     1      12.252  53.830  89.053  1.00  0.00    -0.364 N 
HETATM   10  C7  UNL     1      13.524  54.496  88.836  1.00  0.00     0.144 C 
HETATM   11  C6  UNL     1      13.738  54.830  87.380  1.00  0.00     0.143 C 
HETATM   12  N1  UNL     1      13.192  53.860  86.477  1.00  0.00    -0.378 N 
HETATM   13  C27 UNL     1      11.839  53.416  86.747  1.00  0.00     0.143 C 
HETATM   14  C26 UNL     1      11.888  52.761  88.139  1.00  0.00     0.144 C 
BRANCH  12  15
HETATM   15  C5  UNL     1      13.866  53.293  85.364  1.00  0.00     0.030 A 
HETATM   16  C4  UNL     1      13.339  52.192  84.703  1.00  0.00     0.032 A 
HETATM   17  C3  UNL     1      13.999  51.625  83.638  1.00  0.00     0.039 A 
HETATM   18  C2  UNL     1      15.199  52.092  83.157  1.00  0.00     0.068 A 
HETATM   19  C29 UNL     1      15.735  53.184  83.800  1.00  0.00     0.039 A 
HETATM   20  C28 UNL     1      15.069  53.765  84.886  1.00  0.00     0.032 A 
BRANCH  18  21
HETATM   21  O1  UNL     1      15.807  51.468  82.077  1.00  0.00    -0.356 OA
HETATM   22  C1  UNL     1      15.324  51.525  80.769  1.00  0.00     0.210 C 
ENDBRANCH  18  21
ENDBRANCH  12  15
ENDBRANCH   1   9
BRANCH   3  23
HETATM   23  N3  UNL     1      11.090  53.618  93.579  1.00  0.00    -0.354 N 
ATOM     24  H3  UNL     1      10.352  53.180  94.131  1.00  0.00     0.166 HD
BRANCH  23  25
HETATM   25  C11 UNL     1      12.375  53.660  94.150  1.00  0.00     0.082 C 
BRANCH  25  26
HETATM   26  C12 UNL     1      12.401  54.372  95.495  1.00  0.00     0.165 C 
BRANCH  26  27
HETATM   27  N4  UNL     1      12.572  55.784  95.325  1.00  0.00    -0.372 N 
ATOM     28  H4  UNL     1      13.363  56.132  94.783  1.00  0.00     0.161 HD
BRANCH  27  29
HETATM   29  C13 UNL     1      11.749  56.614  95.842  1.00  0.00     0.101 A 
HETATM   30  C14 UNL     1      12.085  57.898  96.207  1.00  0.00     0.048 A 
HETATM   31  C15 UNL     1      11.128  58.707  96.753  1.00  0.00     0.005 A 
HETATM   32  C16 UNL     1       9.832  58.284  96.955  1.00  0.00     0.017 A 
HETATM   33  C17 UNL     1       9.538  56.985  96.573  1.00  0.00     0.089 A 
HETATM   34  N5  UNL     1      10.471  56.181  96.035  1.00  0.00    -0.353 N 
ATOM     35  H5  UNL     1      10.218  55.230  95.765  1.00  0.00     0.166 HD
ENDBRANCH  27  29
ENDBRANCH  26  27
ENDBRANCH  25  26
ENDBRANCH  23  25
ENDBRANCH   3  23
BRANCH   6  36
HETATM   36  N7  UNL     1       8.401  56.011  90.689  1.00  0.00    -0.191 N 
ATOM     37  H7  UNL     1       8.363  56.944  91.098  1.00  0.00     0.184 HD
BRANCH  36  38
HETATM   38  C19 UNL     1       7.311  55.558  89.915  1.00  0.00     0.055 A 
HETATM   39  C20 UNL     1       7.199  54.242  89.546  1.00  0.00     0.030 A 
HETATM   40  C21 UNL     1       6.139  53.806  88.792  1.00  0.00     0.002 A 
HETATM   41  C22 UNL     1       5.172  54.708  88.400  1.00  0.00     0.001 A 
HETATM   42  C23 UNL     1       5.249  56.042  88.751  1.00  0.00     0.009 A 
HETATM   43  C24 UNL     1       6.341  56.445  89.517  1.00  0.00    -0.035 A 
HETATM   44  C25 UNL     1       6.445  57.868  89.905  1.00  0.00     0.050 C 
ENDBRANCH  36  38
ENDBRANCH   6  36
TORSDOF 10
ENDMDL
MODEL 3
REMARK VINA RESULT: -7.653896325      4.332     10.477
REMARK  10 active torsions:
REMARK  status: ('A' for Active; 'I' for Inactive)
REMARK    1  A    between atoms: O1_2  and  C2_3 
REMARK    2  A    between atoms: C5_6  and  N1_7 
REMARK    3  A    between atoms: N2_10  and  C8_11 
REMARK    4  A    between atoms: C10_13  and  N3_14 
REMARK    5  A    between atoms: N3_14  and  C11_16 
REMARK    6  A    between atoms: C11_16  and  C12_17 
REMARK    7  A    between atoms: C12_17  and  N4_18 
REMARK    8  A    between atoms: N4_18  and  C13_20 
REMARK    9  A    between atoms: C18_29  and  N7_30 
REMARK   10  A    between atoms: N7_30  and  C19_32 
ROOT
HETATM    1  C8  UNL     1      11.908  52.693  88.729  1.00  0.00     0.122 A 
HETATM    2  C9  UNL     1      11.678  51.350  88.862  1.00  0.00     0.098 A 
HETATM    3  C10 UNL     1      11.689  50.478  87.763  1.00  0.00     0.124 A 
HETATM    4  N6  UNL     1      11.935  51.026  86.579  1.00  0.00    -0.176 N 
ATOM      5  H6  UNL     1      11.949  50.423  85.758  1.00  0.00     0.186 HD
HETATM    6  C18 UNL     1      12.169  52.367  86.411  1.00  0.00     0.685 A 
HETATM    7  N8  UNL     1      12.148  53.162  87.501  1.00  0.00    -0.176 N 
ATOM      8  H8  UNL     1      12.321  54.160  87.383  1.00  0.00     0.186 HD
ENDROOT
BRANCH   1   9
HETATM    9  N2  UNL     1      11.897  53.533  89.868  1.00  0.00    -0.364 N 
HETATM   10  C7  UNL     1      12.916  54.538  90.110  1.00  0.00     0.144 C 
HETATM   11  C6  UNL     1      13.400  54.511  91.538  1.00  0.00     0.143 C 
HETATM   12  N1  UNL     1      12.381  54.177  92.489  1.00  0.00    -0.378 N 
HETATM   13  C27 UNL     1      11.547  53.036  92.169  1.00  0.00     0.143 C 
HETATM   14  C26 UNL     1      10.836  53.401  90.852  1.00  0.00     0.144 C 
BRANCH  12  15
HETATM   15  C5  UNL     1      12.114  54.876  93.696  1.00  0.00     0.030 A 
HETATM   16  C4  UNL     1      10.852  54.838  94.271  1.00  0.00     0.032 A 
HETATM   17  C3  UNL     1      10.581  55.531  95.428  1.00  0.00     0.039 A 
HETATM   18  C2  UNL     1      11.516  56.292  96.088  1.00  0.00     0.068 A 
HETATM   19  C29 UNL     1      12.774  56.339  95.533  1.00  0.00     0.039 A 
HETATM   20  C28 UNL     1      13.055  55.637  94.354  1.00  0.00     0.032 A 
BRANCH  18  21
HETATM   21  O1  UNL     1      11.170  56.963  97.252  1.00  0.00    -0.356 OA
HETATM   22  C1  UNL     1      10.477  58.175  97.279  1.00  0.00     0.210 C 
ENDBRANCH  18  21
ENDBRANCH  12  15
ENDBRANCH   1   9
BRANCH   3  23
HETATM   23  N3  UNL     1      11.459  49.264  88.007  1.00  0.00    -0.354 N 
ATOM     24  H3  UNL     1      11.530  48.613  87.225  1.00  0.00     0.166 HD
BRANCH  23  25
HETATM   25  C11 UNL     1      11.112  48.722  89.258  1.00  0.00     0.082 C 
BRANCH  25  26
HETATM   26  C12 UNL     1      11.753  47.366  89.513  1.00  0.00     0.165 C 
BRANCH  26  27
HETATM   27  N4  UNL     1      13.026  47.512  90.153  1.00  0.00    -0.372 N 
ATOM     28  H4  UNL     1      13.072  47.584  91.169  1.00  0.00     0.161 HD
BRANCH  27  29
HETATM   29  C13 UNL     1      14.106  47.554  89.469  1.00  0.00     0.101 A 
HETATM   30  C14 UNL     1      15.241  48.219  89.872  1.00  0.00     0.048 A 
HETATM   31  C15 UNL     1      16.345  48.202  89.065  1.00  0.00     0.005 A 
HETATM   32  C16 UNL     1      16.365  47.540  87.856  1.00  0.00     0.017 A 
HETATM   33  C17 UNL     1      15.201  46.884  87.490  1.00  0.00     0.089 A 
HETATM   34  N5  UNL     1      14.110  46.894  88.276  1.00  0.00    -0.353 N 
ATOM     35  H5  UNL     1      13.270  46.399  87.975  1.00  0.00     0.166 HD
ENDBRANCH  27  29
ENDBRANCH  26  27
ENDBRANCH  25  26
ENDBRANCH  23  25
ENDBRANCH   3  23
BRANCH   6  36
HETATM   36  N7  UNL     1      12.400  52.828  85.230  1.00  0.00    -0.191 N 
ATOM     37  H7  UNL     1      11.626  53.214  84.689  1.00  0.00     0.184 HD
BRANCH  36  38
HETATM   38  C19 UNL     1      13.692  52.817  84.661  1.00  0.00     0.055 A 
HETATM   39  C20 UNL     1      14.656  53.702  85.070  1.00  0.00     0.030 A 
HETATM   40  C21 UNL     1      15.910  53.689  84.514  1.00  0.00     0.002 A 
HETATM   41  C22 UNL     1      16.203  52.772  83.526  1.00  0.00     0.001 A 
HETATM   42  C23 UNL     1      15.258  51.864  83.087  1.00  0.00     0.009 A 
HETATM   43  C24 UNL     1      13.997  51.909  83.677  1.00  0.00    -0.035 A 
HETATM   44  C25 UNL     1      12.970  50.948  83.222  1.00  0.00     0.050 C 
ENDBRANCH  36  38
ENDBRANCH   6  36
TORSDOF 10
ENDMDL
MODEL 4
REMARK VINA RESULT: -7.634006157      4.455     10.564
REMARK  10 active torsions:
REMARK  status: ('A' for Active; 'I' for Inactive)
REMARK    1  A    between atoms: O1_2  and  C2_3 
REMARK    2  A    between atoms: C5_6  and  N1_7 
REMARK    3  A    between atoms: N2_10  and  C8_11 
REMARK    4  A    between atoms: C10_13  and  N3_14 
REMARK    5  A    between atoms: N3_14  and  C11_16 
REMARK    6  A    between atoms: C11_16  and  C12_17 
REMARK    7  A    between atoms: C12_17  and  N4_18 
REMARK    8  A    between atoms: N4_18  and  C13_20 
REMARK    9  A    between atoms: C18_29  and  N7_30 
REMARK   10  A    between atoms: N7_30  and  C19_32 
ROOT
HETATM    1  C8  UNL     1      11.890  53.364  89.833  1.00  0.00     0.122 A 
HETATM    2  C9  UNL     1      11.824  52.005  89.988  1.00  0.00     0.098 A 
HETATM    3  C10 UNL     1      11.836  51.128  88.895  1.00  0.00     0.124 A 
HETATM    4  N6  UNL     1      11.915  51.686  87.693  1.00  0.00    -0.176 N 
ATOM      5  H6  UNL     1      11.926  51.078  86.874  1.00  0.00     0.186 HD
HETATM    6  C18 UNL     1      11.983  53.042  87.502  1.00  0.00     0.685 A 
HETATM    7  N8  UNL     1      11.968  53.842  88.588  1.00  0.00    -0.176 N 
ATOM      8  H8  UNL     1      12.018  54.852  88.454  1.00  0.00     0.186 HD
ENDROOT
BRANCH   1   9
HETATM    9  N2  UNL     1      11.884  54.211  90.968  1.00  0.00    -0.364 N 
HETATM   10  C7  UNL     1      13.087  54.837  91.484  1.00  0.00     0.144 C 
HETATM   11  C6  UNL     1      13.181  54.715  92.985  1.00  0.00     0.143 C 
HETATM   12  N1  UNL     1      11.914  54.775  93.651  1.00  0.00    -0.378 N 
HETATM   13  C27 UNL     1      10.853  53.957  93.098  1.00  0.00     0.143 C 
HETATM   14  C26 UNL     1      10.636  54.476  91.664  1.00  0.00     0.144 C 
BRANCH  12  15
HETATM   15  C5  UNL     1      11.611  55.574  94.785  1.00  0.00     0.030 A 
HETATM   16  C4  UNL     1      10.359  55.515  95.379  1.00  0.00     0.032 A 
HETATM   17  C3  UNL     1      10.053  56.303  96.464  1.00  0.00     0.039 A 
HETATM   18  C2  UNL     1      10.941  57.186  97.030  1.00  0.00     0.068 A 
HETATM   19  C29 UNL     1      12.188  57.257  96.454  1.00  0.00     0.039 A 
HETATM   20  C28 UNL     1      12.505  56.458  95.348  1.00  0.00     0.032 A 
BRANCH  18  21
HETATM   21  O1  UNL     1      10.561  57.949  98.125  1.00  0.00    -0.356 OA
HETATM   22  C1  UNL     1       9.896  57.438  99.241  1.00  0.00     0.210 C 
ENDBRANCH  18  21
ENDBRANCH  12  15
ENDBRANCH   1   9
BRANCH   3  23
HETATM   23  N3  UNL     1      11.765  49.899  89.160  1.00  0.00    -0.354 N 
ATOM     24  H3  UNL     1      11.923  49.249  88.389  1.00  0.00     0.166 HD
BRANCH  23  25
HETATM   25  C11 UNL     1      11.489  49.338  90.421  1.00  0.00     0.082 C 
BRANCH  25  26
HETATM   26  C12 UNL     1      12.682  48.602  91.014  1.00  0.00     0.165 C 
BRANCH  26  27
HETATM   27  N4  UNL     1      13.061  47.492  90.193  1.00  0.00    -0.372 N 
ATOM     28  H4  UNL     1      12.471  46.660  90.170  1.00  0.00     0.161 HD
BRANCH  27  29
HETATM   29  C13 UNL     1      14.127  47.527  89.488  1.00  0.00     0.101 A 
HETATM   30  C14 UNL     1      15.276  48.181  89.872  1.00  0.00     0.048 A 
HETATM   31  C15 UNL     1      16.363  48.158  89.043  1.00  0.00     0.005 A 
HETATM   32  C16 UNL     1      16.353  47.503  87.831  1.00  0.00     0.017 A 
HETATM   33  C17 UNL     1      15.177  46.859  87.485  1.00  0.00     0.089 A 
HETATM   34  N5  UNL     1      14.101  46.874  88.292  1.00  0.00    -0.353 N 
ATOM     35  H5  UNL     1      13.252  46.388  88.005  1.00  0.00     0.166 HD
ENDBRANCH  27  29
ENDBRANCH  26  27
ENDBRANCH  25  26
ENDBRANCH  23  25
ENDBRANCH   3  23
BRANCH   6  36
HETATM   36  N7  UNL     1      12.057  53.513  86.304  1.00  0.00    -0.191 N 
ATOM     37  H7  UNL     1      11.252  54.002  85.915  1.00  0.00     0.184 HD
BRANCH  36  38
HETATM   38  C19 UNL     1      13.219  53.373  85.516  1.00  0.00     0.055 A 
HETATM   39  C20 UNL     1      14.317  54.168  85.720  1.00  0.00     0.030 A 
HETATM   40  C21 UNL     1      15.444  54.030  84.950  1.00  0.00     0.002 A 
HETATM   41  C22 UNL     1      15.471  53.077  83.955  1.00  0.00     0.001 A 
HETATM   42  C23 UNL     1      14.384  52.256  83.717  1.00  0.00     0.009 A 
HETATM   43  C24 UNL     1      13.259  52.427  84.520  1.00  0.00    -0.035 A 
HETATM   44  C25 UNL     1      12.085  51.561  84.284  1.00  0.00     0.050 C 
ENDBRANCH  36  38
ENDBRANCH   6  36
TORSDOF 10
ENDMDL
MODEL 5
REMARK VINA RESULT: -7.560017745      4.321     10.519
REMARK  10 active torsions:
REMARK  status: ('A' for Active; 'I' for Inactive)
REMARK    1  A    between atoms: O1_2  and  C2_3 
REMARK    2  A    between atoms: C5_6  and  N1_7 
REMARK    3  A    between atoms: N2_10  and  C8_11 
REMARK    4  A    between atoms: C10_13  and  N3_14 
REMARK    5  A    between atoms: N3_14  and  C11_16 
REMARK    6  A    between atoms: C11_16  and  C12_17 
REMARK    7  A    between atoms: C12_17  and  N4_18 
REMARK    8  A    between atoms: N4_18  and  C13_20 
REMARK    9  A    between atoms: C18_29  and  N7_30 
REMARK   10  A    between atoms: N7_30  and  C19_32 
ROOT
HETATM    1  C8  UNL     1      11.870  52.669  88.652  1.00  0.00     0.122 A 
HETATM    2  C9  UNL     1      11.569  51.337  88.760  1.00  0.00     0.098 A 
HETATM    3  C10 UNL     1      11.535  50.487  87.646  1.00  0.00     0.124 A 
HETATM    4  N6  UNL     1      11.811  51.042  86.473  1.00  0.00    -0.176 N 
ATOM      5  H6  UNL     1      11.795  50.454  85.640  1.00  0.00     0.186 HD
HETATM    6  C18 UNL     1      12.116  52.372  86.329  1.00  0.00     0.685 A 
HETATM    7  N8  UNL     1      12.135  53.147  87.433  1.00  0.00    -0.176 N 
ATOM      8  H8  UNL     1      12.361  54.136  87.333  1.00  0.00     0.186 HD
ENDROOT
BRANCH   1   9
HETATM    9  N2  UNL     1      11.901  53.487  89.807  1.00  0.00    -0.364 N 
HETATM   10  C7  UNL     1      12.858  54.566  89.976  1.00  0.00     0.144 C 
HETATM   11  C6  UNL     1      13.476  54.555  91.352  1.00  0.00     0.143 C 
HETATM   12  N1  UNL     1      12.580  54.126  92.386  1.00  0.00    -0.378 N 
HETATM   13  C27 UNL     1      11.809  52.928  92.118  1.00  0.00     0.143 C 
HETATM   14  C26 UNL     1      10.951  53.256  90.882  1.00  0.00     0.144 C 
BRANCH  12  15
HETATM   15  C5  UNL     1      12.375  54.782  93.628  1.00  0.00     0.030 A 
HETATM   16  C4  UNL     1      13.428  55.406  94.281  1.00  0.00     0.032 A 
HETATM   17  C3  UNL     1      13.240  56.024  95.495  1.00  0.00     0.039 A 
HETATM   18  C2  UNL     1      12.027  56.072  96.138  1.00  0.00     0.068 A 
HETATM   19  C29 UNL     1      10.970  55.460  95.504  1.00  0.00     0.039 A 
HETATM   20  C28 UNL     1      11.156  54.827  94.269  1.00  0.00     0.032 A 
BRANCH  18  21
HETATM   21  O1  UNL     1      11.913  56.714  97.363  1.00  0.00    -0.356 OA
HETATM   22  C1  UNL     1      11.799  56.050  98.586  1.00  0.00     0.210 C 
ENDBRANCH  18  21
ENDBRANCH  12  15
ENDBRANCH   1   9
BRANCH   3  23
HETATM   23  N3  UNL     1      11.241  49.282  87.868  1.00  0.00    -0.354 N 
ATOM     24  H3  UNL     1      11.150  49.000  88.844  1.00  0.00     0.166 HD
BRANCH  23  25
HETATM   25  C11 UNL     1      11.026  48.289  86.894  1.00  0.00     0.082 C 
BRANCH  25  26
HETATM   26  C12 UNL     1      12.272  47.463  86.608  1.00  0.00     0.165 C 
BRANCH  26  27
HETATM   27  N4  UNL     1      12.826  46.933  87.817  1.00  0.00    -0.372 N 
ATOM     28  H4  UNL     1      12.300  46.237  88.347  1.00  0.00     0.161 HD
BRANCH  27  29
HETATM   29  C13 UNL     1      13.968  47.317  88.243  1.00  0.00     0.101 A 
HETATM   30  C14 UNL     1      15.106  47.339  87.469  1.00  0.00     0.048 A 
HETATM   31  C15 UNL     1      16.280  47.769  88.022  1.00  0.00     0.005 A 
HETATM   32  C16 UNL     1      16.370  48.184  89.333  1.00  0.00     0.017 A 
HETATM   33  C17 UNL     1      15.201  48.145  90.075  1.00  0.00     0.089 A 
HETATM   34  N5  UNL     1      14.040  47.725  89.542  1.00  0.00    -0.353 N 
ATOM     35  H5  UNL     1      13.199  47.711  90.119  1.00  0.00     0.166 HD
ENDBRANCH  27  29
ENDBRANCH  26  27
ENDBRANCH  25  26
ENDBRANCH  23  25
ENDBRANCH   3  23
BRANCH   6  36
HETATM   36  N7  UNL     1      12.373  52.842  85.156  1.00  0.00    -0.191 N 
ATOM     37  H7  UNL     1      11.613  53.244  84.608  1.00  0.00     0.184 HD
BRANCH  36  38
HETATM   38  C19 UNL     1      13.673  52.819  84.608  1.00  0.00     0.055 A 
HETATM   39  C20 UNL     1      14.645  53.680  85.048  1.00  0.00     0.030 A 
HETATM   40  C21 UNL     1      15.907  53.656  84.512  1.00  0.00     0.002 A 
HETATM   41  C22 UNL     1      16.201  52.751  83.514  1.00  0.00     0.001 A 
HETATM   42  C23 UNL     1      15.249  51.866  83.044  1.00  0.00     0.009 A 
HETATM   43  C24 UNL     1      13.979  51.922  83.614  1.00  0.00    -0.035 A 
HETATM   44  C25 UNL     1      12.945  50.986  83.127  1.00  0.00     0.050 C 
ENDBRANCH  36  38
ENDBRANCH   6  36
TORSDOF 10
ENDMDL
