MODEL 1
REMARK VINA RESULT: -8.475772672      0.000      0.000
REMARK  9 active torsions:
REMARK  status: ('A' for Active; 'I' for Inactive)
REMARK    1  A    between atoms: C3_3  and  N1_4 
REMARK    2  A    between atoms: N1_4  and  C4_6 
REMARK    3  A    between atoms: C5_9  and  C6_10 
REMARK    4  A    between atoms: C11_19  and  N5_20 
REMARK    5  A    between atoms: N5_20  and  C12_21 
REMARK    6  A    between atoms: C15_24  and  S1_25 
REMARK    7  A    between atoms: S1_25  and  N6_28 
REMARK    8  A    between atoms: N6_28  and  C16_30 
REMARK    9  A    between atoms: C23_37  and  C24_38 
ROOT
HETATM    1  C1  UNL     1      17.402  52.047  98.133  1.00  0.00     0.014 C 
HETATM    2  C2  UNL     1      16.226  52.259  97.966  1.00  0.00    -0.097 C 
HETATM    3  C3  UNL     1      14.785  52.528  97.738  1.00  0.00     0.231 C 
ENDROOT
BRANCH   3   4
HETATM    4  N1  UNL     1      14.425  52.347  96.375  1.00  0.00    -0.215 N 
ATOM      5  H1  UNL     1      14.742  51.492  95.918  1.00  0.00     0.178 HD
BRANCH   4   6
HETATM    6  C4  UNL     1      13.735  53.165  95.672  1.00  0.00     0.684 A 
HETATM    7  N2  UNL     1      13.155  54.234  96.289  1.00  0.00    -0.174 N 
HETATM    8  C5  UNL     1      12.433  55.094  95.580  1.00  0.00     0.151 A 
ATOM      9  H2  UNL     1      13.276  54.373  97.292  1.00  0.00     0.186 HD
HETATM   10  N4  UNL     1      12.288  54.890  94.258  1.00  0.00    -0.299 N 
HETATM   11  C11 UNL     1      12.844  53.839  93.583  1.00  0.00     0.275 A 
ATOM     12  H4  UNL     1      11.730  55.560  93.728  1.00  0.00     0.171 HD
HETATM   13  N7  UNL     1      13.580  52.980  94.359  1.00  0.00    -0.149 N 
ATOM     14  H7  UNL     1      14.024  52.174  93.918  1.00  0.00     0.188 HD
BRANCH   8  15
HETATM   15  C6  UNL     1      11.813  56.232  96.236  1.00  0.00     0.077 A 
HETATM   16  C7  UNL     1      12.187  57.500  95.908  1.00  0.00     0.033 A 
HETATM   17  C8  UNL     1      11.608  58.623  96.524  1.00  0.00     0.004 A 
HETATM   18  C9  UNL     1      10.653  58.416  97.469  1.00  0.00     0.017 A 
HETATM   19  C10 UNL     1      10.283  57.129  97.792  1.00  0.00     0.088 A 
HETATM   20  N3  UNL     1      10.860  56.081  97.180  1.00  0.00    -0.363 N 
ATOM     21  H3  UNL     1      10.567  55.138  97.437  1.00  0.00     0.165 HD
ENDBRANCH   8  15
BRANCH  11  22
HETATM   22  N5  UNL     1      12.705  53.654  92.405  1.00  0.00    -0.370 NA
BRANCH  22  23
HETATM   23  C12 UNL     1      12.478  53.423  91.143  1.00  0.00     0.118 A 
HETATM   24  C13 UNL     1      11.575  52.333  90.871  1.00  0.00     0.047 A 
HETATM   25  C14 UNL     1      11.266  51.975  89.611  1.00  0.00     0.028 A 
HETATM   26  C15 UNL     1      11.813  52.649  88.566  1.00  0.00     0.080 A 
HETATM   27  C22 UNL     1      12.662  53.674  88.814  1.00  0.00     0.036 A 
HETATM   28  C23 UNL     1      13.042  54.120  90.096  1.00  0.00    -0.007 A 
BRANCH  26  29
HETATM   29  S1  UNL     1      11.433  52.217  86.907  1.00  0.00     0.263 S 
HETATM   30  O1  UNL     1      11.996  50.846  86.678  1.00  0.00    -0.200 OA
HETATM   31  O2  UNL     1       9.931  52.083  86.839  1.00  0.00    -0.200 OA
BRANCH  29  32
HETATM   32  N6  UNL     1      12.039  53.328  85.772  1.00  0.00    -0.281 N 
ATOM     33  H6  UNL     1      11.441  54.114  85.518  1.00  0.00     0.179 HD
BRANCH  32  34
HETATM   34  C16 UNL     1      13.300  53.249  85.157  1.00  0.00     0.042 A 
HETATM   35  C17 UNL     1      13.521  52.266  84.228  1.00  0.00     0.030 A 
HETATM   36  C18 UNL     1      14.723  52.096  83.559  1.00  0.00     0.002 A 
HETATM   37  C19 UNL     1      15.728  52.995  83.880  1.00  0.00     0.000 A 
HETATM   38  C20 UNL     1      15.530  53.989  84.807  1.00  0.00     0.002 A 
HETATM   39  C21 UNL     1      14.319  54.119  85.446  1.00  0.00     0.030 A 
ENDBRANCH  32  34
ENDBRANCH  29  32
ENDBRANCH  26  29
BRANCH  28  40
HETATM   40  C24 UNL     1      13.941  55.234  90.206  1.00  0.00    -0.013 A 
HETATM   41  C25 UNL     1      14.405  55.766  88.803  1.00  0.00     0.020 C 
HETATM   42  C26 UNL     1      14.661  55.835  91.277  1.00  0.00     0.015 A 
HETATM   43  C27 UNL     1      13.314  56.428  91.007  1.00  0.00     0.015 A 
ENDBRANCH  28  40
ENDBRANCH  22  23
ENDBRANCH  11  22
ENDBRANCH   4   6
ENDBRANCH   3   4
TORSDOF 9
ENDMDL
MODEL 2
REMARK VINA RESULT: -8.271216796      1.657      2.393
REMARK  9 active torsions:
REMARK  status: ('A' for Active; 'I' for Inactive)
REMARK    1  A    between atoms: C3_3  and  N1_4 
REMARK    2  A    between atoms: N1_4  and  C4_6 
REMARK    3  A    between atoms: C5_9  and  C6_10 
REMARK    4  A    between atoms: C11_19  and  N5_20 
REMARK    5  A    between atoms: N5_20  and  C12_21 
REMARK    6  A    between atoms: C15_24  and  S1_25 
REMARK    7  A    between atoms: S1_25  and  N6_28 
REMARK    8  A    between atoms: N6_28  and  C16_30 
REMARK    9  A    between atoms: C23_37  and  C24_38 
ROOT
HETATM    1  C1  UNL     1      16.587  52.246  98.032  1.00  0.00     0.014 C 
HETATM    2  C2  UNL     1      15.506  52.214  97.497  1.00  0.00    -0.097 C 
HETATM    3  C3  UNL     1      14.183  52.195  96.826  1.00  0.00     0.231 C 
ENDROOT
BRANCH   3   4
HETATM    4  N1  UNL     1      14.266  52.658  95.485  1.00  0.00    -0.215 N 
ATOM      5  H1  UNL     1      15.079  52.369  94.941  1.00  0.00     0.178 HD
BRANCH   4   6
HETATM    6  C4  UNL     1      13.407  53.406  94.901  1.00  0.00     0.684 A 
HETATM    7  N2  UNL     1      12.864  54.448  95.593  1.00  0.00    -0.174 N 
HETATM    8  C5  UNL     1      11.969  55.234  95.009  1.00  0.00     0.151 A 
ATOM      9  H2  UNL     1      13.145  54.622  96.558  1.00  0.00     0.186 HD
HETATM   10  N4  UNL     1      11.613  54.984  93.735  1.00  0.00    -0.299 N 
HETATM   11  C11 UNL     1      12.120  53.957  92.989  1.00  0.00     0.275 A 
ATOM     12  H4  UNL     1      10.923  55.598  93.300  1.00  0.00     0.171 HD
HETATM   13  N7  UNL     1      13.041  53.174  93.637  1.00  0.00    -0.149 N 
ATOM     14  H7  UNL     1      13.461  52.390  93.138  1.00  0.00     0.188 HD
BRANCH   8  15
HETATM   15  C6  UNL     1      11.388  56.343  95.745  1.00  0.00     0.077 A 
HETATM   16  C7  UNL     1      12.127  57.458  96.003  1.00  0.00     0.033 A 
HETATM   17  C8  UNL     1      11.597  58.548  96.714  1.00  0.00     0.004 A 
HETATM   18  C9  UNL     1      10.311  58.467  97.147  1.00  0.00     0.017 A 
HETATM   19  C10 UNL     1       9.573  57.335  96.881  1.00  0.00     0.088 A 
HETATM   20  N3  UNL     1      10.116  56.313  96.197  1.00  0.00    -0.363 N 
ATOM     21  H3  UNL     1       9.547  55.487  96.012  1.00  0.00     0.165 HD
ENDBRANCH   8  15
BRANCH  11  22
HETATM   22  N5  UNL     1      11.794  53.731  91.856  1.00  0.00    -0.370 NA
BRANCH  22  23
HETATM   23  C12 UNL     1      11.443  53.567  90.612  1.00  0.00     0.118 A 
HETATM   24  C13 UNL     1      12.425  52.923  89.777  1.00  0.00     0.047 A 
HETATM   25  C14 UNL     1      12.201  52.706  88.468  1.00  0.00     0.028 A 
HETATM   26  C15 UNL     1      11.026  53.102  87.912  1.00  0.00     0.080 A 
HETATM   27  C22 UNL     1      10.099  53.708  88.691  1.00  0.00     0.036 A 
HETATM   28  C23 UNL     1      10.244  53.974  90.066  1.00  0.00    -0.007 A 
BRANCH  26  29
HETATM   29  S1  UNL     1      10.692  52.834  86.209  1.00  0.00     0.263 S 
HETATM   30  O1  UNL     1       9.356  52.157  86.132  1.00  0.00    -0.200 OA
HETATM   31  O2  UNL     1      10.519  54.201  85.593  1.00  0.00    -0.200 OA
BRANCH  29  32
HETATM   32  N6  UNL     1      11.892  51.917  85.430  1.00  0.00    -0.281 N 
ATOM     33  H6  UNL     1      11.695  50.931  85.262  1.00  0.00     0.179 HD
BRANCH  32  34
HETATM   34  C16 UNL     1      13.136  52.411  85.000  1.00  0.00     0.042 A 
HETATM   35  C17 UNL     1      13.619  53.564  85.563  1.00  0.00     0.030 A 
HETATM   36  C18 UNL     1      14.831  54.139  85.217  1.00  0.00     0.002 A 
HETATM   37  C19 UNL     1      15.562  53.475  84.243  1.00  0.00     0.000 A 
HETATM   38  C20 UNL     1      15.099  52.318  83.665  1.00  0.00     0.002 A 
HETATM   39  C21 UNL     1      13.888  51.783  84.041  1.00  0.00     0.030 A 
ENDBRANCH  32  34
ENDBRANCH  29  32
ENDBRANCH  26  29
BRANCH  28  40
HETATM   40  C24 UNL     1       9.166  54.611  90.769  1.00  0.00    -0.013 A 
HETATM   41  C25 UNL     1       8.845  56.038  90.199  1.00  0.00     0.020 C 
HETATM   42  C26 UNL     1       8.462  54.340  91.977  1.00  0.00     0.015 A 
HETATM   43  C27 UNL     1       7.851  53.758  90.741  1.00  0.00     0.015 A 
ENDBRANCH  28  40
ENDBRANCH  22  23
ENDBRANCH  11  22
ENDBRANCH   4   6
ENDBRANCH   3   4
TORSDOF 9
ENDMDL
MODEL 3
REMARK VINA RESULT: -8.260123271      3.429     10.240
REMARK  9 active torsions:
REMARK  status: ('A' for Active; 'I' for Inactive)
REMARK    1  A    between atoms: C3_3  and  N1_4 
REMARK    2  A    between atoms: N1_4  and  C4_6 
REMARK    3  A    between atoms: C5_9  and  C6_10 
REMARK    4  A    between atoms: C11_19  and  N5_20 
REMARK    5  A    between atoms: N5_20  and  C12_21 
REMARK    6  A    between atoms: C15_24  and  S1_25 
REMARK    7  A    between atoms: S1_25  and  N6_28 
REMARK    8  A    between atoms: N6_28  and  C16_30 
REMARK    9  A    between atoms: C23_37  and  C24_38 
ROOT
HETATM    1  C1  UNL     1       7.542  50.543  86.802  1.00  0.00     0.014 C 
HETATM    2  C2  UNL     1       7.853  51.533  86.188  1.00  0.00    -0.097 C 
HETATM    3  C3  UNL     1       8.231  52.765  85.452  1.00  0.00     0.231 C 
ENDROOT
BRANCH   3   4
HETATM    4  N1  UNL     1       8.873  53.709  86.299  1.00  0.00    -0.215 N 
ATOM      5  H1  UNL     1       8.332  54.525  86.582  1.00  0.00     0.178 HD
BRANCH   4   6
HETATM    6  C4  UNL     1      10.073  53.620  86.737  1.00  0.00     0.684 A 
HETATM    7  N2  UNL     1      11.086  53.427  85.845  1.00  0.00    -0.174 N 
HETATM    8  C5  UNL     1      12.337  53.330  86.277  1.00  0.00     0.151 A 
ATOM      9  H2  UNL     1      10.882  53.359  84.848  1.00  0.00     0.186 HD
HETATM   10  N4  UNL     1      12.581  53.423  87.597  1.00  0.00    -0.299 N 
HETATM   11  C11 UNL     1      11.610  53.616  88.541  1.00  0.00     0.275 A 
ATOM     12  H4  UNL     1      13.548  53.346  87.913  1.00  0.00     0.171 HD
HETATM   13  N7  UNL     1      10.335  53.711  88.044  1.00  0.00    -0.149 N 
ATOM     14  H7  UNL     1       9.562  53.857  88.693  1.00  0.00     0.188 HD
BRANCH   8  15
HETATM   15  C6  UNL     1      13.417  53.122  85.328  1.00  0.00     0.077 A 
HETATM   16  C7  UNL     1      14.526  53.912  85.368  1.00  0.00     0.033 A 
HETATM   17  C8  UNL     1      15.588  53.739  84.464  1.00  0.00     0.004 A 
HETATM   18  C9  UNL     1      15.485  52.753  83.534  1.00  0.00     0.017 A 
HETATM   19  C10 UNL     1      14.360  51.961  83.503  1.00  0.00     0.088 A 
HETATM   20  N3  UNL     1      13.365  52.157  84.386  1.00  0.00    -0.363 N 
ATOM     21  H3  UNL     1      12.542  51.555  84.342  1.00  0.00     0.165 HD
ENDBRANCH   8  15
BRANCH  11  22
HETATM   22  N5  UNL     1      11.829  53.689  89.718  1.00  0.00    -0.370 NA
BRANCH  22  23
HETATM   23  C12 UNL     1      12.125  53.827  90.980  1.00  0.00     0.118 A 
HETATM   24  C13 UNL     1      11.371  52.993  91.882  1.00  0.00     0.047 A 
HETATM   25  C14 UNL     1      11.562  53.046  93.212  1.00  0.00     0.028 A 
HETATM   26  C15 UNL     1      12.483  53.902  93.727  1.00  0.00     0.080 A 
HETATM   27  C22 UNL     1      13.195  54.689  92.886  1.00  0.00     0.036 A 
HETATM   28  C23 UNL     1      13.064  54.701  91.483  1.00  0.00    -0.007 A 
BRANCH  26  29
HETATM   29  S1  UNL     1      12.766  53.999  95.457  1.00  0.00     0.263 S 
HETATM   30  O1  UNL     1      11.599  53.335  96.124  1.00  0.00    -0.200 OA
HETATM   31  O2  UNL     1      13.972  53.135  95.737  1.00  0.00    -0.200 OA
BRANCH  29  32
HETATM   32  N6  UNL     1      12.966  55.593  96.013  1.00  0.00    -0.281 N 
ATOM     33  H6  UNL     1      13.919  55.919  96.174  1.00  0.00     0.179 HD
BRANCH  32  34
HETATM   34  C16 UNL     1      11.921  56.498  96.265  1.00  0.00     0.042 A 
HETATM   35  C17 UNL     1      12.216  57.831  96.388  1.00  0.00     0.030 A 
HETATM   36  C18 UNL     1      11.266  58.809  96.635  1.00  0.00     0.002 A 
HETATM   37  C19 UNL     1       9.957  58.368  96.757  1.00  0.00     0.000 A 
HETATM   38  C20 UNL     1       9.637  57.037  96.637  1.00  0.00     0.002 A 
HETATM   39  C21 UNL     1      10.614  56.101  96.392  1.00  0.00     0.030 A 
ENDBRANCH  32  34
ENDBRANCH  29  32
ENDBRANCH  26  29
BRANCH  28  40
HETATM   40  C24 UNL     1      13.901  55.580  90.715  1.00  0.00    -0.013 A 
HETATM   41  C25 UNL     1      13.672  57.090  91.080  1.00  0.00     0.020 C 
HETATM   42  C26 UNL     1      14.734  55.420  89.571  1.00  0.00     0.015 A 
HETATM   43  C27 UNL     1      15.425  55.253  90.888  1.00  0.00     0.015 A 
ENDBRANCH  28  40
ENDBRANCH  22  23
ENDBRANCH  11  22
ENDBRANCH   4   6
ENDBRANCH   3   4
TORSDOF 9
ENDMDL
MODEL 4
REMARK VINA RESULT: -8.247133844      1.061      4.114
REMARK  9 active torsions:
REMARK  status: ('A' for Active; 'I' for Inactive)
REMARK    1  A    between atoms: C3_3  and  N1_4 
REMARK    2  A    between atoms: N1_4  and  C4_6 
REMARK    3  A    between atoms: C5_9  and  C6_10 
REMARK    4  A    between atoms: C11_19  and  N5_20 
REMARK    5  A    between atoms: N5_20  and  C12_21 
REMARK    6  A    between atoms: C15_24  and  S1_25 
REMARK    7  A    between atoms: S1_25  and  N6_28 
REMARK    8  A    between atoms: N6_28  and  C16_30 
REMARK    9  A    between atoms: C23_37  and  C24_38 
ROOT
HETATM    1  C1  UNL     1      11.844  59.014  96.614  1.00  0.00     0.014 C 
HETATM    2  C2  UNL     1      11.485  57.893  96.352  1.00  0.00    -0.097 C 
HETATM    3  C3  UNL     1      11.066  56.507  96.026  1.00  0.00     0.231 C 
ENDROOT
BRANCH   3   4
HETATM    4  N1  UNL     1      12.044  55.555  96.421  1.00  0.00    -0.215 N 
ATOM      5  H1  UNL     1      12.355  55.581  97.392  1.00  0.00     0.178 HD
BRANCH   4   6
HETATM    6  C4  UNL     1      12.567  54.666  95.663  1.00  0.00     0.684 A 
HETATM    7  N2  UNL     1      13.429  53.761  96.209  1.00  0.00    -0.174 N 
HETATM    8  C5  UNL     1      13.986  52.833  95.441  1.00  0.00     0.151 A 
ATOM      9  H2  UNL     1      13.645  53.798  97.205  1.00  0.00     0.186 HD
HETATM   10  N4  UNL     1      13.686  52.804  94.129  1.00  0.00    -0.299 N 
HETATM   11  C11 UNL     1      12.830  53.682  93.523  1.00  0.00     0.275 A 
ATOM     12  H4  UNL     1      14.122  52.084  93.553  1.00  0.00     0.171 HD
HETATM   13  N7  UNL     1      12.280  54.620  94.359  1.00  0.00    -0.149 N 
ATOM     14  H7  UNL     1      11.632  55.306  93.972  1.00  0.00     0.188 HD
BRANCH   8  15
HETATM   15  C6  UNL     1      14.906  51.870  96.021  1.00  0.00     0.077 A 
HETATM   16  C7  UNL     1      15.436  52.085  97.257  1.00  0.00     0.033 A 
HETATM   17  C8  UNL     1      16.330  51.175  97.846  1.00  0.00     0.004 A 
HETATM   18  C9  UNL     1      16.661  50.058  97.147  1.00  0.00     0.017 A 
HETATM   19  C10 UNL     1      16.119  49.850  95.899  1.00  0.00     0.088 A 
HETATM   20  N3  UNL     1      15.266  50.744  95.369  1.00  0.00    -0.363 N 
ATOM     21  H3  UNL     1      14.878  50.566  94.443  1.00  0.00     0.165 HD
ENDBRANCH   8  15
BRANCH  11  22
HETATM   22  N5  UNL     1      12.571  53.660  92.352  1.00  0.00    -0.370 NA
BRANCH  22  23
HETATM   23  C12 UNL     1      12.283  53.553  91.086  1.00  0.00     0.118 A 
HETATM   24  C13 UNL     1      11.223  52.628  90.773  1.00  0.00     0.047 A 
HETATM   25  C14 UNL     1      10.835  52.407  89.504  1.00  0.00     0.028 A 
HETATM   26  C15 UNL     1      11.451  53.065  88.488  1.00  0.00     0.080 A 
HETATM   27  C22 UNL     1      12.447  53.936  88.774  1.00  0.00     0.036 A 
HETATM   28  C23 UNL     1      12.919  54.231  90.068  1.00  0.00    -0.007 A 
BRANCH  26  29
HETATM   29  S1  UNL     1      10.971  52.809  86.818  1.00  0.00     0.263 S 
HETATM   30  O1  UNL     1       9.628  52.144  86.851  1.00  0.00    -0.200 OA
HETATM   31  O2  UNL     1      10.759  54.180  86.224  1.00  0.00    -0.200 OA
BRANCH  29  32
HETATM   32  N6  UNL     1      12.094  51.886  85.935  1.00  0.00    -0.281 N 
ATOM     33  H6  UNL     1      11.923  50.883  85.862  1.00  0.00     0.179 HD
BRANCH  32  34
HETATM   34  C16 UNL     1      13.238  52.396  85.299  1.00  0.00     0.042 A 
HETATM   35  C17 UNL     1      13.790  51.687  84.264  1.00  0.00     0.030 A 
HETATM   36  C18 UNL     1      14.915  52.096  83.566  1.00  0.00     0.002 A 
HETATM   37  C19 UNL     1      15.478  53.296  83.972  1.00  0.00     0.000 A 
HETATM   38  C20 UNL     1      14.943  54.024  85.006  1.00  0.00     0.002 A 
HETATM   39  C21 UNL     1      13.824  53.579  85.671  1.00  0.00     0.030 A 
ENDBRANCH  32  34
ENDBRANCH  29  32
ENDBRANCH  26  29
BRANCH  28  40
HETATM   40  C24 UNL     1      13.975  55.191  90.220  1.00  0.00    -0.013 A 
HETATM   41  C25 UNL     1      14.434  55.795  88.845  1.00  0.00     0.020 C 
HETATM   42  C26 UNL     1      14.833  55.572  91.291  1.00  0.00     0.015 A 
HETATM   43  C27 UNL     1      13.574  56.372  91.171  1.00  0.00     0.015 A 
ENDBRANCH  28  40
ENDBRANCH  22  23
ENDBRANCH  11  22
ENDBRANCH   4   6
ENDBRANCH   3   4
TORSDOF 9
ENDMDL
MODEL 5
REMARK VINA RESULT: -8.221667354      3.468     10.411
REMARK  9 active torsions:
REMARK  status: ('A' for Active; 'I' for Inactive)
REMARK    1  A    between atoms: C3_3  and  N1_4 
REMARK    2  A    between atoms: N1_4  and  C4_6 
REMARK    3  A    between atoms: C5_9  and  C6_10 
REMARK    4  A    between atoms: C11_19  and  N5_20 
REMARK    5  A    between atoms: N5_20  and  C12_21 
REMARK    6  A    between atoms: C15_24  and  S1_25 
REMARK    7  A    between atoms: S1_25  and  N6_28 
REMARK    8  A    between atoms: N6_28  and  C16_30 
REMARK    9  A    between atoms: C23_37  and  C24_38 
ROOT
HETATM    1  C1  UNL     1       5.942  52.439  85.439  1.00  0.00     0.014 C 
HETATM    2  C2  UNL     1       7.109  52.653  85.218  1.00  0.00    -0.097 C 
HETATM    3  C3  UNL     1       8.541  52.940  84.956  1.00  0.00     0.231 C 
ENDROOT
BRANCH   3   4
HETATM    4  N1  UNL     1       9.108  53.757  85.971  1.00  0.00    -0.215 N 
ATOM      5  H1  UNL     1       8.519  54.491  86.363  1.00  0.00     0.178 HD
BRANCH   4   6
HETATM    6  C4  UNL     1      10.297  53.650  86.436  1.00  0.00     0.684 A 
HETATM    7  N2  UNL     1      11.325  53.432  85.567  1.00  0.00    -0.174 N 
HETATM    8  C5  UNL     1      12.564  53.314  86.027  1.00  0.00     0.151 A 
ATOM      9  H2  UNL     1      11.141  53.361  84.566  1.00  0.00     0.186 HD
HETATM   10  N4  UNL     1      12.781  53.412  87.351  1.00  0.00    -0.299 N 
HETATM   11  C11 UNL     1      11.794  53.629  88.272  1.00  0.00     0.275 A 
ATOM     12  H4  UNL     1      13.740  53.320  87.689  1.00  0.00     0.171 HD
HETATM   13  N7  UNL     1      10.532  53.745  87.747  1.00  0.00    -0.149 N 
ATOM     14  H7  UNL     1       9.748  53.909  88.379  1.00  0.00     0.188 HD
BRANCH   8  15
HETATM   15  C6  UNL     1      13.660  53.080  85.103  1.00  0.00     0.077 A 
HETATM   16  C7  UNL     1      14.781  53.852  85.158  1.00  0.00     0.033 A 
HETATM   17  C8  UNL     1      15.859  53.654  84.278  1.00  0.00     0.004 A 
HETATM   18  C9  UNL     1      15.759  52.661  83.356  1.00  0.00     0.017 A 
HETATM   19  C10 UNL     1      14.622  51.886  83.309  1.00  0.00     0.088 A 
HETATM   20  N3  UNL     1      13.612  52.107  84.169  1.00  0.00    -0.363 N 
ATOM     21  H3  UNL     1      12.781  51.518  84.113  1.00  0.00     0.165 HD
ENDBRANCH   8  15
BRANCH  11  22
HETATM   22  N5  UNL     1      11.989  53.707  89.454  1.00  0.00    -0.370 NA
BRANCH  22  23
HETATM   23  C12 UNL     1      12.122  53.814  90.745  1.00  0.00     0.118 A 
HETATM   24  C13 UNL     1      11.280  52.941  91.524  1.00  0.00     0.047 A 
HETATM   25  C14 UNL     1      11.303  52.959  92.869  1.00  0.00     0.028 A 
HETATM   26  C15 UNL     1      12.134  53.817  93.516  1.00  0.00     0.080 A 
HETATM   27  C22 UNL     1      12.928  54.640  92.792  1.00  0.00     0.036 A 
HETATM   28  C23 UNL     1      12.973  54.690  91.385  1.00  0.00    -0.007 A 
BRANCH  26  29
HETATM   29  S1  UNL     1      12.197  53.869  95.271  1.00  0.00     0.263 S 
HETATM   30  O1  UNL     1      12.142  52.449  95.747  1.00  0.00    -0.200 OA
HETATM   31  O2  UNL     1      13.566  54.392  95.629  1.00  0.00    -0.200 OA
BRANCH  29  32
HETATM   32  N6  UNL     1      10.947  54.797  95.956  1.00  0.00    -0.281 N 
ATOM     33  H6  UNL     1      10.090  54.311  96.217  1.00  0.00     0.179 HD
BRANCH  32  34
HETATM   34  C16 UNL     1      11.004  56.181  96.192  1.00  0.00     0.042 A 
HETATM   35  C17 UNL     1       9.885  56.818  96.663  1.00  0.00     0.030 A 
HETATM   36  C18 UNL     1       9.829  58.176  96.931  1.00  0.00     0.002 A 
HETATM   37  C19 UNL     1      10.993  58.890  96.695  1.00  0.00     0.000 A 
HETATM   38  C20 UNL     1      12.127  58.274  96.224  1.00  0.00     0.002 A 
HETATM   39  C21 UNL     1      12.137  56.922  95.972  1.00  0.00     0.030 A 
ENDBRANCH  32  34
ENDBRANCH  29  32
ENDBRANCH  26  29
BRANCH  28  40
HETATM   40  C24 UNL     1      13.880  55.606  90.751  1.00  0.00    -0.013 A 
HETATM   41  C25 UNL     1      13.734  57.068  91.304  1.00  0.00     0.020 C 
HETATM   42  C26 UNL     1      14.729  55.542  89.610  1.00  0.00     0.015 A 
HETATM   43  C27 UNL     1      15.377  55.164  90.905  1.00  0.00     0.015 A 
ENDBRANCH  28  40
ENDBRANCH  22  23
ENDBRANCH  11  22
ENDBRANCH   4   6
ENDBRANCH   3   4
TORSDOF 9
ENDMDL
