MODEL 1
REMARK VINA RESULT: -9.049454182      0.000      0.000
REMARK  9 active torsions:
REMARK  status: ('A' for Active; 'I' for Inactive)
REMARK    1  A    between atoms: C3_4  and  C4_5 
REMARK    2  A    between atoms: C4_5  and  N1_6 
REMARK    3  A    between atoms: N1_6  and  C5_8 
REMARK    4  A    between atoms: C6_11  and  N3_12 
REMARK    5  A    between atoms: N3_12  and  C7_14 
REMARK    6  A    between atoms: C10_17  and  O2_18 
REMARK    7  A    between atoms: O2_18  and  C11_19 
REMARK    8  A    between atoms: C11_19  and  C12_20 
REMARK    9  A    between atoms: C23_31  and  C24_32 
ROOT
HETATM    1  C5  UNL     1      10.363  52.877  87.024  1.00  0.00     0.680 A 
HETATM    2  N2  UNL     1      11.063  53.560  87.923  1.00  0.00    -0.176 N 
ATOM      3  H2  UNL     1      10.598  53.832  88.790  1.00  0.00     0.186 HD
HETATM    4  C6  UNL     1      12.387  53.922  87.751  1.00  0.00     0.134 A 
HETATM    5  C20 UNL     1      12.963  53.520  86.547  1.00  0.00     0.036 A 
HETATM    6  C21 UNL     1      14.273  53.804  86.224  1.00  0.00     0.018 A 
HETATM    7  C22 UNL     1      14.838  53.397  85.013  1.00  0.00     0.013 A 
HETATM    8  C23 UNL     1      14.097  52.691  84.092  1.00  0.00    -0.022 A 
HETATM    9  C29 UNL     1      12.791  52.402  84.401  1.00  0.00     0.043 A 
HETATM   10  C30 UNL     1      12.225  52.807  85.611  1.00  0.00     0.064 A 
HETATM   11  N5  UNL     1      10.944  52.515  85.895  1.00  0.00    -0.191 N 
ATOM     12  H5  UNL     1      10.399  51.991  85.211  1.00  0.00     0.184 HD
ENDROOT
BRANCH   4  13
HETATM   13  N3  UNL     1      12.963  54.542  88.604  1.00  0.00    -0.341 N 
ATOM     14  H3  UNL     1      13.612  55.103  88.053  1.00  0.00     0.167 HD
BRANCH  13  15
HETATM   15  C7  UNL     1      13.256  54.931  89.850  1.00  0.00     0.033 A 
HETATM   16  C8  UNL     1      14.408  55.671  90.198  1.00  0.00     0.032 A 
HETATM   17  C9  UNL     1      14.683  56.050  91.482  1.00  0.00     0.039 A 
HETATM   18  C10 UNL     1      13.819  55.710  92.500  1.00  0.00     0.069 A 
HETATM   19  C18 UNL     1      12.689  54.987  92.177  1.00  0.00     0.039 A 
HETATM   20  C19 UNL     1      12.395  54.598  90.907  1.00  0.00     0.032 A 
BRANCH  18  21
HETATM   21  O2  UNL     1      14.055  56.071  93.816  1.00  0.00    -0.347 OA
BRANCH  21  22
HETATM   22  C11 UNL     1      13.374  55.376  94.848  1.00  0.00     0.214 C 
BRANCH  22  23
HETATM   23  C12 UNL     1      12.334  56.224  95.476  1.00  0.00    -0.034 A 
HETATM   24  C13 UNL     1      11.060  55.736  95.639  1.00  0.00     0.009 A 
HETATM   25  C14 UNL     1      10.067  56.516  96.227  1.00  0.00     0.001 A 
HETATM   26  C15 UNL     1      10.400  57.789  96.641  1.00  0.00     0.000 A 
HETATM   27  C16 UNL     1      11.668  58.306  96.491  1.00  0.00     0.001 A 
HETATM   28  C17 UNL     1      12.628  57.500  95.901  1.00  0.00     0.009 A 
ENDBRANCH  22  23
ENDBRANCH  21  22
ENDBRANCH  18  21
ENDBRANCH  13  15
ENDBRANCH   4  13
BRANCH   1  29
HETATM   29  N1  UNL     1       9.132  52.604  87.316  1.00  0.00    -0.224 N 
ATOM     30  H1  UNL     1       8.869  51.620  87.354  1.00  0.00     0.177 HD
BRANCH  29  31
HETATM   31  C4  UNL     1       8.114  53.559  87.588  1.00  0.00     0.161 C 
BRANCH  31  32
HETATM   32  C3  UNL     1       7.839  53.503  89.094  1.00  0.00     0.126 C 
HETATM   33  C2  UNL     1       8.415  54.750  89.769  1.00  0.00     0.128 C 
HETATM   34  C1  UNL     1       8.619  54.267  91.152  1.00  0.00     0.234 C 
HETATM   35  O1  UNL     1       8.728  54.958  92.178  1.00  0.00    -0.272 OA
HETATM   36  N7  UNL     1       8.664  52.852  91.071  1.00  0.00    -0.274 N 
HETATM   37  N6  UNL     1       8.629  52.459  89.718  1.00  0.00    -0.132 NA
ATOM     38  H7  UNL     1       8.715  52.217  91.868  1.00  0.00     0.185 HD
ENDBRANCH  31  32
ENDBRANCH  29  31
ENDBRANCH   1  29
BRANCH   8  39
HETATM   39  C24 UNL     1      14.714  52.278  82.832  1.00  0.00    -0.011 A 
HETATM   40  C25 UNL     1      14.021  51.488  81.941  1.00  0.00     0.015 A 
HETATM   41  C26 UNL     1      14.566  51.073  80.738  1.00  0.00     0.018 A 
HETATM   42  C27 UNL     1      15.843  51.470  80.433  1.00  0.00     0.087 A 
HETATM   43  N4  UNL     1      16.536  52.239  81.288  1.00  0.00    -0.374 N 
HETATM   44  C28 UNL     1      15.994  52.643  82.468  1.00  0.00     0.099 A 
ATOM     45  H4  UNL     1      17.485  52.526  81.048  1.00  0.00     0.164 HD
ENDBRANCH   8  39
TORSDOF 9
ENDMDL
MODEL 2
REMARK VINA RESULT: -9.046779308      0.845      1.305
REMARK  9 active torsions:
REMARK  status: ('A' for Active; 'I' for Inactive)
REMARK    1  A    between atoms: C3_4  and  C4_5 
REMARK    2  A    between atoms: C4_5  and  N1_6 
REMARK    3  A    between atoms: N1_6  and  C5_8 
REMARK    4  A    between atoms: C6_11  and  N3_12 
REMARK    5  A    between atoms: N3_12  and  C7_14 
REMARK    6  A    between atoms: C10_17  and  O2_18 
REMARK    7  A    between atoms: O2_18  and  C11_19 
REMARK    8  A    between atoms: C11_19  and  C12_20 
REMARK    9  A    between atoms: C23_31  and  C24_32 
ROOT
HETATM    1  C5  UNL     1      10.257  52.245  87.622  1.00  0.00     0.680 A 
HETATM    2  N2  UNL     1      10.843  53.049  88.502  1.00  0.00    -0.176 N 
ATOM      3  H2  UNL     1      10.365  53.227  89.385  1.00  0.00     0.186 HD
HETATM    4  C6  UNL     1      12.066  53.658  88.287  1.00  0.00     0.134 A 
HETATM    5  C20 UNL     1      12.667  53.375  87.062  1.00  0.00     0.036 A 
HETATM    6  C21 UNL     1      13.886  53.905  86.697  1.00  0.00     0.018 A 
HETATM    7  C22 UNL     1      14.477  53.614  85.465  1.00  0.00     0.013 A 
HETATM    8  C23 UNL     1      13.854  52.778  84.565  1.00  0.00    -0.022 A 
HETATM    9  C29 UNL     1      12.640  52.244  84.916  1.00  0.00     0.043 A 
HETATM   10  C30 UNL     1      12.048  52.533  86.146  1.00  0.00     0.064 A 
HETATM   11  N5  UNL     1      10.858  52.001  86.472  1.00  0.00    -0.191 N 
ATOM     12  H5  UNL     1      10.399  51.382  85.803  1.00  0.00     0.184 HD
ENDROOT
BRANCH   4  13
HETATM   13  N3  UNL     1      12.542  54.378  89.125  1.00  0.00    -0.341 N 
ATOM     14  H3  UNL     1      12.899  55.149  88.561  1.00  0.00     0.167 HD
BRANCH  13  15
HETATM   15  C7  UNL     1      12.879  54.764  90.360  1.00  0.00     0.033 A 
HETATM   16  C8  UNL     1      14.056  55.480  90.671  1.00  0.00     0.032 A 
HETATM   17  C9  UNL     1      14.377  55.858  91.945  1.00  0.00     0.039 A 
HETATM   18  C10 UNL     1      13.535  55.540  92.989  1.00  0.00     0.069 A 
HETATM   19  C18 UNL     1      12.381  54.842  92.701  1.00  0.00     0.039 A 
HETATM   20  C19 UNL     1      12.042  54.455  91.442  1.00  0.00     0.032 A 
BRANCH  18  21
HETATM   21  O2  UNL     1      13.817  55.901  94.296  1.00  0.00    -0.347 OA
BRANCH  21  22
HETATM   22  C11 UNL     1      12.993  55.400  95.336  1.00  0.00     0.214 C 
BRANCH  22  23
HETATM   23  C12 UNL     1      12.054  56.435  95.828  1.00  0.00    -0.034 A 
HETATM   24  C13 UNL     1      12.508  57.708  96.076  1.00  0.00     0.009 A 
HETATM   25  C14 UNL     1      11.642  58.696  96.539  1.00  0.00     0.001 A 
HETATM   26  C15 UNL     1      10.319  58.360  96.741  1.00  0.00     0.000 A 
HETATM   27  C16 UNL     1       9.835  57.092  96.502  1.00  0.00     0.001 A 
HETATM   28  C17 UNL     1      10.727  56.137  96.042  1.00  0.00     0.009 A 
ENDBRANCH  22  23
ENDBRANCH  21  22
ENDBRANCH  18  21
ENDBRANCH  13  15
ENDBRANCH   4  13
BRANCH   1  29
HETATM   29  N1  UNL     1       9.111  51.741  87.953  1.00  0.00    -0.224 N 
ATOM     30  H1  UNL     1       9.118  50.832  88.415  1.00  0.00     0.177 HD
BRANCH  29  31
HETATM   31  C4  UNL     1       7.845  52.346  87.729  1.00  0.00     0.161 C 
BRANCH  31  32
HETATM   32  C3  UNL     1       7.358  52.880  89.081  1.00  0.00     0.126 C 
HETATM   33  C2  UNL     1       7.619  54.385  89.163  1.00  0.00     0.128 C 
HETATM   34  C1  UNL     1       7.687  54.591  90.626  1.00  0.00     0.234 C 
HETATM   35  O1  UNL     1       7.529  55.659  91.240  1.00  0.00    -0.272 OA
HETATM   36  N7  UNL     1       7.970  53.320  91.189  1.00  0.00    -0.274 N 
HETATM   37  N6  UNL     1       8.202  52.391  90.154  1.00  0.00    -0.132 NA
ATOM     38  H7  UNL     1       8.000  53.111  92.187  1.00  0.00     0.185 HD
ENDBRANCH  31  32
ENDBRANCH  29  31
ENDBRANCH   1  29
BRANCH   8  39
HETATM   39  C24 UNL     1      14.496  52.491  83.282  1.00  0.00    -0.011 A 
HETATM   40  C25 UNL     1      15.803  52.864  83.057  1.00  0.00     0.015 A 
HETATM   41  C26 UNL     1      16.450  52.614  81.859  1.00  0.00     0.018 A 
HETATM   42  C27 UNL     1      15.753  51.971  80.868  1.00  0.00     0.087 A 
HETATM   43  N4  UNL     1      14.478  51.600  81.066  1.00  0.00    -0.374 N 
HETATM   44  C28 UNL     1      13.850  51.849  82.246  1.00  0.00     0.099 A 
ATOM     45  H4  UNL     1      13.972  51.123  80.320  1.00  0.00     0.164 HD
ENDBRANCH   8  39
TORSDOF 9
ENDMDL
MODEL 3
REMARK VINA RESULT: -8.915947505      0.970      1.287
REMARK  9 active torsions:
REMARK  status: ('A' for Active; 'I' for Inactive)
REMARK    1  A    between atoms: C3_4  and  C4_5 
REMARK    2  A    between atoms: C4_5  and  N1_6 
REMARK    3  A    between atoms: N1_6  and  C5_8 
REMARK    4  A    between atoms: C6_11  and  N3_12 
REMARK    5  A    between atoms: N3_12  and  C7_14 
REMARK    6  A    between atoms: C10_17  and  O2_18 
REMARK    7  A    between atoms: O2_18  and  C11_19 
REMARK    8  A    between atoms: C11_19  and  C12_20 
REMARK    9  A    between atoms: C23_31  and  C24_32 
ROOT
HETATM    1  C5  UNL     1      10.339  52.813  87.054  1.00  0.00     0.680 A 
HETATM    2  N2  UNL     1      11.022  53.497  87.965  1.00  0.00    -0.176 N 
ATOM      3  H2  UNL     1      10.547  53.754  88.830  1.00  0.00     0.186 HD
HETATM    4  C6  UNL     1      12.341  53.880  87.807  1.00  0.00     0.134 A 
HETATM    5  C20 UNL     1      12.933  53.499  86.604  1.00  0.00     0.036 A 
HETATM    6  C21 UNL     1      14.241  53.806  86.294  1.00  0.00     0.018 A 
HETATM    7  C22 UNL     1      14.821  53.419  85.083  1.00  0.00     0.013 A 
HETATM    8  C23 UNL     1      14.098  52.710  84.150  1.00  0.00    -0.022 A 
HETATM    9  C29 UNL     1      12.794  52.399  84.446  1.00  0.00     0.043 A 
HETATM   10  C30 UNL     1      12.213  52.784  85.655  1.00  0.00     0.064 A 
HETATM   11  N5  UNL     1      10.934  52.470  85.927  1.00  0.00    -0.191 N 
ATOM     12  H5  UNL     1      10.402  51.945  85.233  1.00  0.00     0.184 HD
ENDROOT
BRANCH   4  13
HETATM   13  N3  UNL     1      12.902  54.501  88.670  1.00  0.00    -0.341 N 
ATOM     14  H3  UNL     1      13.519  55.105  88.128  1.00  0.00     0.167 HD
BRANCH  13  15
HETATM   15  C7  UNL     1      13.194  54.867  89.923  1.00  0.00     0.033 A 
HETATM   16  C8  UNL     1      14.360  55.574  90.289  1.00  0.00     0.032 A 
HETATM   17  C9  UNL     1      14.635  55.931  91.580  1.00  0.00     0.039 A 
HETATM   18  C10 UNL     1      13.754  55.600  92.587  1.00  0.00     0.069 A 
HETATM   19  C18 UNL     1      12.610  54.909  92.246  1.00  0.00     0.039 A 
HETATM   20  C19 UNL     1      12.317  54.543  90.969  1.00  0.00     0.032 A 
BRANCH  18  21
HETATM   21  O2  UNL     1      13.988  55.939  93.909  1.00  0.00    -0.347 OA
BRANCH  21  22
HETATM   22  C11 UNL     1      13.239  55.290  94.924  1.00  0.00     0.214 C 
BRANCH  22  23
HETATM   23  C12 UNL     1      12.249  56.206  95.535  1.00  0.00    -0.034 A 
HETATM   24  C13 UNL     1      12.633  57.467  95.924  1.00  0.00     0.009 A 
HETATM   25  C14 UNL     1      11.718  58.344  96.502  1.00  0.00     0.001 A 
HETATM   26  C15 UNL     1      10.418  57.912  96.669  1.00  0.00     0.000 A 
HETATM   27  C16 UNL     1      10.004  56.654  96.289  1.00  0.00     0.001 A 
HETATM   28  C17 UNL     1      10.943  55.810  95.719  1.00  0.00     0.009 A 
ENDBRANCH  22  23
ENDBRANCH  21  22
ENDBRANCH  18  21
ENDBRANCH  13  15
ENDBRANCH   4  13
BRANCH   1  29
HETATM   29  N1  UNL     1       9.110  52.519  87.334  1.00  0.00    -0.224 N 
ATOM     30  H1  UNL     1       8.544  52.120  86.585  1.00  0.00     0.177 HD
BRANCH  29  31
HETATM   31  C4  UNL     1       8.480  52.705  88.594  1.00  0.00     0.161 C 
BRANCH  31  32
HETATM   32  C3  UNL     1       7.888  54.118  88.596  1.00  0.00     0.126 C 
HETATM   33  C2  UNL     1       8.267  54.833  89.895  1.00  0.00     0.128 C 
HETATM   34  C1  UNL     1       7.182  55.832  90.006  1.00  0.00     0.234 C 
HETATM   35  O1  UNL     1       7.196  56.882  90.669  1.00  0.00    -0.272 OA
HETATM   36  N7  UNL     1       6.118  55.348  89.203  1.00  0.00    -0.274 N 
HETATM   37  N6  UNL     1       6.444  54.065  88.718  1.00  0.00    -0.132 NA
ATOM     38  H7  UNL     1       5.253  55.851  89.005  1.00  0.00     0.185 HD
ENDBRANCH  31  32
ENDBRANCH  29  31
ENDBRANCH   1  29
BRANCH   8  39
HETATM   39  C24 UNL     1      14.731  52.318  82.891  1.00  0.00    -0.011 A 
HETATM   40  C25 UNL     1      14.047  51.548  81.976  1.00  0.00     0.015 A 
HETATM   41  C26 UNL     1      14.607  51.154  80.772  1.00  0.00     0.018 A 
HETATM   42  C27 UNL     1      15.889  51.551  80.493  1.00  0.00     0.087 A 
HETATM   43  N4  UNL     1      16.574  52.301  81.372  1.00  0.00    -0.374 N 
HETATM   44  C28 UNL     1      16.017  52.684  82.552  1.00  0.00     0.099 A 
ATOM     45  H4  UNL     1      17.527  52.588  81.151  1.00  0.00     0.164 HD
ENDBRANCH   8  39
TORSDOF 9
ENDMDL
MODEL 4
REMARK VINA RESULT: -8.873653693      4.515     10.377
REMARK  9 active torsions:
REMARK  status: ('A' for Active; 'I' for Inactive)
REMARK    1  A    between atoms: C3_4  and  C4_5 
REMARK    2  A    between atoms: C4_5  and  N1_6 
REMARK    3  A    between atoms: N1_6  and  C5_8 
REMARK    4  A    between atoms: C6_11  and  N3_12 
REMARK    5  A    between atoms: N3_12  and  C7_14 
REMARK    6  A    between atoms: C10_17  and  O2_18 
REMARK    7  A    between atoms: O2_18  and  C11_19 
REMARK    8  A    between atoms: C11_19  and  C12_20 
REMARK    9  A    between atoms: C23_31  and  C24_32 
ROOT
HETATM    1  C5  UNL     1      12.481  55.518  96.240  1.00  0.00     0.680 A 
HETATM    2  N2  UNL     1      12.321  55.591  94.924  1.00  0.00    -0.176 N 
ATOM      3  H2  UNL     1      11.795  56.379  94.546  1.00  0.00     0.186 HD
HETATM    4  C6  UNL     1      12.828  54.660  94.037  1.00  0.00     0.134 A 
HETATM    5  C20 UNL     1      13.537  53.608  94.616  1.00  0.00     0.036 A 
HETATM    6  C21 UNL     1      14.103  52.598  93.867  1.00  0.00     0.018 A 
HETATM    7  C22 UNL     1      14.809  51.549  94.461  1.00  0.00     0.013 A 
HETATM    8  C23 UNL     1      14.965  51.489  95.828  1.00  0.00    -0.022 A 
HETATM    9  C29 UNL     1      14.406  52.488  96.584  1.00  0.00     0.043 A 
HETATM   10  C30 UNL     1      13.700  53.537  95.994  1.00  0.00     0.064 A 
HETATM   11  N5  UNL     1      13.159  54.506  96.752  1.00  0.00    -0.191 N 
ATOM     12  H5  UNL     1      13.276  54.458  97.764  1.00  0.00     0.184 HD
ENDROOT
BRANCH   4  13
HETATM   13  N3  UNL     1      12.645  54.783  92.855  1.00  0.00    -0.341 N 
ATOM     14  H3  UNL     1      11.668  55.073  92.823  1.00  0.00     0.167 HD
BRANCH  13  15
HETATM   15  C7  UNL     1      12.968  54.766  91.557  1.00  0.00     0.033 A 
HETATM   16  C8  UNL     1      12.344  53.936  90.599  1.00  0.00     0.032 A 
HETATM   17  C9  UNL     1      12.698  53.936  89.278  1.00  0.00     0.039 A 
HETATM   18  C10 UNL     1      13.703  54.770  88.836  1.00  0.00     0.069 A 
HETATM   19  C18 UNL     1      14.321  55.586  89.760  1.00  0.00     0.039 A 
HETATM   20  C19 UNL     1      13.986  55.602  91.078  1.00  0.00     0.032 A 
BRANCH  18  21
HETATM   21  O2  UNL     1      14.096  54.805  87.509  1.00  0.00    -0.347 OA
BRANCH  21  22
HETATM   22  C11 UNL     1      13.207  54.312  86.519  1.00  0.00     0.214 C 
BRANCH  22  23
HETATM   23  C12 UNL     1      13.933  53.577  85.458  1.00  0.00    -0.034 A 
HETATM   24  C13 UNL     1      13.386  52.439  84.916  1.00  0.00     0.009 A 
HETATM   25  C14 UNL     1      14.052  51.733  83.918  1.00  0.00     0.001 A 
HETATM   26  C15 UNL     1      15.274  52.208  83.489  1.00  0.00     0.000 A 
HETATM   27  C16 UNL     1      15.849  53.345  84.013  1.00  0.00     0.001 A 
HETATM   28  C17 UNL     1      15.156  54.020  85.005  1.00  0.00     0.009 A 
ENDBRANCH  22  23
ENDBRANCH  21  22
ENDBRANCH  18  21
ENDBRANCH  13  15
ENDBRANCH   4  13
BRANCH   1  29
HETATM   29  N1  UNL     1      11.953  56.460  96.954  1.00  0.00    -0.224 N 
ATOM     30  H1  UNL     1      11.784  56.260  97.940  1.00  0.00     0.177 HD
BRANCH  29  31
HETATM   31  C4  UNL     1      11.590  57.751  96.483  1.00  0.00     0.161 C 
BRANCH  31  32
HETATM   32  C3  UNL     1      10.069  57.870  96.629  1.00  0.00     0.126 C 
HETATM   33  C2  UNL     1       9.666  57.563  98.073  1.00  0.00     0.128 C 
HETATM   34  C1  UNL     1       8.264  57.124  97.898  1.00  0.00     0.234 C 
HETATM   35  O1  UNL     1       7.374  57.099  98.764  1.00  0.00    -0.272 OA
HETATM   36  N7  UNL     1       8.140  56.737  96.540  1.00  0.00    -0.274 N 
HETATM   37  N6  UNL     1       9.405  56.793  95.920  1.00  0.00    -0.132 NA
ATOM     38  H7  UNL     1       7.271  56.460  96.082  1.00  0.00     0.185 HD
ENDBRANCH  31  32
ENDBRANCH  29  31
ENDBRANCH   1  29
BRANCH   8  39
HETATM   39  C24 UNL     1      15.710  50.379  96.422  1.00  0.00    -0.011 A 
HETATM   40  C25 UNL     1      17.059  50.498  96.672  1.00  0.00     0.015 A 
HETATM   41  C26 UNL     1      17.803  49.473  97.232  1.00  0.00     0.018 A 
HETATM   42  C27 UNL     1      17.161  48.302  97.544  1.00  0.00     0.087 A 
HETATM   43  N4  UNL     1      15.846  48.165  97.308  1.00  0.00    -0.374 N 
HETATM   44  C28 UNL     1      15.123  49.176  96.758  1.00  0.00     0.099 A 
ATOM     45  H4  UNL     1      15.383  47.288  97.545  1.00  0.00     0.164 HD
ENDBRANCH   8  39
TORSDOF 9
ENDMDL
MODEL 5
REMARK VINA RESULT: -8.801177336      0.254      1.109
REMARK  9 active torsions:
REMARK  status: ('A' for Active; 'I' for Inactive)
REMARK    1  A    between atoms: C3_4  and  C4_5 
REMARK    2  A    between atoms: C4_5  and  N1_6 
REMARK    3  A    between atoms: N1_6  and  C5_8 
REMARK    4  A    between atoms: C6_11  and  N3_12 
REMARK    5  A    between atoms: N3_12  and  C7_14 
REMARK    6  A    between atoms: C10_17  and  O2_18 
REMARK    7  A    between atoms: O2_18  and  C11_19 
REMARK    8  A    between atoms: C11_19  and  C12_20 
REMARK    9  A    between atoms: C23_31  and  C24_32 
ROOT
HETATM    1  C5  UNL     1      10.304  52.556  87.078  1.00  0.00     0.680 A 
HETATM    2  N2  UNL     1      10.949  53.283  87.981  1.00  0.00    -0.176 N 
ATOM      3  H2  UNL     1      10.465  53.516  88.848  1.00  0.00     0.186 HD
HETATM    4  C6  UNL     1      12.243  53.743  87.813  1.00  0.00     0.134 A 
HETATM    5  C20 UNL     1      12.850  53.392  86.608  1.00  0.00     0.036 A 
HETATM    6  C21 UNL     1      14.135  53.774  86.289  1.00  0.00     0.018 A 
HETATM    7  C22 UNL     1      14.730  53.416  85.077  1.00  0.00     0.013 A 
HETATM    8  C23 UNL     1      14.045  52.661  84.151  1.00  0.00    -0.022 A 
HETATM    9  C29 UNL     1      12.764  52.274  84.457  1.00  0.00     0.043 A 
HETATM   10  C30 UNL     1      12.167  52.631  85.667  1.00  0.00     0.064 A 
HETATM   11  N5  UNL     1      10.912  52.243  85.948  1.00  0.00    -0.191 N 
ATOM     12  H5  UNL     1      10.407  51.683  85.260  1.00  0.00     0.184 HD
ENDROOT
BRANCH   4  13
HETATM   13  N3  UNL     1      12.771  54.401  88.670  1.00  0.00    -0.341 N 
ATOM     14  H3  UNL     1      13.373  55.015  88.123  1.00  0.00     0.167 HD
BRANCH  13  15
HETATM   15  C7  UNL     1      13.034  54.801  89.919  1.00  0.00     0.033 A 
HETATM   16  C8  UNL     1      12.219  54.503  91.033  1.00  0.00     0.032 A 
HETATM   17  C9  UNL     1      12.511  54.931  92.299  1.00  0.00     0.039 A 
HETATM   18  C10 UNL     1      13.641  55.687  92.526  1.00  0.00     0.069 A 
HETATM   19  C18 UNL     1      14.447  55.986  91.447  1.00  0.00     0.039 A 
HETATM   20  C19 UNL     1      14.176  55.572  90.180  1.00  0.00     0.032 A 
BRANCH  18  21
HETATM   21  O2  UNL     1      13.978  56.142  93.789  1.00  0.00    -0.347 OA
BRANCH  21  22
HETATM   22  C11 UNL     1      13.421  55.493  94.920  1.00  0.00     0.214 C 
BRANCH  22  23
HETATM   23  C12 UNL     1      12.340  56.303  95.530  1.00  0.00    -0.034 A 
HETATM   24  C13 UNL     1      12.603  57.581  95.961  1.00  0.00     0.009 A 
HETATM   25  C14 UNL     1      11.602  58.359  96.538  1.00  0.00     0.001 A 
HETATM   26  C15 UNL     1      10.342  57.810  96.662  1.00  0.00     0.000 A 
HETATM   27  C16 UNL     1      10.048  56.532  96.240  1.00  0.00     0.001 A 
HETATM   28  C17 UNL     1      11.070  55.790  95.672  1.00  0.00     0.009 A 
ENDBRANCH  22  23
ENDBRANCH  21  22
ENDBRANCH  18  21
ENDBRANCH  13  15
ENDBRANCH   4  13
BRANCH   1  29
HETATM   29  N1  UNL     1       9.095  52.191  87.366  1.00  0.00    -0.224 N 
ATOM     30  H1  UNL     1       8.935  51.197  87.529  1.00  0.00     0.177 HD
BRANCH  29  31
HETATM   31  C4  UNL     1       7.973  53.056  87.474  1.00  0.00     0.161 C 
BRANCH  31  32
HETATM   32  C3  UNL     1       7.638  53.171  88.965  1.00  0.00     0.126 C 
HETATM   33  C2  UNL     1       8.065  54.546  89.483  1.00  0.00     0.128 C 
HETATM   34  C1  UNL     1       8.252  54.270  90.924  1.00  0.00     0.234 C 
HETATM   35  O1  UNL     1       8.252  55.097  91.851  1.00  0.00    -0.272 OA
HETATM   36  N7  UNL     1       8.434  52.868  91.036  1.00  0.00    -0.274 N 
HETATM   37  N6  UNL     1       8.495  52.300  89.747  1.00  0.00    -0.132 NA
ATOM     38  H7  UNL     1       8.509  52.351  91.912  1.00  0.00     0.185 HD
ENDBRANCH  31  32
ENDBRANCH  29  31
ENDBRANCH   1  29
BRANCH   8  39
HETATM   39  C24 UNL     1      14.693  52.301  82.890  1.00  0.00    -0.011 A 
HETATM   40  C25 UNL     1      14.035  51.520  81.966  1.00  0.00     0.015 A 
HETATM   41  C26 UNL     1      14.610  51.155  80.760  1.00  0.00     0.018 A 
HETATM   42  C27 UNL     1      15.881  51.593  80.488  1.00  0.00     0.087 A 
HETATM   43  N4  UNL     1      16.540  52.355  81.376  1.00  0.00    -0.374 N 
HETATM   44  C28 UNL     1      15.968  52.709  82.558  1.00  0.00     0.099 A 
ATOM     45  H4  UNL     1      17.485  52.673  81.161  1.00  0.00     0.164 HD
ENDBRANCH   8  39
TORSDOF 9
ENDMDL
