MODEL 1
REMARK VINA RESULT: -7.638591149      0.000      0.000
REMARK  9 active torsions:
REMARK  status: ('A' for Active; 'I' for Inactive)
REMARK    1  A    between atoms: N1_2  and  C3_4 
REMARK    2  A    between atoms: C3_4  and  C4_5 
REMARK    3  A    between atoms: C6_7  and  C7_8 
REMARK    4  A    between atoms: N3_14  and  C10_15 
REMARK    5  A    between atoms: C10_15  and  C11_16 
REMARK    6  A    between atoms: C11_16  and  C12_17 
REMARK    7  A    between atoms: C12_17  and  O2_18 
REMARK    8  A    between atoms: N4_28  and  C20_29 
REMARK    9  A    between atoms: C29_39  and  O5_40 
ROOT
HETATM    1  C7  UNL     1      10.638  53.366  89.308  1.00  0.00     0.140 A 
HETATM    2  C8  UNL     1       9.485  54.171  89.859  1.00  0.00     0.054 C 
HETATM    3  N2  UNL     1      10.666  52.046  89.919  1.00  0.00    -0.321 N 
ATOM      4  H2  UNL     1      10.652  51.849  90.919  1.00  0.00     0.165 HD
HETATM    5  C9  UNL     1      10.717  51.082  88.881  1.00  0.00     0.326 A 
HETATM    6  O1  UNL     1      10.824  49.840  89.048  1.00  0.00    -0.247 OA
HETATM    7  N3  UNL     1      10.634  51.696  87.615  1.00  0.00    -0.268 N 
HETATM    8  C26 UNL     1      10.526  53.088  87.875  1.00  0.00     0.260 A 
HETATM    9  O4  UNL     1      10.358  53.958  86.982  1.00  0.00    -0.270 OA
ENDROOT
BRANCH   7  10
HETATM   10  C10 UNL     1      10.648  51.067  86.289  1.00  0.00     0.142 C 
BRANCH  10  11
HETATM   11  C11 UNL     1      12.046  51.165  85.778  1.00  0.00     0.087 C 
BRANCH  11  12
HETATM   12  C12 UNL     1      12.190  51.831  84.437  1.00  0.00     0.172 A 
HETATM   13  C13 UNL     1      13.491  52.585  84.506  1.00  0.00     0.013 A 
HETATM   14  C14 UNL     1      13.901  53.585  85.392  1.00  0.00     0.013 A 
HETATM   15  C18 UNL     1      14.336  52.167  83.528  1.00  0.00     0.043 A 
HETATM   16  C15 UNL     1      15.156  54.125  85.253  1.00  0.00     0.001 A 
HETATM   17  C16 UNL     1      15.999  53.690  84.256  1.00  0.00     0.001 A 
HETATM   18  C17 UNL     1      15.618  52.716  83.383  1.00  0.00     0.018 A 
HETATM   19  C19 UNL     1      13.666  51.141  82.764  1.00  0.00     0.261 A 
HETATM   20  O3  UNL     1      14.182  50.544  81.779  1.00  0.00    -0.267 OA
HETATM   21  N4  UNL     1      12.349  50.952  83.332  1.00  0.00    -0.276 N 
BRANCH  12  22
HETATM   22  O2  UNL     1      11.195  52.796  84.277  1.00  0.00    -0.366 OA
ATOM     23  H2  UNL     1      10.521  52.471  83.691  1.00  0.00     0.213 HD
ENDBRANCH  12  22
BRANCH  21  24
HETATM   24  C20 UNL     1      11.477  49.999  82.758  1.00  0.00     0.041 A 
HETATM   25  C21 UNL     1      10.589  50.408  81.790  1.00  0.00     0.030 A 
HETATM   26  C22 UNL     1       9.700  49.513  81.192  1.00  0.00     0.002 A 
HETATM   27  C23 UNL     1       9.706  48.192  81.572  1.00  0.00     0.000 A 
HETATM   28  C24 UNL     1      10.584  47.773  82.533  1.00  0.00     0.002 A 
HETATM   29  C25 UNL     1      11.454  48.672  83.112  1.00  0.00     0.030 A 
ENDBRANCH  21  24
ENDBRANCH  11  12
ENDBRANCH  10  11
ENDBRANCH   7  10
BRANCH   1  30
HETATM   30  C6  UNL     1      11.911  54.050  89.659  1.00  0.00    -0.020 A 
HETATM   31  C5  UNL     1      12.170  54.507  90.957  1.00  0.00     0.022 A 
HETATM   32  C4  UNL     1      13.332  55.132  91.305  1.00  0.00     0.004 A 
HETATM   33  C29 UNL     1      14.313  55.328  90.328  1.00  0.00     0.073 A 
HETATM   34  C28 UNL     1      14.044  54.874  89.059  1.00  0.00     0.038 A 
HETATM   35  C27 UNL     1      12.868  54.244  88.714  1.00  0.00     0.013 A 
BRANCH  32  36
HETATM   36  C3  UNL     1      13.586  55.625  92.656  1.00  0.00     0.312 C 
BRANCH  36  37
HETATM   37  N1  UNL     1      13.098  54.755  93.696  1.00  0.00     0.084 N 
HETATM   38  C1  UNL     1      13.281  55.488  94.972  1.00  0.00     0.309 C 
HETATM   39  C2  UNL     1      14.031  53.613  93.829  1.00  0.00     0.309 C 
ENDBRANCH  36  37
ENDBRANCH  32  36
BRANCH  33  40
HETATM   40  O5  UNL     1      15.528  55.965  90.631  1.00  0.00    -0.360 OA
ATOM     41  H5  UNL     1      16.122  56.245  89.945  1.00  0.00     0.217 HD
ENDBRANCH  33  40
ENDBRANCH   1  30
TORSDOF 9
ENDMDL
MODEL 2
REMARK VINA RESULT: -7.308776207      1.136      1.195
REMARK  9 active torsions:
REMARK  status: ('A' for Active; 'I' for Inactive)
REMARK    1  A    between atoms: N1_2  and  C3_4 
REMARK    2  A    between atoms: C3_4  and  C4_5 
REMARK    3  A    between atoms: C6_7  and  C7_8 
REMARK    4  A    between atoms: N3_14  and  C10_15 
REMARK    5  A    between atoms: C10_15  and  C11_16 
REMARK    6  A    between atoms: C11_16  and  C12_17 
REMARK    7  A    between atoms: C12_17  and  O2_18 
REMARK    8  A    between atoms: N4_28  and  C20_29 
REMARK    9  A    between atoms: C29_39  and  O5_40 
ROOT
HETATM    1  C7  UNL     1      10.337  52.620  88.267  1.00  0.00     0.140 A 
HETATM    2  C8  UNL     1       9.064  53.295  88.719  1.00  0.00     0.054 C 
HETATM    3  N2  UNL     1      10.427  51.284  88.835  1.00  0.00    -0.321 N 
ATOM      4  H2  UNL     1      10.330  51.045  89.821  1.00  0.00     0.165 HD
HETATM    5  C9  UNL     1      10.672  50.372  87.778  1.00  0.00     0.326 A 
HETATM    6  O1  UNL     1      10.877  49.138  87.915  1.00  0.00    -0.247 OA
HETATM    7  N3  UNL     1      10.660  51.027  86.530  1.00  0.00    -0.268 N 
HETATM    8  C26 UNL     1      10.397  52.392  86.821  1.00  0.00     0.260 A 
HETATM    9  O4  UNL     1      10.240  53.279  85.944  1.00  0.00    -0.270 OA
ENDROOT
BRANCH   7  10
HETATM   10  C10 UNL     1      10.867  50.457  85.194  1.00  0.00     0.142 C 
BRANCH  10  11
HETATM   11  C11 UNL     1      12.308  50.648  84.860  1.00  0.00     0.087 C 
BRANCH  11  12
HETATM   12  C12 UNL     1      12.574  51.464  83.624  1.00  0.00     0.172 A 
HETATM   13  C13 UNL     1      13.786  52.295  83.951  1.00  0.00     0.013 A 
HETATM   14  C14 UNL     1      13.989  53.219  84.980  1.00  0.00     0.013 A 
HETATM   15  C18 UNL     1      14.787  52.045  83.065  1.00  0.00     0.043 A 
HETATM   16  C15 UNL     1      15.202  53.856  85.073  1.00  0.00     0.001 A 
HETATM   17  C16 UNL     1      16.204  53.591  84.168  1.00  0.00     0.001 A 
HETATM   18  C17 UNL     1      16.026  52.694  83.158  1.00  0.00     0.018 A 
HETATM   19  C19 UNL     1      14.313  51.065  82.117  1.00  0.00     0.261 A 
HETATM   20  O3  UNL     1      15.004  50.615  81.162  1.00  0.00    -0.267 OA
HETATM   21  N4  UNL     1      12.953  50.724  82.472  1.00  0.00    -0.276 N 
BRANCH  12  22
HETATM   22  O2  UNL     1      11.532  52.370  83.420  1.00  0.00    -0.366 OA
ATOM     23  H2  UNL     1      11.791  53.233  83.723  1.00  0.00     0.213 HD
ENDBRANCH  12  22
BRANCH  21  24
HETATM   24  C20 UNL     1      12.248  49.781  81.689  1.00  0.00     0.041 A 
HETATM   25  C21 UNL     1      11.588  50.212  80.562  1.00  0.00     0.030 A 
HETATM   26  C22 UNL     1      10.871  49.328  79.755  1.00  0.00     0.002 A 
HETATM   27  C23 UNL     1      10.819  47.995  80.085  1.00  0.00     0.000 A 
HETATM   28  C24 UNL     1      11.471  47.553  81.203  1.00  0.00     0.002 A 
HETATM   29  C25 UNL     1      12.173  48.442  81.988  1.00  0.00     0.030 A 
ENDBRANCH  21  24
ENDBRANCH  11  12
ENDBRANCH  10  11
ENDBRANCH   7  10
BRANCH   1  30
HETATM   30  C6  UNL     1      11.499  53.400  88.770  1.00  0.00    -0.020 A 
HETATM   31  C5  UNL     1      11.566  53.852  90.093  1.00  0.00     0.022 A 
HETATM   32  C4  UNL     1      12.623  54.565  90.580  1.00  0.00     0.004 A 
HETATM   33  C29 UNL     1      13.690  54.860  89.727  1.00  0.00     0.073 A 
HETATM   34  C28 UNL     1      13.610  54.410  88.431  1.00  0.00     0.038 A 
HETATM   35  C27 UNL     1      12.539  53.690  87.945  1.00  0.00     0.013 A 
BRANCH  32  36
HETATM   36  C3  UNL     1      12.677  55.052  91.956  1.00  0.00     0.312 C 
BRANCH  36  37
HETATM   37  N1  UNL     1      12.616  54.008  92.947  1.00  0.00     0.084 N 
HETATM   38  C1  UNL     1      11.794  54.540  94.062  1.00  0.00     0.309 C 
HETATM   39  C2  UNL     1      13.956  53.862  93.558  1.00  0.00     0.309 C 
ENDBRANCH  36  37
ENDBRANCH  32  36
BRANCH  33  40
HETATM   40  O5  UNL     1      14.804  55.590  90.175  1.00  0.00    -0.360 OA
ATOM     41  H5  UNL     1      15.085  55.553  91.081  1.00  0.00     0.217 HD
ENDBRANCH  33  40
ENDBRANCH   1  30
TORSDOF 9
ENDMDL
MODEL 3
REMARK VINA RESULT: -7.284415327      2.861      6.318
REMARK  9 active torsions:
REMARK  status: ('A' for Active; 'I' for Inactive)
REMARK    1  A    between atoms: N1_2  and  C3_4 
REMARK    2  A    between atoms: C3_4  and  C4_5 
REMARK    3  A    between atoms: C6_7  and  C7_8 
REMARK    4  A    between atoms: N3_14  and  C10_15 
REMARK    5  A    between atoms: C10_15  and  C11_16 
REMARK    6  A    between atoms: C11_16  and  C12_17 
REMARK    7  A    between atoms: C12_17  and  O2_18 
REMARK    8  A    between atoms: N4_28  and  C20_29 
REMARK    9  A    between atoms: C29_39  and  O5_40 
ROOT
HETATM    1  C7  UNL     1      13.202  54.337  93.471  1.00  0.00     0.140 A 
HETATM    2  C8  UNL     1      13.969  53.508  94.473  1.00  0.00     0.054 C 
HETATM    3  N2  UNL     1      13.859  55.619  93.273  1.00  0.00    -0.321 N 
ATOM      4  H2  UNL     1      14.136  56.270  94.007  1.00  0.00     0.165 HD
HETATM    5  C9  UNL     1      14.048  55.806  91.881  1.00  0.00     0.326 A 
HETATM    6  O1  UNL     1      14.524  56.841  91.344  1.00  0.00    -0.247 OA
HETATM    7  N3  UNL     1      13.630  54.673  91.156  1.00  0.00    -0.268 N 
HETATM    8  C26 UNL     1      13.166  53.750  92.130  1.00  0.00     0.260 A 
HETATM    9  O4  UNL     1      12.778  52.583  91.863  1.00  0.00    -0.270 OA
ENDROOT
BRANCH   7  10
HETATM   10  C10 UNL     1      13.654  54.453  89.705  1.00  0.00     0.142 C 
BRANCH  10  11
HETATM   11  C11 UNL     1      12.262  54.662  89.212  1.00  0.00     0.087 C 
BRANCH  11  12
HETATM   12  C12 UNL     1      11.667  53.496  88.469  1.00  0.00     0.172 A 
HETATM   13  C13 UNL     1      10.188  53.567  88.742  1.00  0.00     0.013 A 
HETATM   14  C14 UNL     1       9.499  53.542  89.958  1.00  0.00     0.013 A 
HETATM   15  C18 UNL     1       9.494  53.671  87.578  1.00  0.00     0.043 A 
HETATM   16  C15 UNL     1       8.128  53.624  89.948  1.00  0.00     0.001 A 
HETATM   17  C16 UNL     1       7.441  53.730  88.760  1.00  0.00     0.001 A 
HETATM   18  C17 UNL     1       8.095  53.756  87.565  1.00  0.00     0.018 A 
HETATM   19  C19 UNL     1      10.441  53.670  86.489  1.00  0.00     0.261 A 
HETATM   20  O3  UNL     1      10.118  53.755  85.272  1.00  0.00    -0.267 OA
HETATM   21  N4  UNL     1      11.768  53.558  87.053  1.00  0.00    -0.276 N 
BRANCH  12  22
HETATM   22  O2  UNL     1      12.105  52.299  89.035  1.00  0.00    -0.366 OA
ATOM     23  H2  UNL     1      11.447  51.965  89.635  1.00  0.00     0.213 HD
ENDBRANCH  12  22
BRANCH  21  24
HETATM   24  C20 UNL     1      12.888  53.526  86.191  1.00  0.00     0.041 A 
HETATM   25  C21 UNL     1      12.993  52.507  85.273  1.00  0.00     0.030 A 
HETATM   26  C22 UNL     1      14.079  52.422  84.400  1.00  0.00     0.002 A 
HETATM   27  C23 UNL     1      15.069  53.373  84.451  1.00  0.00     0.000 A 
HETATM   28  C24 UNL     1      14.977  54.391  85.360  1.00  0.00     0.002 A 
HETATM   29  C25 UNL     1      13.897  54.458  86.213  1.00  0.00     0.030 A 
ENDBRANCH  21  24
ENDBRANCH  11  12
ENDBRANCH  10  11
ENDBRANCH   7  10
BRANCH   1  30
HETATM   30  C6  UNL     1      11.844  54.608  94.012  1.00  0.00    -0.020 A 
HETATM   31  C5  UNL     1      11.645  55.414  95.139  1.00  0.00     0.022 A 
HETATM   32  C4  UNL     1      10.409  55.682  95.650  1.00  0.00     0.004 A 
HETATM   33  C29 UNL     1       9.286  55.132  95.027  1.00  0.00     0.073 A 
HETATM   34  C28 UNL     1       9.496  54.343  93.922  1.00  0.00     0.038 A 
HETATM   35  C27 UNL     1      10.748  54.076  93.410  1.00  0.00     0.013 A 
BRANCH  32  36
HETATM   36  C3  UNL     1      10.211  56.507  96.840  1.00  0.00     0.312 C 
BRANCH  36  37
HETATM   37  N1  UNL     1       9.828  57.865  96.550  1.00  0.00     0.084 N 
HETATM   38  C1  UNL     1      11.020  58.703  96.831  1.00  0.00     0.309 C 
HETATM   39  C2  UNL     1       8.858  58.308  97.577  1.00  0.00     0.309 C 
ENDBRANCH  36  37
ENDBRANCH  32  36
BRANCH  33  40
HETATM   40  O5  UNL     1       7.989  55.375  95.511  1.00  0.00    -0.360 OA
ATOM     41  H5  UNL     1       7.727  56.238  95.807  1.00  0.00     0.217 HD
ENDBRANCH  33  40
ENDBRANCH   1  30
TORSDOF 9
ENDMDL
MODEL 4
REMARK VINA RESULT: -7.210176830      1.513      1.944
REMARK  9 active torsions:
REMARK  status: ('A' for Active; 'I' for Inactive)
REMARK    1  A    between atoms: N1_2  and  C3_4 
REMARK    2  A    between atoms: C3_4  and  C4_5 
REMARK    3  A    between atoms: C6_7  and  C7_8 
REMARK    4  A    between atoms: N3_14  and  C10_15 
REMARK    5  A    between atoms: C10_15  and  C11_16 
REMARK    6  A    between atoms: C11_16  and  C12_17 
REMARK    7  A    between atoms: C12_17  and  O2_18 
REMARK    8  A    between atoms: N4_28  and  C20_29 
REMARK    9  A    between atoms: C29_39  and  O5_40 
ROOT
HETATM    1  C7  UNL     1      10.290  52.055  87.781  1.00  0.00     0.140 A 
HETATM    2  C8  UNL     1       8.955  52.578  88.258  1.00  0.00     0.054 C 
HETATM    3  N2  UNL     1      10.524  50.720  88.308  1.00  0.00    -0.321 N 
ATOM      4  H2  UNL     1      10.460  50.444  89.287  1.00  0.00     0.165 HD
HETATM    5  C9  UNL     1      10.857  49.871  87.224  1.00  0.00     0.326 A 
HETATM    6  O1  UNL     1      11.193  48.662  87.324  1.00  0.00    -0.247 OA
HETATM    7  N3  UNL     1      10.768  50.557  85.997  1.00  0.00    -0.268 N 
HETATM    8  C26 UNL     1      10.364  51.877  86.329  1.00  0.00     0.260 A 
HETATM    9  O4  UNL     1      10.108  52.768  85.479  1.00  0.00    -0.270 OA
ENDROOT
BRANCH   7  10
HETATM   10  C10 UNL     1      11.025  50.052  84.643  1.00  0.00     0.142 C 
BRANCH  10  11
HETATM   11  C11 UNL     1      12.461  50.326  84.343  1.00  0.00     0.087 C 
BRANCH  11  12
HETATM   12  C12 UNL     1      12.705  51.226  83.162  1.00  0.00     0.172 A 
HETATM   13  C13 UNL     1      13.919  52.037  83.528  1.00  0.00     0.013 A 
HETATM   14  C14 UNL     1      14.134  52.890  84.614  1.00  0.00     0.013 A 
HETATM   15  C18 UNL     1      14.908  51.853  82.613  1.00  0.00     0.043 A 
HETATM   16  C15 UNL     1      15.346  53.525  84.733  1.00  0.00     0.001 A 
HETATM   17  C16 UNL     1      16.336  53.327  83.798  1.00  0.00     0.001 A 
HETATM   18  C17 UNL     1      16.146  52.499  82.732  1.00  0.00     0.018 A 
HETATM   19  C19 UNL     1      14.424  50.937  81.608  1.00  0.00     0.261 A 
HETATM   20  O3  UNL     1      15.102  50.557  80.614  1.00  0.00    -0.267 OA
HETATM   21  N4  UNL     1      13.070  50.567  81.958  1.00  0.00    -0.276 N 
BRANCH  12  22
HETATM   22  O2  UNL     1      11.658  52.138  83.036  1.00  0.00    -0.366 OA
ATOM     23  H2  UNL     1      11.694  52.556  82.183  1.00  0.00     0.213 HD
ENDBRANCH  12  22
BRANCH  21  24
HETATM   24  C20 UNL     1      12.357  49.676  81.123  1.00  0.00     0.041 A 
HETATM   25  C21 UNL     1      12.509  48.322  81.310  1.00  0.00     0.030 A 
HETATM   26  C22 UNL     1      11.835  47.396  80.512  1.00  0.00     0.002 A 
HETATM   27  C23 UNL     1      10.998  47.838  79.516  1.00  0.00     0.000 A 
HETATM   28  C24 UNL     1      10.838  49.183  79.319  1.00  0.00     0.002 A 
HETATM   29  C25 UNL     1      11.513  50.081  80.117  1.00  0.00     0.030 A 
ENDBRANCH  21  24
ENDBRANCH  11  12
ENDBRANCH  10  11
ENDBRANCH   7  10
BRANCH   1  30
HETATM   30  C6  UNL     1      11.365  52.939  88.303  1.00  0.00    -0.020 A 
HETATM   31  C5  UNL     1      11.396  53.354  89.640  1.00  0.00     0.022 A 
HETATM   32  C4  UNL     1      12.374  54.159  90.145  1.00  0.00     0.004 A 
HETATM   33  C29 UNL     1      13.396  54.594  89.296  1.00  0.00     0.073 A 
HETATM   34  C28 UNL     1      13.353  54.179  87.986  1.00  0.00     0.038 A 
HETATM   35  C27 UNL     1      12.361  53.365  87.483  1.00  0.00     0.013 A 
BRANCH  32  36
HETATM   36  C3  UNL     1      12.388  54.605  91.535  1.00  0.00     0.312 C 
BRANCH  36  37
HETATM   37  N1  UNL     1      13.016  53.675  92.439  1.00  0.00     0.084 N 
HETATM   38  C1  UNL     1      12.041  53.434  93.532  1.00  0.00     0.309 C 
HETATM   39  C2  UNL     1      14.126  54.370  93.129  1.00  0.00     0.309 C 
ENDBRANCH  36  37
ENDBRANCH  32  36
BRANCH  33  40
HETATM   40  O5  UNL     1      14.429  55.425  89.762  1.00  0.00    -0.360 OA
ATOM     41  H5  UNL     1      15.334  55.273  89.515  1.00  0.00     0.217 HD
ENDBRANCH  33  40
ENDBRANCH   1  30
TORSDOF 9
ENDMDL
MODEL 5
REMARK VINA RESULT: -7.147053846      2.743      6.166
REMARK  9 active torsions:
REMARK  status: ('A' for Active; 'I' for Inactive)
REMARK    1  A    between atoms: N1_2  and  C3_4 
REMARK    2  A    between atoms: C3_4  and  C4_5 
REMARK    3  A    between atoms: C6_7  and  C7_8 
REMARK    4  A    between atoms: N3_14  and  C10_15 
REMARK    5  A    between atoms: C10_15  and  C11_16 
REMARK    6  A    between atoms: C11_16  and  C12_17 
REMARK    7  A    between atoms: C12_17  and  O2_18 
REMARK    8  A    between atoms: N4_28  and  C20_29 
REMARK    9  A    between atoms: C29_39  and  O5_40 
ROOT
HETATM    1  C7  UNL     1      13.331  54.209  93.393  1.00  0.00     0.140 A 
HETATM    2  C8  UNL     1      14.036  53.111  94.153  1.00  0.00     0.054 C 
HETATM    3  N2  UNL     1      14.302  55.056  92.717  1.00  0.00    -0.321 N 
ATOM      4  H2  UNL     1      15.110  55.502  93.149  1.00  0.00     0.165 HD
HETATM    5  C9  UNL     1      13.928  55.151  91.353  1.00  0.00     0.326 A 
HETATM    6  O1  UNL     1      14.504  55.863  90.490  1.00  0.00    -0.247 OA
HETATM    7  N3  UNL     1      12.811  54.339  91.076  1.00  0.00    -0.268 N 
HETATM    8  C26 UNL     1      12.479  53.716  92.308  1.00  0.00     0.260 A 
HETATM    9  O4  UNL     1      11.570  52.856  92.438  1.00  0.00    -0.270 OA
ENDROOT
BRANCH   7  10
HETATM   10  C10 UNL     1      12.111  54.148  89.800  1.00  0.00     0.142 C 
BRANCH  10  11
HETATM   11  C11 UNL     1      12.506  52.805  89.286  1.00  0.00     0.087 C 
BRANCH  11  12
HETATM   12  C12 UNL     1      11.671  52.287  88.146  1.00  0.00     0.172 A 
HETATM   13  C13 UNL     1      10.244  52.537  88.555  1.00  0.00     0.013 A 
HETATM   14  C14 UNL     1       9.542  52.090  89.678  1.00  0.00     0.013 A 
HETATM   15  C18 UNL     1       9.618  53.325  87.641  1.00  0.00     0.043 A 
HETATM   16  C15 UNL     1       8.228  52.461  89.833  1.00  0.00     0.001 A 
HETATM   17  C16 UNL     1       7.610  53.260  88.898  1.00  0.00     0.001 A 
HETATM   18  C17 UNL     1       8.278  53.705  87.797  1.00  0.00     0.018 A 
HETATM   19  C19 UNL     1      10.562  53.634  86.594  1.00  0.00     0.261 A 
HETATM   20  O3  UNL     1      10.294  54.351  85.590  1.00  0.00    -0.267 OA
HETATM   21  N4  UNL     1      11.814  52.986  86.917  1.00  0.00    -0.276 N 
BRANCH  12  22
HETATM   22  O2  UNL     1      11.805  50.902  88.050  1.00  0.00    -0.366 OA
ATOM     23  H2  UNL     1      11.698  50.628  87.146  1.00  0.00     0.213 HD
ENDBRANCH  12  22
BRANCH  21  24
HETATM   24  C20 UNL     1      12.914  53.125  86.040  1.00  0.00     0.041 A 
HETATM   25  C21 UNL     1      13.081  52.204  85.032  1.00  0.00     0.030 A 
HETATM   26  C22 UNL     1      14.152  52.287  84.140  1.00  0.00     0.002 A 
HETATM   27  C23 UNL     1      15.062  53.309  84.263  1.00  0.00     0.000 A 
HETATM   28  C24 UNL     1      14.907  54.231  85.262  1.00  0.00     0.002 A 
HETATM   29  C25 UNL     1      13.844  54.131  86.132  1.00  0.00     0.030 A 
ENDBRANCH  21  24
ENDBRANCH  11  12
ENDBRANCH  10  11
ENDBRANCH   7  10
BRANCH   1  30
HETATM   30  C6  UNL     1      12.589  55.061  94.360  1.00  0.00    -0.020 A 
HETATM   31  C5  UNL     1      11.242  54.829  94.665  1.00  0.00     0.022 A 
HETATM   32  C4  UNL     1      10.541  55.592  95.552  1.00  0.00     0.004 A 
HETATM   33  C29 UNL     1      11.189  56.654  96.190  1.00  0.00     0.073 A 
HETATM   34  C28 UNL     1      12.510  56.870  95.880  1.00  0.00     0.038 A 
HETATM   35  C27 UNL     1      13.213  56.095  94.982  1.00  0.00     0.013 A 
BRANCH  32  36
HETATM   36  C3  UNL     1       9.130  55.358  95.849  1.00  0.00     0.312 C 
BRANCH  36  37
HETATM   37  N1  UNL     1       8.909  54.453  96.949  1.00  0.00     0.084 N 
HETATM   38  C1  UNL     1       8.090  53.338  96.412  1.00  0.00     0.309 C 
HETATM   39  C2  UNL     1       7.996  55.104  97.915  1.00  0.00     0.309 C 
ENDBRANCH  36  37
ENDBRANCH  32  36
BRANCH  33  40
HETATM   40  O5  UNL     1      10.515  57.473  97.112  1.00  0.00    -0.360 OA
ATOM     41  H5  UNL     1       9.993  58.212  96.825  1.00  0.00     0.217 HD
ENDBRANCH  33  40
ENDBRANCH   1  30
TORSDOF 9
ENDMDL
