MODEL 1
REMARK VINA RESULT: -4.969446829      0.000      0.000
REMARK  11 active torsions:
REMARK  status: ('A' for Active; 'I' for Inactive)
REMARK    1  A    between atoms: N1_1  and  C1_5 
REMARK    2  A    between atoms: C1_5  and  C2_6 
REMARK    3  A    between atoms: C2_6  and  N2_7 
REMARK    4  A    between atoms: N2_7  and  C3_10 
REMARK    5  A    between atoms: C3_10  and  C4_11 
REMARK    6  A    between atoms: C5_12  and  N3_13 
REMARK    7  A    between atoms: C6_17  and  O1_18 
REMARK    8  A    between atoms: O1_18  and  C7_19 
REMARK    9  A    between atoms: C9_24  and  N5_25 
REMARK   10  A    between atoms: C10_29  and  N6_30 
REMARK   11  A    between atoms: C11_34  and  O2_35 
ROOT
HETATM    1  C4  UNL     1      22.846  17.368  10.047  1.00  0.00     0.075 A 
HETATM    2  C5  UNL     1      21.755  16.925   9.098  1.00  0.00     0.223 A 
HETATM    3  C6  UNL     1      21.733  15.558   9.768  1.00  0.00     0.184 A 
HETATM    4  C11 UNL     1      22.836  16.021  10.670  1.00  0.00     0.157 A 
ENDROOT
BRANCH   3   5
HETATM    5  O1  UNL     1      20.480  15.388  10.328  1.00  0.00    -0.347 OA
BRANCH   5   6
HETATM    6  C7  UNL     1      19.801  14.272   9.948  1.00  0.00     0.354 C 
HETATM    7  N4  UNL     1      18.789  14.059  11.007  1.00  0.00    -0.045 N 
HETATM    8  C8  UNL     1      17.987  15.271  10.766  1.00  0.00     0.270 C 
ATOM      9  H42 UNL     1      18.290  13.169  10.992  1.00  0.00     0.280 HD
ATOM     10  H41 UNL     1      19.140  13.922  11.956  1.00  0.00     0.280 HD
HETATM   11  C9  UNL     1      17.592  15.014   9.302  1.00  0.00     0.243 C 
HETATM   12  C10 UNL     1      18.885  14.443   8.761  1.00  0.00     0.271 C 
BRANCH  11  13
HETATM   13  N5  UNL     1      16.518  14.059   9.364  1.00  0.00    -0.071 N 
ATOM     14  H53 UNL     1      16.813  13.095   9.209  1.00  0.00     0.274 HD
ATOM     15  H52 UNL     1      16.145  13.919  10.303  1.00  0.00     0.274 HD
ATOM     16  H51 UNL     1      15.826  14.391   8.691  1.00  0.00     0.274 HD
ENDBRANCH  11  13
BRANCH  12  17
HETATM   17  N6  UNL     1      18.568  13.141   8.181  1.00  0.00    -0.069 N 
ATOM     18  H63 UNL     1      19.384  12.532   8.139  1.00  0.00     0.275 HD
ATOM     19  H62 UNL     1      17.992  12.575   8.804  1.00  0.00     0.275 HD
ATOM     20  H61 UNL     1      18.134  13.262   7.266  1.00  0.00     0.275 HD
ENDBRANCH  12  17
ENDBRANCH   5   6
ENDBRANCH   3   5
BRANCH   2  21
HETATM   21  N3  UNL     1      20.566  17.716   9.265  1.00  0.00    -0.072 N 
ATOM     22  H33 UNL     1      20.663  18.381  10.031  1.00  0.00     0.274 HD
ATOM     23  H32 UNL     1      20.445  18.378   8.499  1.00  0.00     0.274 HD
ATOM     24  H31 UNL     1      19.743  17.125   9.383  1.00  0.00     0.274 HD
ENDBRANCH   2  21
BRANCH   4  25
HETATM   25  O2  UNL     1      24.020  15.342  10.390  1.00  0.00    -0.392 OA
ATOM     26  H2  UNL     1      23.849  14.419  10.242  1.00  0.00     0.210 HD
ENDBRANCH   4  25
BRANCH   1  27
HETATM   27  C3  UNL     1      24.036  17.809   9.264  1.00  0.00     0.241 C 
BRANCH  27  28
HETATM   28  N2  UNL     1      25.280  17.809  10.016  1.00  0.00    -0.073 N 
ATOM     29  H22 UNL     1      25.772  16.917   9.974  1.00  0.00     0.277 HD
ATOM     30  H21 UNL     1      25.136  17.833  11.025  1.00  0.00     0.277 HD
BRANCH  28  31
HETATM   31  C2  UNL     1      26.086  18.936   9.522  1.00  0.00     0.259 C 
BRANCH  31  32
HETATM   32  C1  UNL     1      27.312  19.117  10.389  1.00  0.00     0.257 C 
BRANCH  32  33
HETATM   33  N1  UNL     1      27.940  17.869  10.689  1.00  0.00    -0.078 N 
ATOM     34  H13 UNL     1      27.743  17.173   9.970  1.00  0.00     0.274 HD
ATOM     35  H12 UNL     1      28.953  17.928  10.579  1.00  0.00     0.274 HD
ATOM     36  H11 UNL     1      27.686  17.529  11.616  1.00  0.00     0.274 HD
ENDBRANCH  32  33
ENDBRANCH  31  32
ENDBRANCH  28  31
ENDBRANCH  27  28
ENDBRANCH   1  27
TORSDOF 11
ENDMDL
MODEL 2
REMARK VINA RESULT: -4.561970914      1.790      2.402
REMARK  11 active torsions:
REMARK  status: ('A' for Active; 'I' for Inactive)
REMARK    1  A    between atoms: N1_1  and  C1_5 
REMARK    2  A    between atoms: C1_5  and  C2_6 
REMARK    3  A    between atoms: C2_6  and  N2_7 
REMARK    4  A    between atoms: N2_7  and  C3_10 
REMARK    5  A    between atoms: C3_10  and  C4_11 
REMARK    6  A    between atoms: C5_12  and  N3_13 
REMARK    7  A    between atoms: C6_17  and  O1_18 
REMARK    8  A    between atoms: O1_18  and  C7_19 
REMARK    9  A    between atoms: C9_24  and  N5_25 
REMARK   10  A    between atoms: C10_29  and  N6_30 
REMARK   11  A    between atoms: C11_34  and  O2_35 
ROOT
HETATM    1  C4  UNL     1      23.927  17.670   9.724  1.00  0.00     0.075 A 
HETATM    2  C5  UNL     1      23.508  16.630  10.740  1.00  0.00     0.223 A 
HETATM    3  C6  UNL     1      22.052  17.027  10.539  1.00  0.00     0.184 A 
HETATM    4  C11 UNL     1      22.506  18.068   9.561  1.00  0.00     0.157 A 
ENDROOT
BRANCH   3   5
HETATM    5  O1  UNL     1      21.386  15.925  10.033  1.00  0.00    -0.347 OA
BRANCH   5   6
HETATM    6  C7  UNL     1      20.216  15.600  10.648  1.00  0.00     0.354 C 
HETATM    7  N4  UNL     1      19.179  16.380   9.935  1.00  0.00    -0.045 N 
HETATM    8  C8  UNL     1      19.290  15.715   8.625  1.00  0.00     0.270 C 
ATOM      9  H42 UNL     1      18.251  16.405  10.359  1.00  0.00     0.280 HD
ATOM     10  H41 UNL     1      19.282  17.396   9.943  1.00  0.00     0.280 HD
HETATM   11  C9  UNL     1      18.966  14.274   9.057  1.00  0.00     0.243 C 
HETATM   12  C10 UNL     1      19.707  14.206  10.375  1.00  0.00     0.271 C 
BRANCH  11  13
HETATM   13  N5  UNL     1      17.534  14.235   9.193  1.00  0.00    -0.071 N 
ATOM     14  H53 UNL     1      17.057  15.025   8.761  1.00  0.00     0.274 HD
ATOM     15  H52 UNL     1      17.087  13.507   8.635  1.00  0.00     0.274 HD
ATOM     16  H51 UNL     1      17.364  14.149  10.196  1.00  0.00     0.274 HD
ENDBRANCH  11  13
BRANCH  12  17
HETATM   17  N6  UNL     1      18.733  13.821  11.393  1.00  0.00    -0.069 N 
ATOM     18  H63 UNL     1      18.716  14.476  12.174  1.00  0.00     0.275 HD
ATOM     19  H62 UNL     1      17.773  13.949  11.071  1.00  0.00     0.275 HD
ATOM     20  H61 UNL     1      18.908  12.864  11.700  1.00  0.00     0.275 HD
ENDBRANCH  12  17
ENDBRANCH   5   6
ENDBRANCH   3   5
BRANCH   2  21
HETATM   21  N3  UNL     1      23.855  15.305  10.302  1.00  0.00    -0.072 N 
ATOM     22  H33 UNL     1      23.521  15.123   9.356  1.00  0.00     0.274 HD
ATOM     23  H32 UNL     1      24.857  15.216  10.134  1.00  0.00     0.274 HD
ATOM     24  H31 UNL     1      23.521  14.600  10.960  1.00  0.00     0.274 HD
ENDBRANCH   2  21
BRANCH   4  25
HETATM   25  O2  UNL     1      22.293  19.347  10.070  1.00  0.00    -0.392 OA
ATOM     26  H2  UNL     1      21.677  19.322  10.793  1.00  0.00     0.210 HD
ENDBRANCH   4  25
BRANCH   1  27
HETATM   27  C3  UNL     1      24.890  18.618  10.354  1.00  0.00     0.241 C 
BRANCH  27  28
HETATM   28  N2  UNL     1      26.285  18.341  10.053  1.00  0.00    -0.073 N 
ATOM     29  H22 UNL     1      26.404  17.667   9.296  1.00  0.00     0.277 HD
ATOM     30  H21 UNL     1      26.751  17.801  10.783  1.00  0.00     0.277 HD
BRANCH  28  31
HETATM   31  C2  UNL     1      26.938  19.631   9.784  1.00  0.00     0.259 C 
BRANCH  31  32
HETATM   32  C1  UNL     1      27.690  19.570   8.474  1.00  0.00     0.257 C 
BRANCH  32  33
HETATM   33  N1  UNL     1      26.858  19.122   7.403  1.00  0.00    -0.078 N 
ATOM     34  H13 UNL     1      27.383  18.557   6.736  1.00  0.00     0.274 HD
ATOM     35  H12 UNL     1      26.192  18.417   7.720  1.00  0.00     0.274 HD
ATOM     36  H11 UNL     1      26.384  19.898   6.941  1.00  0.00     0.274 HD
ENDBRANCH  32  33
ENDBRANCH  31  32
ENDBRANCH  28  31
ENDBRANCH  27  28
ENDBRANCH   1  27
TORSDOF 11
ENDMDL
MODEL 3
REMARK VINA RESULT: -4.469739541      4.186      5.431
REMARK  11 active torsions:
REMARK  status: ('A' for Active; 'I' for Inactive)
REMARK    1  A    between atoms: N1_1  and  C1_5 
REMARK    2  A    between atoms: C1_5  and  C2_6 
REMARK    3  A    between atoms: C2_6  and  N2_7 
REMARK    4  A    between atoms: N2_7  and  C3_10 
REMARK    5  A    between atoms: C3_10  and  C4_11 
REMARK    6  A    between atoms: C5_12  and  N3_13 
REMARK    7  A    between atoms: C6_17  and  O1_18 
REMARK    8  A    between atoms: O1_18  and  C7_19 
REMARK    9  A    between atoms: C9_24  and  N5_25 
REMARK   10  A    between atoms: C10_29  and  N6_30 
REMARK   11  A    between atoms: C11_34  and  O2_35 
ROOT
HETATM    1  C4  UNL     1      20.627  19.514  11.775  1.00  0.00     0.075 A 
HETATM    2  C5  UNL     1      19.961  18.162  11.648  1.00  0.00     0.223 A 
HETATM    3  C6  UNL     1      20.155  18.213  10.139  1.00  0.00     0.184 A 
HETATM    4  C11 UNL     1      20.781  19.565  10.300  1.00  0.00     0.157 A 
ENDROOT
BRANCH   3   5
HETATM    5  O1  UNL     1      20.985  17.164   9.790  1.00  0.00    -0.347 OA
BRANCH   5   6
HETATM    6  C7  UNL     1      20.471  16.261   8.910  1.00  0.00     0.354 C 
HETATM    7  N4  UNL     1      21.590  15.342   8.605  1.00  0.00    -0.045 N 
HETATM    8  C8  UNL     1      21.736  14.749   9.945  1.00  0.00     0.270 C 
ATOM      9  H42 UNL     1      21.453  14.694   7.829  1.00  0.00     0.280 HD
ATOM     10  H41 UNL     1      22.427  15.759   8.195  1.00  0.00     0.280 HD
HETATM   11  C9  UNL     1      20.322  14.165  10.108  1.00  0.00     0.243 C 
HETATM   12  C10 UNL     1      19.492  15.273   9.496  1.00  0.00     0.271 C 
BRANCH  11  13
HETATM   13  N5  UNL     1      20.326  12.950   9.337  1.00  0.00    -0.071 N 
ATOM     14  H53 UNL     1      19.397  12.635   9.058  1.00  0.00     0.274 HD
ATOM     15  H52 UNL     1      20.702  13.061   8.395  1.00  0.00     0.274 HD
ATOM     16  H51 UNL     1      20.835  12.274   9.907  1.00  0.00     0.274 HD
ENDBRANCH  11  13
BRANCH  12  17
HETATM   17  N6  UNL     1      18.693  14.670   8.432  1.00  0.00    -0.069 N 
ATOM     18  H63 UNL     1      18.459  15.342   7.702  1.00  0.00     0.275 HD
ATOM     19  H62 UNL     1      19.238  14.019   7.866  1.00  0.00     0.275 HD
ATOM     20  H61 UNL     1      17.862  14.229   8.826  1.00  0.00     0.275 HD
ENDBRANCH  12  17
ENDBRANCH   5   6
ENDBRANCH   3   5
BRANCH   2  21
HETATM   21  N3  UNL     1      20.711  17.146  12.335  1.00  0.00    -0.072 N 
ATOM     22  H33 UNL     1      20.126  16.624  12.986  1.00  0.00     0.274 HD
ATOM     23  H32 UNL     1      20.968  16.382  11.710  1.00  0.00     0.274 HD
ATOM     24  H31 UNL     1      21.529  17.541  12.799  1.00  0.00     0.274 HD
ENDBRANCH   2  21
BRANCH   4  25
HETATM   25  O2  UNL     1      19.964  20.554   9.754  1.00  0.00    -0.392 OA
ATOM     26  H2  UNL     1      20.218  20.741   8.858  1.00  0.00     0.210 HD
ENDBRANCH   4  25
BRANCH   1  27
HETATM   27  C3  UNL     1      19.697  20.463  12.452  1.00  0.00     0.241 C 
BRANCH  27  28
HETATM   28  N2  UNL     1      20.243  21.796  12.652  1.00  0.00    -0.073 N 
ATOM     29  H22 UNL     1      19.772  22.508  12.094  1.00  0.00     0.277 HD
ATOM     30  H21 UNL     1      21.174  21.910  12.250  1.00  0.00     0.277 HD
BRANCH  28  31
HETATM   31  C2  UNL     1      20.199  22.072  14.096  1.00  0.00     0.259 C 
BRANCH  31  32
HETATM   32  C1  UNL     1      18.783  22.385  14.523  1.00  0.00     0.257 C 
BRANCH  32  33
HETATM   33  N1  UNL     1      18.750  23.271  15.643  1.00  0.00    -0.078 N 
ATOM     34  H13 UNL     1      18.696  22.757  16.522  1.00  0.00     0.274 HD
ATOM     35  H12 UNL     1      19.650  23.730  15.781  1.00  0.00     0.274 HD
ATOM     36  H11 UNL     1      17.994  23.952  15.565  1.00  0.00     0.274 HD
ENDBRANCH  32  33
ENDBRANCH  31  32
ENDBRANCH  28  31
ENDBRANCH  27  28
ENDBRANCH   1  27
TORSDOF 11
ENDMDL
MODEL 4
REMARK VINA RESULT: -4.249501389      1.892      2.553
REMARK  11 active torsions:
REMARK  status: ('A' for Active; 'I' for Inactive)
REMARK    1  A    between atoms: N1_1  and  C1_5 
REMARK    2  A    between atoms: C1_5  and  C2_6 
REMARK    3  A    between atoms: C2_6  and  N2_7 
REMARK    4  A    between atoms: N2_7  and  C3_10 
REMARK    5  A    between atoms: C3_10  and  C4_11 
REMARK    6  A    between atoms: C5_12  and  N3_13 
REMARK    7  A    between atoms: C6_17  and  O1_18 
REMARK    8  A    between atoms: O1_18  and  C7_19 
REMARK    9  A    between atoms: C9_24  and  N5_25 
REMARK   10  A    between atoms: C10_29  and  N6_30 
REMARK   11  A    between atoms: C11_34  and  O2_35 
ROOT
HETATM    1  C4  UNL     1      23.408  17.766   9.501  1.00  0.00     0.075 A 
HETATM    2  C5  UNL     1      23.304  16.930  10.756  1.00  0.00     0.223 A 
HETATM    3  C6  UNL     1      21.837  17.316  10.887  1.00  0.00     0.184 A 
HETATM    4  C11 UNL     1      21.985  18.159   9.657  1.00  0.00     0.157 A 
ENDROOT
BRANCH   3   5
HETATM    5  O1  UNL     1      21.090  16.157  10.779  1.00  0.00    -0.347 OA
BRANCH   5   6
HETATM    6  C7  UNL     1      19.853  16.292  10.228  1.00  0.00     0.354 C 
HETATM    7  N4  UNL     1      20.029  15.941   8.800  1.00  0.00    -0.045 N 
HETATM    8  C8  UNL     1      20.373  14.520   8.982  1.00  0.00     0.270 C 
ATOM      9  H42 UNL     1      19.247  16.147   8.178  1.00  0.00     0.280 HD
ATOM     10  H41 UNL     1      20.689  16.508   8.266  1.00  0.00     0.280 HD
HETATM   11  C9  UNL     1      19.100  14.052   9.708  1.00  0.00     0.243 C 
HETATM   12  C10 UNL     1      18.851  15.234  10.620  1.00  0.00     0.271 C 
BRANCH  11  13
HETATM   13  N5  UNL     1      18.112  13.899   8.674  1.00  0.00    -0.071 N 
ATOM     14  H53 UNL     1      18.282  14.479   7.852  1.00  0.00     0.274 HD
ATOM     15  H52 UNL     1      18.153  13.000   8.194  1.00  0.00     0.274 HD
ATOM     16  H51 UNL     1      17.218  14.083   9.130  1.00  0.00     0.274 HD
ENDBRANCH  11  13
BRANCH  12  17
HETATM   17  N6  UNL     1      17.495  15.704  10.349  1.00  0.00    -0.069 N 
ATOM     18  H63 UNL     1      17.350  16.660  10.673  1.00  0.00     0.275 HD
ATOM     19  H62 UNL     1      17.336  15.859   9.353  1.00  0.00     0.275 HD
ATOM     20  H61 UNL     1      16.814  15.058  10.748  1.00  0.00     0.275 HD
ENDBRANCH  12  17
ENDBRANCH   5   6
ENDBRANCH   3   5
BRANCH   2  21
HETATM   21  N3  UNL     1      23.557  15.542  10.480  1.00  0.00    -0.072 N 
ATOM     22  H33 UNL     1      22.733  15.080  10.098  1.00  0.00     0.274 HD
ATOM     23  H32 UNL     1      24.184  15.426   9.685  1.00  0.00     0.274 HD
ATOM     24  H31 UNL     1      23.908  15.059  11.308  1.00  0.00     0.274 HD
ENDBRANCH   2  21
BRANCH   4  25
HETATM   25  O2  UNL     1      21.881  19.513   9.973  1.00  0.00    -0.392 OA
ATOM     26  H2  UNL     1      21.437  19.629  10.805  1.00  0.00     0.210 HD
ENDBRANCH   4  25
BRANCH   1  27
HETATM   27  C3  UNL     1      24.478  18.790   9.673  1.00  0.00     0.241 C 
BRANCH  27  28
HETATM   28  N2  UNL     1      25.777  18.243  10.028  1.00  0.00    -0.073 N 
ATOM     29  H22 UNL     1      25.897  17.275   9.730  1.00  0.00     0.277 HD
ATOM     30  H21 UNL     1      25.885  18.086  11.030  1.00  0.00     0.277 HD
BRANCH  28  31
HETATM   31  C2  UNL     1      26.796  19.147   9.473  1.00  0.00     0.259 C 
BRANCH  31  32
HETATM   32  C1  UNL     1      26.509  19.422   8.014  1.00  0.00     0.257 C 
BRANCH  32  33
HETATM   33  N1  UNL     1      27.530  18.896   7.163  1.00  0.00    -0.078 N 
ATOM     34  H13 UNL     1      28.458  19.060   7.553  1.00  0.00     0.274 HD
ATOM     35  H12 UNL     1      27.531  17.876   7.171  1.00  0.00     0.274 HD
ATOM     36  H11 UNL     1      27.456  19.261   6.214  1.00  0.00     0.274 HD
ENDBRANCH  32  33
ENDBRANCH  31  32
ENDBRANCH  28  31
ENDBRANCH  27  28
ENDBRANCH   1  27
TORSDOF 11
ENDMDL
MODEL 5
REMARK VINA RESULT: -4.156367472      2.332      3.660
REMARK  11 active torsions:
REMARK  status: ('A' for Active; 'I' for Inactive)
REMARK    1  A    between atoms: N1_1  and  C1_5 
REMARK    2  A    between atoms: C1_5  and  C2_6 
REMARK    3  A    between atoms: C2_6  and  N2_7 
REMARK    4  A    between atoms: N2_7  and  C3_10 
REMARK    5  A    between atoms: C3_10  and  C4_11 
REMARK    6  A    between atoms: C5_12  and  N3_13 
REMARK    7  A    between atoms: C6_17  and  O1_18 
REMARK    8  A    between atoms: O1_18  and  C7_19 
REMARK    9  A    between atoms: C9_24  and  N5_25 
REMARK   10  A    between atoms: C10_29  and  N6_30 
REMARK   11  A    between atoms: C11_34  and  O2_35 
ROOT
HETATM    1  C4  UNL     1      22.391  17.481   9.469  1.00  0.00     0.075 A 
HETATM    2  C5  UNL     1      22.209  16.492  10.598  1.00  0.00     0.223 A 
HETATM    3  C6  UNL     1      21.007  15.898   9.878  1.00  0.00     0.184 A 
HETATM    4  C11 UNL     1      21.198  16.914   8.793  1.00  0.00     0.157 A 
ENDROOT
BRANCH   3   5
HETATM    5  O1  UNL     1      21.307  14.582   9.579  1.00  0.00    -0.347 OA
BRANCH   5   6
HETATM    6  C7  UNL     1      20.245  13.746   9.424  1.00  0.00     0.354 C 
HETATM    7  N4  UNL     1      19.754  13.491  10.797  1.00  0.00    -0.045 N 
HETATM    8  C8  UNL     1      19.307  14.859  11.110  1.00  0.00     0.270 C 
ATOM      9  H42 UNL     1      19.064  12.747  10.906  1.00  0.00     0.280 HD
ATOM     10  H41 UNL     1      20.414  13.064  11.448  1.00  0.00     0.280 HD
HETATM   11  C9  UNL     1      18.281  15.045   9.979  1.00  0.00     0.243 C 
HETATM   12  C10 UNL     1      19.008  14.375   8.832  1.00  0.00     0.271 C 
BRANCH  11  13
HETATM   13  N5  UNL     1      17.108  14.335  10.416  1.00  0.00    -0.071 N 
ATOM     14  H53 UNL     1      17.234  13.324  10.469  1.00  0.00     0.274 HD
ATOM     15  H52 UNL     1      16.882  14.479  11.400  1.00  0.00     0.274 HD
ATOM     16  H51 UNL     1      16.367  14.624   9.776  1.00  0.00     0.274 HD
ENDBRANCH  11  13
BRANCH  12  17
HETATM   17  N6  UNL     1      18.120  13.340   8.310  1.00  0.00    -0.069 N 
ATOM     18  H63 UNL     1      18.536  12.838   7.527  1.00  0.00     0.275 HD
ATOM     19  H62 UNL     1      18.026  12.555   8.956  1.00  0.00     0.275 HD
ATOM     20  H61 UNL     1      17.215  13.744   8.068  1.00  0.00     0.275 HD
ENDBRANCH  12  17
ENDBRANCH   5   6
ENDBRANCH   3   5
BRANCH   2  21
HETATM   21  N3  UNL     1      23.349  15.624  10.719  1.00  0.00    -0.072 N 
ATOM     22  H33 UNL     1      23.919  15.634   9.874  1.00  0.00     0.274 HD
ATOM     23  H32 UNL     1      24.036  15.996  11.375  1.00  0.00     0.274 HD
ATOM     24  H31 UNL     1      23.067  14.676  10.970  1.00  0.00     0.274 HD
ENDBRANCH   2  21
BRANCH   4  25
HETATM   25  O2  UNL     1      20.152  17.834   8.789  1.00  0.00    -0.392 OA
ATOM     26  H2  UNL     1      19.851  17.995   7.903  1.00  0.00     0.210 HD
ENDBRANCH   4  25
BRANCH   1  27
HETATM   27  C3  UNL     1      22.340  18.869  10.013  1.00  0.00     0.241 C 
BRANCH  27  28
HETATM   28  N2  UNL     1      21.551  19.008  11.225  1.00  0.00    -0.073 N 
ATOM     29  H22 UNL     1      22.117  18.999  12.073  1.00  0.00     0.277 HD
ATOM     30  H21 UNL     1      20.990  18.181  11.434  1.00  0.00     0.277 HD
BRANCH  28  31
HETATM   31  C2  UNL     1      20.745  20.230  11.083  1.00  0.00     0.259 C 
BRANCH  31  32
HETATM   32  C1  UNL     1      19.855  20.410  12.293  1.00  0.00     0.257 C 
BRANCH  32  33
HETATM   33  N1  UNL     1      20.027  21.696  12.892  1.00  0.00    -0.078 N 
ATOM     34  H13 UNL     1      20.552  21.631  13.764  1.00  0.00     0.274 HD
ATOM     35  H12 UNL     1      20.677  22.271  12.357  1.00  0.00     0.274 HD
ATOM     36  H11 UNL     1      19.136  22.172  13.030  1.00  0.00     0.274 HD
ENDBRANCH  32  33
ENDBRANCH  31  32
ENDBRANCH  28  31
ENDBRANCH  27  28
ENDBRANCH   1  27
TORSDOF 11
ENDMDL
