MODEL 1
REMARK VINA RESULT: -5.169744903      0.000      0.000
REMARK  12 active torsions:
REMARK  status: ('A' for Active; 'I' for Inactive)
REMARK    1  A    between atoms: N1_1  and  C1_5 
REMARK    2  A    between atoms: C1_5  and  C2_6 
REMARK    3  A    between atoms: C2_6  and  C3_7 
REMARK    4  A    between atoms: C3_7  and  O1_8 
REMARK    5  A    between atoms: O1_8  and  C4_9 
REMARK    6  A    between atoms: C5_11  and  C6_12 
REMARK    7  A    between atoms: C6_12  and  O3_13 
REMARK    8  A    between atoms: C7_15  and  O4_16 
REMARK    9  A    between atoms: C8_18  and  N2_19 
REMARK   10  A    between atoms: C9_23  and  N3_24 
REMARK   11  A    between atoms: C10_28  and  N4_29 
REMARK   12  A    between atoms: N4_29  and  N5_30 
ROOT
HETATM    1  C2  UNL     1      19.777  15.217   9.670  1.00  0.00     0.056 A 
HETATM    2  C9  UNL     1      21.084  14.530   9.619  1.00  0.00     0.219 A 
HETATM    3  C10 UNL     1      20.696  15.309   8.436  1.00  0.00     0.144 A 
ENDROOT
BRANCH   1   4
HETATM    4  C1  UNL     1      18.552  14.340   9.499  1.00  0.00     0.245 C 
BRANCH   4   5
HETATM    5  N1  UNL     1      17.344  14.996   9.894  1.00  0.00    -0.078 N 
ATOM      6  H13 UNL     1      16.702  14.342  10.343  1.00  0.00     0.274 HD
ATOM      7  H12 UNL     1      17.510  15.627  10.678  1.00  0.00     0.274 HD
ATOM      8  H11 UNL     1      16.889  15.482   9.122  1.00  0.00     0.274 HD
ENDBRANCH   4   5
ENDBRANCH   1   4
BRANCH   1   9
HETATM    9  C3  UNL     1      19.577  16.505  10.388  1.00  0.00     0.186 C 
BRANCH   9  10
HETATM   10  O1  UNL     1      20.178  16.536  11.641  1.00  0.00    -0.358 OA
BRANCH  10  11
HETATM   11  C4  UNL     1      20.669  17.772  11.959  1.00  0.00     0.293 C 
HETATM   12  O2  UNL     1      19.655  18.671  12.360  1.00  0.00    -0.349 OA
HETATM   13  C5  UNL     1      20.395  19.853  12.430  1.00  0.00     0.179 C 
HETATM   14  C7  UNL     1      20.982  19.918  11.037  1.00  0.00     0.184 C 
HETATM   15  C8  UNL     1      21.197  18.445  10.729  1.00  0.00     0.269 C 
BRANCH  13  16
HETATM   16  C6  UNL     1      19.522  21.047  12.730  1.00  0.00     0.198 C 
BRANCH  16  17
HETATM   17  O3  UNL     1      20.268  22.193  12.427  1.00  0.00    -0.398 OA
ATOM     18  H3  UNL     1      19.759  22.943  12.710  1.00  0.00     0.209 HD
ENDBRANCH  16  17
ENDBRANCH  13  16
BRANCH  14  19
HETATM   19  O4  UNL     1      20.068  20.439  10.148  1.00  0.00    -0.391 OA
ATOM     20  H4  UNL     1      20.294  20.200   9.257  1.00  0.00     0.210 HD
ENDBRANCH  14  19
BRANCH  15  21
HETATM   21  N2  UNL     1      22.585  18.115  10.565  1.00  0.00    -0.068 N 
ATOM     22  H23 UNL     1      22.813  17.198  10.949  1.00  0.00     0.275 HD
ATOM     23  H22 UNL     1      22.825  17.928   9.591  1.00  0.00     0.275 HD
ATOM     24  H21 UNL     1      23.159  18.856  10.968  1.00  0.00     0.275 HD
ENDBRANCH  15  21
ENDBRANCH  10  11
ENDBRANCH   9  10
ENDBRANCH   1   9
BRANCH   2  25
HETATM   25  N3  UNL     1      22.217  15.015  10.372  1.00  0.00    -0.072 N 
ATOM     26  H33 UNL     1      22.948  15.272   9.709  1.00  0.00     0.274 HD
ATOM     27  H32 UNL     1      21.966  15.920  10.770  1.00  0.00     0.274 HD
ATOM     28  H31 UNL     1      22.643  14.454  11.108  1.00  0.00     0.274 HD
ENDBRANCH   2  25
BRANCH   3  29
HETATM   29  N4  UNL     1      21.352  16.584   8.210  1.00  0.00    -0.140 NA
BRANCH  29  30
HETATM   30  N5  UNL     1      22.451  16.482   7.388  1.00  0.00    -0.348 N 
ATOM     31  H52 UNL     1      23.085  15.684   7.413  1.00  0.00     0.172 HD
ATOM     32  H51 UNL     1      22.554  17.282   6.764  1.00  0.00     0.172 HD
ENDBRANCH  29  30
ENDBRANCH   3  29
TORSDOF 12
ENDMDL
MODEL 2
REMARK VINA RESULT: -5.107989168      4.304      6.220
REMARK  12 active torsions:
REMARK  status: ('A' for Active; 'I' for Inactive)
REMARK    1  A    between atoms: N1_1  and  C1_5 
REMARK    2  A    between atoms: C1_5  and  C2_6 
REMARK    3  A    between atoms: C2_6  and  C3_7 
REMARK    4  A    between atoms: C3_7  and  O1_8 
REMARK    5  A    between atoms: O1_8  and  C4_9 
REMARK    6  A    between atoms: C5_11  and  C6_12 
REMARK    7  A    between atoms: C6_12  and  O3_13 
REMARK    8  A    between atoms: C7_15  and  O4_16 
REMARK    9  A    between atoms: C8_18  and  N2_19 
REMARK   10  A    between atoms: C9_23  and  N3_24 
REMARK   11  A    between atoms: C10_28  and  N4_29 
REMARK   12  A    between atoms: N4_29  and  N5_30 
ROOT
HETATM    1  C2  UNL     1      26.683  19.420   9.684  1.00  0.00     0.056 A 
HETATM    2  C9  UNL     1      27.940  18.814  10.169  1.00  0.00     0.219 A 
HETATM    3  C10 UNL     1      27.660  20.192  10.592  1.00  0.00     0.144 A 
ENDROOT
BRANCH   1   4
HETATM    4  C1  UNL     1      26.667  19.857   8.232  1.00  0.00     0.245 C 
BRANCH   4   5
HETATM    5  N1  UNL     1      25.973  18.935   7.386  1.00  0.00    -0.078 N 
ATOM      6  H13 UNL     1      26.289  17.979   7.549  1.00  0.00     0.274 HD
ATOM      7  H12 UNL     1      24.999  18.838   7.673  1.00  0.00     0.274 HD
ATOM      8  H11 UNL     1      26.041  19.180   6.398  1.00  0.00     0.274 HD
ENDBRANCH   4   5
ENDBRANCH   1   4
BRANCH   1   9
HETATM    9  C3  UNL     1      25.362  19.129  10.305  1.00  0.00     0.186 C 
BRANCH   9  10
HETATM   10  O1  UNL     1      24.900  17.844  10.041  1.00  0.00    -0.358 OA
BRANCH  10  11
HETATM   11  C4  UNL     1      23.571  17.819   9.721  1.00  0.00     0.293 C 
HETATM   12  O2  UNL     1      22.878  18.955  10.198  1.00  0.00    -0.349 OA
HETATM   13  C5  UNL     1      21.565  18.576   9.906  1.00  0.00     0.179 C 
HETATM   14  C7  UNL     1      21.472  17.251  10.630  1.00  0.00     0.184 C 
HETATM   15  C8  UNL     1      22.886  16.715  10.467  1.00  0.00     0.269 C 
BRANCH  13  16
HETATM   16  C6  UNL     1      20.562  19.576  10.427  1.00  0.00     0.198 C 
BRANCH  16  17
HETATM   17  O3  UNL     1      21.253  20.453  11.273  1.00  0.00    -0.398 OA
ATOM     18  H3  UNL     1      20.735  20.547  12.064  1.00  0.00     0.209 HD
ENDBRANCH  16  17
ENDBRANCH  13  16
BRANCH  14  19
HETATM   19  O4  UNL     1      21.212  17.445  11.968  1.00  0.00    -0.391 OA
ATOM     20  H4  UNL     1      21.644  18.230  12.283  1.00  0.00     0.210 HD
ENDBRANCH  14  19
BRANCH  15  21
HETATM   21  N2  UNL     1      22.930  15.513   9.683  1.00  0.00    -0.068 N 
ATOM     22  H23 UNL     1      23.638  15.555   8.950  1.00  0.00     0.275 HD
ATOM     23  H22 UNL     1      23.310  14.724  10.206  1.00  0.00     0.275 HD
ATOM     24  H21 UNL     1      22.000  15.317   9.311  1.00  0.00     0.275 HD
ENDBRANCH  15  21
ENDBRANCH  10  11
ENDBRANCH   9  10
ENDBRANCH   1   9
BRANCH   2  25
HETATM   25  N3  UNL     1      27.938  17.806  11.203  1.00  0.00    -0.072 N 
ATOM     26  H33 UNL     1      27.258  18.082  11.911  1.00  0.00     0.274 HD
ATOM     27  H32 UNL     1      27.512  16.962  10.820  1.00  0.00     0.274 HD
ATOM     28  H31 UNL     1      28.797  17.535  11.681  1.00  0.00     0.274 HD
ENDBRANCH   2  25
BRANCH   3  29
HETATM   29  N4  UNL     1      27.234  20.416  11.960  1.00  0.00    -0.140 NA
BRANCH  29  30
HETATM   30  N5  UNL     1      27.249  21.746  12.315  1.00  0.00    -0.348 N 
ATOM     31  H52 UNL     1      27.341  22.497  11.632  1.00  0.00     0.172 HD
ATOM     32  H51 UNL     1      27.160  21.888  13.321  1.00  0.00     0.172 HD
ENDBRANCH  29  30
ENDBRANCH   3  29
TORSDOF 12
ENDMDL
MODEL 3
REMARK VINA RESULT: -5.091447654      4.494      5.612
REMARK  12 active torsions:
REMARK  status: ('A' for Active; 'I' for Inactive)
REMARK    1  A    between atoms: N1_1  and  C1_5 
REMARK    2  A    between atoms: C1_5  and  C2_6 
REMARK    3  A    between atoms: C2_6  and  C3_7 
REMARK    4  A    between atoms: C3_7  and  O1_8 
REMARK    5  A    between atoms: O1_8  and  C4_9 
REMARK    6  A    between atoms: C5_11  and  C6_12 
REMARK    7  A    between atoms: C6_12  and  O3_13 
REMARK    8  A    between atoms: C7_15  and  O4_16 
REMARK    9  A    between atoms: C8_18  and  N2_19 
REMARK   10  A    between atoms: C9_23  and  N3_24 
REMARK   11  A    between atoms: C10_28  and  N4_29 
REMARK   12  A    between atoms: N4_29  and  N5_30 
ROOT
HETATM    1  C2  UNL     1      22.190  17.304  10.333  1.00  0.00     0.056 A 
HETATM    2  C9  UNL     1      20.907  17.813   9.808  1.00  0.00     0.219 A 
HETATM    3  C10 UNL     1      20.996  17.607  11.259  1.00  0.00     0.144 A 
ENDROOT
BRANCH   1   4
HETATM    4  C1  UNL     1      22.471  15.832  10.102  1.00  0.00     0.245 C 
BRANCH   4   5
HETATM    5  N1  UNL     1      23.797  15.457  10.487  1.00  0.00    -0.078 N 
ATOM      6  H13 UNL     1      24.398  16.276  10.578  1.00  0.00     0.274 HD
ATOM      7  H12 UNL     1      23.819  15.128  11.452  1.00  0.00     0.274 HD
ATOM      8  H11 UNL     1      24.210  14.769   9.857  1.00  0.00     0.274 HD
ENDBRANCH   4   5
ENDBRANCH   1   4
BRANCH   1   9
HETATM    9  C3  UNL     1      23.374  18.182  10.546  1.00  0.00     0.186 C 
BRANCH   9  10
HETATM   10  O1  UNL     1      24.067  18.464   9.374  1.00  0.00    -0.358 OA
BRANCH  10  11
HETATM   11  C4  UNL     1      25.421  18.503   9.561  1.00  0.00     0.293 C 
HETATM   12  O2  UNL     1      25.779  19.046  10.815  1.00  0.00    -0.349 OA
HETATM   13  C5  UNL     1      27.163  19.137  10.652  1.00  0.00     0.179 C 
HETATM   14  C7  UNL     1      27.258  19.970   9.392  1.00  0.00     0.184 C 
HETATM   15  C8  UNL     1      26.039  19.491   8.620  1.00  0.00     0.269 C 
BRANCH  13  16
HETATM   16  C6  UNL     1      27.825  19.815  11.827  1.00  0.00     0.198 C 
BRANCH  16  17
HETATM   17  O3  UNL     1      26.838  20.559  12.486  1.00  0.00    -0.398 OA
ATOM     18  H3  UNL     1      26.415  21.106  11.834  1.00  0.00     0.209 HD
ENDBRANCH  16  17
ENDBRANCH  13  16
BRANCH  14  19
HETATM   19  O4  UNL     1      27.115  21.309   9.682  1.00  0.00    -0.391 OA
ATOM     20  H4  UNL     1      26.782  21.781   8.928  1.00  0.00     0.210 HD
ENDBRANCH  14  19
BRANCH  15  21
HETATM   21  N2  UNL     1      26.391  18.827   7.395  1.00  0.00    -0.068 N 
ATOM     22  H23 UNL     1      27.400  18.740   7.280  1.00  0.00     0.275 HD
ATOM     23  H22 UNL     1      26.162  17.834   7.416  1.00  0.00     0.275 HD
ATOM     24  H21 UNL     1      25.952  19.309   6.611  1.00  0.00     0.275 HD
ENDBRANCH  15  21
ENDBRANCH  10  11
ENDBRANCH   9  10
ENDBRANCH   1   9
BRANCH   2  25
HETATM   25  N3  UNL     1      20.770  19.178   9.355  1.00  0.00    -0.072 N 
ATOM     26  H33 UNL     1      20.856  19.789  10.166  1.00  0.00     0.274 HD
ATOM     27  H32 UNL     1      21.605  19.418   8.820  1.00  0.00     0.274 HD
ATOM     28  H31 UNL     1      19.956  19.479   8.819  1.00  0.00     0.274 HD
ENDBRANCH   2  25
BRANCH   3  29
HETATM   29  N4  UNL     1      21.116  18.775  12.111  1.00  0.00    -0.140 NA
BRANCH  29  30
HETATM   30  N5  UNL     1      19.909  19.394  12.345  1.00  0.00    -0.348 N 
ATOM     31  H52 UNL     1      19.051  19.127  11.862  1.00  0.00     0.172 HD
ATOM     32  H51 UNL     1      19.972  20.135  13.042  1.00  0.00     0.172 HD
ENDBRANCH  29  30
ENDBRANCH   3  29
TORSDOF 12
ENDMDL
MODEL 4
REMARK VINA RESULT: -5.017026009      4.252      5.023
REMARK  12 active torsions:
REMARK  status: ('A' for Active; 'I' for Inactive)
REMARK    1  A    between atoms: N1_1  and  C1_5 
REMARK    2  A    between atoms: C1_5  and  C2_6 
REMARK    3  A    between atoms: C2_6  and  C3_7 
REMARK    4  A    between atoms: C3_7  and  O1_8 
REMARK    5  A    between atoms: O1_8  and  C4_9 
REMARK    6  A    between atoms: C5_11  and  C6_12 
REMARK    7  A    between atoms: C6_12  and  O3_13 
REMARK    8  A    between atoms: C7_15  and  O4_16 
REMARK    9  A    between atoms: C8_18  and  N2_19 
REMARK   10  A    between atoms: C9_23  and  N3_24 
REMARK   11  A    between atoms: C10_28  and  N4_29 
REMARK   12  A    between atoms: N4_29  and  N5_30 
ROOT
HETATM    1  C2  UNL     1      21.546  17.665   9.660  1.00  0.00     0.056 A 
HETATM    2  C9  UNL     1      20.596  16.539   9.769  1.00  0.00     0.219 A 
HETATM    3  C10 UNL     1      21.143  16.821   8.436  1.00  0.00     0.144 A 
ENDROOT
BRANCH   1   4
HETATM    4  C1  UNL     1      20.945  19.056   9.713  1.00  0.00     0.245 C 
BRANCH   4   5
HETATM    5  N1  UNL     1      20.832  19.558  11.048  1.00  0.00    -0.078 N 
ATOM      6  H13 UNL     1      21.327  20.444  11.150  1.00  0.00     0.274 HD
ATOM      7  H12 UNL     1      19.883  19.877  11.240  1.00  0.00     0.274 HD
ATOM      8  H11 UNL     1      21.141  18.884  11.749  1.00  0.00     0.274 HD
ENDBRANCH   4   5
ENDBRANCH   1   4
BRANCH   1   9
HETATM    9  C3  UNL     1      22.979  17.545  10.047  1.00  0.00     0.186 C 
BRANCH   9  10
HETATM   10  O1  UNL     1      23.669  18.750   9.981  1.00  0.00    -0.358 OA
BRANCH  10  11
HETATM   11  C4  UNL     1      25.026  18.579   9.962  1.00  0.00     0.293 C 
HETATM   12  O2  UNL     1      25.663  19.176  11.072  1.00  0.00    -0.349 OA
HETATM   13  C5  UNL     1      27.000  19.016  10.699  1.00  0.00     0.179 C 
HETATM   14  C7  UNL     1      27.011  19.690   9.344  1.00  0.00     0.184 C 
HETATM   15  C8  UNL     1      25.623  19.349   8.824  1.00  0.00     0.269 C 
BRANCH  13  16
HETATM   16  C6  UNL     1      27.940  19.686  11.670  1.00  0.00     0.198 C 
BRANCH  16  17
HETATM   17  O3  UNL     1      27.206  20.668  12.346  1.00  0.00    -0.398 OA
ATOM     18  H3  UNL     1      26.333  20.676  11.972  1.00  0.00     0.209 HD
ENDBRANCH  16  17
ENDBRANCH  13  16
BRANCH  14  19
HETATM   19  O4  UNL     1      27.121  21.056   9.482  1.00  0.00    -0.391 OA
ATOM     20  H4  UNL     1      27.278  21.466   8.640  1.00  0.00     0.210 HD
ENDBRANCH  14  19
BRANCH  15  21
HETATM   21  N2  UNL     1      25.664  18.516   7.655  1.00  0.00    -0.068 N 
ATOM     22  H23 UNL     1      26.237  17.683   7.794  1.00  0.00     0.275 HD
ATOM     23  H22 UNL     1      24.773  18.051   7.480  1.00  0.00     0.275 HD
ATOM     24  H21 UNL     1      25.974  19.069   6.856  1.00  0.00     0.275 HD
ENDBRANCH  15  21
ENDBRANCH  10  11
ENDBRANCH   9  10
ENDBRANCH   1   9
BRANCH   2  25
HETATM   25  N3  UNL     1      20.983  15.286  10.376  1.00  0.00    -0.072 N 
ATOM     26  H33 UNL     1      21.849  15.440  10.891  1.00  0.00     0.274 HD
ATOM     27  H32 UNL     1      20.324  15.084  11.127  1.00  0.00     0.274 HD
ATOM     28  H31 UNL     1      21.095  14.440   9.819  1.00  0.00     0.274 HD
ENDBRANCH   2  25
BRANCH   3  29
HETATM   29  N4  UNL     1      22.152  15.925   7.904  1.00  0.00    -0.140 NA
BRANCH  29  30
HETATM   30  N5  UNL     1      22.576  16.282   6.645  1.00  0.00    -0.348 N 
ATOM     31  H52 UNL     1      22.737  15.600   5.904  1.00  0.00     0.172 HD
ATOM     32  H51 UNL     1      22.708  17.288   6.542  1.00  0.00     0.172 HD
ENDBRANCH  29  30
ENDBRANCH   3  29
TORSDOF 12
ENDMDL
MODEL 5
REMARK VINA RESULT: -4.878576339      4.482      6.242
REMARK  12 active torsions:
REMARK  status: ('A' for Active; 'I' for Inactive)
REMARK    1  A    between atoms: N1_1  and  C1_5 
REMARK    2  A    between atoms: C1_5  and  C2_6 
REMARK    3  A    between atoms: C2_6  and  C3_7 
REMARK    4  A    between atoms: C3_7  and  O1_8 
REMARK    5  A    between atoms: O1_8  and  C4_9 
REMARK    6  A    between atoms: C5_11  and  C6_12 
REMARK    7  A    between atoms: C6_12  and  O3_13 
REMARK    8  A    between atoms: C7_15  and  O4_16 
REMARK    9  A    between atoms: C8_18  and  N2_19 
REMARK   10  A    between atoms: C9_23  and  N3_24 
REMARK   11  A    between atoms: C10_28  and  N4_29 
REMARK   12  A    between atoms: N4_29  and  N5_30 
ROOT
HETATM    1  C2  UNL     1      27.061  19.333   9.611  1.00  0.00     0.056 A 
HETATM    2  C9  UNL     1      27.760  20.517   9.070  1.00  0.00     0.219 A 
HETATM    3  C10 UNL     1      27.282  19.526   8.098  1.00  0.00     0.144 A 
ENDROOT
BRANCH   1   4
HETATM    4  C1  UNL     1      27.936  18.280  10.263  1.00  0.00     0.245 C 
BRANCH   4   5
HETATM    5  N1  UNL     1      27.940  18.372  11.690  1.00  0.00    -0.078 N 
ATOM      6  H13 UNL     1      26.994  18.309  12.064  1.00  0.00     0.274 HD
ATOM      7  H12 UNL     1      28.340  17.533  12.110  1.00  0.00     0.274 HD
ATOM      8  H11 UNL     1      28.411  19.211  12.029  1.00  0.00     0.274 HD
ENDBRANCH   4   5
ENDBRANCH   1   4
BRANCH   1   9
HETATM    9  C3  UNL     1      25.635  19.369  10.036  1.00  0.00     0.186 C 
BRANCH   9  10
HETATM   10  O1  UNL     1      25.054  18.108  10.118  1.00  0.00    -0.358 OA
BRANCH  10  11
HETATM   11  C4  UNL     1      23.714  18.128   9.848  1.00  0.00     0.293 C 
HETATM   12  O2  UNL     1      23.071  19.268  10.381  1.00  0.00    -0.349 OA
HETATM   13  C5  UNL     1      21.738  18.934  10.128  1.00  0.00     0.179 C 
HETATM   14  C7  UNL     1      21.634  17.591  10.818  1.00  0.00     0.184 C 
HETATM   15  C8  UNL     1      23.025  17.022  10.587  1.00  0.00     0.269 C 
BRANCH  13  16
HETATM   16  C6  UNL     1      20.784  19.945  10.713  1.00  0.00     0.198 C 
BRANCH  16  17
HETATM   17  O3  UNL     1      19.567  19.287  10.933  1.00  0.00    -0.398 OA
ATOM     18  H3  UNL     1      19.740  18.354  10.899  1.00  0.00     0.209 HD
ENDBRANCH  16  17
ENDBRANCH  13  16
BRANCH  14  19
HETATM   19  O4  UNL     1      21.428  17.754  12.170  1.00  0.00    -0.391 OA
ATOM     20  H4  UNL     1      20.504  17.694  12.378  1.00  0.00     0.210 HD
ENDBRANCH  14  19
BRANCH  15  21
HETATM   21  N2  UNL     1      23.007  15.842   9.769  1.00  0.00    -0.068 N 
ATOM     22  H23 UNL     1      22.146  15.761   9.227  1.00  0.00     0.275 HD
ATOM     23  H22 UNL     1      23.663  15.902   8.991  1.00  0.00     0.275 HD
ATOM     24  H21 UNL     1      23.174  15.023  10.354  1.00  0.00     0.275 HD
ENDBRANCH  15  21
ENDBRANCH  10  11
ENDBRANCH   9  10
ENDBRANCH   1   9
BRANCH   2  25
HETATM   25  N3  UNL     1      27.124  21.814   9.038  1.00  0.00    -0.072 N 
ATOM     26  H33 UNL     1      26.230  21.715   8.558  1.00  0.00     0.274 HD
ATOM     27  H32 UNL     1      26.829  22.044   9.987  1.00  0.00     0.274 HD
ATOM     28  H31 UNL     1      27.600  22.628   8.650  1.00  0.00     0.274 HD
ENDBRANCH   2  25
BRANCH   3  29
HETATM   29  N4  UNL     1      26.109  19.850   7.308  1.00  0.00    -0.140 NA
BRANCH  29  30
HETATM   30  N5  UNL     1      26.412  20.157   6.001  1.00  0.00    -0.348 N 
ATOM     31  H52 UNL     1      26.726  19.457   5.329  1.00  0.00     0.172 HD
ATOM     32  H51 UNL     1      26.288  21.147   5.788  1.00  0.00     0.172 HD
ENDBRANCH  29  30
ENDBRANCH   3  29
TORSDOF 12
ENDMDL
