MODEL 1
REMARK VINA RESULT: -6.489218453      0.000      0.000
REMARK  10 active torsions:
REMARK  status: ('A' for Active; 'I' for Inactive)
REMARK    1  A    between atoms: C2_2  and  N1_3 
REMARK    2  A    between atoms: C2_2  and  C3_7 
REMARK    3  A    between atoms: N1_3  and  N2_4 
REMARK    4  A    between atoms: C3_7  and  N3_8 
REMARK    5  A    between atoms: N6_13  and  N7_15 
REMARK    6  A    between atoms: N8_17  and  N9_19 
REMARK    7  A    between atoms: N9_19  and  N10_20 
REMARK    8  A    between atoms: N9_19  and  N11_23 
REMARK    9  A    between atoms: C6_25  and  N12_26 
REMARK   10  A    between atoms: N12_26  and  N13_27 
ROOT
HETATM    1  N7  UNL     1      24.151  17.668  10.061  1.00  0.00    -0.224 N 
ATOM      2  H7  UNL     1      24.215  17.914  11.049  1.00  0.00     0.210 HD
HETATM    3  N8  UNL     1      25.073  18.084   9.314  1.00  0.00    -0.196 N 
ATOM      4  H8  UNL     1      25.067  17.871   8.316  1.00  0.00     0.213 HD
ENDROOT
BRANCH   1   5
HETATM    5  N6  UNL     1      23.067  16.916   9.681  1.00  0.00    -0.272 N 
HETATM    6  C3  UNL     1      21.898  16.958  10.164  1.00  0.00     0.120 C 
ATOM      7  H6  UNL     1      23.220  16.250   8.923  1.00  0.00     0.190 HD
BRANCH   6   8
HETATM    8  C2  UNL     1      20.847  16.070   9.627  1.00  0.00     0.163 C 
HETATM    9  C1  UNL     1      19.601  16.231  10.431  1.00  0.00     0.038 C 
BRANCH   8  10
HETATM   10  N1  UNL     1      21.270  14.691   9.545  1.00  0.00    -0.136 NA
BRANCH  10  11
HETATM   11  N2  UNL     1      20.352  13.792  10.048  1.00  0.00    -0.348 N 
ATOM     12  H22 UNL     1      19.996  13.857  11.002  1.00  0.00     0.172 HD
ATOM     13  H21 UNL     1      20.070  13.071   9.384  1.00  0.00     0.172 HD
ENDBRANCH  10  11
ENDBRANCH   8  10
ENDBRANCH   6   8
BRANCH   6  14
HETATM   14  N3  UNL     1      21.583  17.842  11.215  1.00  0.00    -0.320 N 
HETATM   15  C4  UNL     1      21.068  19.012  11.059  1.00  0.00     0.202 C 
HETATM   16  N4  UNL     1      20.814  19.770  12.230  1.00  0.00    -0.066 NA
HETATM   17  N5  UNL     1      20.762  19.531   9.760  1.00  0.00    -0.066 NA
ATOM     18  H3  UNL     1      21.776  17.533  12.168  1.00  0.00     0.169 HD
ENDBRANCH   6  14
ENDBRANCH   1   5
BRANCH   3  19
HETATM   19  N9  UNL     1      26.100  18.838   9.873  1.00  0.00    -0.141 N 
BRANCH  19  20
HETATM   20  N10 UNL     1      25.940  19.358  11.133  1.00  0.00    -0.312 N 
ATOM     21 2H10 UNL     1      26.399  18.944  11.944  1.00  0.00     0.180 HD
ATOM     22 1H10 UNL     1      25.347  20.178  11.262  1.00  0.00     0.180 HD
ENDBRANCH  19  20
BRANCH  19  23
HETATM   23  N11 UNL     1      27.248  19.043   9.149  1.00  0.00    -0.168 NA
HETATM   24  C5  UNL     1      27.774  20.379   8.973  1.00  0.00     0.160 A 
HETATM   25  C6  UNL     1      27.254  19.601   7.841  1.00  0.00     0.210 A 
BRANCH  25  26
HETATM   26  N12 UNL     1      26.027  20.055   7.224  1.00  0.00    -0.125 NA
BRANCH  26  27
HETATM   27  N13 UNL     1      26.093  20.056   5.848  1.00  0.00    -0.347 N 
ATOM     28 2H13 UNL     1      26.976  20.061   5.337  1.00  0.00     0.172 HD
ATOM     29 1H13 UNL     1      25.171  20.050   5.409  1.00  0.00     0.172 HD
ENDBRANCH  26  27
ENDBRANCH  25  26
ENDBRANCH  19  23
ENDBRANCH   3  19
TORSDOF 10
ENDMDL
MODEL 2
REMARK VINA RESULT: -6.147177010      1.324      1.979
REMARK  10 active torsions:
REMARK  status: ('A' for Active; 'I' for Inactive)
REMARK    1  A    between atoms: C2_2  and  N1_3 
REMARK    2  A    between atoms: C2_2  and  C3_7 
REMARK    3  A    between atoms: N1_3  and  N2_4 
REMARK    4  A    between atoms: C3_7  and  N3_8 
REMARK    5  A    between atoms: N6_13  and  N7_15 
REMARK    6  A    between atoms: N8_17  and  N9_19 
REMARK    7  A    between atoms: N9_19  and  N10_20 
REMARK    8  A    between atoms: N9_19  and  N11_23 
REMARK    9  A    between atoms: C6_25  and  N12_26 
REMARK   10  A    between atoms: N12_26  and  N13_27 
ROOT
HETATM    1  N7  UNL     1      23.364  17.008   9.112  1.00  0.00    -0.224 N 
ATOM      2  H7  UNL     1      23.481  17.376   8.168  1.00  0.00     0.210 HD
HETATM    3  N8  UNL     1      24.224  17.352   9.963  1.00  0.00    -0.196 N 
ATOM      4  H8  UNL     1      24.164  17.019  10.925  1.00  0.00     0.213 HD
ENDROOT
BRANCH   1   5
HETATM    5  N6  UNL     1      22.285  16.188   9.327  1.00  0.00    -0.272 N 
HETATM    6  C3  UNL     1      21.062  16.515   9.328  1.00  0.00     0.120 C 
ATOM      7  H6  UNL     1      22.491  15.205   9.506  1.00  0.00     0.190 HD
BRANCH   6   8
HETATM    8  C2  UNL     1      20.027  15.492   9.579  1.00  0.00     0.163 C 
HETATM    9  C1  UNL     1      19.270  15.844  10.815  1.00  0.00     0.038 C 
BRANCH   8  10
HETATM   10  N1  UNL     1      20.566  14.153   9.631  1.00  0.00    -0.136 NA
BRANCH  10  11
HETATM   11  N2  UNL     1      20.015  13.365  10.621  1.00  0.00    -0.348 N 
ATOM     12  H22 UNL     1      19.206  13.664  11.165  1.00  0.00     0.172 HD
ATOM     13  H21 UNL     1      20.489  12.471  10.751  1.00  0.00     0.172 HD
ENDBRANCH  10  11
ENDBRANCH   8  10
ENDBRANCH   6   8
BRANCH   6  14
HETATM   14  N3  UNL     1      20.671  17.848   9.093  1.00  0.00    -0.320 N 
HETATM   15  C4  UNL     1      20.883  18.828   9.901  1.00  0.00     0.202 C 
HETATM   16  N4  UNL     1      20.420  20.107   9.503  1.00  0.00    -0.066 NA
HETATM   17  N5  UNL     1      21.556  18.638  11.150  1.00  0.00    -0.066 NA
ATOM     18  H3  UNL     1      20.186  18.052   8.219  1.00  0.00     0.169 HD
ENDBRANCH   6  14
ENDBRANCH   1   5
BRANCH   3  19
HETATM   19  N9  UNL     1      25.258  18.195   9.567  1.00  0.00    -0.141 N 
BRANCH  19  20
HETATM   20  N10 UNL     1      25.322  18.611   8.261  1.00  0.00    -0.312 N 
ATOM     21 2H10 UNL     1      26.181  18.988   7.861  1.00  0.00     0.180 HD
ATOM     22 1H10 UNL     1      24.489  18.542   7.675  1.00  0.00     0.180 HD
ENDBRANCH  19  20
BRANCH  19  23
HETATM   23  N11 UNL     1      26.191  18.589  10.495  1.00  0.00    -0.168 NA
HETATM   24  C5  UNL     1      26.064  19.866  11.163  1.00  0.00     0.160 A 
HETATM   25  C6  UNL     1      27.169  19.588  10.236  1.00  0.00     0.210 A 
BRANCH  25  26
HETATM   26  N12 UNL     1      27.185  20.303   8.979  1.00  0.00    -0.125 NA
BRANCH  26  27
HETATM   27  N13 UNL     1      27.914  21.470   9.039  1.00  0.00    -0.347 N 
ATOM     28 2H13 UNL     1      28.690  21.604   9.689  1.00  0.00     0.172 HD
ATOM     29 1H13 UNL     1      27.594  22.170   8.370  1.00  0.00     0.172 HD
ENDBRANCH  26  27
ENDBRANCH  25  26
ENDBRANCH  19  23
ENDBRANCH   3  19
TORSDOF 10
ENDMDL
MODEL 3
REMARK VINA RESULT: -6.028954520      1.151      1.396
REMARK  10 active torsions:
REMARK  status: ('A' for Active; 'I' for Inactive)
REMARK    1  A    between atoms: C2_2  and  N1_3 
REMARK    2  A    between atoms: C2_2  and  C3_7 
REMARK    3  A    between atoms: N1_3  and  N2_4 
REMARK    4  A    between atoms: C3_7  and  N3_8 
REMARK    5  A    between atoms: N6_13  and  N7_15 
REMARK    6  A    between atoms: N8_17  and  N9_19 
REMARK    7  A    between atoms: N9_19  and  N10_20 
REMARK    8  A    between atoms: N9_19  and  N11_23 
REMARK    9  A    between atoms: C6_25  and  N12_26 
REMARK   10  A    between atoms: N12_26  and  N13_27 
ROOT
HETATM    1  N7  UNL     1      23.956  18.042   9.316  1.00  0.00    -0.224 N 
ATOM      2  H7  UNL     1      23.874  18.943   8.845  1.00  0.00     0.210 HD
HETATM    3  N8  UNL     1      25.032  17.818   9.926  1.00  0.00    -0.196 N 
ATOM      4  H8  UNL     1      25.176  16.936  10.418  1.00  0.00     0.213 HD
ENDROOT
BRANCH   1   5
HETATM    5  N6  UNL     1      22.880  17.195   9.219  1.00  0.00    -0.272 N 
HETATM    6  C3  UNL     1      21.803  17.244   9.883  1.00  0.00     0.120 C 
ATOM      7  H6  UNL     1      22.956  16.441   8.536  1.00  0.00     0.190 HD
BRANCH   6   8
HETATM    8  C2  UNL     1      20.745  16.242   9.645  1.00  0.00     0.163 C 
HETATM    9  C1  UNL     1      19.676  16.394  10.674  1.00  0.00     0.038 C 
BRANCH   8  10
HETATM   10  N1  UNL     1      21.256  14.893   9.583  1.00  0.00    -0.136 NA
BRANCH  10  11
HETATM   11  N2  UNL     1      20.361  13.934  10.010  1.00  0.00    -0.348 N 
ATOM     12  H22 UNL     1      20.344  12.993   9.616  1.00  0.00     0.172 HD
ATOM     13  H21 UNL     1      19.729  14.254  10.745  1.00  0.00     0.172 HD
ENDBRANCH  10  11
ENDBRANCH   8  10
ENDBRANCH   6   8
BRANCH   6  14
HETATM   14  N3  UNL     1      21.599  18.245  10.853  1.00  0.00    -0.320 N 
HETATM   15  C4  UNL     1      20.997  19.362  10.640  1.00  0.00     0.202 C 
HETATM   16  N4  UNL     1      20.880  20.257  11.733  1.00  0.00    -0.066 NA
HETATM   17  N5  UNL     1      20.464  19.693   9.352  1.00  0.00    -0.066 NA
ATOM     18  H3  UNL     1      21.955  18.072  11.794  1.00  0.00     0.169 HD
ENDBRANCH   6  14
ENDBRANCH   1   5
BRANCH   3  19
HETATM   19  N9  UNL     1      26.022  18.796   9.919  1.00  0.00    -0.141 N 
BRANCH  19  20
HETATM   20  N10 UNL     1      26.488  19.285  11.114  1.00  0.00    -0.312 N 
ATOM     21 2H10 UNL     1      27.462  19.169  11.396  1.00  0.00     0.180 HD
ATOM     22 1H10 UNL     1      25.846  19.777  11.736  1.00  0.00     0.180 HD
ENDBRANCH  19  20
BRANCH  19  23
HETATM   23  N11 UNL     1      26.508  19.247   8.717  1.00  0.00    -0.168 NA
HETATM   24  C5  UNL     1      27.933  19.345   8.494  1.00  0.00     0.160 A 
HETATM   25  C6  UNL     1      27.079  20.538   8.545  1.00  0.00     0.210 A 
BRANCH  25  26
HETATM   26  N12 UNL     1      27.243  21.432   9.670  1.00  0.00    -0.125 NA
BRANCH  26  27
HETATM   27  N13 UNL     1      27.300  22.756   9.294  1.00  0.00    -0.347 N 
ATOM     28 2H13 UNL     1      27.928  23.429   9.734  1.00  0.00     0.172 HD
ATOM     29 1H13 UNL     1      26.653  22.979   8.537  1.00  0.00     0.172 HD
ENDBRANCH  26  27
ENDBRANCH  25  26
ENDBRANCH  19  23
ENDBRANCH   3  19
TORSDOF 10
ENDMDL
MODEL 4
REMARK VINA RESULT: -5.937832218      1.864      2.890
REMARK  10 active torsions:
REMARK  status: ('A' for Active; 'I' for Inactive)
REMARK    1  A    between atoms: C2_2  and  N1_3 
REMARK    2  A    between atoms: C2_2  and  C3_7 
REMARK    3  A    between atoms: N1_3  and  N2_4 
REMARK    4  A    between atoms: C3_7  and  N3_8 
REMARK    5  A    between atoms: N6_13  and  N7_15 
REMARK    6  A    between atoms: N8_17  and  N9_19 
REMARK    7  A    between atoms: N9_19  and  N10_20 
REMARK    8  A    between atoms: N9_19  and  N11_23 
REMARK    9  A    between atoms: C6_25  and  N12_26 
REMARK   10  A    between atoms: N12_26  and  N13_27 
ROOT
HETATM    1  N7  UNL     1      24.914  18.195  10.352  1.00  0.00    -0.224 N 
ATOM      2  H7  UNL     1      24.563  18.772  11.117  1.00  0.00     0.210 HD
HETATM    3  N8  UNL     1      26.109  18.377  10.008  1.00  0.00    -0.196 N 
ATOM      4  H8  UNL     1      26.521  17.832   9.251  1.00  0.00     0.213 HD
ENDROOT
BRANCH   1   5
HETATM    5  N6  UNL     1      24.033  17.297   9.801  1.00  0.00    -0.272 N 
HETATM    6  C3  UNL     1      22.804  17.480   9.559  1.00  0.00     0.120 C 
ATOM      7  H6  UNL     1      24.411  16.381   9.560  1.00  0.00     0.190 HD
BRANCH   6   8
HETATM    8  C2  UNL     1      22.004  16.394   8.958  1.00  0.00     0.163 C 
HETATM    9  C1  UNL     1      20.687  16.935   8.514  1.00  0.00     0.038 C 
BRANCH   8  10
HETATM   10  N1  UNL     1      21.859  15.256   9.836  1.00  0.00    -0.136 NA
BRANCH  10  11
HETATM   11  N2  UNL     1      20.621  15.167  10.439  1.00  0.00    -0.348 N 
ATOM     12  H22 UNL     1      19.812  15.684  10.095  1.00  0.00     0.172 HD
ATOM     13  H21 UNL     1      20.597  14.544  11.246  1.00  0.00     0.172 HD
ENDBRANCH  10  11
ENDBRANCH   8  10
ENDBRANCH   6   8
BRANCH   6  14
HETATM   14  N3  UNL     1      22.185  18.710   9.855  1.00  0.00    -0.320 N 
HETATM   15  C4  UNL     1      21.532  18.961  10.936  1.00  0.00     0.202 C 
HETATM   16  N4  UNL     1      20.973  20.257  11.070  1.00  0.00    -0.066 NA
HETATM   17  N5  UNL     1      21.375  17.976  11.964  1.00  0.00    -0.066 NA
ATOM     18  H3  UNL     1      22.260  19.457   9.164  1.00  0.00     0.169 HD
ENDBRANCH   6  14
ENDBRANCH   1   5
BRANCH   3  19
HETATM   19  N9  UNL     1      26.861  19.336  10.681  1.00  0.00    -0.141 N 
BRANCH  19  20
HETATM   20  N10 UNL     1      27.829  18.929  11.565  1.00  0.00    -0.312 N 
ATOM     21 2H10 UNL     1      27.963  19.394  12.463  1.00  0.00     0.180 HD
ATOM     22 1H10 UNL     1      28.431  18.143  11.318  1.00  0.00     0.180 HD
ENDBRANCH  19  20
BRANCH  19  23
HETATM   23  N11 UNL     1      26.616  20.665  10.443  1.00  0.00    -0.168 NA
HETATM   24  C5  UNL     1      27.711  21.584  10.222  1.00  0.00     0.160 A 
HETATM   25  C6  UNL     1      26.851  21.684  11.408  1.00  0.00     0.210 A 
BRANCH  25  26
HETATM   26  N12 UNL     1      27.439  21.368  12.690  1.00  0.00    -0.125 NA
BRANCH  26  27
HETATM   27  N13 UNL     1      27.305  22.391  13.603  1.00  0.00    -0.347 N 
ATOM     28 2H13 UNL     1      26.412  22.637  14.031  1.00  0.00     0.172 HD
ATOM     29 1H13 UNL     1      28.188  22.865  13.796  1.00  0.00     0.172 HD
ENDBRANCH  26  27
ENDBRANCH  25  26
ENDBRANCH  19  23
ENDBRANCH   3  19
TORSDOF 10
ENDMDL
MODEL 5
REMARK VINA RESULT: -5.921690141      1.484      2.145
REMARK  10 active torsions:
REMARK  status: ('A' for Active; 'I' for Inactive)
REMARK    1  A    between atoms: C2_2  and  N1_3 
REMARK    2  A    between atoms: C2_2  and  C3_7 
REMARK    3  A    between atoms: N1_3  and  N2_4 
REMARK    4  A    between atoms: C3_7  and  N3_8 
REMARK    5  A    between atoms: N6_13  and  N7_15 
REMARK    6  A    between atoms: N8_17  and  N9_19 
REMARK    7  A    between atoms: N9_19  and  N10_20 
REMARK    8  A    between atoms: N9_19  and  N11_23 
REMARK    9  A    between atoms: C6_25  and  N12_26 
REMARK   10  A    between atoms: N12_26  and  N13_27 
ROOT
HETATM    1  N7  UNL     1      23.080  16.863   9.113  1.00  0.00    -0.224 N 
ATOM      2  H7  UNL     1      23.249  17.122   8.141  1.00  0.00     0.210 HD
HETATM    3  N8  UNL     1      23.878  17.323   9.968  1.00  0.00    -0.196 N 
ATOM      4  H8  UNL     1      23.763  17.102  10.957  1.00  0.00     0.213 HD
ENDROOT
BRANCH   1   5
HETATM    5  N6  UNL     1      22.003  16.046   9.356  1.00  0.00    -0.272 N 
HETATM    6  C3  UNL     1      20.782  16.378   9.389  1.00  0.00     0.120 C 
ATOM      7  H6  UNL     1      22.210  15.063   9.529  1.00  0.00     0.190 HD
BRANCH   6   8
HETATM    8  C2  UNL     1      19.750  15.358   9.666  1.00  0.00     0.163 C 
HETATM    9  C1  UNL     1      20.380  14.182  10.333  1.00  0.00     0.038 C 
BRANCH   8  10
HETATM   10  N1  UNL     1      19.004  14.984   8.488  1.00  0.00    -0.136 NA
BRANCH  10  11
HETATM   11  N2  UNL     1      18.234  13.850   8.649  1.00  0.00    -0.348 N 
ATOM     12  H22 UNL     1      18.522  12.942   8.284  1.00  0.00     0.172 HD
ATOM     13  H21 UNL     1      17.365  14.008   9.160  1.00  0.00     0.172 HD
ENDBRANCH  10  11
ENDBRANCH   8  10
ENDBRANCH   6   8
BRANCH   6  14
HETATM   14  N3  UNL     1      20.390  17.712   9.164  1.00  0.00    -0.320 N 
HETATM   15  C4  UNL     1      20.597  18.685   9.981  1.00  0.00     0.202 C 
HETATM   16  N4  UNL     1      20.134  19.968   9.593  1.00  0.00    -0.066 NA
HETATM   17  N5  UNL     1      21.267  18.486  11.231  1.00  0.00    -0.066 NA
ATOM     18  H3  UNL     1      19.908  17.923   8.290  1.00  0.00     0.169 HD
ENDBRANCH   6  14
ENDBRANCH   1   5
BRANCH   3  19
HETATM   19  N9  UNL     1      24.920  18.140   9.541  1.00  0.00    -0.141 N 
BRANCH  19  20
HETATM   20  N10 UNL     1      24.945  18.567   8.237  1.00  0.00    -0.312 N 
ATOM     21 2H10 UNL     1      24.203  19.151   7.851  1.00  0.00     0.180 HD
ATOM     22 1H10 UNL     1      25.725  18.295   7.638  1.00  0.00     0.180 HD
ENDBRANCH  19  20
BRANCH  19  23
HETATM   23  N11 UNL     1      25.898  18.498  10.435  1.00  0.00    -0.168 NA
HETATM   24  C5  UNL     1      25.979  19.855  10.927  1.00  0.00     0.160 A 
HETATM   25  C6  UNL     1      27.030  19.282  10.077  1.00  0.00     0.210 A 
BRANCH  25  26
HETATM   26  N12 UNL     1      27.171  19.810   8.738  1.00  0.00    -0.125 NA
BRANCH  26  27
HETATM   27  N13 UNL     1      27.940  19.005   7.927  1.00  0.00    -0.347 N 
ATOM     28 2H13 UNL     1      28.630  19.376   7.273  1.00  0.00     0.172 HD
ATOM     29 1H13 UNL     1      27.740  18.012   8.054  1.00  0.00     0.172 HD
ENDBRANCH  26  27
ENDBRANCH  25  26
ENDBRANCH  19  23
ENDBRANCH   3  19
TORSDOF 10
ENDMDL
