MODEL 1
REMARK VINA RESULT: -6.276061241      0.000      0.000
REMARK  7 active torsions:
REMARK  status: ('A' for Active; 'I' for Inactive)
REMARK    1  A    between atoms: C1_2  and  C2_7 
REMARK    2  A    between atoms: N2_3  and  O1_5 
REMARK    3  A    between atoms: N3_10  and  C5_11 
REMARK    4  A    between atoms: C5_11  and  C6_12 
REMARK    5  A    between atoms: C6_12  and  C7_13 
REMARK    6  A    between atoms: C7_13  and  C8_14 
REMARK    7  A    between atoms: C8_14  and  N4_15 
ROOT
HETATM    1  C2  UNL     1      13.696  -0.564  46.013  1.00  0.00     0.009 A 
HETATM    2  C3  UNL     1      13.202  -0.633  47.291  1.00  0.00     0.032 A 
HETATM    3  C4  UNL     1      13.727   0.198  48.289  1.00  0.00     0.091 A 
HETATM    4  N3  UNL     1      14.708   1.077  48.064  1.00  0.00    -0.366 N 
HETATM    5  C14 UNL     1      15.181   1.133  46.811  1.00  0.00     0.091 A 
HETATM    6  C15 UNL     1      14.725   0.362  45.786  1.00  0.00     0.032 A 
ENDROOT
BRANCH   4   7
HETATM    7  C5  UNL     1      15.238   1.932  49.127  1.00  0.00     0.128 C 
BRANCH   7   8
HETATM    8  C6  UNL     1      14.908   3.355  48.729  1.00  0.00     0.022 C 
BRANCH   8   9
HETATM    9  C7  UNL     1      13.632   3.839  49.353  1.00  0.00     0.022 C 
BRANCH   9  10
HETATM   10  C8  UNL     1      12.781   4.425  48.235  1.00  0.00     0.129 C 
BRANCH  10  11
HETATM   11  N4  UNL     1      11.852   3.396  47.782  1.00  0.00    -0.345 N 
HETATM   12  C9  UNL     1      10.991   2.876  48.659  1.00  0.00     0.092 A 
HETATM   13  C10 UNL     1      10.079   1.889  48.287  1.00  0.00     0.017 A 
HETATM   14  C11 UNL     1      10.102   1.471  46.975  1.00  0.00     0.005 A 
HETATM   15  C12 UNL     1      10.996   2.008  46.059  1.00  0.00     0.045 A 
HETATM   16  C13 UNL     1      11.872   2.991  46.521  1.00  0.00     0.118 A 
HETATM   17  N5  UNL     1      12.802   3.567  45.619  1.00  0.00    -0.083 NA
ENDBRANCH  10  11
ENDBRANCH   9  10
ENDBRANCH   8   9
ENDBRANCH   7   8
ENDBRANCH   4   7
BRANCH   1  18
HETATM   18  C1  UNL     1      13.225  -1.374  44.908  1.00  0.00     0.146 C 
HETATM   19  N1  UNL     1      12.002  -0.940  44.261  1.00  0.00    -0.080 NA
HETATM   20  N2  UNL     1      13.779  -2.399  44.476  1.00  0.00    -0.255 N 
ATOM     21  H2  UNL     1      13.288  -2.825  43.690  1.00  0.00     0.195 HD
BRANCH  20  22
HETATM   22  O1  UNL     1      14.870  -3.045  44.826  1.00  0.00    -0.288 OA
ATOM     23  H1  UNL     1      15.283  -3.840  44.509  1.00  0.00     0.244 HD
ENDBRANCH  20  22
ENDBRANCH   1  18
TORSDOF 7
ENDMDL
MODEL 2
REMARK VINA RESULT: -6.265922373      0.057      1.013
REMARK  7 active torsions:
REMARK  status: ('A' for Active; 'I' for Inactive)
REMARK    1  A    between atoms: C1_2  and  C2_7 
REMARK    2  A    between atoms: N2_3  and  O1_5 
REMARK    3  A    between atoms: N3_10  and  C5_11 
REMARK    4  A    between atoms: C5_11  and  C6_12 
REMARK    5  A    between atoms: C6_12  and  C7_13 
REMARK    6  A    between atoms: C7_13  and  C8_14 
REMARK    7  A    between atoms: C8_14  and  N4_15 
ROOT
HETATM    1  C2  UNL     1      13.759  -0.512  45.963  1.00  0.00     0.009 A 
HETATM    2  C3  UNL     1      14.752   0.416  45.777  1.00  0.00     0.032 A 
HETATM    3  C4  UNL     1      15.199   1.187  46.857  1.00  0.00     0.091 A 
HETATM    4  N3  UNL     1      14.701   1.071  48.091  1.00  0.00    -0.366 N 
HETATM    5  C14 UNL     1      13.731   0.161  48.258  1.00  0.00     0.091 A 
HETATM    6  C15 UNL     1      13.242  -0.627  47.261  1.00  0.00     0.032 A 
ENDROOT
BRANCH   4   7
HETATM    7  C5  UNL     1      15.189   1.892  49.201  1.00  0.00     0.128 C 
BRANCH   7   8
HETATM    8  C6  UNL     1      14.885   3.328  48.829  1.00  0.00     0.022 C 
BRANCH   8   9
HETATM    9  C7  UNL     1      13.592   3.807  49.420  1.00  0.00     0.022 C 
BRANCH   9  10
HETATM   10  C8  UNL     1      12.771   4.401  48.283  1.00  0.00     0.129 C 
BRANCH  10  11
HETATM   11  N4  UNL     1      11.847   3.379  47.806  1.00  0.00    -0.345 N 
HETATM   12  C9  UNL     1      10.978   2.845  48.667  1.00  0.00     0.092 A 
HETATM   13  C10 UNL     1      10.070   1.863  48.271  1.00  0.00     0.017 A 
HETATM   14  C11 UNL     1      10.104   1.466  46.953  1.00  0.00     0.005 A 
HETATM   15  C12 UNL     1      11.006   2.018  46.053  1.00  0.00     0.045 A 
HETATM   16  C13 UNL     1      11.877   2.994  46.539  1.00  0.00     0.118 A 
HETATM   17  N5  UNL     1      12.815   3.585  45.653  1.00  0.00    -0.083 NA
ENDBRANCH  10  11
ENDBRANCH   9  10
ENDBRANCH   8   9
ENDBRANCH   7   8
ENDBRANCH   4   7
BRANCH   1  18
HETATM   18  C1  UNL     1      13.225  -1.360  44.917  1.00  0.00     0.146 C 
HETATM   19  N1  UNL     1      11.977  -0.935  44.310  1.00  0.00    -0.080 NA
HETATM   20  N2  UNL     1      13.743  -2.410  44.503  1.00  0.00    -0.255 N 
ATOM     21  H2  UNL     1      13.208  -2.862  43.760  1.00  0.00     0.195 HD
BRANCH  20  22
HETATM   22  O1  UNL     1      14.841  -3.059  44.828  1.00  0.00    -0.288 OA
ATOM     23  H1  UNL     1      15.646  -3.246  44.360  1.00  0.00     0.244 HD
ENDBRANCH  20  22
ENDBRANCH   1  18
TORSDOF 7
ENDMDL
MODEL 3
REMARK VINA RESULT: -5.947586832      2.193      4.273
REMARK  7 active torsions:
REMARK  status: ('A' for Active; 'I' for Inactive)
REMARK    1  A    between atoms: C1_2  and  C2_7 
REMARK    2  A    between atoms: N2_3  and  O1_5 
REMARK    3  A    between atoms: N3_10  and  C5_11 
REMARK    4  A    between atoms: C5_11  and  C6_12 
REMARK    5  A    between atoms: C6_12  and  C7_13 
REMARK    6  A    between atoms: C7_13  and  C8_14 
REMARK    7  A    between atoms: C8_14  and  N4_15 
ROOT
HETATM    1  C2  UNL     1      10.711   1.742  46.460  1.00  0.00     0.009 A 
HETATM    2  C3  UNL     1      10.637   1.665  47.827  1.00  0.00     0.032 A 
HETATM    3  C4  UNL     1      11.763   1.958  48.606  1.00  0.00     0.091 A 
HETATM    4  N3  UNL     1      12.939   2.317  48.082  1.00  0.00    -0.366 N 
HETATM    5  C14 UNL     1      12.997   2.387  46.745  1.00  0.00     0.091 A 
HETATM    6  C15 UNL     1      11.949   2.120  45.918  1.00  0.00     0.032 A 
ENDROOT
BRANCH   4   7
HETATM    7  C5  UNL     1      14.099   2.616  48.922  1.00  0.00     0.128 C 
BRANCH   7   8
HETATM    8  C6  UNL     1      15.271   1.888  48.298  1.00  0.00     0.022 C 
BRANCH   8   9
HETATM    9  C7  UNL     1      15.252   0.418  48.596  1.00  0.00     0.022 C 
BRANCH   9  10
HETATM   10  C8  UNL     1      15.921  -0.287  47.424  1.00  0.00     0.129 C 
BRANCH  10  11
HETATM   11  N4  UNL     1      14.880  -0.734  46.507  1.00  0.00    -0.345 N 
HETATM   12  C9  UNL     1      13.897  -1.505  46.976  1.00  0.00     0.092 A 
HETATM   13  C10 UNL     1      12.873  -1.966  46.149  1.00  0.00     0.017 A 
HETATM   14  C11 UNL     1      12.915  -1.591  44.825  1.00  0.00     0.005 A 
HETATM   15  C12 UNL     1      13.935  -0.789  44.331  1.00  0.00     0.045 A 
HETATM   16  C13 UNL     1      14.917  -0.376  45.232  1.00  0.00     0.118 A 
HETATM   17  N5  UNL     1      15.978   0.445  44.770  1.00  0.00    -0.083 NA
ENDBRANCH  10  11
ENDBRANCH   9  10
ENDBRANCH   8   9
ENDBRANCH   7   8
ENDBRANCH   4   7
BRANCH   1  18
HETATM   18  C1  UNL     1       9.609   1.462  45.562  1.00  0.00     0.146 C 
HETATM   19  N1  UNL     1       8.930   2.610  44.991  1.00  0.00    -0.080 NA
HETATM   20  N2  UNL     1       9.204   0.331  45.246  1.00  0.00    -0.255 N 
ATOM     21  H2  UNL     1       8.414   0.349  44.601  1.00  0.00     0.195 HD
BRANCH  20  22
HETATM   22  O1  UNL     1       9.586  -0.884  45.576  1.00  0.00    -0.288 OA
ATOM     23  H1  UNL     1       9.112  -1.694  45.729  1.00  0.00     0.244 HD
ENDBRANCH  20  22
ENDBRANCH   1  18
TORSDOF 7
ENDMDL
MODEL 4
REMARK VINA RESULT: -5.913570860      1.011      1.329
REMARK  7 active torsions:
REMARK  status: ('A' for Active; 'I' for Inactive)
REMARK    1  A    between atoms: C1_2  and  C2_7 
REMARK    2  A    between atoms: N2_3  and  O1_5 
REMARK    3  A    between atoms: N3_10  and  C5_11 
REMARK    4  A    between atoms: C5_11  and  C6_12 
REMARK    5  A    between atoms: C6_12  and  C7_13 
REMARK    6  A    between atoms: C7_13  and  C8_14 
REMARK    7  A    between atoms: C8_14  and  N4_15 
ROOT
HETATM    1  C2  UNL     1      14.044  -1.411  46.340  1.00  0.00     0.009 A 
HETATM    2  C3  UNL     1      15.366  -1.199  46.634  1.00  0.00     0.032 A 
HETATM    3  C4  UNL     1      15.725  -0.249  47.599  1.00  0.00     0.091 A 
HETATM    4  N3  UNL     1      14.829   0.484  48.267  1.00  0.00    -0.366 N 
HETATM    5  C14 UNL     1      13.541   0.267  47.969  1.00  0.00     0.091 A 
HETATM    6  C15 UNL     1      13.111  -0.637  47.046  1.00  0.00     0.032 A 
ENDROOT
BRANCH   4   7
HETATM    7  C5  UNL     1      15.234   1.471  49.270  1.00  0.00     0.128 C 
BRANCH   7   8
HETATM    8  C6  UNL     1      14.990   2.830  48.648  1.00  0.00     0.022 C 
BRANCH   8   9
HETATM    9  C7  UNL     1      13.924   3.602  49.368  1.00  0.00     0.022 C 
BRANCH   9  10
HETATM   10  C8  UNL     1      13.093   4.314  48.309  1.00  0.00     0.129 C 
BRANCH  10  11
HETATM   11  N4  UNL     1      12.005   3.428  47.913  1.00  0.00    -0.345 N 
HETATM   12  C9  UNL     1      11.166   2.980  48.849  1.00  0.00     0.092 A 
HETATM   13  C10 UNL     1      10.106   2.130  48.533  1.00  0.00     0.017 A 
HETATM   14  C11 UNL     1       9.959   1.770  47.212  1.00  0.00     0.005 A 
HETATM   15  C12 UNL     1      10.829   2.232  46.234  1.00  0.00     0.045 A 
HETATM   16  C13 UNL     1      11.860   3.078  46.643  1.00  0.00     0.118 A 
HETATM   17  N5  UNL     1      12.772   3.575  45.676  1.00  0.00    -0.083 NA
ENDBRANCH  10  11
ENDBRANCH   9  10
ENDBRANCH   8   9
ENDBRANCH   7   8
ENDBRANCH   4   7
BRANCH   1  18
HETATM   18  C1  UNL     1      13.565  -2.367  45.362  1.00  0.00     0.146 C 
HETATM   19  N1  UNL     1      13.395  -1.879  44.007  1.00  0.00    -0.080 NA
HETATM   20  N2  UNL     1      13.292  -3.557  45.589  1.00  0.00    -0.255 N 
ATOM     21  H2  UNL     1      12.969  -4.064  44.765  1.00  0.00     0.195 HD
BRANCH  20  22
HETATM   22  O1  UNL     1      13.333  -4.297  46.677  1.00  0.00    -0.288 OA
ATOM     23  H1  UNL     1      14.048  -4.641  47.201  1.00  0.00     0.244 HD
ENDBRANCH  20  22
ENDBRANCH   1  18
TORSDOF 7
ENDMDL
MODEL 5
REMARK VINA RESULT: -5.795011897      2.775      6.114
REMARK  7 active torsions:
REMARK  status: ('A' for Active; 'I' for Inactive)
REMARK    1  A    between atoms: C1_2  and  C2_7 
REMARK    2  A    between atoms: N2_3  and  O1_5 
REMARK    3  A    between atoms: N3_10  and  C5_11 
REMARK    4  A    between atoms: C5_11  and  C6_12 
REMARK    5  A    between atoms: C6_12  and  C7_13 
REMARK    6  A    between atoms: C7_13  and  C8_14 
REMARK    7  A    between atoms: C8_14  and  N4_15 
ROOT
HETATM    1  C2  UNL     1      13.631   2.448  48.350  1.00  0.00     0.009 A 
HETATM    2  C3  UNL     1      13.348   2.998  47.126  1.00  0.00     0.032 A 
HETATM    3  C4  UNL     1      12.493   2.330  46.240  1.00  0.00     0.091 A 
HETATM    4  N3  UNL     1      11.922   1.155  46.525  1.00  0.00    -0.366 N 
HETATM    5  C14 UNL     1      12.209   0.630  47.724  1.00  0.00     0.091 A 
HETATM    6  C15 UNL     1      13.028   1.215  48.640  1.00  0.00     0.032 A 
ENDROOT
BRANCH   4   7
HETATM    7  C5  UNL     1      11.033   0.480  45.578  1.00  0.00     0.128 C 
BRANCH   7   8
HETATM    8  C6  UNL     1      11.516  -0.952  45.493  1.00  0.00     0.022 C 
BRANCH   8   9
HETATM    9  C7  UNL     1      12.470  -1.164  44.354  1.00  0.00     0.022 C 
BRANCH   9  10
HETATM   10  C8  UNL     1      13.479  -2.212  44.803  1.00  0.00     0.129 C 
BRANCH  10  11
HETATM   11  N4  UNL     1      14.401  -1.585  45.743  1.00  0.00    -0.345 N 
HETATM   12  C9  UNL     1      14.980  -0.432  45.403  1.00  0.00     0.092 A 
HETATM   13  C10 UNL     1      15.871   0.216  46.259  1.00  0.00     0.017 A 
HETATM   14  C11 UNL     1      16.129  -0.382  47.472  1.00  0.00     0.005 A 
HETATM   15  C12 UNL     1      15.530  -1.582  47.830  1.00  0.00     0.045 A 
HETATM   16  C13 UNL     1      14.652  -2.158  46.911  1.00  0.00     0.118 A 
HETATM   17  N5  UNL     1      14.017  -3.384  47.236  1.00  0.00    -0.083 NA
ENDBRANCH  10  11
ENDBRANCH   9  10
ENDBRANCH   8   9
ENDBRANCH   7   8
ENDBRANCH   4   7
BRANCH   1  18
HETATM   18  C1  UNL     1      14.500   3.054  49.339  1.00  0.00     0.146 C 
HETATM   19  N1  UNL     1      15.908   2.713  49.262  1.00  0.00    -0.080 NA
HETATM   20  N2  UNL     1      14.139   3.833  50.237  1.00  0.00    -0.255 N 
ATOM     21  H2  UNL     1      14.905   4.149  50.832  1.00  0.00     0.195 HD
BRANCH  20  22
HETATM   22  O1  UNL     1      12.971   4.333  50.576  1.00  0.00    -0.288 OA
ATOM     23  H1  UNL     1      12.638   4.718  51.379  1.00  0.00     0.244 HD
ENDBRANCH  20  22
ENDBRANCH   1  18
TORSDOF 7
ENDMDL
