MODEL 1
REMARK VINA RESULT: -6.721830203      0.000      0.000
REMARK  5 active torsions:
REMARK  status: ('A' for Active; 'I' for Inactive)
REMARK    1  A    between atoms: C2_2  and  C3_3 
REMARK    2  A    between atoms: C3_3  and  O1_5 
REMARK    3  A    between atoms: O1_5  and  C5_6 
REMARK    4  A    between atoms: N1_8  and  C7_9 
REMARK    5  A    between atoms: C11_14  and  N2_15 
ROOT
HETATM    1  C5  UNL     1      -3.939   8.307  12.064  1.00  0.00     0.157 C 
HETATM    2  C6  UNL     1      -4.076   6.808  12.184  1.00  0.00     0.157 C 
HETATM    3  N1  UNL     1      -3.590   6.324  13.457  1.00  0.00    -0.365 N 
HETATM    4  C12 UNL     1      -2.262   6.758  13.868  1.00  0.00     0.126 C 
HETATM    5  C13 UNL     1      -2.274   8.258  13.941  1.00  0.00     0.041 C 
HETATM    6  C14 UNL     1      -2.652   8.832  12.618  1.00  0.00     0.125 C 
HETATM    7  C15 UNL     1      -1.532   8.692  11.685  1.00  0.00     0.066 C 
HETATM    8  N4  UNL     1      -0.638   8.598  10.955  1.00  0.00    -0.197 NA
ENDROOT
BRANCH   1   9
HETATM    9  O1  UNL     1      -4.017   8.709  10.739  1.00  0.00    -0.378 OA
BRANCH   9  10
HETATM   10  C3  UNL     1      -5.269   8.627  10.197  1.00  0.00     0.117 C 
HETATM   11  C4  UNL     1      -5.111   8.389   8.697  1.00  0.00     0.039 C 
BRANCH  10  12
HETATM   12  C2  UNL     1      -6.095   9.866  10.368  1.00  0.00     0.027 C 
HETATM   13  C1  UNL     1      -7.317   9.673  11.205  1.00  0.00     0.007 C 
ENDBRANCH  10  12
ENDBRANCH   9  10
ENDBRANCH   1   9
BRANCH   3  14
HETATM   14  C7  UNL     1      -4.321   5.467  14.310  1.00  0.00     0.104 A 
HETATM   15  C8  UNL     1      -5.560   5.797  14.808  1.00  0.00     0.050 A 
HETATM   16  C9  UNL     1      -6.272   4.955  15.643  1.00  0.00     0.027 A 
HETATM   17  C10 UNL     1      -5.708   3.745  15.982  1.00  0.00     0.054 A 
HETATM   18 BR1  UNL     1      -6.647   2.528  17.141  1.00  0.00    -0.047 Br
HETATM   19  C11 UNL     1      -4.470   3.428  15.479  1.00  0.00     0.118 A 
HETATM   20  N3  UNL     1      -3.820   4.278  14.673  1.00  0.00    -0.328 N 
ATOM     21  H3  UNL     1      -2.902   4.008  14.320  1.00  0.00     0.169 HD
BRANCH  19  22
HETATM   22  N2  UNL     1      -3.943   2.300  15.795  1.00  0.00    -0.384 N 
ATOM     23  H22 UNL     1      -3.669   2.109  16.759  1.00  0.00     0.157 HD
ATOM     24  H21 UNL     1      -3.806   1.600  15.065  1.00  0.00     0.157 HD
ENDBRANCH  19  22
ENDBRANCH   3  14
TORSDOF 5
ENDMDL
MODEL 2
REMARK VINA RESULT: -6.638699759      1.609      1.771
REMARK  5 active torsions:
REMARK  status: ('A' for Active; 'I' for Inactive)
REMARK    1  A    between atoms: C2_2  and  C3_3 
REMARK    2  A    between atoms: C3_3  and  O1_5 
REMARK    3  A    between atoms: O1_5  and  C5_6 
REMARK    4  A    between atoms: N1_8  and  C7_9 
REMARK    5  A    between atoms: C11_14  and  N2_15 
ROOT
HETATM    1  C5  UNL     1      -3.566   7.429  11.319  1.00  0.00     0.157 C 
HETATM    2  C6  UNL     1      -4.601   6.392  11.685  1.00  0.00     0.157 C 
HETATM    3  N1  UNL     1      -4.011   5.263  12.368  1.00  0.00    -0.365 N 
HETATM    4  C12 UNL     1      -2.853   4.640  11.741  1.00  0.00     0.126 C 
HETATM    5  C13 UNL     1      -1.784   5.688  11.616  1.00  0.00     0.041 C 
HETATM    6  C14 UNL     1      -2.288   6.840  10.814  1.00  0.00     0.125 C 
HETATM    7  C15 UNL     1      -2.354   6.460   9.401  1.00  0.00     0.066 C 
HETATM    8  N4  UNL     1      -2.388   6.165   8.282  1.00  0.00    -0.197 NA
ENDROOT
BRANCH   1   9
HETATM    9  O1  UNL     1      -4.045   8.286  10.339  1.00  0.00    -0.378 OA
BRANCH   9  10
HETATM   10  C3  UNL     1      -5.408   8.323  10.238  1.00  0.00     0.117 C 
HETATM   11  C4  UNL     1      -5.777   7.966   8.800  1.00  0.00     0.039 C 
BRANCH  10  12
HETATM   12  C2  UNL     1      -6.010   9.663  10.536  1.00  0.00     0.027 C 
HETATM   13  C1  UNL     1      -7.312   9.598  11.265  1.00  0.00     0.007 C 
ENDBRANCH  10  12
ENDBRANCH   9  10
ENDBRANCH   1   9
BRANCH   3  14
HETATM   14  C7  UNL     1      -4.489   4.738  13.590  1.00  0.00     0.104 A 
HETATM   15  C8  UNL     1      -5.400   5.402  14.378  1.00  0.00     0.050 A 
HETATM   16  C9  UNL     1      -5.864   4.884  15.573  1.00  0.00     0.027 A 
HETATM   17  C10 UNL     1      -5.389   3.657  15.979  1.00  0.00     0.054 A 
HETATM   18 BR1  UNL     1      -5.995   2.882  17.633  1.00  0.00    -0.047 Br
HETATM   19  C11 UNL     1      -4.479   3.004  15.184  1.00  0.00     0.118 A 
HETATM   20  N3  UNL     1      -4.059   3.549  14.035  1.00  0.00    -0.328 N 
ATOM     21  H3  UNL     1      -3.382   3.034  13.472  1.00  0.00     0.169 HD
BRANCH  19  22
HETATM   22  N2  UNL     1      -4.035   1.860  15.563  1.00  0.00    -0.384 N 
ATOM     23  H22 UNL     1      -3.333   1.796  16.301  1.00  0.00     0.157 HD
ATOM     24  H21 UNL     1      -4.397   1.019  15.113  1.00  0.00     0.157 HD
ENDBRANCH  19  22
ENDBRANCH   3  14
TORSDOF 5
ENDMDL
MODEL 3
REMARK VINA RESULT: -6.637366297      2.406      3.214
REMARK  5 active torsions:
REMARK  status: ('A' for Active; 'I' for Inactive)
REMARK    1  A    between atoms: C2_2  and  C3_3 
REMARK    2  A    between atoms: C3_3  and  O1_5 
REMARK    3  A    between atoms: O1_5  and  C5_6 
REMARK    4  A    between atoms: N1_8  and  C7_9 
REMARK    5  A    between atoms: C11_14  and  N2_15 
ROOT
HETATM    1  C5  UNL     1      -1.284   6.371  12.233  1.00  0.00     0.157 C 
HETATM    2  C6  UNL     1      -2.758   6.383  12.560  1.00  0.00     0.157 C 
HETATM    3  N1  UNL     1      -3.313   5.048  12.590  1.00  0.00    -0.365 N 
HETATM    4  C12 UNL     1      -3.044   4.193  11.443  1.00  0.00     0.126 C 
HETATM    5  C13 UNL     1      -1.554   4.049  11.321  1.00  0.00     0.041 C 
HETATM    6  C14 UNL     1      -0.921   5.390  11.164  1.00  0.00     0.125 C 
HETATM    7  C15 UNL     1      -1.179   5.898   9.815  1.00  0.00     0.066 C 
HETATM    8  N4  UNL     1      -1.367   6.290   8.741  1.00  0.00    -0.197 NA
ENDROOT
BRANCH   1   9
HETATM    9  O1  UNL     1      -0.857   7.622  11.814  1.00  0.00    -0.378 OA
BRANCH   9  10
HETATM   10  C3  UNL     1      -1.666   8.653  12.199  1.00  0.00     0.117 C 
HETATM   11  C4  UNL     1      -1.860   9.568  10.992  1.00  0.00     0.039 C 
BRANCH  10  12
HETATM   12  C2  UNL     1      -1.107   9.491  13.310  1.00  0.00     0.027 C 
HETATM   13  C1  UNL     1      -2.006   9.604  14.499  1.00  0.00     0.007 C 
ENDBRANCH  10  12
ENDBRANCH   9  10
ENDBRANCH   1   9
BRANCH   3  14
HETATM   14  C7  UNL     1      -4.090   4.537  13.654  1.00  0.00     0.104 A 
HETATM   15  C8  UNL     1      -5.137   5.234  14.210  1.00  0.00     0.050 A 
HETATM   16  C9  UNL     1      -5.894   4.729  15.251  1.00  0.00     0.027 A 
HETATM   17  C10 UNL     1      -5.578   3.481  15.741  1.00  0.00     0.054 A 
HETATM   18 BR1  UNL     1      -6.594   2.723  17.190  1.00  0.00    -0.047 Br
HETATM   19  C11 UNL     1      -4.530   2.796  15.178  1.00  0.00     0.118 A 
HETATM   20  N3  UNL     1      -3.826   3.328  14.171  1.00  0.00    -0.328 N 
ATOM     21  H3  UNL     1      -3.053   2.789  13.779  1.00  0.00     0.169 HD
BRANCH  19  22
HETATM   22  N2  UNL     1      -4.234   1.632  15.635  1.00  0.00    -0.384 N 
ATOM     23  H22 UNL     1      -4.726   0.804  15.298  1.00  0.00     0.157 HD
ATOM     24  H21 UNL     1      -3.500   1.552  16.339  1.00  0.00     0.157 HD
ENDBRANCH  19  22
ENDBRANCH   3  14
TORSDOF 5
ENDMDL
MODEL 4
REMARK VINA RESULT: -6.634876277      1.822      2.089
REMARK  5 active torsions:
REMARK  status: ('A' for Active; 'I' for Inactive)
REMARK    1  A    between atoms: C2_2  and  C3_3 
REMARK    2  A    between atoms: C3_3  and  O1_5 
REMARK    3  A    between atoms: O1_5  and  C5_6 
REMARK    4  A    between atoms: N1_8  and  C7_9 
REMARK    5  A    between atoms: C11_14  and  N2_15 
ROOT
HETATM    1  C5  UNL     1      -4.058   6.742  10.529  1.00  0.00     0.157 C 
HETATM    2  C6  UNL     1      -4.414   5.364  11.035  1.00  0.00     0.157 C 
HETATM    3  N1  UNL     1      -3.654   5.012  12.213  1.00  0.00    -0.365 N 
HETATM    4  C12 UNL     1      -2.209   5.182  12.146  1.00  0.00     0.126 C 
HETATM    5  C13 UNL     1      -1.934   6.630  11.859  1.00  0.00     0.041 C 
HETATM    6  C14 UNL     1      -2.593   7.034  10.584  1.00  0.00     0.125 C 
HETATM    7  C15 UNL     1      -1.856   6.469   9.452  1.00  0.00     0.066 C 
HETATM    8  N4  UNL     1      -1.261   6.037   8.557  1.00  0.00    -0.197 NA
ENDROOT
BRANCH   1   9
HETATM    9  O1  UNL     1      -4.468   6.910   9.215  1.00  0.00    -0.378 OA
BRANCH   9  10
HETATM   10  C3  UNL     1      -5.363   7.926   9.028  1.00  0.00     0.117 C 
HETATM   11  C4  UNL     1      -5.614   8.579  10.385  1.00  0.00     0.039 C 
BRANCH  10  12
HETATM   12  C2  UNL     1      -6.692   7.482   8.492  1.00  0.00     0.027 C 
HETATM   13  C1  UNL     1      -7.647   8.601   8.229  1.00  0.00     0.007 C 
ENDBRANCH  10  12
ENDBRANCH   9  10
ENDBRANCH   1   9
BRANCH   3  14
HETATM   14  C7  UNL     1      -4.227   4.519  13.407  1.00  0.00     0.104 A 
HETATM   15  C8  UNL     1      -5.111   5.252  14.164  1.00  0.00     0.050 A 
HETATM   16  C9  UNL     1      -5.669   4.765  15.332  1.00  0.00     0.027 A 
HETATM   17  C10 UNL     1      -5.317   3.498  15.743  1.00  0.00     0.054 A 
HETATM   18 BR1  UNL     1      -6.058   2.763  17.360  1.00  0.00    -0.047 Br
HETATM   19  C11 UNL     1      -4.433   2.776  14.979  1.00  0.00     0.118 A 
HETATM   20  N3  UNL     1      -3.920   3.293  13.855  1.00  0.00    -0.328 N 
ATOM     21  H3  UNL     1      -3.266   2.727  13.314  1.00  0.00     0.169 HD
BRANCH  19  22
HETATM   22  N2  UNL     1      -4.105   1.595  15.362  1.00  0.00    -0.384 N 
ATOM     23  H22 UNL     1      -3.494   1.016  14.786  1.00  0.00     0.157 HD
ATOM     24  H21 UNL     1      -4.467   1.248  16.250  1.00  0.00     0.157 HD
ENDBRANCH  19  22
ENDBRANCH   3  14
TORSDOF 5
ENDMDL
MODEL 5
REMARK VINA RESULT: -6.625131333      3.976      6.742
REMARK  5 active torsions:
REMARK  status: ('A' for Active; 'I' for Inactive)
REMARK    1  A    between atoms: C2_2  and  C3_3 
REMARK    2  A    between atoms: C3_3  and  O1_5 
REMARK    3  A    between atoms: O1_5  and  C5_6 
REMARK    4  A    between atoms: N1_8  and  C7_9 
REMARK    5  A    between atoms: C11_14  and  N2_15 
ROOT
HETATM    1  C5  UNL     1      -3.636   5.171  14.333  1.00  0.00     0.157 C 
HETATM    2  C6  UNL     1      -3.308   4.978  12.872  1.00  0.00     0.157 C 
HETATM    3  N1  UNL     1      -2.567   6.098  12.336  1.00  0.00    -0.365 N 
HETATM    4  C12 UNL     1      -3.112   7.428  12.573  1.00  0.00     0.126 C 
HETATM    5  C13 UNL     1      -3.198   7.626  14.060  1.00  0.00     0.041 C 
HETATM    6  C14 UNL     1      -4.053   6.567  14.669  1.00  0.00     0.125 C 
HETATM    7  C15 UNL     1      -5.458   6.833  14.356  1.00  0.00     0.066 C 
HETATM    8  N4  UNL     1      -6.571   7.055  14.124  1.00  0.00    -0.197 NA
ENDROOT
BRANCH   1   9
HETATM    9  O1  UNL     1      -4.660   4.324  14.729  1.00  0.00    -0.378 OA
BRANCH   9  10
HETATM   10  C3  UNL     1      -4.322   3.457  15.730  1.00  0.00     0.117 C 
HETATM   11  C4  UNL     1      -4.304   2.049  15.138  1.00  0.00     0.039 C 
BRANCH  10  12
HETATM   12  C2  UNL     1      -5.279   3.445  16.883  1.00  0.00     0.027 C 
HETATM   13  C1  UNL     1      -6.616   4.037  16.571  1.00  0.00     0.007 C 
ENDBRANCH  10  12
ENDBRANCH   9  10
ENDBRANCH   1   9
BRANCH   3  14
HETATM   14  C7  UNL     1      -1.364   5.976  11.604  1.00  0.00     0.104 A 
HETATM   15  C8  UNL     1      -1.282   5.277  10.422  1.00  0.00     0.050 A 
HETATM   16  C9  UNL     1      -0.103   5.160   9.711  1.00  0.00     0.027 A 
HETATM   17  C10 UNL     1       1.025   5.770  10.214  1.00  0.00     0.054 A 
HETATM   18 BR1  UNL     1       2.699   5.643   9.271  1.00  0.00    -0.047 Br
HETATM   19  C11 UNL     1       0.931   6.464  11.396  1.00  0.00     0.118 A 
HETATM   20  N3  UNL     1      -0.236   6.548  12.048  1.00  0.00    -0.328 N 
ATOM     21  H3  UNL     1      -0.267   7.071  12.923  1.00  0.00     0.169 HD
BRANCH  19  22
HETATM   22  N2  UNL     1       1.982   7.032  11.866  1.00  0.00    -0.384 N 
ATOM     23  H22 UNL     1       2.393   7.835  11.389  1.00  0.00     0.157 HD
ATOM     24  H21 UNL     1       2.397   6.665  12.723  1.00  0.00     0.157 HD
ENDBRANCH  19  22
ENDBRANCH   3  14
TORSDOF 5
ENDMDL
