MODEL 1
REMARK VINA RESULT: -7.293840432      0.000      0.000
REMARK  5 active torsions:
REMARK  status: ('A' for Active; 'I' for Inactive)
REMARK    1  A    between atoms: C2_2  and  C3_3 
REMARK    2  A    between atoms: C3_3  and  C4_4 
REMARK    3  A    between atoms: C4_4  and  C5_5 
REMARK    4  A    between atoms: C5_5  and  N1_6 
REMARK    5  A    between atoms: C14_23  and  O1_24 
ROOT
HETATM    1  N1  UNL     1      -4.652   4.294  14.551  1.00  0.00    -0.379 N 
HETATM    2  C6  UNL     1      -3.597   5.079  15.095  1.00  0.00     0.162 C 
HETATM    3  C7  UNL     1      -3.385   6.242  14.181  1.00  0.00     0.005 A 
HETATM    4  C8  UNL     1      -3.528   7.560  14.278  1.00  0.00     0.118 A 
HETATM    5  N2  UNL     1      -3.299   8.094  13.040  1.00  0.00    -0.309 N 
ATOM      6  H2  UNL     1      -3.342   9.089  12.823  1.00  0.00     0.186 HD
HETATM    7  N3  UNL     1      -3.011   7.137  12.151  1.00  0.00    -0.295 N 
HETATM    8  C9  UNL     1      -2.889   7.343  10.738  1.00  0.00     0.178 C 
HETATM    9  C10 UNL     1      -3.049   6.011  12.820  1.00  0.00     0.074 A 
HETATM   10  C11 UNL     1      -2.727   4.711  12.259  1.00  0.00     0.057 A 
HETATM   11  C12 UNL     1      -1.722   4.495  11.379  1.00  0.00     0.109 A 
HETATM   12 BR1  UNL     1      -0.326   5.623  10.801  1.00  0.00    -0.029 Br
HETATM   13  N4  UNL     1      -1.796   3.181  11.102  1.00  0.00    -0.292 N 
ATOM     14  H4  UNL     1      -1.179   2.684  10.460  1.00  0.00     0.187 HD
HETATM   15  N5  UNL     1      -2.806   2.616  11.798  1.00  0.00    -0.299 N 
ATOM     16  H5  UNL     1      -3.059   1.629  11.757  1.00  0.00     0.186 HD
HETATM   17  C13 UNL     1      -3.429   3.534  12.551  1.00  0.00     0.089 A 
HETATM   18  C14 UNL     1      -4.529   3.368  13.527  1.00  0.00     0.269 C 
ENDROOT
BRANCH   1  19
HETATM   19  C5  UNL     1      -5.940   4.937  14.587  1.00  0.00     0.120 C 
BRANCH  19  20
HETATM   20  C4  UNL     1      -6.386   5.260  15.994  1.00  0.00     0.019 C 
BRANCH  20  21
HETATM   21  C3  UNL     1      -7.036   4.072  16.652  1.00  0.00     0.001 C 
BRANCH  21  22
HETATM   22  C2  UNL     1      -6.179   3.492  17.730  1.00  0.00    -0.004 C 
HETATM   23  C1  UNL     1      -5.808   2.073  17.299  1.00  0.00     0.005 C 
ENDBRANCH  21  22
ENDBRANCH  20  21
ENDBRANCH  19  20
ENDBRANCH   1  19
BRANCH  18  24
HETATM   24  O1  UNL     1      -4.427   2.031  13.978  1.00  0.00    -0.371 OA
ATOM     25  H1  UNL     1      -3.988   1.453  13.366  1.00  0.00     0.212 HD
ENDBRANCH  18  24
TORSDOF 5
ENDMDL
MODEL 2
REMARK VINA RESULT: -7.069437592      1.603      3.437
REMARK  5 active torsions:
REMARK  status: ('A' for Active; 'I' for Inactive)
REMARK    1  A    between atoms: C2_2  and  C3_3 
REMARK    2  A    between atoms: C3_3  and  C4_4 
REMARK    3  A    between atoms: C4_4  and  C5_5 
REMARK    4  A    between atoms: C5_5  and  N1_6 
REMARK    5  A    between atoms: C14_23  and  O1_24 
ROOT
HETATM    1  N1  UNL     1      -4.771   3.747  13.425  1.00  0.00    -0.379 N 
HETATM    2  C6  UNL     1      -4.761   3.263  12.086  1.00  0.00     0.162 C 
HETATM    3  C7  UNL     1      -3.346   3.290  11.609  1.00  0.00     0.005 A 
HETATM    4  C8  UNL     1      -2.452   2.377  11.246  1.00  0.00     0.118 A 
HETATM    5  N2  UNL     1      -1.264   3.021  11.031  1.00  0.00    -0.309 N 
ATOM      6  H2  UNL     1      -0.401   2.561  10.742  1.00  0.00     0.186 HD
HETATM    7  N3  UNL     1      -1.385   4.335  11.251  1.00  0.00    -0.295 N 
HETATM    8  C9  UNL     1      -0.293   5.263  11.281  1.00  0.00     0.178 C 
HETATM    9  C10 UNL     1      -2.637   4.522  11.593  1.00  0.00     0.074 A 
HETATM   10  C11 UNL     1      -3.231   5.820  11.855  1.00  0.00     0.057 A 
HETATM   11  C12 UNL     1      -2.950   6.937  11.145  1.00  0.00     0.109 A 
HETATM   12 BR1  UNL     1      -1.987   7.170   9.541  1.00  0.00    -0.029 Br
HETATM   13  N4  UNL     1      -3.683   7.900  11.734  1.00  0.00    -0.292 N 
ATOM     14  H4  UNL     1      -3.701   8.879  11.446  1.00  0.00     0.187 HD
HETATM   15  N5  UNL     1      -4.391   7.383  12.760  1.00  0.00    -0.299 N 
ATOM     16  H5  UNL     1      -5.022   7.915  13.358  1.00  0.00     0.186 HD
HETATM   17  C13 UNL     1      -4.149   6.069  12.884  1.00  0.00     0.089 A 
HETATM   18  C14 UNL     1      -4.751   5.080  13.805  1.00  0.00     0.269 C 
ENDROOT
BRANCH   1  19
HETATM   19  C5  UNL     1      -4.124   2.873  14.368  1.00  0.00     0.120 C 
BRANCH  19  20
HETATM   20  C4  UNL     1      -4.042   3.473  15.751  1.00  0.00     0.019 C 
BRANCH  20  21
HETATM   21  C3  UNL     1      -4.961   2.767  16.714  1.00  0.00     0.001 C 
BRANCH  21  22
HETATM   22  C2  UNL     1      -6.104   3.633  17.133  1.00  0.00    -0.004 C 
HETATM   23  C1  UNL     1      -7.389   2.858  16.841  1.00  0.00     0.005 C 
ENDBRANCH  21  22
ENDBRANCH  20  21
ENDBRANCH  19  20
ENDBRANCH   1  19
BRANCH  18  24
HETATM   24  O1  UNL     1      -6.026   5.599  14.128  1.00  0.00    -0.371 OA
ATOM     25  H1  UNL     1      -6.085   6.543  14.052  1.00  0.00     0.212 HD
ENDBRANCH  18  24
TORSDOF 5
ENDMDL
MODEL 3
REMARK VINA RESULT: -6.414394377      1.341      1.536
REMARK  5 active torsions:
REMARK  status: ('A' for Active; 'I' for Inactive)
REMARK    1  A    between atoms: C2_2  and  C3_3 
REMARK    2  A    between atoms: C3_3  and  C4_4 
REMARK    3  A    between atoms: C4_4  and  C5_5 
REMARK    4  A    between atoms: C5_5  and  N1_6 
REMARK    5  A    between atoms: C14_23  and  O1_24 
ROOT
HETATM    1  N1  UNL     1      -3.793   5.289  13.946  1.00  0.00    -0.379 N 
HETATM    2  C6  UNL     1      -2.724   5.888  14.670  1.00  0.00     0.162 C 
HETATM    3  C7  UNL     1      -2.247   7.062  13.880  1.00  0.00     0.005 A 
HETATM    4  C8  UNL     1      -2.229   8.379  14.058  1.00  0.00     0.118 A 
HETATM    5  N2  UNL     1      -1.775   8.948  12.900  1.00  0.00    -0.309 N 
ATOM      6  H2  UNL     1      -1.661   9.951  12.756  1.00  0.00     0.186 HD
HETATM    7  N3  UNL     1      -1.502   8.015  11.982  1.00  0.00    -0.295 N 
HETATM    8  C9  UNL     1      -1.173   8.286  10.613  1.00  0.00     0.178 C 
HETATM    9  C10 UNL     1      -1.771   6.867  12.555  1.00  0.00     0.074 A 
HETATM   10  C11 UNL     1      -1.551   5.571  11.939  1.00  0.00     0.057 A 
HETATM   11  C12 UNL     1      -0.477   5.271  11.171  1.00  0.00     0.109 A 
HETATM   12 BR1  UNL     1       1.116   6.228  10.852  1.00  0.00    -0.029 Br
HETATM   13  N4  UNL     1      -0.685   3.998  10.789  1.00  0.00    -0.292 N 
ATOM     14  H4  UNL     1      -0.060   3.459  10.189  1.00  0.00     0.187 HD
HETATM   15  N5  UNL     1      -1.841   3.538  11.314  1.00  0.00    -0.299 N 
ATOM     16  H5  UNL     1      -2.212   2.600  11.168  1.00  0.00     0.186 HD
HETATM   17  C13 UNL     1      -2.431   4.487  12.055  1.00  0.00     0.089 A 
HETATM   18  C14 UNL     1      -3.660   4.417  12.877  1.00  0.00     0.269 C 
ENDROOT
BRANCH   1  19
HETATM   19  C5  UNL     1      -4.980   6.101  13.877  1.00  0.00     0.120 C 
BRANCH  19  20
HETATM   20  C4  UNL     1      -5.844   5.969  15.109  1.00  0.00     0.019 C 
BRANCH  20  21
HETATM   21  C3  UNL     1      -6.136   4.526  15.425  1.00  0.00     0.001 C 
BRANCH  21  22
HETATM   22  C2  UNL     1      -6.710   4.359  16.795  1.00  0.00    -0.004 C 
HETATM   23  C1  UNL     1      -7.214   2.920  16.902  1.00  0.00     0.005 C 
ENDBRANCH  21  22
ENDBRANCH  20  21
ENDBRANCH  19  20
ENDBRANCH   1  19
BRANCH  18  24
HETATM   24  O1  UNL     1      -3.791   3.055  13.234  1.00  0.00    -0.371 OA
ATOM     25  H1  UNL     1      -4.253   2.917  14.053  1.00  0.00     0.212 HD
ENDBRANCH  18  24
TORSDOF 5
ENDMDL
MODEL 4
REMARK VINA RESULT: -6.402760539      1.937      3.377
REMARK  5 active torsions:
REMARK  status: ('A' for Active; 'I' for Inactive)
REMARK    1  A    between atoms: C2_2  and  C3_3 
REMARK    2  A    between atoms: C3_3  and  C4_4 
REMARK    3  A    between atoms: C4_4  and  C5_5 
REMARK    4  A    between atoms: C5_5  and  N1_6 
REMARK    5  A    between atoms: C14_23  and  O1_24 
ROOT
HETATM    1  N1  UNL     1      -4.426   5.603  13.752  1.00  0.00    -0.379 N 
HETATM    2  C6  UNL     1      -4.870   5.690  12.403  1.00  0.00     0.162 C 
HETATM    3  C7  UNL     1      -4.327   4.505  11.673  1.00  0.00     0.005 A 
HETATM    4  C8  UNL     1      -4.851   3.436  11.082  1.00  0.00     0.118 A 
HETATM    5  N2  UNL     1      -3.817   2.627  10.699  1.00  0.00    -0.309 N 
ATOM      6  H2  UNL     1      -3.931   1.733  10.220  1.00  0.00     0.186 HD
HETATM    7  N3  UNL     1      -2.639   3.161  11.035  1.00  0.00    -0.295 N 
HETATM    8  C9  UNL     1      -1.376   2.491  10.930  1.00  0.00     0.178 C 
HETATM    9  C10 UNL     1      -2.922   4.301  11.617  1.00  0.00     0.074 A 
HETATM   10  C11 UNL     1      -1.931   5.254  12.083  1.00  0.00     0.057 A 
HETATM   11  C12 UNL     1      -0.786   5.540  11.419  1.00  0.00     0.109 A 
HETATM   12 BR1  UNL     1      -0.216   5.067   9.685  1.00  0.00    -0.029 Br
HETATM   13  N4  UNL     1      -0.158   6.434  12.204  1.00  0.00    -0.292 N 
ATOM     14  H4  UNL     1       0.746   6.857  11.999  1.00  0.00     0.187 HD
HETATM   15  N5  UNL     1      -0.901   6.688  13.303  1.00  0.00    -0.299 N 
ATOM     16  H5  UNL     1      -0.636   7.334  14.047  1.00  0.00     0.186 HD
HETATM   17  C13 UNL     1      -2.036   5.974  13.280  1.00  0.00     0.089 A 
HETATM   18  C14 UNL     1      -3.178   5.984  14.221  1.00  0.00     0.269 C 
ENDROOT
BRANCH   1  19
HETATM   19  C5  UNL     1      -5.005   4.511  14.490  1.00  0.00     0.120 C 
BRANCH  19  20
HETATM   20  C4  UNL     1      -4.103   4.017  15.595  1.00  0.00     0.019 C 
BRANCH  20  21
HETATM   21  C3  UNL     1      -4.877   3.261  16.643  1.00  0.00     0.001 C 
BRANCH  21  22
HETATM   22  C2  UNL     1      -6.205   3.889  16.917  1.00  0.00    -0.004 C 
HETATM   23  C1  UNL     1      -7.243   2.766  16.927  1.00  0.00     0.005 C 
ENDBRANCH  21  22
ENDBRANCH  20  21
ENDBRANCH  19  20
ENDBRANCH   1  19
BRANCH  18  24
HETATM   24  O1  UNL     1      -3.161   7.267  14.814  1.00  0.00    -0.371 OA
ATOM     25  H1  UNL     1      -3.090   7.978  14.187  1.00  0.00     0.212 HD
ENDBRANCH  18  24
TORSDOF 5
ENDMDL
MODEL 5
REMARK VINA RESULT: -6.257885047      2.771      4.954
REMARK  5 active torsions:
REMARK  status: ('A' for Active; 'I' for Inactive)
REMARK    1  A    between atoms: C2_2  and  C3_3 
REMARK    2  A    between atoms: C3_3  and  C4_4 
REMARK    3  A    between atoms: C4_4  and  C5_5 
REMARK    4  A    between atoms: C5_5  and  N1_6 
REMARK    5  A    between atoms: C14_23  and  O1_24 
ROOT
HETATM    1  N1  UNL     1      -3.948   2.560  12.136  1.00  0.00    -0.379 N 
HETATM    2  C6  UNL     1      -4.839   3.398  11.408  1.00  0.00     0.162 C 
HETATM    3  C7  UNL     1      -4.385   4.808  11.596  1.00  0.00     0.005 A 
HETATM    4  C8  UNL     1      -3.896   5.759  10.807  1.00  0.00     0.118 A 
HETATM    5  N2  UNL     1      -3.538   6.814  11.600  1.00  0.00    -0.309 N 
ATOM      6  H2  UNL     1      -3.133   7.684  11.256  1.00  0.00     0.186 HD
HETATM    7  N3  UNL     1      -3.790   6.553  12.887  1.00  0.00    -0.295 N 
HETATM    8  C9  UNL     1      -3.377   7.376  13.985  1.00  0.00     0.178 C 
HETATM    9  C10 UNL     1      -4.310   5.350  12.908  1.00  0.00     0.074 A 
HETATM   10  C11 UNL     1      -4.802   4.689  14.103  1.00  0.00     0.057 A 
HETATM   11  C12 UNL     1      -5.480   5.319  15.091  1.00  0.00     0.109 A 
HETATM   12 BR1  UNL     1      -6.208   7.056  15.173  1.00  0.00    -0.029 Br
HETATM   13  N4  UNL     1      -5.714   4.357  16.002  1.00  0.00    -0.292 N 
ATOM     14  H4  UNL     1      -6.206   4.495  16.885  1.00  0.00     0.187 HD
HETATM   15  N5  UNL     1      -5.203   3.181  15.577  1.00  0.00    -0.299 N 
ATOM     16  H5  UNL     1      -5.256   2.304  16.094  1.00  0.00     0.186 HD
HETATM   17  C13 UNL     1      -4.618   3.328  14.380  1.00  0.00     0.089 A 
HETATM   18  C14 UNL     1      -4.000   2.312  13.499  1.00  0.00     0.269 C 
ENDROOT
BRANCH   1  19
HETATM   19  C5  UNL     1      -2.614   2.515  11.597  1.00  0.00     0.120 C 
BRANCH  19  20
HETATM   20  C4  UNL     1      -2.517   1.652  10.362  1.00  0.00     0.019 C 
BRANCH  20  21
HETATM   21  C3  UNL     1      -3.283   0.366  10.526  1.00  0.00     0.001 C 
BRANCH  21  22
HETATM   22  C2  UNL     1      -2.475  -0.680  11.223  1.00  0.00    -0.004 C 
HETATM   23  C1  UNL     1      -3.287  -1.975  11.189  1.00  0.00     0.005 C 
ENDBRANCH  21  22
ENDBRANCH  20  21
ENDBRANCH  19  20
ENDBRANCH   1  19
BRANCH  18  24
HETATM   24  O1  UNL     1      -4.636   1.093  13.832  1.00  0.00    -0.371 OA
ATOM     25  H1  UNL     1      -4.344   0.723  14.656  1.00  0.00     0.212 HD
ENDBRANCH  18  24
TORSDOF 5
ENDMDL
