MODEL 1
REMARK VINA RESULT: -7.687087135      0.000      0.000
REMARK  6 active torsions:
REMARK  status: ('A' for Active; 'I' for Inactive)
REMARK    1  A    between atoms: C5_5  and  O1_6 
REMARK       I    between atoms: N1_18  and  C15_19 
REMARK    2  A    between atoms: C15_19  and  C16_21 
REMARK    3  A    between atoms: C16_21  and  C17_22 
REMARK    4  A    between atoms: C17_22  and  N2_23 
REMARK    5  A    between atoms: C21_27  and  C22_28 
REMARK    6  A    between atoms: C22_28  and  O3_29 
ROOT
HETATM    1  C1  UNL     1      -4.729   1.323  10.033  1.00  0.00     0.020 C 
HETATM    2  C2  UNL     1      -4.234   2.200  10.864  1.00  0.00    -0.051 C 
HETATM    3  C3  UNL     1      -4.148   2.474  12.301  1.00  0.00    -0.025 C 
HETATM    4  C4  UNL     1      -4.097   1.717  13.345  1.00  0.00     0.022 C 
HETATM    5  C5  UNL     1      -4.150   3.930  11.903  1.00  0.00     0.114 C 
HETATM    6  C6  UNL     1      -3.447   3.455  10.694  1.00  0.00     0.060 C 
HETATM    7  C7  UNL     1      -2.000   3.162  10.952  1.00  0.00     0.016 C 
HETATM    8  C8  UNL     1      -1.260   4.438  10.583  1.00  0.00     0.045 C 
HETATM    9  C9  UNL     1      -1.179   5.272  11.816  1.00  0.00     0.115 C 
HETATM   10  F1  UNL     1      -0.224   4.708  12.626  1.00  0.00    -0.242 F 
HETATM   11  C10 UNL     1      -0.627   6.642  11.363  1.00  0.00     0.045 C 
HETATM   12  C11 UNL     1      -1.833   7.562  11.310  1.00  0.00     0.011 C 
HETATM   13  C12 UNL     1      -2.975   6.657  11.500  1.00  0.00     0.024 C 
HETATM   14  C13 UNL     1      -4.147   7.094  12.273  1.00  0.00     0.088 C 
HETATM   15  C14 UNL     1      -5.313   7.381  11.334  1.00  0.00     0.033 C 
HETATM   16  N1  UNL     1      -4.462   5.936  13.135  1.00  0.00    -0.338 N 
HETATM   17  C15 UNL     1      -5.512   5.974  14.072  1.00  0.00     0.222 C 
HETATM   18  O2  UNL     1      -6.250   7.003  14.227  1.00  0.00    -0.273 OA
HETATM   19  C20 UNL     1      -3.515   4.858  12.815  1.00  0.00     0.141 C 
HETATM   20  C21 UNL     1      -2.353   5.657  12.503  1.00  0.00     0.046 C 
ENDROOT
BRANCH  17  21
HETATM   21  C16 UNL     1      -5.816   4.826  14.928  1.00  0.00     0.133 C 
BRANCH  21  22
HETATM   22  C17 UNL     1      -6.592   5.205  16.170  1.00  0.00     0.280 C 
BRANCH  22  23
HETATM   23  N2  UNL     1      -6.514   4.076  17.078  1.00  0.00     0.080 N 
HETATM   24  C18 UNL     1      -5.231   3.444  17.093  1.00  0.00     0.309 C 
HETATM   25  C19 UNL     1      -7.582   3.139  16.917  1.00  0.00     0.309 C 
ENDBRANCH  22  23
ENDBRANCH  21  22
ENDBRANCH  17  21
BRANCH   5  26
HETATM   26  O1  UNL     1      -5.487   4.250  11.561  1.00  0.00    -0.382 OA
ATOM     27  H1  UNL     1      -5.683   5.076  11.986  1.00  0.00     0.211 HD
ENDBRANCH   5  26
BRANCH  20  28
HETATM   28  C22 UNL     1      -1.978   6.398  13.773  1.00  0.00     0.179 C 
BRANCH  28  29
HETATM   29  O3  UNL     1      -2.047   5.487  14.821  1.00  0.00    -0.400 OA
ATOM     30  H3  UNL     1      -1.741   5.930  15.603  1.00  0.00     0.209 HD
ENDBRANCH  28  29
ENDBRANCH  20  28
TORSDOF 6
ENDMDL
MODEL 2
REMARK VINA RESULT: -7.150947468      2.328      4.538
REMARK  6 active torsions:
REMARK  status: ('A' for Active; 'I' for Inactive)
REMARK    1  A    between atoms: C5_5  and  O1_6 
REMARK       I    between atoms: N1_18  and  C15_19 
REMARK    2  A    between atoms: C15_19  and  C16_21 
REMARK    3  A    between atoms: C16_21  and  C17_22 
REMARK    4  A    between atoms: C17_22  and  N2_23 
REMARK    5  A    between atoms: C21_27  and  C22_28 
REMARK    6  A    between atoms: C22_28  and  O3_29 
ROOT
HETATM    1  C1  UNL     1      -4.986   8.584   8.627  1.00  0.00     0.020 C 
HETATM    2  C2  UNL     1      -4.297   8.113   9.631  1.00  0.00    -0.051 C 
HETATM    3  C3  UNL     1      -3.487   6.949   9.999  1.00  0.00    -0.025 C 
HETATM    4  C4  UNL     1      -2.721   6.154   9.328  1.00  0.00     0.022 C 
HETATM    5  C5  UNL     1      -3.992   7.188  11.400  1.00  0.00     0.114 C 
HETATM    6  C6  UNL     1      -3.998   8.612  11.003  1.00  0.00     0.060 C 
HETATM    7  C7  UNL     1      -2.625   9.213  11.016  1.00  0.00     0.016 C 
HETATM    8  C8  UNL     1      -2.478   9.850  12.389  1.00  0.00     0.045 C 
HETATM    9  C9  UNL     1      -1.895   8.818  13.292  1.00  0.00     0.115 C 
HETATM   10  F1  UNL     1      -0.563   8.705  12.975  1.00  0.00    -0.242 F 
HETATM   11  C10 UNL     1      -1.965   9.415  14.715  1.00  0.00     0.045 C 
HETATM   12  C11 UNL     1      -3.150   8.737  15.376  1.00  0.00     0.011 C 
HETATM   13  C12 UNL     1      -3.795   8.005  14.277  1.00  0.00     0.024 C 
HETATM   14  C13 UNL     1      -4.403   6.689  14.519  1.00  0.00     0.088 C 
HETATM   15  C14 UNL     1      -5.923   6.808  14.518  1.00  0.00     0.033 C 
HETATM   16  N1  UNL     1      -3.956   5.868  13.374  1.00  0.00    -0.338 N 
HETATM   17  C15 UNL     1      -4.298   4.508  13.260  1.00  0.00     0.222 C 
HETATM   18  O2  UNL     1      -5.012   3.908  14.131  1.00  0.00    -0.273 OA
HETATM   19  C20 UNL     1      -3.156   6.723  12.486  1.00  0.00     0.141 C 
HETATM   20  C21 UNL     1      -2.542   7.575  13.478  1.00  0.00     0.046 C 
ENDROOT
BRANCH  17  21
HETATM   21  C16 UNL     1      -3.848   3.698  12.126  1.00  0.00     0.133 C 
BRANCH  21  22
HETATM   22  C17 UNL     1      -4.983   2.993  11.417  1.00  0.00     0.280 C 
BRANCH  22  23
HETATM   23  N2  UNL     1      -4.563   1.620  11.209  1.00  0.00     0.080 N 
HETATM   24  C18 UNL     1      -4.150   0.961  12.408  1.00  0.00     0.309 C 
HETATM   25  C19 UNL     1      -3.615   1.468  10.148  1.00  0.00     0.309 C 
ENDBRANCH  22  23
ENDBRANCH  21  22
ENDBRANCH  17  21
BRANCH   5  26
HETATM   26  O1  UNL     1      -5.328   6.716  11.431  1.00  0.00    -0.382 OA
ATOM     27  H1  UNL     1      -5.459   6.338  12.293  1.00  0.00     0.211 HD
ENDBRANCH   5  26
BRANCH  20  28
HETATM   28  C22 UNL     1      -1.681   6.681  14.351  1.00  0.00     0.179 C 
BRANCH  28  29
HETATM   29  O3  UNL     1      -0.978   5.828  13.505  1.00  0.00    -0.400 OA
ATOM     30  H3  UNL     1      -0.069   5.843  13.780  1.00  0.00     0.209 HD
ENDBRANCH  28  29
ENDBRANCH  20  28
TORSDOF 6
ENDMDL
MODEL 3
REMARK VINA RESULT: -7.087676623      2.198      5.061
REMARK  6 active torsions:
REMARK  status: ('A' for Active; 'I' for Inactive)
REMARK    1  A    between atoms: C5_5  and  O1_6 
REMARK       I    between atoms: N1_18  and  C15_19 
REMARK    2  A    between atoms: C15_19  and  C16_21 
REMARK    3  A    between atoms: C16_21  and  C17_22 
REMARK    4  A    between atoms: C17_22  and  N2_23 
REMARK    5  A    between atoms: C21_27  and  C22_28 
REMARK    6  A    between atoms: C22_28  and  O3_29 
ROOT
HETATM    1  C1  UNL     1       1.071   5.780  11.003  1.00  0.00     0.020 C 
HETATM    2  C2  UNL     1      -0.197   5.466  11.017  1.00  0.00    -0.051 C 
HETATM    3  C3  UNL     1      -1.485   5.940  10.503  1.00  0.00    -0.025 C 
HETATM    4  C4  UNL     1      -1.833   6.570   9.432  1.00  0.00     0.022 C 
HETATM    5  C5  UNL     1      -2.071   5.348  11.762  1.00  0.00     0.114 C 
HETATM    6  C6  UNL     1      -0.980   4.359  11.636  1.00  0.00     0.060 C 
HETATM    7  C7  UNL     1      -1.268   3.323  10.592  1.00  0.00     0.016 C 
HETATM    8  C8  UNL     1      -1.903   2.162  11.342  1.00  0.00     0.045 C 
HETATM    9  C9  UNL     1      -3.376   2.390  11.339  1.00  0.00     0.115 C 
HETATM   10  F1  UNL     1      -3.831   2.092  10.077  1.00  0.00    -0.242 F 
HETATM   11  C10 UNL     1      -3.969   1.326  12.290  1.00  0.00     0.045 C 
HETATM   12  C11 UNL     1      -4.268   2.066  13.580  1.00  0.00     0.011 C 
HETATM   13  C12 UNL     1      -3.648   3.383  13.383  1.00  0.00     0.024 C 
HETATM   14  C13 UNL     1      -4.293   4.593  13.915  1.00  0.00     0.088 C 
HETATM   15  C14 UNL     1      -3.531   5.095  15.137  1.00  0.00     0.033 C 
HETATM   16  N1  UNL     1      -4.188   5.572  12.813  1.00  0.00    -0.338 N 
HETATM   17  C15 UNL     1      -4.737   6.863  12.916  1.00  0.00     0.222 C 
HETATM   18  O2  UNL     1      -5.349   7.264  13.961  1.00  0.00    -0.273 OA
HETATM   19  C20 UNL     1      -3.457   4.936  11.707  1.00  0.00     0.141 C 
HETATM   20  C21 UNL     1      -3.922   3.579  11.874  1.00  0.00     0.046 C 
ENDROOT
BRANCH  17  21
HETATM   21  C16 UNL     1      -4.635   7.828  11.819  1.00  0.00     0.133 C 
BRANCH  21  22
HETATM   22  C17 UNL     1      -5.908   8.615  11.605  1.00  0.00     0.280 C 
BRANCH  22  23
HETATM   23  N2  UNL     1      -6.304   8.412  10.224  1.00  0.00     0.080 N 
HETATM   24  C18 UNL     1      -5.198   8.318   9.322  1.00  0.00     0.309 C 
HETATM   25  C19 UNL     1      -7.300   9.334   9.773  1.00  0.00     0.309 C 
ENDBRANCH  22  23
ENDBRANCH  21  22
ENDBRANCH  17  21
BRANCH   5  26
HETATM   26  O1  UNL     1      -1.755   6.246  12.811  1.00  0.00    -0.382 OA
ATOM     27  H1  UNL     1      -1.165   5.783  13.393  1.00  0.00     0.211 HD
ENDBRANCH   5  26
BRANCH  20  28
HETATM   28  C22 UNL     1      -5.422   3.598  11.641  1.00  0.00     0.179 C 
BRANCH  28  29
HETATM   29  O3  UNL     1      -5.666   4.470  10.585  1.00  0.00    -0.400 OA
ATOM     30  H3  UNL     1      -6.594   4.673  10.594  1.00  0.00     0.209 HD
ENDBRANCH  28  29
ENDBRANCH  20  28
TORSDOF 6
ENDMDL
MODEL 4
REMARK VINA RESULT: -6.996983991      2.403      6.049
REMARK  6 active torsions:
REMARK  status: ('A' for Active; 'I' for Inactive)
REMARK    1  A    between atoms: C5_5  and  O1_6 
REMARK       I    between atoms: N1_18  and  C15_19 
REMARK    2  A    between atoms: C15_19  and  C16_21 
REMARK    3  A    between atoms: C16_21  and  C17_22 
REMARK    4  A    between atoms: C17_22  and  N2_23 
REMARK    5  A    between atoms: C21_27  and  C22_28 
REMARK    6  A    between atoms: C22_28  and  O3_29 
ROOT
HETATM    1  C1  UNL     1      -4.795   8.417   8.581  1.00  0.00     0.020 C 
HETATM    2  C2  UNL     1      -4.286   7.898   9.666  1.00  0.00    -0.051 C 
HETATM    3  C3  UNL     1      -2.988   7.590  10.271  1.00  0.00    -0.025 C 
HETATM    4  C4  UNL     1      -1.824   8.144  10.201  1.00  0.00     0.022 C 
HETATM    5  C5  UNL     1      -3.700   6.429  10.922  1.00  0.00     0.114 C 
HETATM    6  C6  UNL     1      -4.874   7.326  10.911  1.00  0.00     0.060 C 
HETATM    7  C7  UNL     1      -4.814   8.357  11.997  1.00  0.00     0.016 C 
HETATM    8  C8  UNL     1      -5.588   7.760  13.162  1.00  0.00     0.045 C 
HETATM    9  C9  UNL     1      -4.612   7.006  13.999  1.00  0.00     0.115 C 
HETATM   10  F1  UNL     1      -3.875   7.932  14.696  1.00  0.00    -0.242 F 
HETATM   11  C10 UNL     1      -5.455   6.233  15.037  1.00  0.00     0.045 C 
HETATM   12  C11 UNL     1      -5.503   4.804  14.529  1.00  0.00     0.011 C 
HETATM   13  C12 UNL     1      -4.914   4.888  13.186  1.00  0.00     0.024 C 
HETATM   14  C13 UNL     1      -4.067   3.798  12.679  1.00  0.00     0.088 C 
HETATM   15  C14 UNL     1      -4.827   2.992  11.631  1.00  0.00     0.033 C 
HETATM   16  N1  UNL     1      -2.922   4.492  12.054  1.00  0.00    -0.338 N 
HETATM   17  C15 UNL     1      -1.850   3.784  11.482  1.00  0.00     0.222 C 
HETATM   18  O2  UNL     1      -1.805   2.509  11.465  1.00  0.00    -0.273 OA
HETATM   19  C20 UNL     1      -3.150   5.940  12.168  1.00  0.00     0.141 C 
HETATM   20  C21 UNL     1      -3.835   5.966  13.439  1.00  0.00     0.046 C 
ENDROOT
BRANCH  17  21
HETATM   21  C16 UNL     1      -0.714   4.477  10.869  1.00  0.00     0.133 C 
BRANCH  21  22
HETATM   22  C17 UNL     1      -0.769   4.476   9.357  1.00  0.00     0.280 C 
BRANCH  22  23
HETATM   23  N2  UNL     1       0.176   5.478   8.900  1.00  0.00     0.080 N 
HETATM   24  C18 UNL     1       0.385   5.462   7.485  1.00  0.00     0.309 C 
HETATM   25  C19 UNL     1       1.404   5.482   9.633  1.00  0.00     0.309 C 
ENDBRANCH  22  23
ENDBRANCH  21  22
ENDBRANCH  17  21
BRANCH   5  26
HETATM   26  O1  UNL     1      -3.865   5.446   9.915  1.00  0.00    -0.382 OA
ATOM     27  H1  UNL     1      -3.796   4.604  10.349  1.00  0.00     0.211 HD
ENDBRANCH   5  26
BRANCH  20  28
HETATM   28  C22 UNL     1      -2.854   5.451  14.476  1.00  0.00     0.179 C 
BRANCH  28  29
HETATM   29  O3  UNL     1      -1.623   6.045  14.213  1.00  0.00    -0.400 OA
ATOM     30  H3  UNL     1      -1.569   6.180  13.275  1.00  0.00     0.209 HD
ENDBRANCH  28  29
ENDBRANCH  20  28
TORSDOF 6
ENDMDL
MODEL 5
REMARK VINA RESULT: -6.780991403      2.369      4.009
REMARK  6 active torsions:
REMARK  status: ('A' for Active; 'I' for Inactive)
REMARK    1  A    between atoms: C5_5  and  O1_6 
REMARK       I    between atoms: N1_18  and  C15_19 
REMARK    2  A    between atoms: C15_19  and  C16_21 
REMARK    3  A    between atoms: C16_21  and  C17_22 
REMARK    4  A    between atoms: C17_22  and  N2_23 
REMARK    5  A    between atoms: C21_27  and  C22_28 
REMARK    6  A    between atoms: C22_28  and  O3_29 
ROOT
HETATM    1  C1  UNL     1      -1.980   6.608   7.332  1.00  0.00     0.020 C 
HETATM    2  C2  UNL     1      -1.890   6.545   8.634  1.00  0.00    -0.051 C 
HETATM    3  C3  UNL     1      -1.750   5.563   9.712  1.00  0.00    -0.025 C 
HETATM    4  C4  UNL     1      -1.168   4.413   9.793  1.00  0.00     0.022 C 
HETATM    5  C5  UNL     1      -2.555   6.534  10.541  1.00  0.00     0.114 C 
HETATM    6  C6  UNL     1      -1.891   7.567   9.719  1.00  0.00     0.060 C 
HETATM    7  C7  UNL     1      -0.479   7.820  10.152  1.00  0.00     0.016 C 
HETATM    8  C8  UNL     1      -0.559   8.990  11.120  1.00  0.00     0.045 C 
HETATM    9  C9  UNL     1      -0.740   8.420  12.485  1.00  0.00     0.115 C 
HETATM   10  F1  UNL     1       0.474   7.912  12.878  1.00  0.00    -0.242 F 
HETATM   11  C10 UNL     1      -1.040   9.623  13.408  1.00  0.00     0.045 C 
HETATM   12  C11 UNL     1      -2.539   9.587  13.637  1.00  0.00     0.011 C 
HETATM   13  C12 UNL     1      -3.015   8.563  12.697  1.00  0.00     0.024 C 
HETATM   14  C13 UNL     1      -4.119   7.667  13.073  1.00  0.00     0.088 C 
HETATM   15  C14 UNL     1      -5.390   8.067  12.330  1.00  0.00     0.033 C 
HETATM   16  N1  UNL     1      -3.669   6.332  12.628  1.00  0.00    -0.338 N 
HETATM   17  C15 UNL     1      -4.442   5.178  12.851  1.00  0.00     0.222 C 
HETATM   18  O2  UNL     1      -5.572   5.216  13.442  1.00  0.00    -0.273 OA
HETATM   19  C20 UNL     1      -2.362   6.487  11.974  1.00  0.00     0.141 C 
HETATM   20  C21 UNL     1      -1.832   7.569  12.772  1.00  0.00     0.046 C 
ENDROOT
BRANCH  17  21
HETATM   21  C16 UNL     1      -3.989   3.856  12.412  1.00  0.00     0.133 C 
BRANCH  21  22
HETATM   22  C17 UNL     1      -4.884   3.244  11.358  1.00  0.00     0.280 C 
BRANCH  22  23
HETATM   23  N2  UNL     1      -4.618   1.818  11.353  1.00  0.00     0.080 N 
HETATM   24  C18 UNL     1      -4.196   1.312  12.622  1.00  0.00     0.309 C 
HETATM   25  C19 UNL     1      -3.761   1.401  10.287  1.00  0.00     0.309 C 
ENDBRANCH  22  23
ENDBRANCH  21  22
ENDBRANCH  17  21
BRANCH   5  26
HETATM   26  O1  UNL     1      -3.900   6.404  10.115  1.00  0.00    -0.382 OA
ATOM     27  H1  UNL     1      -4.428   6.357  10.904  1.00  0.00     0.211 HD
ENDBRANCH   5  26
BRANCH  20  28
HETATM   28  C22 UNL     1      -1.711   7.048  14.191  1.00  0.00     0.179 C 
BRANCH  28  29
HETATM   29  O3  UNL     1      -1.139   5.782  14.121  1.00  0.00    -0.400 OA
ATOM     30  H3  UNL     1      -1.687   5.195  14.628  1.00  0.00     0.209 HD
ENDBRANCH  28  29
ENDBRANCH  20  28
TORSDOF 6
ENDMDL
