MODEL 1
REMARK VINA RESULT: -8.069778075      0.000      0.000
REMARK  5 active torsions:
REMARK  status: ('A' for Active; 'I' for Inactive)
REMARK    1  A    between atoms: C1_2  and  C2_4 
REMARK    2  A    between atoms: C10_12  and  N2_13 
REMARK       I    between atoms: N2_13  and  C11_15 
REMARK    3  A    between atoms: C11_15  and  C12_17 
REMARK    4  A    between atoms: C12_17  and  O3_18 
REMARK    5  A    between atoms: O3_18  and  C13_19 
REMARK       I    between atoms: C13_19  and  N3_21 
ROOT
HETATM    1  N2  UNL     1      -3.482   4.577  12.394  1.00  0.00    -0.353 N 
ATOM      2  H2  UNL     1      -4.411   4.613  12.811  1.00  0.00     0.163 HD
HETATM    3  C11 UNL     1      -2.946   3.306  12.027  1.00  0.00     0.242 C 
HETATM    4  O2  UNL     1      -1.816   3.197  11.516  1.00  0.00    -0.271 OA
ENDROOT
BRANCH   1   5
HETATM    5  C10 UNL     1      -2.766   5.815  12.201  1.00  0.00     0.106 C 
HETATM    6  C2  UNL     1      -3.722   6.932  11.944  1.00  0.00     0.060 C 
HETATM    7  C3  UNL     1      -4.638   7.091  13.126  1.00  0.00     0.025 C 
HETATM    8  C18 UNL     1      -3.028   8.257  11.731  1.00  0.00     0.025 C 
HETATM    9  C4  UNL     1      -3.808   7.325  14.357  1.00  0.00    -0.013 C 
HETATM   10  C5  UNL     1      -3.039   8.641  14.201  1.00  0.00     0.009 C 
HETATM   11  C9  UNL     1      -2.785   6.259  14.605  1.00  0.00     0.011 C 
HETATM   12  C6  UNL     1      -2.211   8.556  12.957  1.00  0.00    -0.013 C 
HETATM   13  C7  UNL     1      -1.199   7.437  13.119  1.00  0.00     0.011 C 
HETATM   14  C8  UNL     1      -1.897   6.145  13.415  1.00  0.00     0.010 C 
BRANCH   6  15
HETATM   15  C1  UNL     1      -4.487   6.638  10.705  1.00  0.00     0.241 C 
HETATM   16  N1  UNL     1      -3.860   5.904   9.665  1.00  0.00    -0.061 NA
HETATM   17  O1  UNL     1      -5.681   7.027  10.564  1.00  0.00    -0.276 OA
ENDBRANCH   6  15
ENDBRANCH   1   5
BRANCH   3  18
HETATM   18  C12 UNL     1      -3.776   2.117  12.273  1.00  0.00     0.283 C 
BRANCH  18  19
HETATM   19  O3  UNL     1      -4.786   2.259  13.206  1.00  0.00    -0.295 OA
BRANCH  19  20
HETATM   20  C13 UNL     1      -4.729   2.044  14.554  1.00  0.00     0.363 C 
HETATM   21  O4  UNL     1      -4.219   0.963  14.948  1.00  0.00    -0.238 OA
HETATM   22  N3  UNL     1      -5.211   2.964  15.540  1.00  0.00    -0.327 N 
HETATM   23  C14 UNL     1      -5.811   4.230  15.160  1.00  0.00     0.129 C 
HETATM   24  C17 UNL     1      -5.192   2.820  16.971  1.00  0.00     0.148 C 
HETATM   25  C15 UNL     1      -6.621   4.600  16.403  1.00  0.00     0.041 C 
HETATM   26  C16 UNL     1      -5.679   4.127  17.498  1.00  0.00     0.102 C 
HETATM   27 CL1  UNL     1      -6.594   3.997  19.000  1.00  0.00    -0.123 Cl
ENDBRANCH  19  20
ENDBRANCH  18  19
ENDBRANCH   3  18
TORSDOF 5
ENDMDL
MODEL 2
REMARK VINA RESULT: -7.912687586      3.511      6.309
REMARK  5 active torsions:
REMARK  status: ('A' for Active; 'I' for Inactive)
REMARK    1  A    between atoms: C1_2  and  C2_4 
REMARK    2  A    between atoms: C10_12  and  N2_13 
REMARK       I    between atoms: N2_13  and  C11_15 
REMARK    3  A    between atoms: C11_15  and  C12_17 
REMARK    4  A    between atoms: C12_17  and  O3_18 
REMARK    5  A    between atoms: O3_18  and  C13_19 
REMARK       I    between atoms: C13_19  and  N3_21 
ROOT
HETATM    1  N2  UNL     1      -3.794   3.528  12.850  1.00  0.00    -0.353 N 
ATOM      2  H2  UNL     1      -2.850   3.713  13.188  1.00  0.00     0.163 HD
HETATM    3  C11 UNL     1      -3.953   2.759  11.657  1.00  0.00     0.242 C 
HETATM    4  O2  UNL     1      -5.078   2.500  11.193  1.00  0.00    -0.271 OA
ENDROOT
BRANCH   1   5
HETATM    5  C10 UNL     1      -4.909   4.053  13.599  1.00  0.00     0.106 C 
HETATM    6  C2  UNL     1      -4.585   4.091  15.055  1.00  0.00     0.060 C 
HETATM    7  C3  UNL     1      -3.396   4.984  15.282  1.00  0.00     0.025 C 
HETATM    8  C18 UNL     1      -5.720   4.633  15.892  1.00  0.00     0.025 C 
HETATM    9  C4  UNL     1      -3.701   6.350  14.730  1.00  0.00    -0.013 C 
HETATM   10  C5  UNL     1      -4.875   6.953  15.509  1.00  0.00     0.009 C 
HETATM   11  C9  UNL     1      -4.104   6.341  13.287  1.00  0.00     0.011 C 
HETATM   12  C6  UNL     1      -6.039   6.018  15.404  1.00  0.00    -0.013 C 
HETATM   13  C7  UNL     1      -6.447   5.909  13.947  1.00  0.00     0.011 C 
HETATM   14  C8  UNL     1      -5.288   5.454  13.114  1.00  0.00     0.010 C 
BRANCH   6  15
HETATM   15  C1  UNL     1      -4.317   2.708  15.526  1.00  0.00     0.241 C 
HETATM   16  N1  UNL     1      -4.988   1.625  14.903  1.00  0.00    -0.061 NA
HETATM   17  O1  UNL     1      -3.505   2.483  16.468  1.00  0.00    -0.276 OA
ENDBRANCH   6  15
ENDBRANCH   1   5
BRANCH   3  18
HETATM   18  C12 UNL     1      -2.736   2.277  10.986  1.00  0.00     0.283 C 
BRANCH  18  19
HETATM   19  O3  UNL     1      -2.005   3.224  10.292  1.00  0.00    -0.295 OA
BRANCH  19  20
HETATM   20  C13 UNL     1      -1.061   4.085  10.774  1.00  0.00     0.363 C 
HETATM   21  O4  UNL     1      -0.806   4.035  12.005  1.00  0.00    -0.238 OA
HETATM   22  N3  UNL     1      -0.349   5.035   9.972  1.00  0.00    -0.327 N 
HETATM   23  C14 UNL     1      -0.591   5.148   8.546  1.00  0.00     0.129 C 
HETATM   24  C17 UNL     1       0.655   5.974  10.394  1.00  0.00     0.148 C 
HETATM   25  C15 UNL     1      -0.068   6.550   8.231  1.00  0.00     0.041 C 
HETATM   26  C16 UNL     1       1.153   6.599   9.135  1.00  0.00     0.102 C 
HETATM   27 CL1  UNL     1       1.642   8.283   9.316  1.00  0.00    -0.123 Cl
ENDBRANCH  19  20
ENDBRANCH  18  19
ENDBRANCH   3  18
TORSDOF 5
ENDMDL
MODEL 3
REMARK VINA RESULT: -7.760743574      1.112      1.123
REMARK  5 active torsions:
REMARK  status: ('A' for Active; 'I' for Inactive)
REMARK    1  A    between atoms: C1_2  and  C2_4 
REMARK    2  A    between atoms: C10_12  and  N2_13 
REMARK       I    between atoms: N2_13  and  C11_15 
REMARK    3  A    between atoms: C11_15  and  C12_17 
REMARK    4  A    between atoms: C12_17  and  O3_18 
REMARK    5  A    between atoms: O3_18  and  C13_19 
REMARK       I    between atoms: C13_19  and  N3_21 
ROOT
HETATM    1  N2  UNL     1      -3.051   5.014  11.847  1.00  0.00    -0.353 N 
ATOM      2  H2  UNL     1      -3.721   4.894  12.606  1.00  0.00     0.163 HD
HETATM    3  C11 UNL     1      -2.719   3.880  11.045  1.00  0.00     0.242 C 
HETATM    4  O2  UNL     1      -1.907   3.960  10.105  1.00  0.00    -0.271 OA
ENDROOT
BRANCH   1   5
HETATM    5  C10 UNL     1      -2.481   6.321  11.631  1.00  0.00     0.106 C 
HETATM    6  C2  UNL     1      -3.557   7.353  11.573  1.00  0.00     0.060 C 
HETATM    7  C3  UNL     1      -4.308   7.371  12.875  1.00  0.00     0.025 C 
HETATM    8  C18 UNL     1      -3.018   8.746  11.345  1.00  0.00     0.025 C 
HETATM    9  C4  UNL     1      -3.335   7.625  13.994  1.00  0.00    -0.013 C 
HETATM   10  C5  UNL     1      -2.714   9.014  13.811  1.00  0.00     0.009 C 
HETATM   11  C9  UNL     1      -2.199   6.650  14.037  1.00  0.00     0.011 C 
HETATM   12  C6  UNL     1      -2.066   9.065  12.463  1.00  0.00    -0.013 C 
HETATM   13  C7  UNL     1      -0.947   8.040  12.420  1.00  0.00     0.011 C 
HETATM   14  C8  UNL     1      -1.481   6.675  12.733  1.00  0.00     0.010 C 
BRANCH   6  15
HETATM   15  C1  UNL     1      -4.460   7.045  10.434  1.00  0.00     0.241 C 
HETATM   16  N1  UNL     1      -5.843   7.339  10.552  1.00  0.00    -0.061 NA
HETATM   17  O1  UNL     1      -4.018   6.528   9.369  1.00  0.00    -0.276 OA
ENDBRANCH   6  15
ENDBRANCH   1   5
BRANCH   3  18
HETATM   18  C12 UNL     1      -3.371   2.601  11.365  1.00  0.00     0.283 C 
BRANCH  18  19
HETATM   19  O3  UNL     1      -4.446   2.664  12.233  1.00  0.00    -0.295 OA
BRANCH  19  20
HETATM   20  C13 UNL     1      -4.549   2.142  13.491  1.00  0.00     0.363 C 
HETATM   21  O4  UNL     1      -4.363   0.905  13.624  1.00  0.00    -0.238 OA
HETATM   22  N3  UNL     1      -4.854   2.911  14.661  1.00  0.00    -0.327 N 
HETATM   23  C14 UNL     1      -5.080   4.342  14.584  1.00  0.00     0.129 C 
HETATM   24  C17 UNL     1      -4.981   2.448  16.017  1.00  0.00     0.148 C 
HETATM   25  C15 UNL     1      -5.860   4.624  15.868  1.00  0.00     0.041 C 
HETATM   26  C16 UNL     1      -5.156   3.684  16.833  1.00  0.00     0.102 C 
HETATM   27 CL1  UNL     1      -6.186   3.466  18.248  1.00  0.00    -0.123 Cl
ENDBRANCH  19  20
ENDBRANCH  18  19
ENDBRANCH   3  18
TORSDOF 5
ENDMDL
MODEL 4
REMARK VINA RESULT: -7.685865392      1.902      2.516
REMARK  5 active torsions:
REMARK  status: ('A' for Active; 'I' for Inactive)
REMARK    1  A    between atoms: C1_2  and  C2_4 
REMARK    2  A    between atoms: C10_12  and  N2_13 
REMARK       I    between atoms: N2_13  and  C11_15 
REMARK    3  A    between atoms: C11_15  and  C12_17 
REMARK    4  A    between atoms: C12_17  and  O3_18 
REMARK    5  A    between atoms: O3_18  and  C13_19 
REMARK       I    between atoms: C13_19  and  N3_21 
ROOT
HETATM    1  N2  UNL     1      -3.129   3.577  11.575  1.00  0.00    -0.353 N 
ATOM      2  H2  UNL     1      -2.925   3.796  12.549  1.00  0.00     0.163 HD
HETATM    3  C11 UNL     1      -3.814   2.359  11.278  1.00  0.00     0.242 C 
HETATM    4  O2  UNL     1      -4.091   2.035  10.109  1.00  0.00    -0.271 OA
ENDROOT
BRANCH   1   5
HETATM    5  C10 UNL     1      -2.714   4.511  10.557  1.00  0.00     0.106 C 
HETATM    6  C2  UNL     1      -3.009   5.910  10.985  1.00  0.00     0.060 C 
HETATM    7  C3  UNL     1      -2.256   6.218  12.249  1.00  0.00     0.025 C 
HETATM    8  C18 UNL     1      -2.598   6.936   9.954  1.00  0.00     0.025 C 
HETATM    9  C4  UNL     1      -0.788   5.994  12.007  1.00  0.00    -0.013 C 
HETATM   10  C5  UNL     1      -0.301   6.979  10.939  1.00  0.00     0.009 C 
HETATM   11  C9  UNL     1      -0.463   4.621  11.504  1.00  0.00     0.011 C 
HETATM   12  C6  UNL     1      -1.124   6.778   9.705  1.00  0.00    -0.013 C 
HETATM   13  C7  UNL     1      -0.893   5.371   9.188  1.00  0.00     0.011 C 
HETATM   14  C8  UNL     1      -1.224   4.366  10.249  1.00  0.00     0.010 C 
BRANCH   6  15
HETATM   15  C1  UNL     1      -4.474   6.056  11.183  1.00  0.00     0.241 C 
HETATM   16  N1  UNL     1      -4.967   7.188  11.881  1.00  0.00    -0.061 NA
HETATM   17  O1  UNL     1      -5.284   5.192  10.740  1.00  0.00    -0.276 OA
ENDBRANCH   6  15
ENDBRANCH   1   5
BRANCH   3  18
HETATM   18  C12 UNL     1      -4.186   1.492  12.406  1.00  0.00     0.283 C 
BRANCH  18  19
HETATM   19  O3  UNL     1      -3.778   1.910  13.659  1.00  0.00    -0.295 OA
BRANCH  19  20
HETATM   20  C13 UNL     1      -4.533   2.067  14.787  1.00  0.00     0.363 C 
HETATM   21  O4  UNL     1      -4.807   1.034  15.450  1.00  0.00    -0.238 OA
HETATM   22  N3  UNL     1      -5.030   3.326  15.257  1.00  0.00    -0.327 N 
HETATM   23  C14 UNL     1      -4.753   4.559  14.544  1.00  0.00     0.129 C 
HETATM   24  C17 UNL     1      -5.828   3.582  16.426  1.00  0.00     0.148 C 
HETATM   25  C15 UNL     1      -5.856   5.489  15.050  1.00  0.00     0.041 C 
HETATM   26  C16 UNL     1      -5.927   5.068  16.508  1.00  0.00     0.102 C 
HETATM   27 CL1  UNL     1      -7.450   5.647  17.180  1.00  0.00    -0.123 Cl
ENDBRANCH  19  20
ENDBRANCH  18  19
ENDBRANCH   3  18
TORSDOF 5
ENDMDL
MODEL 5
REMARK VINA RESULT: -7.634103094      3.270      5.981
REMARK  5 active torsions:
REMARK  status: ('A' for Active; 'I' for Inactive)
REMARK    1  A    between atoms: C1_2  and  C2_4 
REMARK    2  A    between atoms: C10_12  and  N2_13 
REMARK       I    between atoms: N2_13  and  C11_15 
REMARK    3  A    between atoms: C11_15  and  C12_17 
REMARK    4  A    between atoms: C12_17  and  O3_18 
REMARK    5  A    between atoms: O3_18  and  C13_19 
REMARK       I    between atoms: C13_19  and  N3_21 
ROOT
HETATM    1  N2  UNL     1      -3.108   4.215  12.514  1.00  0.00    -0.353 N 
ATOM      2  H2  UNL     1      -2.239   4.211  13.047  1.00  0.00     0.163 HD
HETATM    3  C11 UNL     1      -3.144   3.534  11.260  1.00  0.00     0.242 C 
HETATM    4  O2  UNL     1      -4.175   3.504  10.563  1.00  0.00    -0.271 OA
ENDROOT
BRANCH   1   5
HETATM    5  C10 UNL     1      -4.248   4.910  13.062  1.00  0.00     0.106 C 
HETATM    6  C2  UNL     1      -4.206   4.880  14.554  1.00  0.00     0.060 C 
HETATM    7  C3  UNL     1      -2.955   5.563  15.035  1.00  0.00     0.025 C 
HETATM    8  C18 UNL     1      -5.379   5.592  15.186  1.00  0.00     0.025 C 
HETATM    9  C4  UNL     1      -2.928   6.966  14.493  1.00  0.00    -0.013 C 
HETATM   10  C5  UNL     1      -4.117   7.746  15.063  1.00  0.00     0.009 C 
HETATM   11  C9  UNL     1      -3.044   7.037  13.001  1.00  0.00     0.011 C 
HETATM   12  C6  UNL     1      -5.373   7.015  14.703  1.00  0.00    -0.013 C 
HETATM   13  C7  UNL     1      -5.508   6.989  13.192  1.00  0.00     0.011 C 
HETATM   14  C8  UNL     1      -4.299   6.358  12.573  1.00  0.00     0.010 C 
BRANCH   6  15
HETATM   15  C1  UNL     1      -4.257   3.467  15.010  1.00  0.00     0.241 C 
HETATM   16  N1  UNL     1      -3.645   3.117  16.241  1.00  0.00    -0.061 NA
HETATM   17  O1  UNL     1      -4.835   2.577  14.323  1.00  0.00    -0.276 OA
ENDBRANCH   6  15
ENDBRANCH   1   5
BRANCH   3  18
HETATM   18  C12 UNL     1      -1.916   2.860  10.812  1.00  0.00     0.283 C 
BRANCH  18  19
HETATM   19  O3  UNL     1      -0.827   3.677  10.565  1.00  0.00    -0.295 OA
BRANCH  19  20
HETATM   20  C13 UNL     1      -0.786   4.838   9.847  1.00  0.00     0.363 C 
HETATM   21  O4  UNL     1      -1.209   4.802   8.662  1.00  0.00    -0.238 OA
HETATM   22  N3  UNL     1      -0.294   6.084  10.354  1.00  0.00    -0.327 N 
HETATM   23  C14 UNL     1       0.209   6.200  11.710  1.00  0.00     0.129 C 
HETATM   24  C17 UNL     1      -0.214   7.348   9.672  1.00  0.00     0.148 C 
HETATM   25  C15 UNL     1       1.075   7.458  11.636  1.00  0.00     0.041 C 
HETATM   26  C16 UNL     1       0.232   8.320  10.711  1.00  0.00     0.102 C 
HETATM   27 CL1  UNL     1       1.247   9.620  10.086  1.00  0.00    -0.123 Cl
ENDBRANCH  19  20
ENDBRANCH  18  19
ENDBRANCH   3  18
TORSDOF 5
ENDMDL
