MODEL 1
REMARK VINA RESULT: -7.896187595      0.000      0.000
REMARK  5 active torsions:
REMARK  status: ('A' for Active; 'I' for Inactive)
REMARK    1  A    between atoms: C2_3  and  C3_4 
REMARK    2  A    between atoms: C3_4  and  N1_5 
REMARK    3  A    between atoms: C6_8  and  N2_9 
REMARK    4  A    between atoms: N2_9  and  C7_11 
REMARK    5  A    between atoms: N4_17  and  C11_19 
ROOT
HETATM    1  C7  UNL     1      -1.711   6.772  13.611  1.00  0.00     0.679 A 
HETATM    2  N3  UNL     1      -2.532   7.835  13.501  1.00  0.00    -0.202 N 
ATOM      3  H3  UNL     1      -2.242   8.676  13.002  1.00  0.00     0.183 HD
HETATM    4  C8  UNL     1      -3.736   7.753  14.066  1.00  0.00     0.110 A 
HETATM    5  C9  UNL     1      -4.183   6.622  14.763  1.00  0.00     0.066 A 
HETATM    6  C10 UNL     1      -3.322   5.549  14.860  1.00  0.00     0.118 A 
HETATM    7  N4  UNL     1      -3.602   4.494  15.451  1.00  0.00    -0.369 N 
ATOM      8  H4  UNL     1      -2.802   3.866  15.378  1.00  0.00     0.161 HD
HETATM    9  N5  UNL     1      -2.093   5.675  14.265  1.00  0.00    -0.177 N 
ATOM     10  H5  UNL     1      -1.441   4.893  14.324  1.00  0.00     0.185 HD
ENDROOT
BRANCH   1  11
HETATM   11  N2  UNL     1      -0.542   6.842  13.066  1.00  0.00    -0.221 N 
ATOM     12  H2  UNL     1       0.245   7.107  13.661  1.00  0.00     0.178 HD
BRANCH  11  13
HETATM   13  C6  UNL     1      -0.276   6.577  11.699  1.00  0.00     0.102 C 
HETATM   14  C5  UNL     1       1.178   6.893  11.328  1.00  0.00     0.056 C 
HETATM   15  C4  UNL     1       1.315   6.799   9.851  1.00  0.00     0.275 C 
HETATM   16  N1  UNL     1       0.861   5.559   9.321  1.00  0.00     0.091 N 
HETATM   17  C17 UNL     1      -0.406   5.091   9.801  1.00  0.00     0.275 C 
HETATM   18  C16 UNL     1      -0.438   5.103  11.311  1.00  0.00     0.056 C 
BRANCH  16  19
HETATM   19  C3  UNL     1       0.980   5.470   7.884  1.00  0.00     0.300 C 
BRANCH  19  20
HETATM   20  C2  UNL     1      -0.281   5.804   7.188  1.00  0.00     0.010 C 
HETATM   21  C1  UNL     1      -0.447   6.964   6.562  1.00  0.00     0.053 C 
HETATM   22 BR1  UNL     1      -2.076   7.402   5.660  1.00  0.00    -0.064 Br
ENDBRANCH  19  20
ENDBRANCH  16  19
ENDBRANCH  11  13
ENDBRANCH   1  11
BRANCH   7  23
HETATM   23  C11 UNL     1      -4.589   3.856  16.166  1.00  0.00     0.107 C 
HETATM   24  C12 UNL     1      -6.023   4.194  15.903  1.00  0.00     0.029 C 
HETATM   25  C13 UNL     1      -6.820   3.640  17.091  1.00  0.00     0.028 C 
HETATM   26  C14 UNL     1      -6.173   2.306  17.432  1.00  0.00     0.167 C 
HETATM   27  O1  UNL     1      -5.657   1.742  16.273  1.00  0.00    -0.389 OA
HETATM   28  C15 UNL     1      -4.467   2.335  15.903  1.00  0.00     0.192 C 
ENDBRANCH   7  23
TORSDOF 5
ENDMDL
MODEL 2
REMARK VINA RESULT: -7.641633825      1.519      1.668
REMARK  5 active torsions:
REMARK  status: ('A' for Active; 'I' for Inactive)
REMARK    1  A    between atoms: C2_3  and  C3_4 
REMARK    2  A    between atoms: C3_4  and  N1_5 
REMARK    3  A    between atoms: C6_8  and  N2_9 
REMARK    4  A    between atoms: N2_9  and  C7_11 
REMARK    5  A    between atoms: N4_17  and  C11_19 
ROOT
HETATM    1  C7  UNL     1      -1.733   6.703  13.405  1.00  0.00     0.679 A 
HETATM    2  N3  UNL     1      -2.537   7.780  13.297  1.00  0.00    -0.202 N 
ATOM      3  H3  UNL     1      -2.248   8.602  12.766  1.00  0.00     0.183 HD
HETATM    4  C8  UNL     1      -3.721   7.736  13.906  1.00  0.00     0.110 A 
HETATM    5  C9  UNL     1      -4.164   6.632  14.646  1.00  0.00     0.066 A 
HETATM    6  C10 UNL     1      -3.322   5.544  14.740  1.00  0.00     0.118 A 
HETATM    7  N4  UNL     1      -3.601   4.510  15.366  1.00  0.00    -0.369 N 
ATOM      8  H4  UNL     1      -2.817   3.863  15.281  1.00  0.00     0.161 HD
HETATM    9  N5  UNL     1      -2.113   5.630  14.098  1.00  0.00    -0.177 N 
ATOM     10  H5  UNL     1      -1.475   4.836  14.154  1.00  0.00     0.185 HD
ENDROOT
BRANCH   1  11
HETATM   11  N2  UNL     1      -0.583   6.736  12.817  1.00  0.00    -0.221 N 
ATOM     12  H2  UNL     1       0.239   6.927  13.391  1.00  0.00     0.178 HD
BRANCH  11  13
HETATM   13  C6  UNL     1      -0.384   6.525  11.429  1.00  0.00     0.102 C 
HETATM   14  C5  UNL     1       1.099   6.603  11.047  1.00  0.00     0.056 C 
HETATM   15  C4  UNL     1       1.201   6.591   9.564  1.00  0.00     0.275 C 
HETATM   16  N1  UNL     1       0.526   5.492   8.962  1.00  0.00     0.091 N 
HETATM   17  C17 UNL     1      -0.799   5.225   9.438  1.00  0.00     0.275 C 
HETATM   18  C16 UNL     1      -0.812   5.135  10.946  1.00  0.00     0.056 C 
BRANCH  16  19
HETATM   19  C3  UNL     1       0.612   5.486   7.519  1.00  0.00     0.300 C 
BRANCH  19  20
HETATM   20  C2  UNL     1       1.952   5.872   7.029  1.00  0.00     0.010 C 
HETATM   21  C1  UNL     1       2.717   5.025   6.348  1.00  0.00     0.053 C 
HETATM   22 BR1  UNL     1       4.452   5.517   5.711  1.00  0.00    -0.064 Br
ENDBRANCH  19  20
ENDBRANCH  16  19
ENDBRANCH  11  13
ENDBRANCH   1  11
BRANCH   7  23
HETATM   23  C11 UNL     1      -4.574   3.910  16.132  1.00  0.00     0.107 C 
HETATM   24  C12 UNL     1      -6.010   4.267  15.907  1.00  0.00     0.029 C 
HETATM   25  C13 UNL     1      -6.777   3.760  17.136  1.00  0.00     0.028 C 
HETATM   26  C14 UNL     1      -6.141   2.424  17.493  1.00  0.00     0.167 C 
HETATM   27  O1  UNL     1      -5.675   1.819  16.333  1.00  0.00    -0.389 OA
HETATM   28  C15 UNL     1      -4.488   2.380  15.907  1.00  0.00     0.192 C 
ENDBRANCH   7  23
TORSDOF 5
ENDMDL
MODEL 3
REMARK VINA RESULT: -7.558188695      3.236      4.382
REMARK  5 active torsions:
REMARK  status: ('A' for Active; 'I' for Inactive)
REMARK    1  A    between atoms: C2_3  and  C3_4 
REMARK    2  A    between atoms: C3_4  and  N1_5 
REMARK    3  A    between atoms: C6_8  and  N2_9 
REMARK    4  A    between atoms: N2_9  and  C7_11 
REMARK    5  A    between atoms: N4_17  and  C11_19 
ROOT
HETATM    1  C7  UNL     1      -2.503   3.324  11.305  1.00  0.00     0.679 A 
HETATM    2  N3  UNL     1      -2.773   2.089  10.838  1.00  0.00    -0.202 N 
ATOM      3  H3  UNL     1      -2.333   1.739   9.987  1.00  0.00     0.183 HD
HETATM    4  C8  UNL     1      -3.634   1.339  11.525  1.00  0.00     0.110 A 
HETATM    5  C9  UNL     1      -4.265   1.772  12.699  1.00  0.00     0.066 A 
HETATM    6  C10 UNL     1      -3.971   3.039  13.153  1.00  0.00     0.118 A 
HETATM    7  N4  UNL     1      -4.465   3.535  14.178  1.00  0.00    -0.369 N 
ATOM      8  H4  UNL     1      -4.087   4.475  14.293  1.00  0.00     0.161 HD
HETATM    9  N5  UNL     1      -3.080   3.778  12.418  1.00  0.00    -0.177 N 
ATOM     10  H5  UNL     1      -2.848   4.719  12.737  1.00  0.00     0.185 HD
ENDROOT
BRANCH   1  11
HETATM   11  N2  UNL     1      -1.669   4.059  10.646  1.00  0.00    -0.221 N 
ATOM     12  H2  UNL     1      -1.186   3.635   9.853  1.00  0.00     0.178 HD
BRANCH  11  13
HETATM   13  C6  UNL     1      -1.379   5.413  10.949  1.00  0.00     0.102 C 
HETATM   14  C5  UNL     1       0.121   5.640  11.169  1.00  0.00     0.056 C 
HETATM   15  C4  UNL     1       0.315   7.018  11.691  1.00  0.00     0.275 C 
HETATM   16  N1  UNL     1      -0.288   8.018  10.877  1.00  0.00     0.091 N 
HETATM   17  C17 UNL     1      -1.630   7.761  10.448  1.00  0.00     0.275 C 
HETATM   18  C16 UNL     1      -1.733   6.390   9.822  1.00  0.00     0.056 C 
BRANCH  16  19
HETATM   19  C3  UNL     1      -0.113   9.358  11.390  1.00  0.00     0.300 C 
BRANCH  19  20
HETATM   20  C2  UNL     1      -0.395   9.453  12.838  1.00  0.00     0.010 C 
HETATM   21  C1  UNL     1      -1.383  10.206  13.309  1.00  0.00     0.053 C 
HETATM   22 BR1  UNL     1      -1.753  10.333  15.181  1.00  0.00    -0.064 Br
ENDBRANCH  19  20
ENDBRANCH  16  19
ENDBRANCH  11  13
ENDBRANCH   1  11
BRANCH   7  23
HETATM   23  C11 UNL     1      -5.332   3.289  15.218  1.00  0.00     0.107 C 
HETATM   24  C12 UNL     1      -4.787   2.862  16.544  1.00  0.00     0.029 C 
HETATM   25  C13 UNL     1      -5.973   2.297  17.336  1.00  0.00     0.028 C 
HETATM   26  C14 UNL     1      -7.154   3.197  17.004  1.00  0.00     0.167 C 
HETATM   27  O1  UNL     1      -6.688   4.482  16.754  1.00  0.00    -0.389 OA
HETATM   28  C15 UNL     1      -6.130   4.587  15.496  1.00  0.00     0.192 C 
ENDBRANCH   7  23
TORSDOF 5
ENDMDL
MODEL 4
REMARK VINA RESULT: -7.373502058      3.158      4.305
REMARK  5 active torsions:
REMARK  status: ('A' for Active; 'I' for Inactive)
REMARK    1  A    between atoms: C2_3  and  C3_4 
REMARK    2  A    between atoms: C3_4  and  N1_5 
REMARK    3  A    between atoms: C6_8  and  N2_9 
REMARK    4  A    between atoms: N2_9  and  C7_11 
REMARK    5  A    between atoms: N4_17  and  C11_19 
ROOT
HETATM    1  C7  UNL     1      -2.427   3.187  11.153  1.00  0.00     0.679 A 
HETATM    2  N3  UNL     1      -2.756   1.934  10.780  1.00  0.00    -0.202 N 
ATOM      3  H3  UNL     1      -2.345   1.507   9.950  1.00  0.00     0.183 HD
HETATM    4  C8  UNL     1      -3.635   1.272  11.531  1.00  0.00     0.110 A 
HETATM    5  C9  UNL     1      -4.227   1.813  12.679  1.00  0.00     0.066 A 
HETATM    6  C10 UNL     1      -3.873   3.096  13.038  1.00  0.00     0.118 A 
HETATM    7  N4  UNL     1      -4.329   3.683  14.032  1.00  0.00    -0.369 N 
ATOM      8  H4  UNL     1      -3.911   4.612  14.074  1.00  0.00     0.161 HD
HETATM    9  N5  UNL     1      -2.965   3.743  12.239  1.00  0.00    -0.177 N 
ATOM     10  H5  UNL     1      -2.689   4.693  12.487  1.00  0.00     0.185 HD
ENDROOT
BRANCH   1  11
HETATM   11  N2  UNL     1      -1.575   3.838  10.432  1.00  0.00    -0.221 N 
ATOM     12  H2  UNL     1      -1.463   3.554   9.458  1.00  0.00     0.178 HD
BRANCH  11  13
HETATM   13  C6  UNL     1      -0.785   4.918  10.901  1.00  0.00     0.102 C 
HETATM   14  C5  UNL     1       0.500   5.082  10.082  1.00  0.00     0.056 C 
HETATM   15  C4  UNL     1       1.366   6.080  10.764  1.00  0.00     0.275 C 
HETATM   16  N1  UNL     1       0.706   7.315  11.021  1.00  0.00     0.091 N 
HETATM   17  C17 UNL     1      -0.608   7.225  11.587  1.00  0.00     0.275 C 
HETATM   18  C16 UNL     1      -1.470   6.284  10.780  1.00  0.00     0.056 C 
BRANCH  16  19
HETATM   19  C3  UNL     1       1.540   8.283  11.696  1.00  0.00     0.300 C 
BRANCH  19  20
HETATM   20  C2  UNL     1       0.752   9.320  12.397  1.00  0.00     0.010 C 
HETATM   21  C1  UNL     1       1.337  10.309  13.063  1.00  0.00     0.053 C 
HETATM   22 BR1  UNL     1       0.325  11.653  13.972  1.00  0.00    -0.064 Br
ENDBRANCH  19  20
ENDBRANCH  16  19
ENDBRANCH  11  13
ENDBRANCH   1  11
BRANCH   7  23
HETATM   23  C11 UNL     1      -5.187   3.548  15.098  1.00  0.00     0.107 C 
HETATM   24  C12 UNL     1      -4.627   3.366  16.474  1.00  0.00     0.029 C 
HETATM   25  C13 UNL     1      -5.783   2.858  17.346  1.00  0.00     0.028 C 
HETATM   26  C14 UNL     1      -7.013   3.622  16.880  1.00  0.00     0.167 C 
HETATM   27  O1  UNL     1      -6.625   4.879  16.434  1.00  0.00    -0.389 OA
HETATM   28  C15 UNL     1      -6.064   4.822  15.174  1.00  0.00     0.192 C 
ENDBRANCH   7  23
TORSDOF 5
ENDMDL
MODEL 5
REMARK VINA RESULT: -7.360808410      4.436      5.559
REMARK  5 active torsions:
REMARK  status: ('A' for Active; 'I' for Inactive)
REMARK    1  A    between atoms: C2_3  and  C3_4 
REMARK    2  A    between atoms: C3_4  and  N1_5 
REMARK    3  A    between atoms: C6_8  and  N2_9 
REMARK    4  A    between atoms: N2_9  and  C7_11 
REMARK    5  A    between atoms: N4_17  and  C11_19 
ROOT
HETATM    1  C7  UNL     1      -3.792   7.880  13.013  1.00  0.00     0.679 A 
HETATM    2  N3  UNL     1      -2.474   7.685  13.215  1.00  0.00    -0.202 N 
ATOM      3  H3  UNL     1      -1.777   8.253  12.733  1.00  0.00     0.183 HD
HETATM    4  C8  UNL     1      -2.110   6.726  14.066  1.00  0.00     0.110 A 
HETATM    5  C9  UNL     1      -3.027   5.919  14.752  1.00  0.00     0.066 A 
HETATM    6  C10 UNL     1      -4.369   6.140  14.526  1.00  0.00     0.118 A 
HETATM    7  N4  UNL     1      -5.275   5.492  15.074  1.00  0.00    -0.369 N 
ATOM      8  H4  UNL     1      -6.170   5.849  14.739  1.00  0.00     0.161 HD
HETATM    9  N5  UNL     1      -4.700   7.137  13.644  1.00  0.00    -0.177 N 
ATOM     10  H5  UNL     1      -5.688   7.318  13.464  1.00  0.00     0.185 HD
ENDROOT
BRANCH   1  11
HETATM   11  N2  UNL     1      -4.154   8.809  12.191  1.00  0.00    -0.221 N 
ATOM     12  H2  UNL     1      -3.700   9.719  12.272  1.00  0.00     0.178 HD
BRANCH  11  13
HETATM   13  C6  UNL     1      -5.139   8.650  11.184  1.00  0.00     0.102 C 
HETATM   14  C5  UNL     1      -6.296   9.641  11.355  1.00  0.00     0.056 C 
HETATM   15  C4  UNL     1      -7.377   9.269  10.405  1.00  0.00     0.275 C 
HETATM   16  N1  UNL     1      -6.929   9.161   9.058  1.00  0.00     0.091 N 
HETATM   17  C17 UNL     1      -5.717   8.425   8.851  1.00  0.00     0.275 C 
HETATM   18  C16 UNL     1      -4.628   8.930   9.767  1.00  0.00     0.056 C 
BRANCH  16  19
HETATM   19  C3  UNL     1      -7.975   8.785   8.134  1.00  0.00     0.300 C 
BRANCH  19  20
HETATM   20  C2  UNL     1      -9.088   9.758   8.111  1.00  0.00     0.010 C 
HETATM   21  C1  UNL     1      -9.080  10.810   7.300  1.00  0.00     0.053 C 
HETATM   22 BR1  UNL     1     -10.516  12.072   7.266  1.00  0.00    -0.064 Br
ENDBRANCH  19  20
ENDBRANCH  16  19
ENDBRANCH  11  13
ENDBRANCH   1  11
BRANCH   7  23
HETATM   23  C11 UNL     1      -5.523   4.472  15.963  1.00  0.00     0.107 C 
HETATM   24  C12 UNL     1      -6.913   4.269  16.479  1.00  0.00     0.029 C 
HETATM   25  C13 UNL     1      -6.787   3.357  17.706  1.00  0.00     0.028 C 
HETATM   26  C14 UNL     1      -5.713   2.339  17.353  1.00  0.00     0.167 C 
HETATM   27  O1  UNL     1      -5.738   2.111  15.983  1.00  0.00    -0.389 OA
HETATM   28  C15 UNL     1      -5.134   3.136  15.284  1.00  0.00     0.192 C 
ENDBRANCH   7  23
TORSDOF 5
ENDMDL
