MODEL 1
REMARK VINA RESULT: -7.595974928      0.000      0.000
REMARK  6 active torsions:
REMARK  status: ('A' for Active; 'I' for Inactive)
REMARK    1  A    between atoms: C2_2  and  C3_3 
REMARK    2  A    between atoms: C3_3  and  C4_4 
REMARK    3  A    between atoms: C4_4  and  N1_5 
REMARK    4  A    between atoms: C4_4  and  C5_9 
REMARK    5  A    between atoms: C5_9  and  C6_10 
REMARK       I    between atoms: C6_10  and  N2_12 
REMARK       I    between atoms: N3_23  and  C15_24 
REMARK       I    between atoms: C15_24  and  N4_26 
REMARK    6  A    between atoms: N4_26  and  C16_28 
ROOT
HETATM    1  C6  UNL     1      -4.784   4.363  12.880  1.00  0.00     0.221 C 
HETATM    2  O1  UNL     1      -5.638   4.412  13.787  1.00  0.00    -0.273 OA
HETATM    3  N2  UNL     1      -3.862   5.405  12.738  1.00  0.00    -0.347 N 
HETATM    4  C7  UNL     1      -2.866   5.368  11.699  1.00  0.00     0.126 C 
HETATM    5  C8  UNL     1      -1.571   5.759  12.393  1.00  0.00     0.025 C 
HETATM    6  C9  UNL     1      -1.670   7.214  12.753  1.00  0.00     0.065 C 
HETATM    7  C10 UNL     1      -3.002   7.677  13.275  1.00  0.00     0.158 C 
HETATM    8  C11 UNL     1      -3.861   6.523  13.635  1.00  0.00     0.187 C 
HETATM    9  O2  UNL     1      -2.740   8.332  14.499  1.00  0.00    -0.359 OA
HETATM   10  C12 UNL     1      -1.810   9.302  14.474  1.00  0.00     0.175 C 
HETATM   11  C13 UNL     1      -1.623  10.043  13.206  1.00  0.00     0.085 C 
HETATM   12  C14 UNL     1      -2.741   9.884  12.219  1.00  0.00     0.280 C 
HETATM   13  F1  UNL     1      -2.274   9.943  10.918  1.00  0.00    -0.227 F 
HETATM   14  N3  UNL     1      -3.572   8.706  12.451  1.00  0.00    -0.268 N 
HETATM   15  C15 UNL     1      -4.842   8.664  11.860  1.00  0.00     0.323 C 
HETATM   16  O3  UNL     1      -5.667   7.691  11.999  1.00  0.00    -0.247 OA
HETATM   17  N4  UNL     1      -5.298   9.741  11.045  1.00  0.00    -0.335 N 
ATOM     18  H4  UNL     1      -4.675  10.537  10.905  1.00  0.00     0.165 HD
ENDROOT
BRANCH   1  19
HETATM   19  C5  UNL     1      -4.761   3.206  11.970  1.00  0.00     0.135 C 
BRANCH  19  20
HETATM   20  C4  UNL     1      -3.968   2.046  12.452  1.00  0.00     0.192 C 
BRANCH  20  21
HETATM   21  C3  UNL     1      -4.277   0.729  11.821  1.00  0.00     0.033 C 
BRANCH  21  22
HETATM   22  C2  UNL     1      -2.978   0.087  11.320  1.00  0.00    -0.002 C 
HETATM   23  C1  UNL     1      -3.073  -1.409  11.371  1.00  0.00     0.005 C 
ENDBRANCH  21  22
ENDBRANCH  20  21
BRANCH  20  24
HETATM   24  N1  UNL     1      -4.198   1.867  13.896  1.00  0.00    -0.075 N 
ATOM     25  H13 UNL     1      -3.679   2.527  14.476  1.00  0.00     0.274 HD
ATOM     26  H12 UNL     1      -5.132   2.147  14.196  1.00  0.00     0.274 HD
ATOM     27  H11 UNL     1      -3.981   0.891  14.096  1.00  0.00     0.274 HD
ENDBRANCH  20  24
ENDBRANCH  19  20
ENDBRANCH   1  19
BRANCH  17  28
HETATM   28  C16 UNL     1      -6.593   9.767  10.407  1.00  0.00     0.023 C 
HETATM   29  C17 UNL     1      -6.822  11.071   9.670  1.00  0.00     0.037 C 
HETATM   30  C18 UNL     1      -7.670   9.726  11.491  1.00  0.00     0.037 C 
HETATM   31  C19 UNL     1      -6.797   8.656   9.432  1.00  0.00     0.037 C 
ENDBRANCH  17  28
TORSDOF 6
ENDMDL
MODEL 2
REMARK VINA RESULT: -7.571219092      2.952      5.794
REMARK  6 active torsions:
REMARK  status: ('A' for Active; 'I' for Inactive)
REMARK    1  A    between atoms: C2_2  and  C3_3 
REMARK    2  A    between atoms: C3_3  and  C4_4 
REMARK    3  A    between atoms: C4_4  and  N1_5 
REMARK    4  A    between atoms: C4_4  and  C5_9 
REMARK    5  A    between atoms: C5_9  and  C6_10 
REMARK       I    between atoms: C6_10  and  N2_12 
REMARK       I    between atoms: N3_23  and  C15_24 
REMARK       I    between atoms: C15_24  and  N4_26 
REMARK    6  A    between atoms: N4_26  and  C16_28 
ROOT
HETATM    1  C6  UNL     1      -5.374   7.071  13.949  1.00  0.00     0.221 C 
HETATM    2  O1  UNL     1      -6.229   7.300  13.071  1.00  0.00    -0.273 OA
HETATM    3  N2  UNL     1      -4.039   6.874  13.584  1.00  0.00    -0.347 N 
HETATM    4  C7  UNL     1      -3.036   6.609  14.582  1.00  0.00     0.126 C 
HETATM    5  C8  UNL     1      -1.877   7.522  14.213  1.00  0.00     0.025 C 
HETATM    6  C9  UNL     1      -1.273   6.999  12.941  1.00  0.00     0.065 C 
HETATM    7  C10 UNL     1      -2.244   6.516  11.898  1.00  0.00     0.158 C 
HETATM    8  C11 UNL     1      -3.624   6.956  12.214  1.00  0.00     0.187 C 
HETATM    9  O2  UNL     1      -1.909   7.191  10.705  1.00  0.00    -0.359 OA
HETATM   10  C12 UNL     1      -0.625   7.119  10.312  1.00  0.00     0.175 C 
HETATM   11  C13 UNL     1       0.145   5.915  10.698  1.00  0.00     0.085 C 
HETATM   12  C14 UNL     1      -0.693   4.757  11.152  1.00  0.00     0.280 C 
HETATM   13  F1  UNL     1      -0.036   4.006  12.109  1.00  0.00    -0.227 F 
HETATM   14  N3  UNL     1      -2.039   5.130  11.577  1.00  0.00    -0.268 N 
HETATM   15  C15 UNL     1      -3.017   4.128  11.643  1.00  0.00     0.323 C 
HETATM   16  O3  UNL     1      -4.234   4.333  11.990  1.00  0.00    -0.247 OA
HETATM   17  N4  UNL     1      -2.693   2.778  11.315  1.00  0.00    -0.335 N 
ATOM     18  H4  UNL     1      -1.735   2.567  11.034  1.00  0.00     0.165 HD
ENDROOT
BRANCH   1  19
HETATM   19  C5  UNL     1      -5.787   7.010  15.361  1.00  0.00     0.135 C 
BRANCH  19  20
HETATM   20  C4  UNL     1      -6.730   5.910  15.691  1.00  0.00     0.192 C 
BRANCH  20  21
HETATM   21  C3  UNL     1      -6.738   5.453  17.112  1.00  0.00     0.033 C 
BRANCH  21  22
HETATM   22  C2  UNL     1      -7.009   3.945  17.159  1.00  0.00    -0.002 C 
HETATM   23  C1  UNL     1      -6.051   3.264  18.092  1.00  0.00     0.005 C 
ENDBRANCH  21  22
ENDBRANCH  20  21
BRANCH  20  24
HETATM   24  N1  UNL     1      -6.393   4.724  14.885  1.00  0.00    -0.075 N 
ATOM     25  H13 UNL     1      -5.415   4.444  14.962  1.00  0.00     0.274 HD
ATOM     26  H12 UNL     1      -6.797   3.859  15.245  1.00  0.00     0.274 HD
ATOM     27  H11 UNL     1      -6.680   4.942  13.931  1.00  0.00     0.274 HD
ENDBRANCH  20  24
ENDBRANCH  19  20
ENDBRANCH   1  19
BRANCH  17  28
HETATM   28  C16 UNL     1      -3.647   1.696  11.359  1.00  0.00     0.023 C 
HETATM   29  C17 UNL     1      -4.239   1.534  12.744  1.00  0.00     0.037 C 
HETATM   30  C18 UNL     1      -2.908   0.386  11.084  1.00  0.00     0.037 C 
HETATM   31  C19 UNL     1      -4.779   1.862  10.401  1.00  0.00     0.037 C 
ENDBRANCH  17  28
TORSDOF 6
ENDMDL
MODEL 3
REMARK VINA RESULT: -7.286927931      3.369      7.096
REMARK  6 active torsions:
REMARK  status: ('A' for Active; 'I' for Inactive)
REMARK    1  A    between atoms: C2_2  and  C3_3 
REMARK    2  A    between atoms: C3_3  and  C4_4 
REMARK    3  A    between atoms: C4_4  and  N1_5 
REMARK    4  A    between atoms: C4_4  and  C5_9 
REMARK    5  A    between atoms: C5_9  and  C6_10 
REMARK       I    between atoms: C6_10  and  N2_12 
REMARK       I    between atoms: N3_23  and  C15_24 
REMARK       I    between atoms: C15_24  and  N4_26 
REMARK    6  A    between atoms: N4_26  and  C16_28 
ROOT
HETATM    1  C6  UNL     1      -2.338   6.705  11.381  1.00  0.00     0.221 C 
HETATM    2  O1  UNL     1      -3.349   7.370  11.080  1.00  0.00    -0.273 OA
HETATM    3  N2  UNL     1      -2.383   5.309  11.320  1.00  0.00    -0.347 N 
HETATM    4  C7  UNL     1      -1.227   4.522  11.662  1.00  0.00     0.126 C 
HETATM    5  C8  UNL     1      -1.123   3.490  10.551  1.00  0.00     0.025 C 
HETATM    6  C9  UNL     1      -2.272   2.536  10.706  1.00  0.00     0.065 C 
HETATM    7  C10 UNL     1      -3.595   3.150  11.074  1.00  0.00     0.158 C 
HETATM    8  C11 UNL     1      -3.566   4.622  10.893  1.00  0.00     0.187 C 
HETATM    9  O2  UNL     1      -4.525   2.684  10.119  1.00  0.00    -0.359 OA
HETATM   10  C12 UNL     1      -4.587   1.353   9.939  1.00  0.00     0.175 C 
HETATM   11  C13 UNL     1      -4.239   0.487  11.089  1.00  0.00     0.085 C 
HETATM   12  C14 UNL     1      -4.226   1.186  12.416  1.00  0.00     0.280 C 
HETATM   13  F1  UNL     1      -3.282   0.636  13.264  1.00  0.00    -0.227 F 
HETATM   14  N3  UNL     1      -4.095   2.637  12.319  1.00  0.00    -0.268 N 
HETATM   15  C15 UNL     1      -4.458   3.412  13.430  1.00  0.00     0.323 C 
HETATM   16  O3  UNL     1      -4.399   4.693  13.463  1.00  0.00    -0.247 OA
HETATM   17  N4  UNL     1      -4.928   2.790  14.624  1.00  0.00    -0.335 N 
ATOM     18  H4  UNL     1      -4.991   1.772  14.645  1.00  0.00     0.165 HD
ENDROOT
BRANCH   1  19
HETATM   19  C5  UNL     1      -1.111   7.403  11.797  1.00  0.00     0.135 C 
BRANCH  19  20
HETATM   20  C4  UNL     1      -1.244   8.226  13.028  1.00  0.00     0.192 C 
BRANCH  20  21
HETATM   21  C3  UNL     1      -1.950   7.583  14.175  1.00  0.00     0.033 C 
BRANCH  21  22
HETATM   22  C2  UNL     1      -3.126   8.467  14.608  1.00  0.00    -0.002 C 
HETATM   23  C1  UNL     1      -4.319   7.627  14.955  1.00  0.00     0.005 C 
ENDBRANCH  21  22
ENDBRANCH  20  21
BRANCH  20  24
HETATM   24  N1  UNL     1      -2.008   9.446  12.714  1.00  0.00    -0.075 N 
ATOM     25  H13 UNL     1      -3.015   9.292  12.653  1.00  0.00     0.274 HD
ATOM     26  H12 UNL     1      -2.032  10.119  13.481  1.00  0.00     0.274 HD
ATOM     27  H11 UNL     1      -1.600   9.820  11.857  1.00  0.00     0.274 HD
ENDBRANCH  20  24
ENDBRANCH  19  20
ENDBRANCH   1  19
BRANCH  17  28
HETATM   28  C16 UNL     1      -5.320   3.523  15.804  1.00  0.00     0.023 C 
HETATM   29  C17 UNL     1      -4.130   4.190  16.464  1.00  0.00     0.037 C 
HETATM   30  C18 UNL     1      -5.848   2.530  16.840  1.00  0.00     0.037 C 
HETATM   31  C19 UNL     1      -6.339   4.581  15.536  1.00  0.00     0.037 C 
ENDBRANCH  17  28
TORSDOF 6
ENDMDL
MODEL 4
REMARK VINA RESULT: -7.190768036      3.002      7.219
REMARK  6 active torsions:
REMARK  status: ('A' for Active; 'I' for Inactive)
REMARK    1  A    between atoms: C2_2  and  C3_3 
REMARK    2  A    between atoms: C3_3  and  C4_4 
REMARK    3  A    between atoms: C4_4  and  N1_5 
REMARK    4  A    between atoms: C4_4  and  C5_9 
REMARK    5  A    between atoms: C5_9  and  C6_10 
REMARK       I    between atoms: C6_10  and  N2_12 
REMARK       I    between atoms: N3_23  and  C15_24 
REMARK       I    between atoms: C15_24  and  N4_26 
REMARK    6  A    between atoms: N4_26  and  C16_28 
ROOT
HETATM    1  C6  UNL     1      -3.487   7.427  11.874  1.00  0.00     0.221 C 
HETATM    2  O1  UNL     1      -4.571   7.887  11.463  1.00  0.00    -0.273 OA
HETATM    3  N2  UNL     1      -3.275   6.045  11.872  1.00  0.00    -0.347 N 
HETATM    4  C7  UNL     1      -2.031   5.493  12.341  1.00  0.00     0.126 C 
HETATM    5  C8  UNL     1      -1.646   4.465  11.289  1.00  0.00     0.025 C 
HETATM    6  C9  UNL     1      -2.615   3.323  11.393  1.00  0.00     0.065 C 
HETATM    7  C10 UNL     1      -4.054   3.695  11.625  1.00  0.00     0.158 C 
HETATM    8  C11 UNL     1      -4.273   5.141  11.382  1.00  0.00     0.187 C 
HETATM    9  O2  UNL     1      -4.798   3.039  10.620  1.00  0.00    -0.359 OA
HETATM   10  C12 UNL     1      -4.604   1.715  10.495  1.00  0.00     0.175 C 
HETATM   11  C13 UNL     1      -4.208   0.961  11.706  1.00  0.00     0.085 C 
HETATM   12  C14 UNL     1      -4.436   1.689  12.998  1.00  0.00     0.280 C 
HETATM   13  F1  UNL     1      -3.487   1.345  13.943  1.00  0.00    -0.227 F 
HETATM   14  N3  UNL     1      -4.561   3.136  12.848  1.00  0.00    -0.268 N 
HETATM   15  C15 UNL     1      -5.152   3.863  13.889  1.00  0.00     0.323 C 
HETATM   16  O3  UNL     1      -5.328   5.134  13.870  1.00  0.00    -0.247 OA
HETATM   17  N4  UNL     1      -5.606   3.201  15.068  1.00  0.00    -0.335 N 
ATOM     18  H4  UNL     1      -5.486   2.190  15.129  1.00  0.00     0.165 HD
ENDROOT
BRANCH   1  19
HETATM   19  C5  UNL     1      -2.446   8.350  12.356  1.00  0.00     0.135 C 
BRANCH  19  20
HETATM   20  C4  UNL     1      -2.719   8.964  13.682  1.00  0.00     0.192 C 
BRANCH  20  21
HETATM   21  C3  UNL     1      -1.531   9.210  14.551  1.00  0.00     0.033 C 
BRANCH  21  22
HETATM   22  C2  UNL     1      -1.829  10.376  15.501  1.00  0.00    -0.002 C 
HETATM   23  C1  UNL     1      -1.842  11.677  14.754  1.00  0.00     0.005 C 
ENDBRANCH  21  22
ENDBRANCH  20  21
BRANCH  20  24
HETATM   24  N1  UNL     1      -3.609   8.078  14.453  1.00  0.00    -0.075 N 
ATOM     25  H13 UNL     1      -3.239   7.134  14.573  1.00  0.00     0.274 HD
ATOM     26  H12 UNL     1      -3.662   8.317  15.443  1.00  0.00     0.274 HD
ATOM     27  H11 UNL     1      -4.511   8.104  13.978  1.00  0.00     0.274 HD
ENDBRANCH  20  24
ENDBRANCH  19  20
ENDBRANCH   1  19
BRANCH  17  28
HETATM   28  C16 UNL     1      -6.225   3.884  16.179  1.00  0.00     0.023 C 
HETATM   29  C17 UNL     1      -5.320   3.900  17.394  1.00  0.00     0.037 C 
HETATM   30  C18 UNL     1      -7.459   3.091  16.610  1.00  0.00     0.037 C 
HETATM   31  C19 UNL     1      -6.598   5.297  15.875  1.00  0.00     0.037 C 
ENDBRANCH  17  28
TORSDOF 6
ENDMDL
MODEL 5
REMARK VINA RESULT: -7.135597839      3.137      6.621
REMARK  6 active torsions:
REMARK  status: ('A' for Active; 'I' for Inactive)
REMARK    1  A    between atoms: C2_2  and  C3_3 
REMARK    2  A    between atoms: C3_3  and  C4_4 
REMARK    3  A    between atoms: C4_4  and  N1_5 
REMARK    4  A    between atoms: C4_4  and  C5_9 
REMARK    5  A    between atoms: C5_9  and  C6_10 
REMARK       I    between atoms: C6_10  and  N2_12 
REMARK       I    between atoms: N3_23  and  C15_24 
REMARK       I    between atoms: C15_24  and  N4_26 
REMARK    6  A    between atoms: N4_26  and  C16_28 
ROOT
HETATM    1  C6  UNL     1      -1.705   7.140  10.445  1.00  0.00     0.221 C 
HETATM    2  O1  UNL     1      -2.535   7.728   9.723  1.00  0.00    -0.273 OA
HETATM    3  N2  UNL     1      -1.953   5.828  10.859  1.00  0.00    -0.347 N 
HETATM    4  C7  UNL     1      -1.009   5.130  11.692  1.00  0.00     0.126 C 
HETATM    5  C8  UNL     1      -0.873   3.757  11.052  1.00  0.00     0.025 C 
HETATM    6  C9  UNL     1      -2.164   3.023  11.271  1.00  0.00     0.065 C 
HETATM    7  C10 UNL     1      -3.421   3.834  11.110  1.00  0.00     0.158 C 
HETATM    8  C11 UNL     1      -3.135   5.130  10.447  1.00  0.00     0.187 C 
HETATM    9  O2  UNL     1      -4.233   3.128  10.196  1.00  0.00    -0.359 OA
HETATM   10  C12 UNL     1      -4.466   1.833  10.474  1.00  0.00     0.175 C 
HETATM   11  C13 UNL     1      -4.459   1.424  11.897  1.00  0.00     0.085 C 
HETATM   12  C14 UNL     1      -4.569   2.558  12.873  1.00  0.00     0.280 C 
HETATM   13  F1  UNL     1      -3.882   2.282  14.042  1.00  0.00    -0.227 F 
HETATM   14  N3  UNL     1      -4.202   3.857  12.316  1.00  0.00    -0.268 N 
HETATM   15  C15 UNL     1      -4.628   5.011  12.987  1.00  0.00     0.323 C 
HETATM   16  O3  UNL     1      -4.381   6.206  12.591  1.00  0.00    -0.247 OA
HETATM   17  N4  UNL     1      -5.388   4.910  14.190  1.00  0.00    -0.335 N 
ATOM     18  H4  UNL     1      -5.609   3.980  14.544  1.00  0.00     0.165 HD
ENDROOT
BRANCH   1  19
HETATM   19  C5  UNL     1      -0.476   7.840  10.852  1.00  0.00     0.135 C 
BRANCH  19  20
HETATM   20  C4  UNL     1      -0.663   8.875  11.903  1.00  0.00     0.192 C 
BRANCH  20  21
HETATM   21  C3  UNL     1      -1.301   8.416  13.172  1.00  0.00     0.033 C 
BRANCH  21  22
HETATM   22  C2  UNL     1      -2.340   9.449  13.621  1.00  0.00    -0.002 C 
HETATM   23  C1  UNL     1      -2.066   9.900  15.026  1.00  0.00     0.005 C 
ENDBRANCH  21  22
ENDBRANCH  20  21
BRANCH  20  24
HETATM   24  N1  UNL     1      -1.528   9.946  11.379  1.00  0.00    -0.075 N 
ATOM     25  H13 UNL     1      -2.525   9.758  11.492  1.00  0.00     0.274 HD
ATOM     26  H12 UNL     1      -1.501  10.800  11.937  1.00  0.00     0.274 HD
ATOM     27  H11 UNL     1      -1.247  10.084  10.409  1.00  0.00     0.274 HD
ENDBRANCH  20  24
ENDBRANCH  19  20
ENDBRANCH   1  19
BRANCH  17  28
HETATM   28  C16 UNL     1      -5.862   6.054  14.932  1.00  0.00     0.023 C 
HETATM   29  C17 UNL     1      -4.712   6.905  15.433  1.00  0.00     0.037 C 
HETATM   30  C18 UNL     1      -6.569   5.556  16.192  1.00  0.00     0.037 C 
HETATM   31  C19 UNL     1      -6.769   6.940  14.145  1.00  0.00     0.037 C 
ENDBRANCH  17  28
TORSDOF 6
ENDMDL
