MODEL 1
REMARK VINA RESULT: -7.489981533      0.000      0.000
REMARK  5 active torsions:
REMARK  status: ('A' for Active; 'I' for Inactive)
REMARK    1  A    between atoms: C1_2  and  O2_3 
REMARK    2  A    between atoms: C1_2  and  C13_21 
REMARK    3  A    between atoms: O2_3  and  C2_4 
REMARK    4  A    between atoms: C2_4  and  N1_5 
REMARK    5  A    between atoms: N1_5  and  C3_8 
REMARK       I    between atoms: C13_21  and  N3_23 
ROOT
HETATM    1  N1  UNL     1      -3.175   3.145  12.833  1.00  0.00    -0.048 N 
ATOM      2  H11 UNL     1      -2.484   2.517  12.421  1.00  0.00     0.280 HD
ATOM      3  H12 UNL     1      -2.756   3.225  13.760  1.00  0.00     0.280 HD
ENDROOT
BRANCH   1   4
HETATM    4  C2  UNL     1      -4.531   2.550  12.870  1.00  0.00     0.411 C 
BRANCH   4   5
HETATM    5  O2  UNL     1      -4.709   1.938  14.057  1.00  0.00    -0.286 OA
BRANCH   5   6
HETATM    6  C1  UNL     1      -4.567   2.093  15.365  1.00  0.00     0.353 C 
HETATM    7  O1  UNL     1      -3.474   1.722  15.875  1.00  0.00    -0.254 OA
BRANCH   6   8
HETATM    8  C13 UNL     1      -5.651   2.676  16.144  1.00  0.00     0.319 C 
HETATM    9  O3  UNL     1      -6.350   1.872  16.873  1.00  0.00    -0.262 OA
HETATM   10  N3  UNL     1      -6.035   4.016  16.211  1.00  0.00    -0.344 N 
HETATM   11  C14 UNL     1      -5.553   5.139  15.461  1.00  0.00     0.126 C 
HETATM   12  C17 UNL     1      -7.093   4.461  17.146  1.00  0.00     0.126 C 
HETATM   13  C15 UNL     1      -6.552   6.271  15.684  1.00  0.00     0.021 C 
HETATM   14  C16 UNL     1      -7.200   5.931  17.010  1.00  0.00     0.021 C 
ENDBRANCH   6   8
ENDBRANCH   5   6
ENDBRANCH   4   5
ENDBRANCH   1   4
BRANCH   1  15
HETATM   15  C3  UNL     1      -3.247   4.381  12.165  1.00  0.00     0.211 C 
HETATM   16  C4  UNL     1      -3.667   5.571  12.911  1.00  0.00     0.020 C 
HETATM   17  C5  UNL     1      -2.553   6.318  13.573  1.00  0.00     0.013 C 
HETATM   18  C9  UNL     1      -4.244   6.544  11.858  1.00  0.00     0.031 C 
HETATM   19  C6  UNL     1      -1.371   6.583  12.684  1.00  0.00     0.005 C 
HETATM   20  C7  UNL     1      -1.433   7.813  11.858  1.00  0.00     0.118 C 
HETATM   21  C12 UNL     1      -0.959   5.333  11.932  1.00  0.00     0.029 C 
HETATM   22  N2  UNL     1      -2.474   7.955  10.917  1.00  0.00    -0.417 N 
HETATM   23  C8  UNL     1      -3.305   6.795  10.716  1.00  0.00     0.078 C 
ATOM     24  H2  UNL     1      -2.630   8.826  10.410  1.00  0.00     0.153 HD
HETATM   25  C10 UNL     1      -2.575   5.627  10.162  1.00  0.00     0.048 C 
HETATM   26  C11 UNL     1      -2.095   4.665  11.257  1.00  0.00     0.049 C 
HETATM   27 BR1  UNL     1      -1.523   3.020  10.463  1.00  0.00    -0.083 Br
ENDBRANCH   1  15
TORSDOF 5
ENDMDL
MODEL 2
REMARK VINA RESULT: -7.427448350      2.248      4.014
REMARK  5 active torsions:
REMARK  status: ('A' for Active; 'I' for Inactive)
REMARK    1  A    between atoms: C1_2  and  O2_3 
REMARK    2  A    between atoms: C1_2  and  C13_21 
REMARK    3  A    between atoms: O2_3  and  C2_4 
REMARK    4  A    between atoms: C2_4  and  N1_5 
REMARK    5  A    between atoms: N1_5  and  C3_8 
REMARK       I    between atoms: C13_21  and  N3_23 
ROOT
HETATM    1  N1  UNL     1      -5.159   6.339  13.304  1.00  0.00    -0.048 N 
ATOM      2  H11 UNL     1      -5.973   6.607  12.750  1.00  0.00     0.280 HD
ATOM      3  H12 UNL     1      -4.862   5.541  12.741  1.00  0.00     0.280 HD
ENDROOT
BRANCH   1   4
HETATM    4  C2  UNL     1      -5.518   5.954  14.689  1.00  0.00     0.411 C 
BRANCH   4   5
HETATM    5  O2  UNL     1      -5.365   4.623  14.828  1.00  0.00    -0.286 OA
BRANCH   5   6
HETATM    6  C1  UNL     1      -4.477   3.677  15.094  1.00  0.00     0.353 C 
HETATM    7  O1  UNL     1      -3.695   3.877  16.064  1.00  0.00    -0.254 OA
BRANCH   6   8
HETATM    8  C13 UNL     1      -4.443   2.470  14.280  1.00  0.00     0.319 C 
HETATM    9  O3  UNL     1      -4.838   1.374  14.837  1.00  0.00    -0.262 OA
HETATM   10  N3  UNL     1      -4.039   2.341  12.951  1.00  0.00    -0.344 N 
HETATM   11  C14 UNL     1      -3.451   3.318  12.082  1.00  0.00     0.126 C 
HETATM   12  C17 UNL     1      -4.174   1.054  12.232  1.00  0.00     0.126 C 
HETATM   13  C15 UNL     1      -2.894   2.554  10.884  1.00  0.00     0.021 C 
HETATM   14  C16 UNL     1      -3.720   1.286  10.843  1.00  0.00     0.021 C 
ENDBRANCH   6   8
ENDBRANCH   5   6
ENDBRANCH   4   5
ENDBRANCH   1   4
BRANCH   1  15
HETATM   15  C3  UNL     1      -4.186   7.353  13.360  1.00  0.00     0.211 C 
HETATM   16  C4  UNL     1      -3.140   7.281  14.384  1.00  0.00     0.020 C 
HETATM   17  C5  UNL     1      -1.916   6.524  13.974  1.00  0.00     0.013 C 
HETATM   18  C9  UNL     1      -2.667   8.735  14.604  1.00  0.00     0.031 C 
HETATM   19  C6  UNL     1      -1.376   6.904  12.624  1.00  0.00     0.005 C 
HETATM   20  C7  UNL     1      -0.432   8.048  12.593  1.00  0.00     0.118 C 
HETATM   21  C12 UNL     1      -2.481   6.965  11.588  1.00  0.00     0.029 C 
HETATM   22  N2  UNL     1      -0.871   9.312  13.038  1.00  0.00    -0.417 N 
HETATM   23  C8  UNL     1      -2.278   9.424  13.330  1.00  0.00     0.078 C 
ATOM     24  H2  UNL     1      -0.232  10.099  13.147  1.00  0.00     0.153 HD
HETATM   25  C10 UNL     1      -3.151   9.217  12.147  1.00  0.00     0.048 C 
HETATM   26  C11 UNL     1      -3.644   7.768  12.031  1.00  0.00     0.049 C 
HETATM   27 BR1  UNL     1      -5.052   7.669  10.739  1.00  0.00    -0.083 Br
ENDBRANCH   1  15
TORSDOF 5
ENDMDL
MODEL 3
REMARK VINA RESULT: -7.316893226      1.853      2.536
REMARK  5 active torsions:
REMARK  status: ('A' for Active; 'I' for Inactive)
REMARK    1  A    between atoms: C1_2  and  O2_3 
REMARK    2  A    between atoms: C1_2  and  C13_21 
REMARK    3  A    between atoms: O2_3  and  C2_4 
REMARK    4  A    between atoms: C2_4  and  N1_5 
REMARK    5  A    between atoms: N1_5  and  C3_8 
REMARK       I    between atoms: C13_21  and  N3_23 
ROOT
HETATM    1  N1  UNL     1      -2.434   5.514  12.936  1.00  0.00    -0.048 N 
ATOM      2  H11 UNL     1      -1.503   5.188  12.677  1.00  0.00     0.280 HD
ATOM      3  H12 UNL     1      -2.312   5.498  13.949  1.00  0.00     0.280 HD
ENDROOT
BRANCH   1   4
HETATM    4  C2  UNL     1      -3.505   4.598  12.478  1.00  0.00     0.411 C 
BRANCH   4   5
HETATM    5  O2  UNL     1      -3.769   3.710  13.457  1.00  0.00    -0.286 OA
BRANCH   5   6
HETATM    6  C1  UNL     1      -4.367   2.555  13.712  1.00  0.00     0.353 C 
HETATM    7  O1  UNL     1      -4.554   1.776  12.737  1.00  0.00    -0.254 OA
BRANCH   6   8
HETATM    8  C13 UNL     1      -4.769   2.237  15.075  1.00  0.00     0.319 C 
HETATM    9  O3  UNL     1      -4.456   1.067  15.522  1.00  0.00    -0.262 OA
HETATM   10  N3  UNL     1      -5.455   3.048  15.979  1.00  0.00    -0.344 N 
HETATM   11  C14 UNL     1      -6.039   4.342  15.778  1.00  0.00     0.126 C 
HETATM   12  C17 UNL     1      -5.688   2.610  17.374  1.00  0.00     0.126 C 
HETATM   13  C15 UNL     1      -6.951   4.598  16.974  1.00  0.00     0.021 C 
HETATM   14  C16 UNL     1      -6.374   3.723  18.068  1.00  0.00     0.021 C 
ENDBRANCH   6   8
ENDBRANCH   5   6
ENDBRANCH   4   5
ENDBRANCH   1   4
BRANCH   1  15
HETATM   15  C3  UNL     1      -2.711   6.804  12.446  1.00  0.00     0.211 C 
HETATM   16  C4  UNL     1      -3.667   7.650  13.164  1.00  0.00     0.020 C 
HETATM   17  C5  UNL     1      -3.065   8.498  14.240  1.00  0.00     0.013 C 
HETATM   18  C9  UNL     1      -4.218   8.644  12.118  1.00  0.00     0.031 C 
HETATM   19  C6  UNL     1      -1.834   9.250  13.818  1.00  0.00     0.005 C 
HETATM   20  C7  UNL     1      -2.057  10.571  13.182  1.00  0.00     0.118 C 
HETATM   21  C12 UNL     1      -0.864   8.346  13.083  1.00  0.00     0.029 C 
HETATM   22  N2  UNL     1      -2.798  10.638  11.984  1.00  0.00    -0.417 N 
HETATM   23  C8  UNL     1      -3.136   9.375  11.379  1.00  0.00     0.078 C 
ATOM     24  H2  UNL     1      -3.078  11.528  11.570  1.00  0.00     0.153 HD
HETATM   25  C10 UNL     1      -1.954   8.588  10.942  1.00  0.00     0.048 C 
HETATM   26  C11 UNL     1      -1.508   7.569  11.999  1.00  0.00     0.049 C 
HETATM   27 BR1  UNL     1      -0.257   6.345  11.225  1.00  0.00    -0.083 Br
ENDBRANCH   1  15
TORSDOF 5
ENDMDL
MODEL 4
REMARK VINA RESULT: -7.274763360      2.280      3.262
REMARK  5 active torsions:
REMARK  status: ('A' for Active; 'I' for Inactive)
REMARK    1  A    between atoms: C1_2  and  O2_3 
REMARK    2  A    between atoms: C1_2  and  C13_21 
REMARK    3  A    between atoms: O2_3  and  C2_4 
REMARK    4  A    between atoms: C2_4  and  N1_5 
REMARK    5  A    between atoms: N1_5  and  C3_8 
REMARK       I    between atoms: C13_21  and  N3_23 
ROOT
HETATM    1  N1  UNL     1      -1.100   5.583  13.190  1.00  0.00    -0.048 N 
ATOM      2  H11 UNL     1      -1.528   4.676  13.010  1.00  0.00     0.280 HD
ATOM      3  H12 UNL     1      -0.189   5.248  13.505  1.00  0.00     0.280 HD
ENDROOT
BRANCH   1   4
HETATM    4  C2  UNL     1      -1.815   6.351  14.236  1.00  0.00     0.411 C 
BRANCH   4   5
HETATM    5  O2  UNL     1      -2.823   5.599  14.720  1.00  0.00    -0.286 OA
BRANCH   5   6
HETATM    6  C1  UNL     1      -3.873   4.873  14.366  1.00  0.00     0.353 C 
HETATM    7  O1  UNL     1      -3.749   4.140  13.346  1.00  0.00    -0.254 OA
BRANCH   6   8
HETATM    8  C13 UNL     1      -5.097   4.946  15.150  1.00  0.00     0.319 C 
HETATM    9  O3  UNL     1      -5.756   6.056  15.112  1.00  0.00    -0.262 OA
HETATM   10  N3  UNL     1      -5.666   3.952  15.948  1.00  0.00    -0.344 N 
HETATM   11  C14 UNL     1      -5.151   2.660  16.296  1.00  0.00     0.126 C 
HETATM   12  C17 UNL     1      -6.984   4.152  16.593  1.00  0.00     0.126 C 
HETATM   13  C15 UNL     1      -6.004   2.150  17.454  1.00  0.00     0.021 C 
HETATM   14  C16 UNL     1      -7.314   2.893  17.298  1.00  0.00     0.021 C 
ENDBRANCH   6   8
ENDBRANCH   5   6
ENDBRANCH   4   5
ENDBRANCH   1   4
BRANCH   1  15
HETATM   15  C3  UNL     1      -1.012   6.379  12.033  1.00  0.00     0.211 C 
HETATM   16  C4  UNL     1      -0.449   7.728  12.137  1.00  0.00     0.020 C 
HETATM   17  C5  UNL     1       1.034   7.802  11.954  1.00  0.00     0.013 C 
HETATM   18  C9  UNL     1      -1.048   8.525  10.957  1.00  0.00     0.031 C 
HETATM   19  C6  UNL     1       1.547   7.053  10.755  1.00  0.00     0.005 C 
HETATM   20  C7  UNL     1       1.555   7.796   9.471  1.00  0.00     0.118 C 
HETATM   21  C12 UNL     1       0.950   5.662  10.680  1.00  0.00     0.029 C 
HETATM   22  N2  UNL     1       0.336   8.275   8.948  1.00  0.00    -0.417 N 
HETATM   23  C8  UNL     1      -0.857   7.845   9.634  1.00  0.00     0.078 C 
ATOM     24  H2  UNL     1       0.300   8.888   8.135  1.00  0.00     0.153 HD
HETATM   25  C10 UNL     1      -1.078   6.377   9.582  1.00  0.00     0.048 C 
HETATM   26  C11 UNL     1      -0.525   5.658  10.819  1.00  0.00     0.049 C 
HETATM   27 BR1  UNL     1      -1.183   3.862  10.869  1.00  0.00    -0.083 Br
ENDBRANCH   1  15
TORSDOF 5
ENDMDL
MODEL 5
REMARK VINA RESULT: -7.242475977      2.318      3.678
REMARK  5 active torsions:
REMARK  status: ('A' for Active; 'I' for Inactive)
REMARK    1  A    between atoms: C1_2  and  O2_3 
REMARK    2  A    between atoms: C1_2  and  C13_21 
REMARK    3  A    between atoms: O2_3  and  C2_4 
REMARK    4  A    between atoms: C2_4  and  N1_5 
REMARK    5  A    between atoms: N1_5  and  C3_8 
REMARK       I    between atoms: C13_21  and  N3_23 
ROOT
HETATM    1  N1  UNL     1      -2.555   5.736  10.558  1.00  0.00    -0.048 N 
ATOM      2  H11 UNL     1      -3.457   5.804  10.086  1.00  0.00     0.280 HD
ATOM      3  H12 UNL     1      -1.995   6.229   9.862  1.00  0.00     0.280 HD
ENDROOT
BRANCH   1   4
HETATM    4  C2  UNL     1      -2.118   4.333  10.750  1.00  0.00     0.411 C 
BRANCH   4   5
HETATM    5  O2  UNL     1      -3.206   3.541  10.820  1.00  0.00    -0.286 OA
BRANCH   5   6
HETATM    6  C1  UNL     1      -4.377   3.394  11.421  1.00  0.00     0.353 C 
HETATM    7  O1  UNL     1      -5.368   3.980  10.905  1.00  0.00    -0.254 OA
BRANCH   6   8
HETATM    8  C13 UNL     1      -4.473   2.577  12.623  1.00  0.00     0.319 C 
HETATM    9  O3  UNL     1      -4.515   1.297  12.462  1.00  0.00    -0.262 OA
HETATM   10  N3  UNL     1      -4.519   3.004  13.950  1.00  0.00    -0.344 N 
HETATM   11  C14 UNL     1      -4.600   4.336  14.474  1.00  0.00     0.126 C 
HETATM   12  C17 UNL     1      -4.501   2.032  15.067  1.00  0.00     0.126 C 
HETATM   13  C15 UNL     1      -4.974   4.201  15.947  1.00  0.00     0.021 C 
HETATM   14  C16 UNL     1      -4.492   2.816  16.322  1.00  0.00     0.021 C 
ENDBRANCH   6   8
ENDBRANCH   5   6
ENDBRANCH   4   5
ENDBRANCH   1   4
BRANCH   1  15
HETATM   15  C3  UNL     1      -2.550   6.380  11.809  1.00  0.00     0.211 C 
HETATM   16  C4  UNL     1      -1.316   6.396  12.598  1.00  0.00     0.020 C 
HETATM   17  C5  UNL     1      -0.411   7.553  12.319  1.00  0.00     0.013 C 
HETATM   18  C9  UNL     1      -1.759   6.567  14.068  1.00  0.00     0.031 C 
HETATM   19  C6  UNL     1      -1.101   8.889  12.302  1.00  0.00     0.005 C 
HETATM   20  C7  UNL     1      -1.238   9.573  13.611  1.00  0.00     0.118 C 
HETATM   21  C12 UNL     1      -2.370   8.840  11.475  1.00  0.00     0.029 C 
HETATM   22  N2  UNL     1      -1.966   8.942  14.641  1.00  0.00    -0.417 N 
HETATM   23  C8  UNL     1      -2.671   7.741  14.271  1.00  0.00     0.078 C 
ATOM     24  H2  UNL     1      -1.992   9.313  15.590  1.00  0.00     0.153 HD
HETATM   25  C10 UNL     1      -3.737   7.962  13.260  1.00  0.00     0.048 C 
HETATM   26  C11 UNL     1      -3.247   7.701  11.830  1.00  0.00     0.049 C 
HETATM   27 BR1  UNL     1      -4.746   7.621  10.642  1.00  0.00    -0.083 Br
ENDBRANCH   1  15
TORSDOF 5
ENDMDL
