MODEL 1
REMARK VINA RESULT: -8.599703529      0.000      0.000
REMARK  5 active torsions:
REMARK  status: ('A' for Active; 'I' for Inactive)
REMARK       I    between atoms: N1_2  and  C2_4 
REMARK    1  A    between atoms: C2_4  and  C3_6 
REMARK    2  A    between atoms: C9_12  and  O2_13 
REMARK    3  A    between atoms: O2_13  and  C10_14 
REMARK    4  A    between atoms: C10_14  and  C11_16 
REMARK    5  A    between atoms: C14_19  and  C15_20 
ROOT
HETATM    1  C3  UNL     1      -0.247   6.243  10.846  1.00  0.00     0.059 C 
HETATM    2  C4  UNL     1      -0.965   6.707   9.608  1.00  0.00     0.025 C 
HETATM    3  C5  UNL     1      -2.359   7.133   9.927  1.00  0.00    -0.012 C 
HETATM    4  C6  UNL     1      -2.318   8.299  10.891  1.00  0.00     0.012 C 
HETATM    5  C7  UNL     1      -1.626   7.837  12.154  1.00  0.00     0.017 C 
HETATM    6  C8  UNL     1      -0.224   7.445  11.807  1.00  0.00     0.028 C 
HETATM    7  C9  UNL     1      -2.384   6.688  12.790  1.00  0.00     0.141 C 
HETATM    8  C18 UNL     1      -2.404   5.561  11.809  1.00  0.00     0.036 C 
HETATM    9  C19 UNL     1      -3.088   5.946  10.520  1.00  0.00     0.013 C 
HETATM   10  C20 UNL     1      -0.949   5.145  11.569  1.00  0.00     0.106 C 
HETATM   11 CL1  UNL     1      -0.880   3.583  10.744  1.00  0.00    -0.123 Cl
ENDROOT
BRANCH   7  12
HETATM   12  O2  UNL     1      -3.663   7.132  13.158  1.00  0.00    -0.315 OA
BRANCH  12  13
HETATM   13  C10 UNL     1      -4.268   6.740  14.348  1.00  0.00     0.263 C 
HETATM   14  O3  UNL     1      -4.383   7.618  15.239  1.00  0.00    -0.265 OA
BRANCH  13  15
HETATM   15  C11 UNL     1      -4.764   5.364  14.589  1.00  0.00     0.085 C 
HETATM   16  C12 UNL     1      -3.887   4.715  15.608  1.00  0.00     0.015 C 
HETATM   17  C13 UNL     1      -4.558   3.416  16.007  1.00  0.00     0.014 C 
HETATM   18  C14 UNL     1      -5.735   3.794  16.878  1.00  0.00     0.075 C 
HETATM   19  C16 UNL     1      -6.543   4.921  16.323  1.00  0.00     0.014 C 
HETATM   20  C17 UNL     1      -6.222   5.331  14.933  1.00  0.00     0.015 C 
BRANCH  18  21
HETATM   21  C15 UNL     1      -6.544   2.565  17.065  1.00  0.00     0.235 C 
HETATM   22  N2  UNL     1      -5.932   1.303  17.383  1.00  0.00    -0.062 NA
HETATM   23  O4  UNL     1      -7.787   2.621  16.943  1.00  0.00    -0.277 OA
ENDBRANCH  18  21
ENDBRANCH  13  15
ENDBRANCH  12  13
ENDBRANCH   7  12
BRANCH   1  24
HETATM   24  C2  UNL     1       1.133   5.909  10.483  1.00  0.00     0.227 C 
HETATM   25  N1  UNL     1       1.503   5.699   9.133  1.00  0.00    -0.365 N 
HETATM   26  C1  UNL     1       2.887   5.360   8.769  1.00  0.00     0.149 C 
ATOM     27  H1  UNL     1       0.799   5.784   8.400  1.00  0.00     0.161 HD
HETATM   28  O1  UNL     1       2.038   5.795  11.361  1.00  0.00    -0.273 OA
ENDBRANCH   1  24
TORSDOF 5
ENDMDL
MODEL 2
REMARK VINA RESULT: -8.118175159      4.509      8.003
REMARK  5 active torsions:
REMARK  status: ('A' for Active; 'I' for Inactive)
REMARK       I    between atoms: N1_2  and  C2_4 
REMARK    1  A    between atoms: C2_4  and  C3_6 
REMARK    2  A    between atoms: C9_12  and  O2_13 
REMARK    3  A    between atoms: O2_13  and  C10_14 
REMARK    4  A    between atoms: C10_14  and  C11_16 
REMARK    5  A    between atoms: C14_19  and  C15_20 
ROOT
HETATM    1  C3  UNL     1      -4.301   4.977  14.929  1.00  0.00     0.059 C 
HETATM    2  C4  UNL     1      -2.887   5.463  15.103  1.00  0.00     0.025 C 
HETATM    3  C5  UNL     1      -2.623   6.655  14.244  1.00  0.00    -0.012 C 
HETATM    4  C6  UNL     1      -3.544   7.783  14.656  1.00  0.00     0.012 C 
HETATM    5  C7  UNL     1      -4.969   7.318  14.457  1.00  0.00     0.017 C 
HETATM    6  C8  UNL     1      -5.212   6.143  15.351  1.00  0.00     0.028 C 
HETATM    7  C9  UNL     1      -5.222   6.973  13.002  1.00  0.00     0.141 C 
HETATM    8  C18 UNL     1      -4.294   5.860  12.634  1.00  0.00     0.036 C 
HETATM    9  C19 UNL     1      -2.847   6.252  12.802  1.00  0.00     0.013 C 
HETATM   10  C20 UNL     1      -4.655   4.660  13.517  1.00  0.00     0.106 C 
HETATM   11 CL1  UNL     1      -3.899   3.187  12.899  1.00  0.00    -0.123 Cl
ENDROOT
BRANCH   7  12
HETATM   12  O2  UNL     1      -5.049   8.125  12.221  1.00  0.00    -0.315 OA
BRANCH  12  13
HETATM   13  C10 UNL     1      -5.895   8.434  11.162  1.00  0.00     0.263 C 
HETATM   14  O3  UNL     1      -6.106   7.525  10.322  1.00  0.00    -0.265 OA
BRANCH  13  15
HETATM   15  C11 UNL     1      -6.536   9.762  10.998  1.00  0.00     0.085 C 
HETATM   16  C12 UNL     1      -5.482  10.756  10.639  1.00  0.00     0.015 C 
HETATM   17  C13 UNL     1      -6.196  12.033  10.244  1.00  0.00     0.014 C 
HETATM   18  C14 UNL     1      -6.795  11.783   8.879  1.00  0.00     0.075 C 
HETATM   19  C16 UNL     1      -7.492  10.466   8.772  1.00  0.00     0.014 C 
HETATM   20  C17 UNL     1      -7.691   9.729  10.045  1.00  0.00     0.015 C 
BRANCH  18  21
HETATM   21  C15 UNL     1      -7.702  12.921   8.592  1.00  0.00     0.235 C 
HETATM   22  N2  UNL     1      -7.416  14.248   9.064  1.00  0.00    -0.062 NA
HETATM   23  O4  UNL     1      -8.742  12.726   7.925  1.00  0.00    -0.277 OA
ENDBRANCH  18  21
ENDBRANCH  13  15
ENDBRANCH  12  13
ENDBRANCH   7  12
BRANCH   1  24
HETATM   24  C2  UNL     1      -4.521   3.857  15.847  1.00  0.00     0.227 C 
HETATM   25  N1  UNL     1      -5.828   3.481  16.243  1.00  0.00    -0.365 N 
HETATM   26  C1  UNL     1      -6.048   2.359  17.168  1.00  0.00     0.149 C 
ATOM     27  H1  UNL     1      -6.629   3.996  15.880  1.00  0.00     0.161 HD
HETATM   28  O1  UNL     1      -3.554   3.190  16.320  1.00  0.00    -0.273 OA
ENDBRANCH   1  24
TORSDOF 5
ENDMDL
MODEL 3
REMARK VINA RESULT: -8.026989612      4.498      6.167
REMARK  5 active torsions:
REMARK  status: ('A' for Active; 'I' for Inactive)
REMARK       I    between atoms: N1_2  and  C2_4 
REMARK    1  A    between atoms: C2_4  and  C3_6 
REMARK    2  A    between atoms: C9_12  and  O2_13 
REMARK    3  A    between atoms: O2_13  and  C10_14 
REMARK    4  A    between atoms: C10_14  and  C11_16 
REMARK    5  A    between atoms: C14_19  and  C15_20 
ROOT
HETATM    1  C3  UNL     1      -6.235   9.998   9.474  1.00  0.00     0.059 C 
HETATM    2  C4  UNL     1      -5.224  10.960  10.037  1.00  0.00     0.025 C 
HETATM    3  C5  UNL     1      -4.064  10.229  10.629  1.00  0.00    -0.012 C 
HETATM    4  C6  UNL     1      -3.374   9.427   9.548  1.00  0.00     0.012 C 
HETATM    5  C7  UNL     1      -4.370   8.434   8.994  1.00  0.00     0.017 C 
HETATM    6  C8  UNL     1      -5.505   9.195   8.383  1.00  0.00     0.028 C 
HETATM    7  C9  UNL     1      -4.853   7.495  10.083  1.00  0.00     0.141 C 
HETATM    8  C18 UNL     1      -5.525   8.324  11.130  1.00  0.00     0.036 C 
HETATM    9  C19 UNL     1      -4.586   9.338  11.736  1.00  0.00     0.013 C 
HETATM   10  C20 UNL     1      -6.728   9.001  10.466  1.00  0.00     0.106 C 
HETATM   11 CL1  UNL     1      -7.810   9.678  11.689  1.00  0.00    -0.123 Cl
ENDROOT
BRANCH   7  12
HETATM   12  O2  UNL     1      -3.762   6.759  10.569  1.00  0.00    -0.315 OA
BRANCH  12  13
HETATM   13  C10 UNL     1      -3.877   5.424  10.941  1.00  0.00     0.263 C 
HETATM   14  O3  UNL     1      -4.312   4.630  10.070  1.00  0.00    -0.265 OA
BRANCH  13  15
HETATM   15  C11 UNL     1      -3.515   4.925  12.290  1.00  0.00     0.085 C 
HETATM   16  C12 UNL     1      -4.425   5.558  13.289  1.00  0.00     0.015 C 
HETATM   17  C13 UNL     1      -4.193   4.850  14.609  1.00  0.00     0.014 C 
HETATM   18  C14 UNL     1      -4.845   3.492  14.486  1.00  0.00     0.075 C 
HETATM   19  C16 UNL     1      -4.537   2.804  13.196  1.00  0.00     0.014 C 
HETATM   20  C17 UNL     1      -3.483   3.429  12.359  1.00  0.00     0.015 C 
BRANCH  18  21
HETATM   21  C15 UNL     1      -4.412   2.698  15.661  1.00  0.00     0.235 C 
HETATM   22  N2  UNL     1      -5.185   1.586  16.143  1.00  0.00    -0.062 NA
HETATM   23  O4  UNL     1      -3.351   2.998  16.250  1.00  0.00    -0.277 OA
ENDBRANCH  18  21
ENDBRANCH  13  15
ENDBRANCH  12  13
ENDBRANCH   7  12
BRANCH   1  24
HETATM   24  C2  UNL     1      -7.309  10.771   8.846  1.00  0.00     0.227 C 
HETATM   25  N1  UNL     1      -8.381  10.128   8.181  1.00  0.00    -0.365 N 
HETATM   26  C1  UNL     1      -9.457  10.905   7.546  1.00  0.00     0.149 C 
ATOM     27  H1  UNL     1      -8.408   9.109   8.142  1.00  0.00     0.161 HD
HETATM   28  O1  UNL     1      -7.314  12.037   8.872  1.00  0.00    -0.273 OA
ENDBRANCH   1  24
TORSDOF 5
ENDMDL
MODEL 4
REMARK VINA RESULT: -8.010435905      1.939      2.705
REMARK  5 active torsions:
REMARK  status: ('A' for Active; 'I' for Inactive)
REMARK       I    between atoms: N1_2  and  C2_4 
REMARK    1  A    between atoms: C2_4  and  C3_6 
REMARK    2  A    between atoms: C9_12  and  O2_13 
REMARK    3  A    between atoms: O2_13  and  C10_14 
REMARK    4  A    between atoms: C10_14  and  C11_16 
REMARK    5  A    between atoms: C14_19  and  C15_20 
ROOT
HETATM    1  C3  UNL     1      -1.600   6.027   9.457  1.00  0.00     0.059 C 
HETATM    2  C4  UNL     1      -0.960   4.699   9.761  1.00  0.00     0.025 C 
HETATM    3  C5  UNL     1      -1.083   4.367  11.211  1.00  0.00    -0.012 C 
HETATM    4  C6  UNL     1      -2.547   4.259  11.578  1.00  0.00     0.012 C 
HETATM    5  C7  UNL     1      -3.196   5.598  11.307  1.00  0.00     0.017 C 
HETATM    6  C8  UNL     1      -3.083   5.890   9.844  1.00  0.00     0.028 C 
HETATM    7  C9  UNL     1      -2.549   6.686  12.143  1.00  0.00     0.141 C 
HETATM    8  C18 UNL     1      -1.108   6.758  11.753  1.00  0.00     0.036 C 
HETATM    9  C19 UNL     1      -0.389   5.455  12.001  1.00  0.00     0.013 C 
HETATM   10  C20 UNL     1      -1.060   7.151  10.273  1.00  0.00     0.106 C 
HETATM   11 CL1  UNL     1       0.575   7.648   9.818  1.00  0.00    -0.123 Cl
ENDROOT
BRANCH   7  12
HETATM   12  O2  UNL     1      -2.746   6.397  13.501  1.00  0.00    -0.315 OA
BRANCH  12  13
HETATM   13  C10 UNL     1      -4.016   6.243  14.047  1.00  0.00     0.263 C 
HETATM   14  O3  UNL     1      -4.693   7.289  14.207  1.00  0.00    -0.265 OA
BRANCH  13  15
HETATM   15  C11 UNL     1      -4.578   4.926  14.434  1.00  0.00     0.085 C 
HETATM   16  C12 UNL     1      -3.780   4.387  15.574  1.00  0.00     0.015 C 
HETATM   17  C13 UNL     1      -4.522   3.173  16.097  1.00  0.00     0.014 C 
HETATM   18  C14 UNL     1      -5.726   3.697  16.845  1.00  0.00     0.075 C 
HETATM   19  C16 UNL     1      -6.460   4.769  16.107  1.00  0.00     0.014 C 
HETATM   20  C17 UNL     1      -6.052   4.985  14.697  1.00  0.00     0.015 C 
BRANCH  18  21
HETATM   21  C15 UNL     1      -6.591   2.530  17.141  1.00  0.00     0.235 C 
HETATM   22  N2  UNL     1      -6.036   1.268  17.552  1.00  0.00    -0.062 NA
HETATM   23  O4  UNL     1      -7.831   2.639  17.033  1.00  0.00    -0.277 OA
ENDBRANCH  18  21
ENDBRANCH  13  15
ENDBRANCH  12  13
ENDBRANCH   7  12
BRANCH   1  24
HETATM   24  C2  UNL     1      -1.513   6.263   8.014  1.00  0.00     0.227 C 
HETATM   25  N1  UNL     1      -2.405   7.150   7.363  1.00  0.00    -0.365 N 
HETATM   26  C1  UNL     1      -2.321   7.384   5.913  1.00  0.00     0.149 C 
ATOM     27  H1  UNL     1      -3.118   7.635   7.908  1.00  0.00     0.161 HD
HETATM   28  O1  UNL     1      -0.643   5.683   7.300  1.00  0.00    -0.273 OA
ENDBRANCH   1  24
TORSDOF 5
ENDMDL
MODEL 5
REMARK VINA RESULT: -7.971606239      4.221      8.061
REMARK  5 active torsions:
REMARK  status: ('A' for Active; 'I' for Inactive)
REMARK       I    between atoms: N1_2  and  C2_4 
REMARK    1  A    between atoms: C2_4  and  C3_6 
REMARK    2  A    between atoms: C9_12  and  O2_13 
REMARK    3  A    between atoms: O2_13  and  C10_14 
REMARK    4  A    between atoms: C10_14  and  C11_16 
REMARK    5  A    between atoms: C14_19  and  C15_20 
ROOT
HETATM    1  C3  UNL     1      -4.786   4.784  15.000  1.00  0.00     0.059 C 
HETATM    2  C4  UNL     1      -3.393   5.203  15.387  1.00  0.00     0.025 C 
HETATM    3  C5  UNL     1      -2.845   6.194  14.414  1.00  0.00    -0.012 C 
HETATM    4  C6  UNL     1      -3.710   7.436  14.423  1.00  0.00     0.012 C 
HETATM    5  C7  UNL     1      -5.106   7.034  14.005  1.00  0.00     0.017 C 
HETATM    6  C8  UNL     1      -5.640   6.065  15.013  1.00  0.00     0.028 C 
HETATM    7  C9  UNL     1      -5.099   6.439  12.610  1.00  0.00     0.141 C 
HETATM    8  C18 UNL     1      -4.234   5.220  12.643  1.00  0.00     0.036 C 
HETATM    9  C19 UNL     1      -2.817   5.544  13.048  1.00  0.00     0.013 C 
HETATM   10  C20 UNL     1      -4.883   4.233  13.619  1.00  0.00     0.106 C 
HETATM   11 CL1  UNL     1      -4.172   2.625  13.436  1.00  0.00    -0.123 Cl
ENDROOT
BRANCH   7  12
HETATM   12  O2  UNL     1      -4.658   7.412  11.701  1.00  0.00    -0.315 OA
BRANCH  12  13
HETATM   13  C10 UNL     1      -5.543   8.147  10.918  1.00  0.00     0.263 C 
HETATM   14  O3  UNL     1      -6.131   7.528   9.997  1.00  0.00    -0.265 OA
BRANCH  13  15
HETATM   15  C11 UNL     1      -5.804   9.591  11.131  1.00  0.00     0.085 C 
HETATM   16  C12 UNL     1      -4.705  10.371  10.490  1.00  0.00     0.015 C 
HETATM   17  C13 UNL     1      -5.125  11.827  10.512  1.00  0.00     0.014 C 
HETATM   18  C14 UNL     1      -6.199  11.978   9.460  1.00  0.00     0.075 C 
HETATM   19  C16 UNL     1      -7.228  10.895   9.506  1.00  0.00     0.014 C 
HETATM   20  C17 UNL     1      -7.176   9.997  10.687  1.00  0.00     0.015 C 
BRANCH  18  21
HETATM   21  C15 UNL     1      -6.795  13.324   9.642  1.00  0.00     0.235 C 
HETATM   22  N2  UNL     1      -7.702  13.882   8.676  1.00  0.00    -0.062 NA
HETATM   23  O4  UNL     1      -6.505  13.993  10.658  1.00  0.00    -0.277 OA
ENDBRANCH  18  21
ENDBRANCH  13  15
ENDBRANCH  12  13
ENDBRANCH   7  12
BRANCH   1  24
HETATM   24  C2  UNL     1      -5.296   3.873  16.026  1.00  0.00     0.227 C 
HETATM   25  N1  UNL     1      -6.688   3.704  16.229  1.00  0.00    -0.365 N 
HETATM   26  C1  UNL     1      -7.200   2.791  17.262  1.00  0.00     0.149 C 
ATOM     27  H1  UNL     1      -7.346   4.224  15.649  1.00  0.00     0.161 HD
HETATM   28  O1  UNL     1      -4.514   3.207  16.768  1.00  0.00    -0.273 OA
ENDBRANCH   1  24
TORSDOF 5
ENDMDL
