MODEL 1
REMARK VINA RESULT: -6.837550891      0.000      0.000
REMARK  3 active torsions:
REMARK  status: ('A' for Active; 'I' for Inactive)
REMARK    1  A    between atoms: C4_6  and  C5_7 
REMARK    2  A    between atoms: C5_7  and  N2_8 
REMARK       I    between atoms: N2_8  and  C6_10 
REMARK    3  A    between atoms: C6_10  and  C7_12 
ROOT
HETATM    1  N1  UNL     1      -2.372  -1.078  11.294  1.00  0.00    -0.197 NA
HETATM    2  C1  UNL     1      -3.290  -0.390  11.465  1.00  0.00     0.064 C 
HETATM    3  C2  UNL     1      -4.447   0.459  11.657  1.00  0.00     0.103 C 
HETATM    4  C3  UNL     1      -4.977   0.964  10.331  1.00  0.00     0.093 C 
HETATM    5  S1  UNL     1      -3.669   2.153   9.919  1.00  0.00    -0.161 SA
HETATM    6  C4  UNL     1      -2.995   2.395  11.644  1.00  0.00     0.066 C 
HETATM    7  C15 UNL     1      -4.068   1.738  12.419  1.00  0.00     0.036 C 
ENDROOT
BRANCH   6   8
HETATM    8  C5  UNL     1      -2.953   3.878  11.807  1.00  0.00     0.137 C 
BRANCH   8   9
HETATM    9  N2  UNL     1      -3.618   4.489  12.893  1.00  0.00    -0.360 N 
HETATM   10  C6  UNL     1      -3.155   5.438  13.791  1.00  0.00     0.224 C 
HETATM   11  O1  UNL     1      -2.033   5.959  13.849  1.00  0.00    -0.273 OA
ATOM     12  H2  UNL     1      -4.581   4.186  13.037  1.00  0.00     0.162 HD
BRANCH  10  13
HETATM   13  C7  UNL     1      -4.125   5.910  14.843  1.00  0.00     0.112 C 
HETATM   14  C8  UNL     1      -5.098   6.918  14.239  1.00  0.00     0.046 C 
HETATM   15  C9  UNL     1      -6.418   6.595  14.931  1.00  0.00     0.273 C 
HETATM   16  N3  UNL     1      -6.073   5.671  15.996  1.00  0.00     0.093 N 
HETATM   17  C10 UNL     1      -7.193   4.864  16.417  1.00  0.00     0.273 C 
HETATM   18  C14 UNL     1      -5.061   4.851  15.308  1.00  0.00     0.236 C 
HETATM   19  C11 UNL     1      -6.640   3.831  17.396  1.00  0.00     0.030 C 
HETATM   20  C12 UNL     1      -5.617   2.958  16.708  1.00  0.00     0.004 C 
HETATM   21  C13 UNL     1      -4.461   3.878  16.290  1.00  0.00     0.037 C 
ENDBRANCH  10  13
ENDBRANCH   8   9
ENDBRANCH   6   8
TORSDOF 3
ENDMDL
MODEL 2
REMARK VINA RESULT: -6.800617015      2.280      5.895
REMARK  3 active torsions:
REMARK  status: ('A' for Active; 'I' for Inactive)
REMARK    1  A    between atoms: C4_6  and  C5_7 
REMARK    2  A    between atoms: C5_7  and  N2_8 
REMARK       I    between atoms: N2_8  and  C6_10 
REMARK    3  A    between atoms: C6_10  and  C7_12 
ROOT
HETATM    1  N1  UNL     1      -6.459   4.084  18.856  1.00  0.00    -0.197 NA
HETATM    2  C1  UNL     1      -6.515   3.794  17.733  1.00  0.00     0.064 C 
HETATM    3  C2  UNL     1      -6.576   3.411  16.339  1.00  0.00     0.103 C 
HETATM    4  C3  UNL     1      -5.363   2.591  15.948  1.00  0.00     0.093 C 
HETATM    5  S1  UNL     1      -4.104   3.899  15.952  1.00  0.00    -0.161 SA
HETATM    6  C4  UNL     1      -5.255   5.359  15.774  1.00  0.00     0.066 C 
HETATM    7  C15 UNL     1      -6.502   4.645  15.428  1.00  0.00     0.036 C 
ENDROOT
BRANCH   6   8
HETATM    8  C5  UNL     1      -4.671   6.140  14.644  1.00  0.00     0.137 C 
BRANCH   8   9
HETATM    9  N2  UNL     1      -4.188   5.470  13.499  1.00  0.00    -0.360 N 
HETATM   10  C6  UNL     1      -4.380   5.762  12.157  1.00  0.00     0.224 C 
HETATM   11  O1  UNL     1      -5.042   6.683  11.658  1.00  0.00    -0.273 OA
ATOM     12  H2  UNL     1      -3.611   4.650  13.687  1.00  0.00     0.162 HD
BRANCH  10  13
HETATM   13  C7  UNL     1      -3.710   4.855  11.159  1.00  0.00     0.112 C 
HETATM   14  C8  UNL     1      -2.266   5.298  10.941  1.00  0.00     0.046 C 
HETATM   15  C9  UNL     1      -1.511   3.982  10.786  1.00  0.00     0.273 C 
HETATM   16  N3  UNL     1      -2.539   2.965  10.668  1.00  0.00     0.093 N 
HETATM   17  C10 UNL     1      -2.066   1.651  11.031  1.00  0.00     0.273 C 
HETATM   18  C14 UNL     1      -3.511   3.467  11.656  1.00  0.00     0.236 C 
HETATM   19  C11 UNL     1      -3.288   0.735  11.036  1.00  0.00     0.030 C 
HETATM   20  C12 UNL     1      -4.291   1.213  12.059  1.00  0.00     0.004 C 
HETATM   21  C13 UNL     1      -4.749   2.608  11.612  1.00  0.00     0.037 C 
ENDBRANCH  10  13
ENDBRANCH   8   9
ENDBRANCH   6   8
TORSDOF 3
ENDMDL
MODEL 3
REMARK VINA RESULT: -6.722150386      2.866      3.908
REMARK  3 active torsions:
REMARK  status: ('A' for Active; 'I' for Inactive)
REMARK    1  A    between atoms: C4_6  and  C5_7 
REMARK    2  A    between atoms: C5_7  and  N2_8 
REMARK       I    between atoms: N2_8  and  C6_10 
REMARK    3  A    between atoms: C6_10  and  C7_12 
ROOT
HETATM    1  N1  UNL     1       2.031   4.917   9.588  1.00  0.00    -0.197 NA
HETATM    2  C1  UNL     1       0.971   5.379   9.494  1.00  0.00     0.064 C 
HETATM    3  C2  UNL     1      -0.342   5.977   9.384  1.00  0.00     0.103 C 
HETATM    4  C3  UNL     1      -0.623   6.892  10.559  1.00  0.00     0.093 C 
HETATM    5  S1  UNL     1      -0.854   5.646  11.859  1.00  0.00    -0.161 SA
HETATM    6  C4  UNL     1      -1.239   4.192  10.751  1.00  0.00     0.066 C 
HETATM    7  C15 UNL     1      -1.441   4.907   9.474  1.00  0.00     0.036 C 
ENDROOT
BRANCH   6   8
HETATM    8  C5  UNL     1      -2.492   3.623  11.330  1.00  0.00     0.137 C 
BRANCH   8   9
HETATM    9  N2  UNL     1      -3.048   4.185  12.499  1.00  0.00    -0.360 N 
HETATM   10  C6  UNL     1      -4.379   4.350  12.854  1.00  0.00     0.224 C 
HETATM   11  O1  UNL     1      -5.390   4.048  12.205  1.00  0.00    -0.273 OA
ATOM     12  H2  UNL     1      -2.371   4.519  13.185  1.00  0.00     0.162 HD
BRANCH  10  13
HETATM   13  C7  UNL     1      -4.654   4.979  14.195  1.00  0.00     0.112 C 
HETATM   14  C8  UNL     1      -5.560   6.195  14.024  1.00  0.00     0.046 C 
HETATM   15  C9  UNL     1      -6.468   6.136  15.248  1.00  0.00     0.273 C 
HETATM   16  N3  UNL     1      -5.886   5.120  16.104  1.00  0.00     0.093 N 
HETATM   17  C10 UNL     1      -6.841   4.556  17.028  1.00  0.00     0.273 C 
HETATM   18  C14 UNL     1      -5.483   4.128  15.091  1.00  0.00     0.236 C 
HETATM   19  C11 UNL     1      -6.139   3.392  17.722  1.00  0.00     0.030 C 
HETATM   20  C12 UNL     1      -5.738   2.347  16.708  1.00  0.00     0.004 C 
HETATM   21  C13 UNL     1      -4.726   3.012  15.764  1.00  0.00     0.037 C 
ENDBRANCH  10  13
ENDBRANCH   8   9
ENDBRANCH   6   8
TORSDOF 3
ENDMDL
MODEL 4
REMARK VINA RESULT: -6.616831261      2.593      3.901
REMARK  3 active torsions:
REMARK  status: ('A' for Active; 'I' for Inactive)
REMARK    1  A    between atoms: C4_6  and  C5_7 
REMARK    2  A    between atoms: C5_7  and  N2_8 
REMARK       I    between atoms: N2_8  and  C6_10 
REMARK    3  A    between atoms: C6_10  and  C7_12 
ROOT
HETATM    1  N1  UNL     1      -3.841   6.418   7.134  1.00  0.00    -0.197 NA
HETATM    2  C1  UNL     1      -3.225   6.807   8.037  1.00  0.00     0.064 C 
HETATM    3  C2  UNL     1      -2.438   7.296   9.149  1.00  0.00     0.103 C 
HETATM    4  C3  UNL     1      -1.006   6.810   9.057  1.00  0.00     0.093 C 
HETATM    5  S1  UNL     1      -1.256   5.062   9.478  1.00  0.00    -0.161 SA
HETATM    6  C4  UNL     1      -2.901   5.243  10.345  1.00  0.00     0.066 C 
HETATM    7  C15 UNL     1      -2.945   6.714  10.477  1.00  0.00     0.036 C 
ENDROOT
BRANCH   6   8
HETATM    8  C5  UNL     1      -2.704   4.524  11.638  1.00  0.00     0.137 C 
BRANCH   8   9
HETATM    9  N2  UNL     1      -3.461   4.892  12.772  1.00  0.00    -0.360 N 
HETATM   10  C6  UNL     1      -3.067   5.571  13.915  1.00  0.00     0.224 C 
HETATM   11  O1  UNL     1      -1.942   6.000  14.205  1.00  0.00    -0.273 OA
ATOM     12  H2  UNL     1      -4.443   4.618  12.746  1.00  0.00     0.162 HD
BRANCH  10  13
HETATM   13  C7  UNL     1      -4.127   5.830  14.954  1.00  0.00     0.112 C 
HETATM   14  C8  UNL     1      -5.187   6.774  14.392  1.00  0.00     0.046 C 
HETATM   15  C9  UNL     1      -6.487   6.240  14.984  1.00  0.00     0.273 C 
HETATM   16  N3  UNL     1      -6.080   5.266  15.979  1.00  0.00     0.093 N 
HETATM   17  C10 UNL     1      -7.114   4.302  16.269  1.00  0.00     0.273 C 
HETATM   18  C14 UNL     1      -4.952   4.633  15.274  1.00  0.00     0.236 C 
HETATM   19  C11 UNL     1      -6.484   3.250  17.180  1.00  0.00     0.030 C 
HETATM   20  C12 UNL     1      -5.339   2.567  16.471  1.00  0.00     0.004 C 
HETATM   21  C13 UNL     1      -4.283   3.646  16.196  1.00  0.00     0.037 C 
ENDBRANCH  10  13
ENDBRANCH   8   9
ENDBRANCH   6   8
TORSDOF 3
ENDMDL
MODEL 5
REMARK VINA RESULT: -6.596777265      2.816      4.081
REMARK  3 active torsions:
REMARK  status: ('A' for Active; 'I' for Inactive)
REMARK    1  A    between atoms: C4_6  and  C5_7 
REMARK    2  A    between atoms: C5_7  and  N2_8 
REMARK       I    between atoms: N2_8  and  C6_10 
REMARK    3  A    between atoms: C6_10  and  C7_12 
ROOT
HETATM    1  N1  UNL     1      -3.837   6.431   7.098  1.00  0.00    -0.197 NA
HETATM    2  C1  UNL     1      -3.192   6.826   7.978  1.00  0.00     0.064 C 
HETATM    3  C2  UNL     1      -2.370   7.323   9.060  1.00  0.00     0.103 C 
HETATM    4  C3  UNL     1      -0.928   6.887   8.891  1.00  0.00     0.093 C 
HETATM    5  S1  UNL     1      -1.100   5.125   9.292  1.00  0.00    -0.161 SA
HETATM    6  C4  UNL     1      -2.706   5.235  10.238  1.00  0.00     0.066 C 
HETATM    7  C15 UNL     1      -2.793   6.701  10.400  1.00  0.00     0.036 C 
ENDROOT
BRANCH   6   8
HETATM    8  C5  UNL     1      -2.424   4.502  11.507  1.00  0.00     0.137 C 
BRANCH   8   9
HETATM    9  N2  UNL     1      -3.055   4.899  12.707  1.00  0.00    -0.360 N 
HETATM   10  C6  UNL     1      -4.376   4.751  13.102  1.00  0.00     0.224 C 
HETATM   11  O1  UNL     1      -5.313   4.241  12.473  1.00  0.00    -0.273 OA
ATOM     12  H2  UNL     1      -2.449   5.363  13.383  1.00  0.00     0.162 HD
BRANCH  10  13
HETATM   13  C7  UNL     1      -4.742   5.272  14.467  1.00  0.00     0.112 C 
HETATM   14  C8  UNL     1      -5.732   6.425  14.336  1.00  0.00     0.046 C 
HETATM   15  C9  UNL     1      -6.672   6.223  15.520  1.00  0.00     0.273 C 
HETATM   16  N3  UNL     1      -6.041   5.202  16.335  1.00  0.00     0.093 N 
HETATM   17  C10 UNL     1      -6.980   4.512  17.187  1.00  0.00     0.273 C 
HETATM   18  C14 UNL     1      -5.532   4.308  15.279  1.00  0.00     0.236 C 
HETATM   19  C11 UNL     1      -6.213   3.362  17.836  1.00  0.00     0.030 C 
HETATM   20  C12 UNL     1      -5.701   2.415  16.776  1.00  0.00     0.004 C 
HETATM   21  C13 UNL     1      -4.714   3.212  15.912  1.00  0.00     0.037 C 
ENDBRANCH  10  13
ENDBRANCH   8   9
ENDBRANCH   6   8
TORSDOF 3
ENDMDL
