MODEL 1
REMARK VINA RESULT: -5.335611257      0.000      0.000
REMARK  4 active torsions:
REMARK  status: ('A' for Active; 'I' for Inactive)
REMARK    1  A    between atoms: N1_2  and  C3_4 
REMARK    2  A    between atoms: C3_4  and  C4_5 
REMARK    3  A    between atoms: C4_5  and  N2_6 
REMARK       I    between atoms: N2_6  and  C6_8 
REMARK       I    between atoms: C6_8  and  N3_10 
REMARK    4  A    between atoms: N3_10  and  C7_12 
ROOT
HETATM    1  N2  UNL     1      -4.793   3.598  14.468  1.00  0.00    -0.337 N 
HETATM    2  C5  UNL     1      -4.527   2.198  14.224  1.00  0.00     0.154 C 
HETATM    3  C6  UNL     1      -4.258   4.616  13.629  1.00  0.00     0.318 C 
HETATM    4  O1  UNL     1      -4.523   5.814  13.883  1.00  0.00    -0.247 OA
HETATM    5  N3  UNL     1      -3.446   4.251  12.537  1.00  0.00    -0.338 N 
ATOM      6  H3  UNL     1      -3.257   3.262  12.373  1.00  0.00     0.164 HD
ENDROOT
BRANCH   5   7
HETATM    7  C7  UNL     1      -2.862   5.244  11.629  1.00  0.00     0.086 C 
HETATM    8  C8  UNL     1      -1.456   4.887  11.338  1.00  0.00     0.026 C 
HETATM    9  C9  UNL     1      -1.203   4.143  10.070  1.00  0.00     0.013 C 
HETATM   10  C10 UNL     1      -0.840   5.024   8.903  1.00  0.00     0.086 C 
HETATM   11  S1  UNL     1      -0.501   6.736   9.405  1.00  0.00    -0.098 SA
HETATM   12  S2  UNL     1      -2.306   7.653  10.103  1.00  0.00    -0.098 SA
HETATM   13  C11 UNL     1      -3.699   6.618   9.687  1.00  0.00     0.088 C 
HETATM   14  C12 UNL     1      -3.795   5.352  10.469  1.00  0.00     0.036 C 
ENDBRANCH   5   7
BRANCH   1  15
HETATM   15  C4  UNL     1      -5.641   3.941  15.609  1.00  0.00     0.157 C 
BRANCH  15  16
HETATM   16  C3  UNL     1      -5.125   3.308  16.880  1.00  0.00     0.291 C 
BRANCH  16  17
HETATM   17  N1  UNL     1      -6.263   2.961  17.702  1.00  0.00     0.081 N 
HETATM   18  C1  UNL     1      -7.487   2.875  16.938  1.00  0.00     0.309 C 
HETATM   19  C2  UNL     1      -6.431   3.994  18.705  1.00  0.00     0.309 C 
ENDBRANCH  16  17
ENDBRANCH  15  16
ENDBRANCH   1  15
TORSDOF 4
ENDMDL
MODEL 2
REMARK VINA RESULT: -5.209765099      3.186      5.072
REMARK  4 active torsions:
REMARK  status: ('A' for Active; 'I' for Inactive)
REMARK    1  A    between atoms: N1_2  and  C3_4 
REMARK    2  A    between atoms: C3_4  and  C4_5 
REMARK    3  A    between atoms: C4_5  and  N2_6 
REMARK       I    between atoms: N2_6  and  C6_8 
REMARK       I    between atoms: C6_8  and  N3_10 
REMARK    4  A    between atoms: N3_10  and  C7_12 
ROOT
HETATM    1  N2  UNL     1      -4.502   3.965  12.821  1.00  0.00    -0.337 N 
HETATM    2  C5  UNL     1      -4.859   3.824  14.215  1.00  0.00     0.154 C 
HETATM    3  C6  UNL     1      -3.812   5.114  12.341  1.00  0.00     0.318 C 
HETATM    4  O1  UNL     1      -3.524   5.184  11.124  1.00  0.00    -0.247 OA
HETATM    5  N3  UNL     1      -3.473   6.140  13.245  1.00  0.00    -0.338 N 
ATOM      6  H3  UNL     1      -3.731   6.038  14.226  1.00  0.00     0.164 HD
ENDROOT
BRANCH   5   7
HETATM    7  C7  UNL     1      -2.760   7.351  12.823  1.00  0.00     0.086 C 
HETATM    8  C8  UNL     1      -3.393   8.540  13.435  1.00  0.00     0.026 C 
HETATM    9  C9  UNL     1      -2.764   9.067  14.681  1.00  0.00     0.013 C 
HETATM   10  C10 UNL     1      -1.765  10.169  14.445  1.00  0.00     0.086 C 
HETATM   11  S1  UNL     1      -1.806  10.790  12.739  1.00  0.00    -0.098 SA
HETATM   12  S2  UNL     1      -1.106   9.271  11.403  1.00  0.00    -0.098 SA
HETATM   13  C11 UNL     1      -0.359   7.950  12.342  1.00  0.00     0.088 C 
HETATM   14  C12 UNL     1      -1.317   7.114  13.121  1.00  0.00     0.036 C 
ENDBRANCH   5   7
BRANCH   1  15
HETATM   15  C4  UNL     1      -4.870   2.880  11.912  1.00  0.00     0.157 C 
BRANCH  15  16
HETATM   16  C3  UNL     1      -4.186   1.591  12.300  1.00  0.00     0.291 C 
BRANCH  16  17
HETATM   17  N1  UNL     1      -3.499   1.080  11.134  1.00  0.00     0.081 N 
HETATM   18  C1  UNL     1      -3.132  -0.310  11.279  1.00  0.00     0.309 C 
HETATM   19  C2  UNL     1      -2.284   1.849  10.950  1.00  0.00     0.309 C 
ENDBRANCH  16  17
ENDBRANCH  15  16
ENDBRANCH   1  15
TORSDOF 4
ENDMDL
MODEL 3
REMARK VINA RESULT: -5.111222277      3.201      7.010
REMARK  4 active torsions:
REMARK  status: ('A' for Active; 'I' for Inactive)
REMARK    1  A    between atoms: N1_2  and  C3_4 
REMARK    2  A    between atoms: C3_4  and  C4_5 
REMARK    3  A    between atoms: C4_5  and  N2_6 
REMARK       I    between atoms: N2_6  and  C6_8 
REMARK       I    between atoms: C6_8  and  N3_10 
REMARK    4  A    between atoms: N3_10  and  C7_12 
ROOT
HETATM    1  N2  UNL     1      -1.938   4.217  10.694  1.00  0.00    -0.337 N 
HETATM    2  C5  UNL     1      -1.449   2.870  10.882  1.00  0.00     0.154 C 
HETATM    3  C6  UNL     1      -2.902   4.790  11.571  1.00  0.00     0.318 C 
HETATM    4  O1  UNL     1      -3.289   5.963  11.365  1.00  0.00    -0.247 OA
HETATM    5  N3  UNL     1      -3.395   4.023  12.647  1.00  0.00    -0.338 N 
ATOM      6  H3  UNL     1      -3.050   3.072  12.771  1.00  0.00     0.164 HD
ENDROOT
BRANCH   5   7
HETATM    7  C7  UNL     1      -4.387   4.547  13.592  1.00  0.00     0.086 C 
HETATM    8  C8  UNL     1      -5.017   3.427  14.325  1.00  0.00     0.026 C 
HETATM    9  C9  UNL     1      -4.461   3.113  15.673  1.00  0.00     0.013 C 
HETATM   10  C10 UNL     1      -5.188   3.787  16.808  1.00  0.00     0.086 C 
HETATM   11  S1  UNL     1      -6.742   4.562  16.274  1.00  0.00    -0.098 SA
HETATM   12  S2  UNL     1      -6.316   6.215  14.982  1.00  0.00    -0.098 SA
HETATM   13  C11 UNL     1      -4.574   6.593  15.054  1.00  0.00     0.088 C 
HETATM   14  C12 UNL     1      -3.687   5.587  14.401  1.00  0.00     0.036 C 
ENDBRANCH   5   7
BRANCH   1  15
HETATM   15  C4  UNL     1      -1.404   4.984   9.569  1.00  0.00     0.157 C 
BRANCH  15  16
HETATM   16  C3  UNL     1       0.099   5.101   9.655  1.00  0.00     0.291 C 
BRANCH  16  17
HETATM   17  N1  UNL     1       0.416   6.015  10.730  1.00  0.00     0.081 N 
HETATM   18  C1  UNL     1      -0.069   7.352  10.475  1.00  0.00     0.309 C 
HETATM   19  C2  UNL     1       1.858   6.078  10.862  1.00  0.00     0.309 C 
ENDBRANCH  16  17
ENDBRANCH  15  16
ENDBRANCH   1  15
TORSDOF 4
ENDMDL
MODEL 4
REMARK VINA RESULT: -5.003309660      1.909      2.037
REMARK  4 active torsions:
REMARK  status: ('A' for Active; 'I' for Inactive)
REMARK    1  A    between atoms: N1_2  and  C3_4 
REMARK    2  A    between atoms: C3_4  and  C4_5 
REMARK    3  A    between atoms: C4_5  and  N2_6 
REMARK       I    between atoms: N2_6  and  C6_8 
REMARK       I    between atoms: C6_8  and  N3_10 
REMARK    4  A    between atoms: N3_10  and  C7_12 
ROOT
HETATM    1  N2  UNL     1      -4.363   4.681  13.937  1.00  0.00    -0.337 N 
HETATM    2  C5  UNL     1      -4.967   3.794  12.968  1.00  0.00     0.154 C 
HETATM    3  C6  UNL     1      -3.158   5.385  13.656  1.00  0.00     0.318 C 
HETATM    4  O1  UNL     1      -2.680   6.144  14.530  1.00  0.00    -0.247 OA
HETATM    5  N3  UNL     1      -2.536   5.210  12.403  1.00  0.00    -0.338 N 
ATOM      6  H3  UNL     1      -2.963   4.579  11.725  1.00  0.00     0.164 HD
ENDROOT
BRANCH   5   7
HETATM    7  C7  UNL     1      -1.294   5.903  12.043  1.00  0.00     0.086 C 
HETATM    8  C8  UNL     1      -0.338   4.939  11.454  1.00  0.00     0.026 C 
HETATM    9  C9  UNL     1      -0.285   4.874   9.965  1.00  0.00     0.013 C 
HETATM   10  C10 UNL     1       0.778   5.748   9.351  1.00  0.00     0.086 C 
HETATM   11  S1  UNL     1       1.925   6.420  10.589  1.00  0.00    -0.098 SA
HETATM   12  S2  UNL     1       0.891   7.807  11.850  1.00  0.00    -0.098 SA
HETATM   13  C11 UNL     1      -0.703   8.182  11.141  1.00  0.00     0.088 C 
HETATM   14  C12 UNL     1      -1.694   7.070  11.203  1.00  0.00     0.036 C 
ENDBRANCH   5   7
BRANCH   1  15
HETATM   15  C4  UNL     1      -5.037   4.840  15.226  1.00  0.00     0.157 C 
BRANCH  15  16
HETATM   16  C3  UNL     1      -4.672   3.721  16.172  1.00  0.00     0.291 C 
BRANCH  16  17
HETATM   17  N1  UNL     1      -5.693   3.647  17.194  1.00  0.00     0.081 N 
HETATM   18  C1  UNL     1      -6.092   2.287  17.475  1.00  0.00     0.309 C 
HETATM   19  C2  UNL     1      -6.858   4.370  16.725  1.00  0.00     0.309 C 
ENDBRANCH  16  17
ENDBRANCH  15  16
ENDBRANCH   1  15
TORSDOF 4
ENDMDL
MODEL 5
REMARK VINA RESULT: -4.999318624      3.179      5.337
REMARK  4 active torsions:
REMARK  status: ('A' for Active; 'I' for Inactive)
REMARK    1  A    between atoms: N1_2  and  C3_4 
REMARK    2  A    between atoms: C3_4  and  C4_5 
REMARK    3  A    between atoms: C4_5  and  N2_6 
REMARK       I    between atoms: N2_6  and  C6_8 
REMARK       I    between atoms: C6_8  and  N3_10 
REMARK    4  A    between atoms: N3_10  and  C7_12 
ROOT
HETATM    1  N2  UNL     1      -4.793   4.129  12.068  1.00  0.00    -0.337 N 
HETATM    2  C5  UNL     1      -4.977   4.310  13.491  1.00  0.00     0.154 C 
HETATM    3  C6  UNL     1      -4.542   5.231  11.202  1.00  0.00     0.318 C 
HETATM    4  O1  UNL     1      -4.387   5.017   9.977  1.00  0.00    -0.247 OA
HETATM    5  N3  UNL     1      -4.477   6.530  11.744  1.00  0.00    -0.338 N 
ATOM      6  H3  UNL     1      -4.613   6.653  12.747  1.00  0.00     0.164 HD
ENDROOT
BRANCH   5   7
HETATM    7  C7  UNL     1      -4.221   7.712  10.913  1.00  0.00     0.086 C 
HETATM    8  C8  UNL     1      -5.476   8.139  10.254  1.00  0.00     0.026 C 
HETATM    9  C9  UNL     1      -6.237   9.240  10.914  1.00  0.00     0.013 C 
HETATM   10  C10 UNL     1      -5.916  10.612  10.380  1.00  0.00     0.086 C 
HETATM   11  S1  UNL     1      -4.917  10.552   8.864  1.00  0.00    -0.098 SA
HETATM   12  S2  UNL     1      -2.968   9.790   9.316  1.00  0.00    -0.098 SA
HETATM   13  C11 UNL     1      -2.741   9.746  11.086  1.00  0.00     0.088 C 
HETATM   14  C12 UNL     1      -3.539   8.705  11.795  1.00  0.00     0.036 C 
ENDBRANCH   5   7
BRANCH   1  15
HETATM   15  C4  UNL     1      -4.866   2.767  11.541  1.00  0.00     0.157 C 
BRANCH  15  16
HETATM   16  C3  UNL     1      -3.848   1.871  12.206  1.00  0.00     0.291 C 
BRANCH  16  17
HETATM   17  N1  UNL     1      -2.881   1.473  11.207  1.00  0.00     0.081 N 
HETATM   18  C1  UNL     1      -1.864   2.478  10.995  1.00  0.00     0.309 C 
HETATM   19  C2  UNL     1      -3.580   1.270   9.953  1.00  0.00     0.309 C 
ENDBRANCH  16  17
ENDBRANCH  15  16
ENDBRANCH   1  15
TORSDOF 4
ENDMDL
