MODEL 1
REMARK VINA RESULT: -7.315010876      0.000      0.000
REMARK  6 active torsions:
REMARK  status: ('A' for Active; 'I' for Inactive)
REMARK    1  A    between atoms: C5_5  and  N1_6 
REMARK    2  A    between atoms: N1_6  and  C6_9 
REMARK    3  A    between atoms: C6_9  and  C7_10 
REMARK       I    between atoms: C7_10  and  N2_12 
REMARK    4  A    between atoms: C9_14  and  O2_15 
REMARK    5  A    between atoms: C10_17  and  O3_18 
REMARK    6  A    between atoms: O3_18  and  C11_19 
ROOT
HETATM    1  C7  UNL     1      -4.179   3.682  11.069  1.00  0.00     0.246 C 
HETATM    2  O1  UNL     1      -5.312   4.209  10.764  1.00  0.00    -0.271 OA
HETATM    3  N2  UNL     1      -3.028   4.416  10.789  1.00  0.00    -0.328 N 
HETATM    4  C8  UNL     1      -1.634   4.045  11.056  1.00  0.00     0.161 C 
HETATM    5  C9  UNL     1      -0.793   5.306  10.902  1.00  0.00     0.168 C 
HETATM    6  C10 UNL     1      -1.851   6.395  10.993  1.00  0.00     0.189 C 
HETATM    7  C14 UNL     1      -2.933   5.729  10.139  1.00  0.00     0.226 C 
HETATM    8  C15 UNL     1      -4.174   6.424  10.208  1.00  0.00     0.087 C 
HETATM    9  N3  UNL     1      -5.182   7.030  10.255  1.00  0.00    -0.195 NA
ENDROOT
BRANCH   6  10
HETATM   10  O3  UNL     1      -2.323   6.519  12.277  1.00  0.00    -0.376 OA
BRANCH  10  11
HETATM   11  C11 UNL     1      -2.071   7.740  12.854  1.00  0.00     0.114 C 
HETATM   12  C12 UNL     1      -3.199   7.998  13.855  1.00  0.00     0.039 C 
HETATM   13  C13 UNL     1      -2.029   8.900  11.916  1.00  0.00     0.039 C 
ENDBRANCH  10  11
ENDBRANCH   6  10
BRANCH   1  14
HETATM   14  C6  UNL     1      -4.256   2.370  11.676  1.00  0.00     0.335 C 
BRANCH  14  15
HETATM   15  N1  UNL     1      -3.697   2.298  12.973  1.00  0.00    -0.063 N 
ATOM     16  H12 UNL     1      -2.780   2.746  12.995  1.00  0.00     0.278 HD
ATOM     17  H11 UNL     1      -3.424   1.340  13.194  1.00  0.00     0.278 HD
BRANCH  15  18
HETATM   18  C5  UNL     1      -4.557   2.838  14.011  1.00  0.00     0.186 C 
HETATM   19  C4  UNL     1      -4.470   2.085  15.292  1.00  0.00     0.033 C 
HETATM   20  C3  UNL     1      -5.440   2.633  16.308  1.00  0.00     0.006 C 
HETATM   21  C2  UNL     1      -5.496   4.123  16.362  1.00  0.00    -0.019 C 
HETATM   22  C1  UNL     1      -6.762   4.481  17.154  1.00  0.00     0.010 C 
HETATM   23  C17 UNL     1      -5.591   4.787  15.010  1.00  0.00     0.006 C 
HETATM   24  C16 UNL     1      -4.375   4.335  14.203  1.00  0.00     0.033 C 
ENDBRANCH  15  18
ENDBRANCH  14  15
ENDBRANCH   1  14
BRANCH   5  25
HETATM   25  O2  UNL     1       0.171   5.414  11.873  1.00  0.00    -0.391 OA
ATOM     26  H2  UNL     1       0.583   6.270  11.879  1.00  0.00     0.210 HD
ENDBRANCH   5  25
TORSDOF 6
ENDMDL
MODEL 2
REMARK VINA RESULT: -6.806190993      1.907      2.640
REMARK  6 active torsions:
REMARK  status: ('A' for Active; 'I' for Inactive)
REMARK    1  A    between atoms: C5_5  and  N1_6 
REMARK    2  A    between atoms: N1_6  and  C6_9 
REMARK    3  A    between atoms: C6_9  and  C7_10 
REMARK       I    between atoms: C7_10  and  N2_12 
REMARK    4  A    between atoms: C9_14  and  O2_15 
REMARK    5  A    between atoms: C10_17  and  O3_18 
REMARK    6  A    between atoms: O3_18  and  C11_19 
ROOT
HETATM    1  C7  UNL     1      -4.214   4.658  11.366  1.00  0.00     0.246 C 
HETATM    2  O1  UNL     1      -4.415   4.300  10.147  1.00  0.00    -0.271 OA
HETATM    3  N2  UNL     1      -3.465   5.812  11.586  1.00  0.00    -0.328 N 
HETATM    4  C8  UNL     1      -3.117   6.431  12.869  1.00  0.00     0.161 C 
HETATM    5  C9  UNL     1      -2.608   7.837  12.570  1.00  0.00     0.168 C 
HETATM    6  C10 UNL     1      -3.131   8.059  11.158  1.00  0.00     0.189 C 
HETATM    7  C14 UNL     1      -2.824   6.674  10.584  1.00  0.00     0.226 C 
HETATM    8  C15 UNL     1      -3.408   6.485   9.299  1.00  0.00     0.087 C 
HETATM    9  N3  UNL     1      -3.874   6.360   8.226  1.00  0.00    -0.195 NA
ENDROOT
BRANCH   6  10
HETATM   10  O3  UNL     1      -4.493   8.240  11.159  1.00  0.00    -0.376 OA
BRANCH  10  11
HETATM   11  C11 UNL     1      -4.890   9.521  10.865  1.00  0.00     0.114 C 
HETATM   12  C12 UNL     1      -6.414   9.554  11.000  1.00  0.00     0.039 C 
HETATM   13  C13 UNL     1      -4.551  10.003   9.494  1.00  0.00     0.039 C 
ENDBRANCH  10  11
ENDBRANCH   6  10
BRANCH   1  14
HETATM   14  C6  UNL     1      -4.808   3.795  12.366  1.00  0.00     0.335 C 
BRANCH  14  15
HETATM   15  N1  UNL     1      -3.940   3.459  13.430  1.00  0.00    -0.063 N 
ATOM     16  H12 UNL     1      -3.055   3.959  13.344  1.00  0.00     0.278 HD
ATOM     17  H11 UNL     1      -3.604   2.500  13.331  1.00  0.00     0.278 HD
BRANCH  15  18
HETATM   18  C5  UNL     1      -4.521   3.665  14.745  1.00  0.00     0.186 C 
HETATM   19  C4  UNL     1      -5.752   4.502  14.715  1.00  0.00     0.033 C 
HETATM   20  C3  UNL     1      -6.268   4.755  16.109  1.00  0.00     0.006 C 
HETATM   21  C2  UNL     1      -6.245   3.557  16.997  1.00  0.00    -0.019 C 
HETATM   22  C1  UNL     1      -6.443   4.076  18.429  1.00  0.00     0.010 C 
HETATM   23  C17 UNL     1      -4.949   2.783  16.959  1.00  0.00     0.006 C 
HETATM   24  C16 UNL     1      -4.721   2.365  15.507  1.00  0.00     0.033 C 
ENDBRANCH  15  18
ENDBRANCH  14  15
ENDBRANCH   1  14
BRANCH   5  25
HETATM   25  O2  UNL     1      -3.076   8.764  13.466  1.00  0.00    -0.391 OA
ATOM     26  H2  UNL     1      -2.549   9.555  13.477  1.00  0.00     0.210 HD
ENDBRANCH   5  25
TORSDOF 6
ENDMDL
MODEL 3
REMARK VINA RESULT: -6.800395138      2.943      7.022
REMARK  6 active torsions:
REMARK  status: ('A' for Active; 'I' for Inactive)
REMARK    1  A    between atoms: C5_5  and  N1_6 
REMARK    2  A    between atoms: N1_6  and  C6_9 
REMARK    3  A    between atoms: C6_9  and  C7_10 
REMARK       I    between atoms: C7_10  and  N2_12 
REMARK    4  A    between atoms: C9_14  and  O2_15 
REMARK    5  A    between atoms: C10_17  and  O3_18 
REMARK    6  A    between atoms: O3_18  and  C11_19 
ROOT
HETATM    1  C7  UNL     1      -3.155   5.788  13.819  1.00  0.00     0.246 C 
HETATM    2  O1  UNL     1      -2.631   4.784  13.210  1.00  0.00    -0.271 OA
HETATM    3  N2  UNL     1      -4.481   5.673  14.233  1.00  0.00    -0.328 N 
HETATM    4  C8  UNL     1      -5.288   6.661  14.956  1.00  0.00     0.161 C 
HETATM    5  C9  UNL     1      -6.524   5.937  15.481  1.00  0.00     0.168 C 
HETATM    6  C10 UNL     1      -6.091   4.482  15.387  1.00  0.00     0.189 C 
HETATM    7  C14 UNL     1      -5.394   4.542  14.026  1.00  0.00     0.226 C 
HETATM    8  C15 UNL     1      -4.672   3.348  13.741  1.00  0.00     0.087 C 
HETATM    9  N3  UNL     1      -4.106   2.342  13.511  1.00  0.00    -0.195 NA
ENDROOT
BRANCH   6  10
HETATM   10  O3  UNL     1      -5.153   4.184  16.346  1.00  0.00    -0.376 OA
BRANCH  10  11
HETATM   11  C11 UNL     1      -5.574   3.268  17.279  1.00  0.00     0.114 C 
HETATM   12  C12 UNL     1      -6.854   2.633  16.730  1.00  0.00     0.039 C 
HETATM   13  C13 UNL     1      -5.891   3.820  18.628  1.00  0.00     0.039 C 
ENDBRANCH  10  11
ENDBRANCH   6  10
BRANCH   1  14
HETATM   14  C6  UNL     1      -2.277   6.925  13.996  1.00  0.00     0.335 C 
BRANCH  14  15
HETATM   15  N1  UNL     1      -2.530   7.996  13.108  1.00  0.00    -0.063 N 
ATOM     16  H12 UNL     1      -3.533   8.134  12.987  1.00  0.00     0.278 HD
ATOM     17  H11 UNL     1      -2.277   7.739  12.153  1.00  0.00     0.278 HD
BRANCH  15  18
HETATM   18  C5  UNL     1      -1.883   9.238  13.492  1.00  0.00     0.186 C 
HETATM   19  C4  UNL     1      -2.083  10.332  12.501  1.00  0.00     0.033 C 
HETATM   20  C3  UNL     1      -1.326  11.572  12.904  1.00  0.00     0.006 C 
HETATM   21  C2  UNL     1      -1.419  11.902  14.356  1.00  0.00    -0.019 C 
HETATM   22  C1  UNL     1      -0.320  12.938  14.635  1.00  0.00     0.010 C 
HETATM   23  C17 UNL     1      -1.191  10.726  15.273  1.00  0.00     0.006 C 
HETATM   24  C16 UNL     1      -2.230   9.667  14.908  1.00  0.00     0.033 C 
ENDBRANCH  15  18
ENDBRANCH  14  15
ENDBRANCH   1  14
BRANCH   5  25
HETATM   25  O2  UNL     1      -6.849   6.318  16.759  1.00  0.00    -0.391 OA
ATOM     26  H2  UNL     1      -6.238   5.980  17.403  1.00  0.00     0.210 HD
ENDBRANCH   5  25
TORSDOF 6
ENDMDL
MODEL 4
REMARK VINA RESULT: -6.788259705      2.238      3.592
REMARK  6 active torsions:
REMARK  status: ('A' for Active; 'I' for Inactive)
REMARK    1  A    between atoms: C5_5  and  N1_6 
REMARK    2  A    between atoms: N1_6  and  C6_9 
REMARK    3  A    between atoms: C6_9  and  C7_10 
REMARK       I    between atoms: C7_10  and  N2_12 
REMARK    4  A    between atoms: C9_14  and  O2_15 
REMARK    5  A    between atoms: C10_17  and  O3_18 
REMARK    6  A    between atoms: O3_18  and  C11_19 
ROOT
HETATM    1  C7  UNL     1      -2.344   5.234  12.378  1.00  0.00     0.246 C 
HETATM    2  O1  UNL     1      -2.740   4.057  12.047  1.00  0.00    -0.271 OA
HETATM    3  N2  UNL     1      -1.135   5.683  11.851  1.00  0.00    -0.328 N 
HETATM    4  C8  UNL     1      -0.485   6.981  12.061  1.00  0.00     0.161 C 
HETATM    5  C9  UNL     1       0.606   7.116  11.005  1.00  0.00     0.168 C 
HETATM    6  C10 UNL     1       0.188   6.060   9.993  1.00  0.00     0.189 C 
HETATM    7  C14 UNL     1      -0.210   4.954  10.974  1.00  0.00     0.226 C 
HETATM    8  C15 UNL     1      -0.869   3.872  10.323  1.00  0.00     0.087 C 
HETATM    9  N3  UNL     1      -1.384   2.975   9.762  1.00  0.00    -0.195 NA
ENDROOT
BRANCH   6  10
HETATM   10  O3  UNL     1      -0.932   6.455   9.302  1.00  0.00    -0.376 OA
BRANCH  10  11
HETATM   11  C11 UNL     1      -0.723   6.653   7.959  1.00  0.00     0.114 C 
HETATM   12  C12 UNL     1      -2.102   6.815   7.315  1.00  0.00     0.039 C 
HETATM   13  C13 UNL     1      -0.023   5.545   7.245  1.00  0.00     0.039 C 
ENDBRANCH  10  11
ENDBRANCH   6  10
BRANCH   1  14
HETATM   14  C6  UNL     1      -3.228   5.950  13.274  1.00  0.00     0.335 C 
BRANCH  14  15
HETATM   15  N1  UNL     1      -4.528   5.400  13.367  1.00  0.00    -0.063 N 
ATOM     16  H12 UNL     1      -4.628   4.605  12.737  1.00  0.00     0.278 HD
ATOM     17  H11 UNL     1      -5.216   6.031  12.956  1.00  0.00     0.278 HD
BRANCH  15  18
HETATM   18  C5  UNL     1      -4.912   5.036  14.720  1.00  0.00     0.186 C 
HETATM   19  C4  UNL     1      -6.283   5.491  15.080  1.00  0.00     0.033 C 
HETATM   20  C3  UNL     1      -6.602   5.161  16.517  1.00  0.00     0.006 C 
HETATM   21  C2  UNL     1      -6.171   3.798  16.943  1.00  0.00    -0.019 C 
HETATM   22  C1  UNL     1      -6.235   3.784  18.477  1.00  0.00     0.010 C 
HETATM   23  C17 UNL     1      -4.763   3.439  16.535  1.00  0.00     0.006 C 
HETATM   24  C16 UNL     1      -4.695   3.560  15.013  1.00  0.00     0.033 C 
ENDBRANCH  15  18
ENDBRANCH  14  15
ENDBRANCH   1  14
BRANCH   5  25
HETATM   25  O2  UNL     1       0.662   8.378  10.469  1.00  0.00    -0.391 OA
ATOM     26  H2  UNL     1      -0.001   8.518   9.804  1.00  0.00     0.210 HD
ENDBRANCH   5  25
TORSDOF 6
ENDMDL
MODEL 5
REMARK VINA RESULT: -6.777827869      1.942      3.975
REMARK  6 active torsions:
REMARK  status: ('A' for Active; 'I' for Inactive)
REMARK    1  A    between atoms: C5_5  and  N1_6 
REMARK    2  A    between atoms: N1_6  and  C6_9 
REMARK    3  A    between atoms: C6_9  and  C7_10 
REMARK       I    between atoms: C7_10  and  N2_12 
REMARK    4  A    between atoms: C9_14  and  O2_15 
REMARK    5  A    between atoms: C10_17  and  O3_18 
REMARK    6  A    between atoms: O3_18  and  C11_19 
ROOT
HETATM    1  C7  UNL     1      -2.981   7.466  13.542  1.00  0.00     0.246 C 
HETATM    2  O1  UNL     1      -1.876   7.994  13.933  1.00  0.00    -0.271 OA
HETATM    3  N2  UNL     1      -3.080   7.088  12.204  1.00  0.00    -0.328 N 
HETATM    4  C8  UNL     1      -4.216   6.455  11.527  1.00  0.00     0.161 C 
HETATM    5  C9  UNL     1      -3.708   5.925  10.191  1.00  0.00     0.168 C 
HETATM    6  C10 UNL     1      -2.204   5.913  10.417  1.00  0.00     0.189 C 
HETATM    7  C14 UNL     1      -2.075   7.253  11.146  1.00  0.00     0.226 C 
HETATM    8  C15 UNL     1      -0.776   7.439  11.699  1.00  0.00     0.087 C 
HETATM    9  N3  UNL     1       0.312   7.587  12.122  1.00  0.00    -0.195 NA
ENDROOT
BRANCH   6  10
HETATM   10  O3  UNL     1      -1.843   4.908  11.281  1.00  0.00    -0.376 OA
BRANCH  10  11
HETATM   11  C11 UNL     1      -0.950   4.007  10.754  1.00  0.00     0.114 C 
HETATM   12  C12 UNL     1      -0.614   4.491   9.342  1.00  0.00     0.039 C 
HETATM   13  C13 UNL     1      -1.443   2.603  10.641  1.00  0.00     0.039 C 
ENDBRANCH  10  11
ENDBRANCH   6  10
BRANCH   1  14
HETATM   14  C6  UNL     1      -3.995   7.333  14.567  1.00  0.00     0.335 C 
BRANCH  14  15
HETATM   15  N1  UNL     1      -5.137   6.605  14.161  1.00  0.00    -0.063 N 
ATOM     16  H12 UNL     1      -5.090   6.387  13.166  1.00  0.00     0.278 HD
ATOM     17  H11 UNL     1      -5.965   7.202  14.166  1.00  0.00     0.278 HD
BRANCH  15  18
HETATM   18  C5  UNL     1      -5.369   5.401  14.939  1.00  0.00     0.186 C 
HETATM   19  C4  UNL     1      -4.111   4.750  15.397  1.00  0.00     0.033 C 
HETATM   20  C3  UNL     1      -4.402   3.464  16.128  1.00  0.00     0.006 C 
HETATM   21  C2  UNL     1      -5.547   3.546  17.081  1.00  0.00    -0.019 C 
HETATM   22  C1  UNL     1      -5.920   2.099  17.436  1.00  0.00     0.010 C 
HETATM   23  C17 UNL     1      -6.775   4.216  16.515  1.00  0.00     0.006 C 
HETATM   24  C16 UNL     1      -6.356   5.618  16.075  1.00  0.00     0.033 C 
ENDBRANCH  15  18
ENDBRANCH  14  15
ENDBRANCH   1  14
BRANCH   5  25
HETATM   25  O2  UNL     1      -4.215   4.685   9.893  1.00  0.00    -0.391 OA
ATOM     26  H2  UNL     1      -3.917   4.366   9.050  1.00  0.00     0.210 HD
ENDBRANCH   5  25
TORSDOF 6
ENDMDL
