MODEL 1
REMARK VINA RESULT: -7.752435482      0.000      0.000
REMARK  6 active torsions:
REMARK  status: ('A' for Active; 'I' for Inactive)
REMARK    1  A    between atoms: N1_7  and  C6_8 
REMARK    2  A    between atoms: C6_8  and  C7_9 
REMARK    3  A    between atoms: C7_9  and  C8_10 
REMARK    4  A    between atoms: C8_10  and  N2_11 
REMARK    5  A    between atoms: N2_11  and  C9_13 
REMARK    6  A    between atoms: C10_16  and  N4_17 
ROOT
HETATM    1  C9  UNL     1      -2.364   6.037  14.041  1.00  0.00     0.707 A 
HETATM    2  N3  UNL     1      -3.002   4.976  14.567  1.00  0.00    -0.020 N 
ATOM      3  H3  UNL     1      -2.596   4.050  14.699  1.00  0.00     0.203 HD
HETATM    4  C10 UNL     1      -4.274   5.334  14.897  1.00  0.00     0.709 A 
HETATM    5  N5  UNL     1      -4.390   6.630  14.558  1.00  0.00    -0.117 N 
ATOM      6  H5  UNL     1      -5.228   7.198  14.677  1.00  0.00     0.206 HD
HETATM    7  N6  UNL     1      -3.245   7.053  14.045  1.00  0.00    -0.117 N 
ATOM      8  H6  UNL     1      -3.061   7.997  13.708  1.00  0.00     0.206 HD
ENDROOT
BRANCH   1   9
HETATM    9  N2  UNL     1      -1.140   6.003  13.634  1.00  0.00    -0.224 N 
ATOM     10  H2  UNL     1      -0.411   5.786  14.313  1.00  0.00     0.177 HD
BRANCH   9  11
HETATM   11  C8  UNL     1      -0.752   6.255  12.271  1.00  0.00     0.139 C 
BRANCH  11  12
HETATM   12  C7  UNL     1      -0.690   4.903  11.562  1.00  0.00     0.040 C 
BRANCH  12  13
HETATM   13  C6  UNL     1      -1.786   4.825  10.510  1.00  0.00     0.127 C 
BRANCH  13  14
HETATM   14  N1  UNL     1      -2.745   3.829  10.912  1.00  0.00    -0.352 N 
HETATM   15  C5  UNL     1      -4.113   4.127  11.159  1.00  0.00     0.219 C 
HETATM   16  C4  UNL     1      -5.205   3.133  10.965  1.00  0.00     0.103 C 
HETATM   17  O1  UNL     1      -4.365   5.311  11.563  1.00  0.00    -0.273 OA
HETATM   18  C3  UNL     1      -4.559   1.900  10.358  1.00  0.00     0.015 C 
HETATM   19  C2  UNL     1      -3.395   1.474  11.222  1.00  0.00    -0.000 C 
HETATM   20  C1  UNL     1      -3.804   1.292  12.667  1.00  0.00     0.011 C 
HETATM   21  C16 UNL     1      -2.263   2.465  11.066  1.00  0.00     0.130 C 
ENDBRANCH  13  14
ENDBRANCH  12  13
ENDBRANCH  11  12
ENDBRANCH   9  11
ENDBRANCH   1   9
BRANCH   4  22
HETATM   22  N4  UNL     1      -5.275   4.502  15.480  1.00  0.00    -0.216 N 
HETATM   23  C11 UNL     1      -5.025   3.068  15.551  1.00  0.00     0.141 C 
HETATM   24  C12 UNL     1      -5.459   2.507  16.893  1.00  0.00     0.020 C 
HETATM   25  C13 UNL     1      -5.954   3.603  17.817  1.00  0.00     0.003 C 
HETATM   26  C14 UNL     1      -7.077   4.341  17.125  1.00  0.00     0.020 C 
HETATM   27  C15 UNL     1      -6.480   5.101  15.970  1.00  0.00     0.141 C 
ENDBRANCH   4  22
TORSDOF 6
ENDMDL
MODEL 2
REMARK VINA RESULT: -7.723623694      1.412      5.293
REMARK  6 active torsions:
REMARK  status: ('A' for Active; 'I' for Inactive)
REMARK    1  A    between atoms: N1_7  and  C6_8 
REMARK    2  A    between atoms: C6_8  and  C7_9 
REMARK    3  A    between atoms: C7_9  and  C8_10 
REMARK    4  A    between atoms: C8_10  and  N2_11 
REMARK    5  A    between atoms: N2_11  and  C9_13 
REMARK    6  A    between atoms: C10_16  and  N4_17 
ROOT
HETATM    1  C9  UNL     1      -2.148   6.146  12.934  1.00  0.00     0.707 A 
HETATM    2  N3  UNL     1      -2.983   5.281  12.331  1.00  0.00    -0.020 N 
ATOM      3  H3  UNL     1      -3.997   5.382  12.276  1.00  0.00     0.203 HD
HETATM    4  C10 UNL     1      -2.264   4.251  11.806  1.00  0.00     0.709 A 
HETATM    5  N5  UNL     1      -0.979   4.512  12.105  1.00  0.00    -0.117 N 
ATOM      6  H5  UNL     1      -0.184   3.926  11.851  1.00  0.00     0.206 HD
HETATM    7  N6  UNL     1      -0.908   5.648  12.780  1.00  0.00    -0.117 N 
ATOM      8  H6  UNL     1      -0.051   6.076  13.128  1.00  0.00     0.206 HD
ENDROOT
BRANCH   1   9
HETATM    9  N2  UNL     1      -2.541   7.224  13.523  1.00  0.00    -0.224 N 
ATOM     10  H2  UNL     1      -1.843   7.796  13.999  1.00  0.00     0.177 HD
BRANCH   9  11
HETATM   11  C8  UNL     1      -3.913   7.660  13.544  1.00  0.00     0.139 C 
BRANCH  11  12
HETATM   12  C7  UNL     1      -4.474   7.316  14.922  1.00  0.00     0.040 C 
BRANCH  12  13
HETATM   13  C6  UNL     1      -5.896   6.791  14.781  1.00  0.00     0.127 C 
BRANCH  13  14
HETATM   14  N1  UNL     1      -5.952   5.457  15.320  1.00  0.00    -0.352 N 
HETATM   15  C5  UNL     1      -5.435   4.324  14.634  1.00  0.00     0.219 C 
HETATM   16  C4  UNL     1      -4.918   3.119  15.341  1.00  0.00     0.103 C 
HETATM   17  O1  UNL     1      -5.435   4.390  13.361  1.00  0.00    -0.273 OA
HETATM   18  C3  UNL     1      -4.947   3.445  16.823  1.00  0.00     0.015 C 
HETATM   19  C2  UNL     1      -6.333   3.914  17.200  1.00  0.00    -0.000 C 
HETATM   20  C1  UNL     1      -7.396   2.923  16.780  1.00  0.00     0.011 C 
HETATM   21  C16 UNL     1      -6.572   5.292  16.625  1.00  0.00     0.130 C 
ENDBRANCH  13  14
ENDBRANCH  12  13
ENDBRANCH  11  12
ENDBRANCH   9  11
ENDBRANCH   1   9
BRANCH   4  22
HETATM   22  N4  UNL     1      -2.772   3.128  11.088  1.00  0.00    -0.216 N 
HETATM   23  C11 UNL     1      -1.873   2.009  10.834  1.00  0.00     0.141 C 
HETATM   24  C12 UNL     1      -2.579   0.685  11.060  1.00  0.00     0.020 C 
HETATM   25  C13 UNL     1      -3.994   0.890  11.567  1.00  0.00     0.003 C 
HETATM   26  C14 UNL     1      -4.733   1.761  10.577  1.00  0.00     0.020 C 
HETATM   27  C15 UNL     1      -4.133   3.140  10.646  1.00  0.00     0.141 C 
ENDBRANCH   4  22
TORSDOF 6
ENDMDL
MODEL 3
REMARK VINA RESULT: -7.363129050      2.198      5.351
REMARK  6 active torsions:
REMARK  status: ('A' for Active; 'I' for Inactive)
REMARK    1  A    between atoms: N1_7  and  C6_8 
REMARK    2  A    between atoms: C6_8  and  C7_9 
REMARK    3  A    between atoms: C7_9  and  C8_10 
REMARK    4  A    between atoms: C8_10  and  N2_11 
REMARK    5  A    between atoms: N2_11  and  C9_13 
REMARK    6  A    between atoms: C10_16  and  N4_17 
ROOT
HETATM    1  C9  UNL     1      -1.699   3.615  10.875  1.00  0.00     0.707 A 
HETATM    2  N3  UNL     1      -2.242   4.844  10.858  1.00  0.00    -0.020 N 
ATOM      3  H3  UNL     1      -3.024   5.135  10.271  1.00  0.00     0.203 HD
HETATM    4  C10 UNL     1      -1.587   5.640  11.748  1.00  0.00     0.709 A 
HETATM    5  N5  UNL     1      -0.637   4.865  12.301  1.00  0.00    -0.117 N 
ATOM      6  H5  UNL     1       0.030   5.166  13.011  1.00  0.00     0.206 HD
HETATM    7  N6  UNL     1      -0.704   3.651  11.779  1.00  0.00    -0.117 N 
ATOM      8  H6  UNL     1      -0.097   2.868  12.024  1.00  0.00     0.206 HD
ENDROOT
BRANCH   1   9
HETATM    9  N2  UNL     1      -2.112   2.642  10.136  1.00  0.00    -0.224 N 
ATOM     10  H2  UNL     1      -1.897   2.667   9.139  1.00  0.00     0.177 HD
BRANCH   9  11
HETATM   11  C8  UNL     1      -2.860   1.523  10.646  1.00  0.00     0.139 C 
BRANCH  11  12
HETATM   12  C7  UNL     1      -4.061   2.090  11.401  1.00  0.00     0.040 C 
BRANCH  12  13
HETATM   13  C6  UNL     1      -4.075   1.548  12.823  1.00  0.00     0.127 C 
BRANCH  13  14
HETATM   14  N1  UNL     1      -4.394   2.624  13.725  1.00  0.00    -0.352 N 
HETATM   15  C5  UNL     1      -4.485   2.451  15.134  1.00  0.00     0.219 C 
HETATM   16  C4  UNL     1      -4.195   3.545  16.102  1.00  0.00     0.103 C 
HETATM   17  O1  UNL     1      -4.832   1.292  15.535  1.00  0.00    -0.273 OA
HETATM   18  C3  UNL     1      -3.689   4.720  15.284  1.00  0.00     0.015 C 
HETATM   19  C2  UNL     1      -4.683   5.025  14.189  1.00  0.00    -0.000 C 
HETATM   20  C1  UNL     1      -6.079   5.228  14.735  1.00  0.00     0.011 C 
HETATM   21  C16 UNL     1      -4.628   3.935  13.141  1.00  0.00     0.130 C 
ENDBRANCH  13  14
ENDBRANCH  12  13
ENDBRANCH  11  12
ENDBRANCH   9  11
ENDBRANCH   1   9
BRANCH   4  22
HETATM   22  N4  UNL     1      -1.854   7.012  12.032  1.00  0.00    -0.216 N 
HETATM   23  C11 UNL     1      -3.102   7.587  11.546  1.00  0.00     0.141 C 
HETATM   24  C12 UNL     1      -3.739   8.471  12.602  1.00  0.00     0.020 C 
HETATM   25  C13 UNL     1      -2.948   8.446  13.896  1.00  0.00     0.003 C 
HETATM   26  C14 UNL     1      -1.527   8.864  13.595  1.00  0.00     0.020 C 
HETATM   27  C15 UNL     1      -0.894   7.769  12.777  1.00  0.00     0.141 C 
ENDBRANCH   4  22
TORSDOF 6
ENDMDL
MODEL 4
REMARK VINA RESULT: -7.322542876      2.382      5.352
REMARK  6 active torsions:
REMARK  status: ('A' for Active; 'I' for Inactive)
REMARK    1  A    between atoms: N1_7  and  C6_8 
REMARK    2  A    between atoms: C6_8  and  C7_9 
REMARK    3  A    between atoms: C7_9  and  C8_10 
REMARK    4  A    between atoms: C8_10  and  N2_11 
REMARK    5  A    between atoms: N2_11  and  C9_13 
REMARK    6  A    between atoms: C10_16  and  N4_17 
ROOT
HETATM    1  C9  UNL     1      -1.695   4.823  11.448  1.00  0.00     0.707 A 
HETATM    2  N3  UNL     1      -2.317   6.015  11.430  1.00  0.00    -0.020 N 
ATOM      3  H3  UNL     1      -2.983   6.322  10.720  1.00  0.00     0.203 HD
HETATM    4  C10 UNL     1      -1.920   6.748  12.506  1.00  0.00     0.709 A 
HETATM    5  N5  UNL     1      -1.046   5.974  13.174  1.00  0.00    -0.117 N 
ATOM      6  H5  UNL     1      -0.563   6.236  14.033  1.00  0.00     0.206 HD
HETATM    7  N6  UNL     1      -0.911   4.820  12.541  1.00  0.00    -0.117 N 
ATOM      8  H6  UNL     1      -0.309   4.051  12.835  1.00  0.00     0.206 HD
ENDROOT
BRANCH   1   9
HETATM    9  N2  UNL     1      -1.873   3.912  10.553  1.00  0.00    -0.224 N 
ATOM     10  H2  UNL     1      -1.642   4.135   9.585  1.00  0.00     0.177 HD
BRANCH   9  11
HETATM   11  C8  UNL     1      -2.379   2.598  10.850  1.00  0.00     0.139 C 
BRANCH  11  12
HETATM   12  C7  UNL     1      -3.833   2.764  11.290  1.00  0.00     0.040 C 
BRANCH  12  13
HETATM   13  C6  UNL     1      -4.077   1.970  12.565  1.00  0.00     0.127 C 
BRANCH  13  14
HETATM   14  N1  UNL     1      -4.420   2.886  13.622  1.00  0.00    -0.352 N 
HETATM   15  C5  UNL     1      -4.451   2.508  14.993  1.00  0.00     0.219 C 
HETATM   16  C4  UNL     1      -4.186   3.468  16.101  1.00  0.00     0.103 C 
HETATM   17  O1  UNL     1      -4.720   1.285  15.232  1.00  0.00    -0.273 OA
HETATM   18  C3  UNL     1      -3.774   4.775  15.448  1.00  0.00     0.015 C 
HETATM   19  C2  UNL     1      -4.822   5.174  14.436  1.00  0.00    -0.000 C 
HETATM   20  C1  UNL     1      -6.206   5.214  15.045  1.00  0.00     0.011 C 
HETATM   21  C16 UNL     1      -4.747   4.250  13.241  1.00  0.00     0.130 C 
ENDBRANCH  13  14
ENDBRANCH  12  13
ENDBRANCH  11  12
ENDBRANCH   9  11
ENDBRANCH   1   9
BRANCH   4  22
HETATM   22  N4  UNL     1      -2.344   8.065  12.852  1.00  0.00    -0.216 N 
HETATM   23  C11 UNL     1      -2.733   8.324  14.233  1.00  0.00     0.141 C 
HETATM   24  C12 UNL     1      -2.181   9.654  14.712  1.00  0.00     0.020 C 
HETATM   25  C13 UNL     1      -1.311  10.306  13.654  1.00  0.00     0.003 C 
HETATM   26  C14 UNL     1      -2.128  10.456  12.391  1.00  0.00     0.020 C 
HETATM   27  C15 UNL     1      -2.374   9.077  11.840  1.00  0.00     0.141 C 
ENDBRANCH   4  22
TORSDOF 6
ENDMDL
MODEL 5
REMARK VINA RESULT: -7.252540073      2.020      4.140
REMARK  6 active torsions:
REMARK  status: ('A' for Active; 'I' for Inactive)
REMARK    1  A    between atoms: N1_7  and  C6_8 
REMARK    2  A    between atoms: C6_8  and  C7_9 
REMARK    3  A    between atoms: C7_9  and  C8_10 
REMARK    4  A    between atoms: C8_10  and  N2_11 
REMARK    5  A    between atoms: N2_11  and  C9_13 
REMARK    6  A    between atoms: C10_16  and  N4_17 
ROOT
HETATM    1  C9  UNL     1      -3.635   2.738  12.177  1.00  0.00     0.707 A 
HETATM    2  N3  UNL     1      -4.030   3.630  13.102  1.00  0.00    -0.020 N 
ATOM      3  H3  UNL     1      -4.057   4.641  12.973  1.00  0.00     0.203 HD
HETATM    4  C10 UNL     1      -4.390   2.971  14.238  1.00  0.00     0.709 A 
HETATM    5  N5  UNL     1      -4.202   1.665  13.979  1.00  0.00    -0.117 N 
ATOM      6  H5  UNL     1      -4.380   0.902  14.633  1.00  0.00     0.206 HD
HETATM    7  N6  UNL     1      -3.751   1.524  12.743  1.00  0.00    -0.117 N 
ATOM      8  H6  UNL     1      -3.527   0.637  12.293  1.00  0.00     0.206 HD
ENDROOT
BRANCH   1   9
HETATM    9  N2  UNL     1      -3.237   3.067  10.995  1.00  0.00    -0.224 N 
ATOM     10  H2  UNL     1      -3.941   3.246  10.279  1.00  0.00     0.177 HD
BRANCH   9  11
HETATM   11  C8  UNL     1      -1.848   3.193  10.634  1.00  0.00     0.139 C 
BRANCH  11  12
HETATM   12  C7  UNL     1      -1.565   4.683  10.448  1.00  0.00     0.040 C 
BRANCH  12  13
HETATM   13  C6  UNL     1      -1.006   5.264  11.739  1.00  0.00     0.127 C 
BRANCH  13  14
HETATM   14  N1  UNL     1      -1.928   6.249  12.241  1.00  0.00    -0.352 N 
HETATM   15  C5  UNL     1      -2.092   6.519  13.627  1.00  0.00     0.219 C 
HETATM   16  C4  UNL     1      -2.511   7.850  14.147  1.00  0.00     0.103 C 
HETATM   17  O1  UNL     1      -1.859   5.547  14.420  1.00  0.00    -0.273 OA
HETATM   18  C3  UNL     1      -2.564   8.781  12.949  1.00  0.00     0.015 C 
HETATM   19  C2  UNL     1      -3.435   8.163  11.881  1.00  0.00    -0.000 C 
HETATM   20  C1  UNL     1      -4.799   7.786  12.413  1.00  0.00     0.011 C 
HETATM   21  C16 UNL     1      -2.714   6.985  11.263  1.00  0.00     0.130 C 
ENDBRANCH  13  14
ENDBRANCH  12  13
ENDBRANCH  11  12
ENDBRANCH   9  11
ENDBRANCH   1   9
BRANCH   4  22
HETATM   22  N4  UNL     1      -4.865   3.550  15.452  1.00  0.00    -0.216 N 
HETATM   23  C11 UNL     1      -5.411   4.900  15.405  1.00  0.00     0.141 C 
HETATM   24  C12 UNL     1      -6.668   5.007  16.248  1.00  0.00     0.020 C 
HETATM   25  C13 UNL     1      -7.055   3.664  16.838  1.00  0.00     0.003 C 
HETATM   26  C14 UNL     1      -5.884   3.139  17.636  1.00  0.00     0.020 C 
HETATM   27  C15 UNL     1      -4.789   2.791  16.663  1.00  0.00     0.141 C 
ENDBRANCH   4  22
TORSDOF 6
ENDMDL
