MODEL 1
REMARK VINA RESULT: -7.369212864      0.000      0.000
REMARK  5 active torsions:
REMARK  status: ('A' for Active; 'I' for Inactive)
REMARK    1  A    between atoms: C2_5  and  C3_6 
REMARK    2  A    between atoms: N3_8  and  C5_9 
REMARK    3  A    between atoms: C5_9  and  C6_10 
REMARK    4  A    between atoms: C6_10  and  N4_11 
REMARK       I    between atoms: N4_11  and  C7_13 
REMARK       I    between atoms: C7_13  and  N5_15 
REMARK    5  A    between atoms: N5_15  and  C8_17 
ROOT
HETATM    1  N1  UNL     1      -5.898   1.384  17.022  1.00  0.00    -0.172 NA
HETATM    2  C1  UNL     1      -6.321   2.443  17.215  1.00  0.00     0.181 C 
HETATM    3  N2  UNL     1      -6.852   3.722  17.435  1.00  0.00    -0.308 N 
ATOM      4  H2  UNL     1      -7.442   3.874  18.254  1.00  0.00     0.177 HD
HETATM    5  C2  UNL     1      -6.625   4.713  16.645  1.00  0.00     0.080 C 
ENDROOT
BRANCH   5   6
HETATM    6  C3  UNL     1      -5.786   4.532  15.467  1.00  0.00     0.081 C 
HETATM    7  C4  UNL     1      -4.296   4.423  15.734  1.00  0.00     0.284 C 
HETATM    8  N3  UNL     1      -4.085   5.213  14.571  1.00  0.00     0.091 N 
HETATM    9  C18 UNL     1      -5.360   5.818  14.757  1.00  0.00     0.284 C 
BRANCH   8  10
HETATM   10  C5  UNL     1      -2.922   6.027  14.485  1.00  0.00     0.292 C 
BRANCH  10  11
HETATM   11  C6  UNL     1      -2.211   5.977  13.177  1.00  0.00     0.154 C 
BRANCH  11  12
HETATM   12  N4  UNL     1      -3.104   6.137  12.059  1.00  0.00    -0.341 N 
HETATM   13  C7  UNL     1      -3.771   7.338  11.705  1.00  0.00     0.316 C 
HETATM   14  O1  UNL     1      -3.634   8.400  12.363  1.00  0.00    -0.247 OA
HETATM   15  N5  UNL     1      -4.636   7.414  10.579  1.00  0.00    -0.334 N 
ATOM     16  H5  UNL     1      -4.762   6.567  10.025  1.00  0.00     0.165 HD
ATOM     17  H4  UNL     1      -3.271   5.318  11.474  1.00  0.00     0.164 HD
BRANCH  15  18
HETATM   18  C8  UNL     1      -5.340   8.578  10.163  1.00  0.00     0.035 C 
HETATM   19  C9  UNL     1      -6.078   8.238   8.876  1.00  0.00     0.035 C 
HETATM   20  C10 UNL     1      -6.917   9.356   8.354  1.00  0.00    -0.012 C 
HETATM   21  C11 UNL     1      -6.001  10.520   8.043  1.00  0.00     0.009 C 
HETATM   22  C15 UNL     1      -7.911   9.796   9.404  1.00  0.00     0.009 C 
HETATM   23  C12 UNL     1      -5.284  10.875   9.302  1.00  0.00    -0.012 C 
HETATM   24  C13 UNL     1      -6.248  11.291  10.399  1.00  0.00     0.009 C 
HETATM   25  C17 UNL     1      -4.443   9.750   9.856  1.00  0.00     0.035 C 
HETATM   26  C14 UNL     1      -7.190  10.160  10.664  1.00  0.00    -0.012 C 
HETATM   27  C16 UNL     1      -6.390   8.987  11.180  1.00  0.00     0.035 C 
ENDBRANCH  15  18
ENDBRANCH  11  12
ENDBRANCH  10  11
ENDBRANCH   8  10
ENDBRANCH   5   6
TORSDOF 5
ENDMDL
MODEL 2
REMARK VINA RESULT: -7.254511301      1.037      1.932
REMARK  5 active torsions:
REMARK  status: ('A' for Active; 'I' for Inactive)
REMARK    1  A    between atoms: C2_5  and  C3_6 
REMARK    2  A    between atoms: N3_8  and  C5_9 
REMARK    3  A    between atoms: C5_9  and  C6_10 
REMARK    4  A    between atoms: C6_10  and  N4_11 
REMARK       I    between atoms: N4_11  and  C7_13 
REMARK       I    between atoms: C7_13  and  N5_15 
REMARK    5  A    between atoms: N5_15  and  C8_17 
ROOT
HETATM    1  N1  UNL     1      -5.929   1.404  17.040  1.00  0.00    -0.172 NA
HETATM    2  C1  UNL     1      -6.258   2.491  17.255  1.00  0.00     0.181 C 
HETATM    3  N2  UNL     1      -6.678   3.806  17.503  1.00  0.00    -0.308 N 
ATOM      4  H2  UNL     1      -7.151   4.011  18.383  1.00  0.00     0.177 HD
HETATM    5  C2  UNL     1      -6.491   4.765  16.664  1.00  0.00     0.080 C 
ENDROOT
BRANCH   5   6
HETATM    6  C3  UNL     1      -5.818   4.508  15.398  1.00  0.00     0.081 C 
HETATM    7  C4  UNL     1      -4.301   4.498  15.451  1.00  0.00     0.284 C 
HETATM    8  N3  UNL     1      -4.306   5.176  14.202  1.00  0.00     0.091 N 
HETATM    9  C18 UNL     1      -5.577   5.735  14.517  1.00  0.00     0.284 C 
BRANCH   8  10
HETATM   10  C5  UNL     1      -3.219   6.033  13.872  1.00  0.00     0.292 C 
BRANCH  10  11
HETATM   11  C6  UNL     1      -2.801   6.000  12.443  1.00  0.00     0.154 C 
BRANCH  11  12
HETATM   12  N4  UNL     1      -3.053   7.246  11.767  1.00  0.00    -0.341 N 
HETATM   13  C7  UNL     1      -4.163   7.515  10.925  1.00  0.00     0.316 C 
HETATM   14  O1  UNL     1      -5.048   6.654  10.688  1.00  0.00    -0.247 OA
HETATM   15  N5  UNL     1      -4.343   8.777  10.296  1.00  0.00    -0.334 N 
ATOM     16  H5  UNL     1      -3.639   9.495  10.473  1.00  0.00     0.165 HD
ATOM     17  H4  UNL     1      -2.378   7.998  11.906  1.00  0.00     0.164 HD
BRANCH  15  18
HETATM   18  C8  UNL     1      -5.424   9.120   9.438  1.00  0.00     0.035 C 
HETATM   19  C9  UNL     1      -5.168  10.523   8.906  1.00  0.00     0.035 C 
HETATM   20  C10 UNL     1      -6.198  10.992   7.935  1.00  0.00    -0.012 C 
HETATM   21  C11 UNL     1      -7.531  11.029   8.652  1.00  0.00     0.009 C 
HETATM   22  C15 UNL     1      -6.303  10.025   6.778  1.00  0.00     0.009 C 
HETATM   23  C12 UNL     1      -7.803   9.654   9.163  1.00  0.00    -0.012 C 
HETATM   24  C13 UNL     1      -7.883   8.641   8.035  1.00  0.00     0.009 C 
HETATM   25  C17 UNL     1      -6.761   9.154  10.134  1.00  0.00     0.035 C 
HETATM   26  C14 UNL     1      -6.585   8.648   7.292  1.00  0.00    -0.012 C 
HETATM   27  C16 UNL     1      -5.495   8.197   8.235  1.00  0.00     0.035 C 
ENDBRANCH  15  18
ENDBRANCH  11  12
ENDBRANCH  10  11
ENDBRANCH   8  10
ENDBRANCH   5   6
TORSDOF 5
ENDMDL
MODEL 3
REMARK VINA RESULT: -7.172078312      1.438      2.249
REMARK  5 active torsions:
REMARK  status: ('A' for Active; 'I' for Inactive)
REMARK    1  A    between atoms: C2_5  and  C3_6 
REMARK    2  A    between atoms: N3_8  and  C5_9 
REMARK    3  A    between atoms: C5_9  and  C6_10 
REMARK    4  A    between atoms: C6_10  and  N4_11 
REMARK       I    between atoms: N4_11  and  C7_13 
REMARK       I    between atoms: C7_13  and  N5_15 
REMARK    5  A    between atoms: N5_15  and  C8_17 
ROOT
HETATM    1  N1  UNL     1      -4.783   1.422  15.523  1.00  0.00    -0.172 NA
HETATM    2  C1  UNL     1      -5.317   2.168  16.227  1.00  0.00     0.181 C 
HETATM    3  N2  UNL     1      -5.986   3.068  17.070  1.00  0.00    -0.308 N 
ATOM      4  H2  UNL     1      -6.275   2.750  17.995  1.00  0.00     0.177 HD
HETATM    5  C2  UNL     1      -6.248   4.280  16.723  1.00  0.00     0.080 C 
ENDROOT
BRANCH   5   6
HETATM    6  C3  UNL     1      -5.849   4.768  15.410  1.00  0.00     0.081 C 
HETATM    7  C4  UNL     1      -4.387   5.152  15.270  1.00  0.00     0.284 C 
HETATM    8  N3  UNL     1      -4.808   6.259  14.484  1.00  0.00     0.091 N 
HETATM    9  C18 UNL     1      -6.055   6.264  15.170  1.00  0.00     0.284 C 
BRANCH   8  10
HETATM   10  C5  UNL     1      -4.010   7.436  14.457  1.00  0.00     0.292 C 
BRANCH  10  11
HETATM   11  C6  UNL     1      -3.145   7.586  13.254  1.00  0.00     0.154 C 
BRANCH  11  12
HETATM   12  N4  UNL     1      -3.568   8.668  12.404  1.00  0.00    -0.341 N 
HETATM   13  C7  UNL     1      -4.536   8.572  11.370  1.00  0.00     0.316 C 
HETATM   14  O1  UNL     1      -5.124   7.494  11.100  1.00  0.00    -0.247 OA
HETATM   15  N5  UNL     1      -4.902   9.692  10.575  1.00  0.00    -0.334 N 
ATOM     16  H5  UNL     1      -4.442  10.581  10.776  1.00  0.00     0.165 HD
ATOM     17  H4  UNL     1      -3.136   9.579  12.557  1.00  0.00     0.164 HD
BRANCH  15  18
HETATM   18  C8  UNL     1      -5.858   9.675   9.523  1.00  0.00     0.035 C 
HETATM   19  C9  UNL     1      -5.802  11.024   8.822  1.00  0.00     0.035 C 
HETATM   20  C10 UNL     1      -6.715  11.127   7.646  1.00  0.00    -0.012 C 
HETATM   21  C11 UNL     1      -8.134  10.947   8.141  1.00  0.00     0.009 C 
HETATM   22  C15 UNL     1      -6.411  10.029   6.653  1.00  0.00     0.009 C 
HETATM   23  C12 UNL     1      -8.208   9.618   8.816  1.00  0.00    -0.012 C 
HETATM   24  C13 UNL     1      -7.875   8.484   7.862  1.00  0.00     0.009 C 
HETATM   25  C17 UNL     1      -7.277   9.489   9.998  1.00  0.00     0.035 C 
HETATM   26  C14 UNL     1      -6.494   8.696   7.329  1.00  0.00    -0.012 C 
HETATM   27  C16 UNL     1      -5.522   8.621   8.483  1.00  0.00     0.035 C 
ENDBRANCH  15  18
ENDBRANCH  11  12
ENDBRANCH  10  11
ENDBRANCH   8  10
ENDBRANCH   5   6
TORSDOF 5
ENDMDL
MODEL 4
REMARK VINA RESULT: -7.125493462      1.123      1.861
REMARK  5 active torsions:
REMARK  status: ('A' for Active; 'I' for Inactive)
REMARK    1  A    between atoms: C2_5  and  C3_6 
REMARK    2  A    between atoms: N3_8  and  C5_9 
REMARK    3  A    between atoms: C5_9  and  C6_10 
REMARK    4  A    between atoms: C6_10  and  N4_11 
REMARK       I    between atoms: N4_11  and  C7_13 
REMARK       I    between atoms: C7_13  and  N5_15 
REMARK    5  A    between atoms: N5_15  and  C8_17 
ROOT
HETATM    1  N1  UNL     1      -5.896   1.375  17.053  1.00  0.00    -0.172 NA
HETATM    2  C1  UNL     1      -6.203   2.448  17.355  1.00  0.00     0.181 C 
HETATM    3  N2  UNL     1      -6.598   3.746  17.711  1.00  0.00    -0.308 N 
ATOM      4  H2  UNL     1      -6.981   3.903  18.643  1.00  0.00     0.177 HD
HETATM    5  C2  UNL     1      -6.495   4.748  16.908  1.00  0.00     0.080 C 
ENDROOT
BRANCH   5   6
HETATM    6  C3  UNL     1      -5.950   4.559  15.570  1.00  0.00     0.081 C 
HETATM    7  C4  UNL     1      -4.437   4.480  15.482  1.00  0.00     0.284 C 
HETATM    8  N3  UNL     1      -4.519   5.251  14.291  1.00  0.00     0.091 N 
HETATM    9  C18 UNL     1      -5.728   5.838  14.761  1.00  0.00     0.284 C 
BRANCH   8  10
HETATM   10  C5  UNL     1      -3.425   6.083  13.925  1.00  0.00     0.292 C 
BRANCH  10  11
HETATM   11  C6  UNL     1      -3.119   6.119  12.468  1.00  0.00     0.154 C 
BRANCH  11  12
HETATM   12  N4  UNL     1      -3.393   7.403  11.879  1.00  0.00    -0.341 N 
HETATM   13  C7  UNL     1      -4.348   7.653  10.860  1.00  0.00     0.316 C 
HETATM   14  O1  UNL     1      -5.058   6.740  10.368  1.00  0.00    -0.247 OA
HETATM   15  N5  UNL     1      -4.563   8.956  10.333  1.00  0.00    -0.334 N 
ATOM     16  H5  UNL     1      -4.002   9.717  10.717  1.00  0.00     0.165 HD
ATOM     17  H4  UNL     1      -2.856   8.199  12.223  1.00  0.00     0.164 HD
BRANCH  15  18
HETATM   18  C8  UNL     1      -5.498   9.284   9.311  1.00  0.00     0.035 C 
HETATM   19  C9  UNL     1      -6.893   9.181   9.910  1.00  0.00     0.035 C 
HETATM   20  C10 UNL     1      -7.980   9.564   8.961  1.00  0.00    -0.012 C 
HETATM   21  C11 UNL     1      -7.932   8.608   7.789  1.00  0.00     0.009 C 
HETATM   22  C15 UNL     1      -7.754  10.966   8.446  1.00  0.00     0.009 C 
HETATM   23  C12 UNL     1      -6.573   8.711   7.181  1.00  0.00    -0.012 C 
HETATM   24  C13 UNL     1      -6.288  10.115   6.680  1.00  0.00     0.009 C 
HETATM   25  C17 UNL     1      -5.458   8.346   8.132  1.00  0.00     0.035 C 
HETATM   26  C14 UNL     1      -6.394  11.066   7.829  1.00  0.00    -0.012 C 
HETATM   27  C16 UNL     1      -5.323  10.715   8.836  1.00  0.00     0.035 C 
ENDBRANCH  15  18
ENDBRANCH  11  12
ENDBRANCH  10  11
ENDBRANCH   8  10
ENDBRANCH   5   6
TORSDOF 5
ENDMDL
MODEL 5
REMARK VINA RESULT: -7.121944519      1.135      1.425
REMARK  5 active torsions:
REMARK  status: ('A' for Active; 'I' for Inactive)
REMARK    1  A    between atoms: C2_5  and  C3_6 
REMARK    2  A    between atoms: N3_8  and  C5_9 
REMARK    3  A    between atoms: C5_9  and  C6_10 
REMARK    4  A    between atoms: C6_10  and  N4_11 
REMARK       I    between atoms: N4_11  and  C7_13 
REMARK       I    between atoms: C7_13  and  N5_15 
REMARK    5  A    between atoms: N5_15  and  C8_17 
ROOT
HETATM    1  N1  UNL     1      -5.917   1.401  17.035  1.00  0.00    -0.172 NA
HETATM    2  C1  UNL     1      -6.265   2.460  17.338  1.00  0.00     0.181 C 
HETATM    3  N2  UNL     1      -6.710   3.742  17.693  1.00  0.00    -0.308 N 
ATOM      4  H2  UNL     1      -7.122   3.879  18.616  1.00  0.00     0.177 HD
HETATM    5  C2  UNL     1      -6.617   4.754  16.902  1.00  0.00     0.080 C 
ENDROOT
BRANCH   5   6
HETATM    6  C3  UNL     1      -6.032   4.594  15.577  1.00  0.00     0.081 C 
HETATM    7  C4  UNL     1      -4.515   4.593  15.525  1.00  0.00     0.284 C 
HETATM    8  N3  UNL     1      -4.608   5.359  14.332  1.00  0.00     0.091 N 
HETATM    9  C18 UNL     1      -5.856   5.883  14.773  1.00  0.00     0.284 C 
BRANCH   8  10
HETATM   10  C5  UNL     1      -3.550   6.247  13.991  1.00  0.00     0.292 C 
BRANCH  10  11
HETATM   11  C6  UNL     1      -3.214   6.301  12.542  1.00  0.00     0.154 C 
BRANCH  11  12
HETATM   12  N4  UNL     1      -3.494   7.588  11.960  1.00  0.00    -0.341 N 
HETATM   13  C7  UNL     1      -4.480   7.847  10.972  1.00  0.00     0.316 C 
HETATM   14  O1  UNL     1      -5.214   6.940  10.504  1.00  0.00    -0.247 OA
HETATM   15  N5  UNL     1      -4.698   9.151  10.450  1.00  0.00    -0.334 N 
ATOM     16  H5  UNL     1      -4.117   9.906  10.815  1.00  0.00     0.165 HD
ATOM     17  H4  UNL     1      -2.939   8.379  12.285  1.00  0.00     0.164 HD
BRANCH  15  18
HETATM   18  C8  UNL     1      -5.662   9.487   9.459  1.00  0.00     0.035 C 
HETATM   19  C9  UNL     1      -5.480   8.529   8.291  1.00  0.00     0.035 C 
HETATM   20  C10 UNL     1      -6.474   8.725   7.196  1.00  0.00    -0.012 C 
HETATM   21  C11 UNL     1      -6.294  10.125   6.649  1.00  0.00     0.009 C 
HETATM   22  C15 UNL     1      -7.879   8.600   7.738  1.00  0.00     0.009 C 
HETATM   23  C12 UNL     1      -6.487  11.077   7.781  1.00  0.00    -0.012 C 
HETATM   24  C13 UNL     1      -7.877  10.962   8.381  1.00  0.00     0.009 C 
HETATM   25  C17 UNL     1      -5.501  10.882   8.908  1.00  0.00     0.035 C 
HETATM   26  C14 UNL     1      -8.074   9.562   8.868  1.00  0.00    -0.012 C 
HETATM   27  C16 UNL     1      -7.078   9.297   9.972  1.00  0.00     0.035 C 
ENDBRANCH  15  18
ENDBRANCH  11  12
ENDBRANCH  10  11
ENDBRANCH   8  10
ENDBRANCH   5   6
TORSDOF 5
ENDMDL
