MODEL 1
REMARK VINA RESULT: -6.709413392      0.000      0.000
REMARK  5 active torsions:
REMARK  status: ('A' for Active; 'I' for Inactive)
REMARK    1  A    between atoms: O1_2  and  C2_3 
REMARK    2  A    between atoms: C5_6  and  C6_7 
REMARK    3  A    between atoms: C5_6  and  N2_15 
REMARK    4  A    between atoms: C6_7  and  N1_8 
REMARK       I    between atoms: N1_8  and  C7_10 
REMARK    5  A    between atoms: C7_10  and  C8_12 
ROOT
HETATM    1  C2  UNL     1      -2.321   4.087  10.900  1.00  0.00     0.124 C 
HETATM    2  C3  UNL     1      -3.764   4.268  11.265  1.00  0.00     0.035 C 
HETATM    3  C4  UNL     1      -4.048   4.919  12.551  1.00  0.00     0.035 C 
HETATM    4  C5  UNL     1      -2.985   5.752  13.167  1.00  0.00     0.044 C 
HETATM    5  C15 UNL     1      -1.578   5.318  12.819  1.00  0.00     0.039 C 
HETATM    6  C16 UNL     1      -1.467   5.282  11.315  1.00  0.00     0.013 C 
HETATM    7  C17 UNL     1      -0.059   5.004  10.874  1.00  0.00     0.012 C 
ENDROOT
BRANCH   4   8
HETATM    8  C6  UNL     1      -3.080   5.612  14.677  1.00  0.00     0.153 C 
BRANCH   8   9
HETATM    9  N1  UNL     1      -4.378   5.154  15.100  1.00  0.00    -0.358 N 
HETATM   10  C7  UNL     1      -4.507   3.991  15.871  1.00  0.00     0.221 C 
HETATM   11  O2  UNL     1      -3.455   3.348  16.191  1.00  0.00    -0.273 OA
ATOM     12  H1  UNL     1      -5.210   5.682  14.837  1.00  0.00     0.162 HD
BRANCH  10  13
HETATM   13  C8  UNL     1      -5.808   3.458  16.343  1.00  0.00     0.070 C 
HETATM   14  C9  UNL     1      -6.703   4.672  16.614  1.00  0.00     0.019 C 
HETATM   15  C10 UNL     1      -5.610   2.784  17.678  1.00  0.00     0.019 C 
ENDBRANCH  10  13
ENDBRANCH   8   9
ENDBRANCH   4   8
BRANCH   4  16
HETATM   16  N2  UNL     1      -3.106   7.120  12.852  1.00  0.00    -0.399 N 
HETATM   17  C11 UNL     1      -4.260   7.596  12.223  1.00  0.00     0.137 C 
HETATM   18  C12 UNL     1      -3.816   8.513  11.069  1.00  0.00     0.133 C 
HETATM   19  N3  UNL     1      -3.222   9.657  11.671  1.00  0.00    -0.418 N 
HETATM   20  C13 UNL     1      -2.535   9.430  12.884  1.00  0.00     0.133 C 
ATOM     21  H3  UNL     1      -3.288  10.585  11.252  1.00  0.00     0.153 HD
HETATM   22  C14 UNL     1      -2.041   7.988  13.043  1.00  0.00     0.137 C 
ENDBRANCH   4  16
BRANCH   1  23
HETATM   23  O1  UNL     1      -1.817   2.898  11.422  1.00  0.00    -0.390 OA
HETATM   24  C1  UNL     1      -2.610   1.796  11.039  1.00  0.00     0.202 C 
ENDBRANCH   1  23
TORSDOF 5
ENDMDL
MODEL 2
REMARK VINA RESULT: -6.707858904      0.956      1.602
REMARK  5 active torsions:
REMARK  status: ('A' for Active; 'I' for Inactive)
REMARK    1  A    between atoms: O1_2  and  C2_3 
REMARK    2  A    between atoms: C5_6  and  C6_7 
REMARK    3  A    between atoms: C5_6  and  N2_15 
REMARK    4  A    between atoms: C6_7  and  N1_8 
REMARK       I    between atoms: N1_8  and  C7_10 
REMARK    5  A    between atoms: C7_10  and  C8_12 
ROOT
HETATM    1  C2  UNL     1      -3.430   3.042  11.069  1.00  0.00     0.124 C 
HETATM    2  C3  UNL     1      -4.720   3.514  11.672  1.00  0.00     0.035 C 
HETATM    3  C4  UNL     1      -4.625   4.474  12.779  1.00  0.00     0.035 C 
HETATM    4  C5  UNL     1      -3.372   5.259  12.923  1.00  0.00     0.044 C 
HETATM    5  C15 UNL     1      -2.136   4.553  12.409  1.00  0.00     0.039 C 
HETATM    6  C16 UNL     1      -2.395   4.159  10.975  1.00  0.00     0.013 C 
HETATM    7  C17 UNL     1      -1.167   3.583  10.333  1.00  0.00     0.012 C 
ENDROOT
BRANCH   4   8
HETATM    8  C6  UNL     1      -3.113   5.481  14.404  1.00  0.00     0.153 C 
BRANCH   8   9
HETATM    9  N1  UNL     1      -4.266   5.177  15.210  1.00  0.00    -0.358 N 
HETATM   10  C7  UNL     1      -4.250   4.091  16.096  1.00  0.00     0.221 C 
HETATM   11  O2  UNL     1      -3.196   3.380  16.175  1.00  0.00    -0.273 OA
ATOM     12  H1  UNL     1      -5.101   5.756  15.135  1.00  0.00     0.162 HD
BRANCH  10  13
HETATM   13  C8  UNL     1      -5.398   3.715  16.956  1.00  0.00     0.070 C 
HETATM   14  C9  UNL     1      -5.747   2.264  16.605  1.00  0.00     0.019 C 
HETATM   15  C10 UNL     1      -6.600   4.537  16.562  1.00  0.00     0.019 C 
ENDBRANCH  10  13
ENDBRANCH   8   9
ENDBRANCH   4   8
BRANCH   4  16
HETATM   16  N2  UNL     1      -3.439   6.522  12.302  1.00  0.00    -0.399 N 
HETATM   17  C11 UNL     1      -2.310   7.345  12.261  1.00  0.00     0.137 C 
HETATM   18  C12 UNL     1      -2.753   8.762  12.670  1.00  0.00     0.133 C 
HETATM   19  N3  UNL     1      -3.597   9.236  11.628  1.00  0.00    -0.418 N 
HETATM   20  C13 UNL     1      -4.382   8.258  10.977  1.00  0.00     0.133 C 
ATOM     21  H3  UNL     1      -3.634  10.221  11.367  1.00  0.00     0.153 HD
HETATM   22  C14 UNL     1      -4.648   7.019  11.837  1.00  0.00     0.137 C 
ENDBRANCH   4  16
BRANCH   1  23
HETATM   23  O1  UNL     1      -2.928   1.942  11.759  1.00  0.00    -0.390 OA
HETATM   24  C1  UNL     1      -3.879   0.902  11.824  1.00  0.00     0.202 C 
ENDBRANCH   1  23
TORSDOF 5
ENDMDL
MODEL 3
REMARK VINA RESULT: -6.554303223      0.872      1.152
REMARK  5 active torsions:
REMARK  status: ('A' for Active; 'I' for Inactive)
REMARK    1  A    between atoms: O1_2  and  C2_3 
REMARK    2  A    between atoms: C5_6  and  C6_7 
REMARK    3  A    between atoms: C5_6  and  N2_15 
REMARK    4  A    between atoms: C6_7  and  N1_8 
REMARK       I    between atoms: N1_8  and  C7_10 
REMARK    5  A    between atoms: C7_10  and  C8_12 
ROOT
HETATM    1  C2  UNL     1      -3.341   3.322  11.103  1.00  0.00     0.124 C 
HETATM    2  C3  UNL     1      -4.649   3.666  11.750  1.00  0.00     0.035 C 
HETATM    3  C4  UNL     1      -4.597   4.529  12.938  1.00  0.00     0.035 C 
HETATM    4  C5  UNL     1      -3.388   5.366  13.146  1.00  0.00     0.044 C 
HETATM    5  C15 UNL     1      -2.120   4.778  12.567  1.00  0.00     0.039 C 
HETATM    6  C16 UNL     1      -2.369   4.499  11.105  1.00  0.00     0.013 C 
HETATM    7  C17 UNL     1      -1.117   4.050  10.410  1.00  0.00     0.012 C 
ENDROOT
BRANCH   4   8
HETATM    8  C6  UNL     1      -3.129   5.470  14.640  1.00  0.00     0.153 C 
BRANCH   8   9
HETATM    9  N1  UNL     1      -4.300   5.163  15.418  1.00  0.00    -0.358 N 
HETATM   10  C7  UNL     1      -4.331   4.029  16.242  1.00  0.00     0.221 C 
HETATM   11  O2  UNL     1      -3.303   3.278  16.289  1.00  0.00    -0.273 OA
ATOM     12  H1  UNL     1      -5.114   5.775  15.370  1.00  0.00     0.162 HD
BRANCH  10  13
HETATM   13  C8  UNL     1      -5.500   3.647  17.071  1.00  0.00     0.070 C 
HETATM   14  C9  UNL     1      -5.849   2.203  16.690  1.00  0.00     0.019 C 
HETATM   15  C10 UNL     1      -6.689   4.481  16.662  1.00  0.00     0.019 C 
ENDBRANCH  10  13
ENDBRANCH   8   9
ENDBRANCH   4   8
BRANCH   4  16
HETATM   16  N2  UNL     1      -3.530   6.673  12.640  1.00  0.00    -0.399 N 
HETATM   17  C11 UNL     1      -4.748   7.086  12.093  1.00  0.00     0.137 C 
HETATM   18  C12 UNL     1      -4.442   7.802  10.764  1.00  0.00     0.133 C 
HETATM   19  N3  UNL     1      -3.760   9.003  11.103  1.00  0.00    -0.418 N 
HETATM   20  C13 UNL     1      -2.927   8.940  12.242  1.00  0.00     0.133 C 
ATOM     21  H3  UNL     1      -3.866   9.858  10.556  1.00  0.00     0.153 HD
HETATM   22  C14 UNL     1      -2.437   7.524  12.561  1.00  0.00     0.137 C 
ENDBRANCH   4  16
BRANCH   1  23
HETATM   23  O1  UNL     1      -2.773   2.195  11.691  1.00  0.00    -0.390 OA
HETATM   24  C1  UNL     1      -3.689   1.122  11.730  1.00  0.00     0.202 C 
ENDBRANCH   1  23
TORSDOF 5
ENDMDL
MODEL 4
REMARK VINA RESULT: -6.544585548      0.562      1.144
REMARK  5 active torsions:
REMARK  status: ('A' for Active; 'I' for Inactive)
REMARK    1  A    between atoms: O1_2  and  C2_3 
REMARK    2  A    between atoms: C5_6  and  C6_7 
REMARK    3  A    between atoms: C5_6  and  N2_15 
REMARK    4  A    between atoms: C6_7  and  N1_8 
REMARK       I    between atoms: N1_8  and  C7_10 
REMARK    5  A    between atoms: C7_10  and  C8_12 
ROOT
HETATM    1  C2  UNL     1      -2.521   4.100  10.923  1.00  0.00     0.124 C 
HETATM    2  C3  UNL     1      -3.902   4.562  11.280  1.00  0.00     0.035 C 
HETATM    3  C4  UNL     1      -4.061   5.248  12.569  1.00  0.00     0.035 C 
HETATM    4  C5  UNL     1      -2.858   5.850  13.198  1.00  0.00     0.044 C 
HETATM    5  C15 UNL     1      -1.563   5.147  12.856  1.00  0.00     0.039 C 
HETATM    6  C16 UNL     1      -1.450   5.099  11.352  1.00  0.00     0.013 C 
HETATM    7  C17 UNL     1      -0.122   4.549  10.918  1.00  0.00     0.012 C 
ENDROOT
BRANCH   4   8
HETATM    8  C6  UNL     1      -2.991   5.722  14.707  1.00  0.00     0.153 C 
BRANCH   8   9
HETATM    9  N1  UNL     1      -4.294   5.256  15.100  1.00  0.00    -0.358 N 
HETATM   10  C7  UNL     1      -4.435   4.072  15.836  1.00  0.00     0.221 C 
HETATM   11  O2  UNL     1      -3.389   3.417  16.149  1.00  0.00    -0.273 OA
ATOM     12  H1  UNL     1      -5.122   5.793  14.842  1.00  0.00     0.162 HD
BRANCH  10  13
HETATM   13  C8  UNL     1      -5.743   3.528  16.276  1.00  0.00     0.070 C 
HETATM   14  C9  UNL     1      -6.669   4.733  16.479  1.00  0.00     0.019 C 
HETATM   15  C10 UNL     1      -5.582   2.896  17.636  1.00  0.00     0.019 C 
ENDBRANCH  10  13
ENDBRANCH   8   9
ENDBRANCH   4   8
BRANCH   4  16
HETATM   16  N2  UNL     1      -2.703   7.217  12.892  1.00  0.00    -0.399 N 
HETATM   17  C11 UNL     1      -1.551   7.899  13.291  1.00  0.00     0.137 C 
HETATM   18  C12 UNL     1      -1.994   9.235  13.917  1.00  0.00     0.133 C 
HETATM   19  N3  UNL     1      -2.540  10.013  12.858  1.00  0.00    -0.418 N 
HETATM   20  C13 UNL     1      -3.204   9.292  11.841  1.00  0.00     0.133 C 
ATOM     21  H3  UNL     1      -2.456  11.029  12.834  1.00  0.00     0.153 HD
HETATM   22  C14 UNL     1      -3.737   7.933  12.306  1.00  0.00     0.137 C 
ENDBRANCH   4  16
BRANCH   1  23
HETATM   23  O1  UNL     1      -2.268   2.832  11.439  1.00  0.00    -0.390 OA
HETATM   24  C1  UNL     1      -2.924   1.834  10.688  1.00  0.00     0.202 C 
ENDBRANCH   1  23
TORSDOF 5
ENDMDL
MODEL 5
REMARK VINA RESULT: -6.487157194      1.817      5.253
REMARK  5 active torsions:
REMARK  status: ('A' for Active; 'I' for Inactive)
REMARK    1  A    between atoms: O1_2  and  C2_3 
REMARK    2  A    between atoms: C5_6  and  C6_7 
REMARK    3  A    between atoms: C5_6  and  N2_15 
REMARK    4  A    between atoms: C6_7  and  N1_8 
REMARK       I    between atoms: N1_8  and  C7_10 
REMARK    5  A    between atoms: C7_10  and  C8_12 
ROOT
HETATM    1  C2  UNL     1      -5.390   4.045  16.832  1.00  0.00     0.124 C 
HETATM    2  C3  UNL     1      -4.102   3.564  16.233  1.00  0.00     0.035 C 
HETATM    3  C4  UNL     1      -3.940   3.732  14.783  1.00  0.00     0.035 C 
HETATM    4  C5  UNL     1      -4.785   4.739  14.092  1.00  0.00     0.044 C 
HETATM    5  C15 UNL     1      -6.128   4.975  14.748  1.00  0.00     0.039 C 
HETATM    6  C16 UNL     1      -5.876   5.341  16.191  1.00  0.00     0.013 C 
HETATM    7  C17 UNL     1      -7.145   5.739  16.886  1.00  0.00     0.012 C 
ENDROOT
BRANCH   4   8
HETATM    8  C6  UNL     1      -5.110   4.220  12.701  1.00  0.00     0.153 C 
BRANCH   8   9
HETATM    9  N1  UNL     1      -4.277   3.108  12.327  1.00  0.00    -0.358 N 
HETATM   10  C7  UNL     1      -3.949   2.884  10.983  1.00  0.00     0.221 C 
HETATM   11  O2  UNL     1      -4.401   3.683  10.100  1.00  0.00    -0.273 OA
ATOM     12  H1  UNL     1      -3.923   2.477  13.046  1.00  0.00     0.162 HD
BRANCH  10  13
HETATM   13  C8  UNL     1      -3.098   1.760  10.521  1.00  0.00     0.070 C 
HETATM   14  C9  UNL     1      -3.461   0.553  11.393  1.00  0.00     0.019 C 
HETATM   15  C10 UNL     1      -1.655   2.075  10.830  1.00  0.00     0.019 C 
ENDBRANCH  10  13
ENDBRANCH   8   9
ENDBRANCH   4   8
BRANCH   4  16
HETATM   16  N2  UNL     1      -4.147   5.987  13.949  1.00  0.00    -0.399 N 
HETATM   17  C11 UNL     1      -4.884   7.113  13.569  1.00  0.00     0.137 C 
HETATM   18  C12 UNL     1      -4.092   7.835  12.464  1.00  0.00     0.133 C 
HETATM   19  N3  UNL     1      -2.918   8.350  13.081  1.00  0.00    -0.418 N 
HETATM   20  C13 UNL     1      -2.386   7.576  14.137  1.00  0.00     0.133 C 
ATOM     21  H3  UNL     1      -2.487   9.224  12.781  1.00  0.00     0.153 HD
HETATM   22  C14 UNL     1      -2.768   6.095  14.059  1.00  0.00     0.137 C 
ENDBRANCH   4  16
BRANCH   1  23
HETATM   23  O1  UNL     1      -6.367   3.055  16.778  1.00  0.00    -0.390 OA
HETATM   24  C1  UNL     1      -5.938   1.877  17.426  1.00  0.00     0.202 C 
ENDBRANCH   1  23
TORSDOF 5
ENDMDL
