MODEL 1
REMARK VINA RESULT: -7.118638379      0.000      0.000
REMARK  6 active torsions:
REMARK  status: ('A' for Active; 'I' for Inactive)
REMARK    1  A    between atoms: O1_1  and  C1_3 
REMARK    2  A    between atoms: C1_3  and  C2_4 
REMARK    3  A    between atoms: C4_6  and  N1_7 
REMARK    4  A    between atoms: N3_16  and  C11_18 
REMARK    5  A    between atoms: C11_18  and  C12_19 
REMARK    6  A    between atoms: C12_19  and  N4_20 
ROOT
HETATM    1  C2  UNL     1      -2.722   2.635  11.022  1.00  0.00    -0.028 A 
HETATM    2  C3  UNL     1      -1.799   3.434  10.403  1.00  0.00     0.058 A 
HETATM    3  C4  UNL     1      -1.665   4.771  10.723  1.00  0.00     0.105 A 
HETATM    4  N2  UNL     1      -2.477   5.262  11.672  1.00  0.00    -0.329 N 
ATOM      5  H2  UNL     1      -2.384   6.248  11.916  1.00  0.00     0.169 HD
HETATM    6  C10 UNL     1      -3.404   4.537  12.321  1.00  0.00     0.106 A 
HETATM    7  N3  UNL     1      -4.142   5.043  13.202  1.00  0.00    -0.354 N 
ATOM      8  H3  UNL     1      -3.974   6.034  13.374  1.00  0.00     0.166 HD
HETATM    9  C17 UNL     1      -3.537   3.205  12.000  1.00  0.00     0.058 A 
ENDROOT
BRANCH   7  10
HETATM   10  C11 UNL     1      -5.158   4.481  13.992  1.00  0.00     0.092 C 
BRANCH  10  11
HETATM   11  C12 UNL     1      -5.566   5.233  15.206  1.00  0.00     0.317 C 
BRANCH  11  12
HETATM   12  N4  UNL     1      -5.437   4.462  16.409  1.00  0.00     0.097 N 
HETATM   13  C13 UNL     1      -6.643   4.269  17.135  1.00  0.00     0.299 C 
HETATM   14  C14 UNL     1      -7.453   3.078  16.659  1.00  0.00     0.198 C 
HETATM   15  O2  UNL     1      -6.732   1.909  16.667  1.00  0.00    -0.388 OA
HETATM   16  C15 UNL     1      -5.394   2.104  16.946  1.00  0.00     0.198 C 
HETATM   17  C16 UNL     1      -4.776   3.222  16.148  1.00  0.00     0.299 C 
ENDBRANCH  11  12
ENDBRANCH  10  11
ENDBRANCH   7  10
BRANCH   3  18
HETATM   18  N1  UNL     1      -0.704   5.576  10.079  1.00  0.00    -0.367 N 
HETATM   19  C5  UNL     1       0.160   5.140   9.012  1.00  0.00     0.124 C 
HETATM   20  C6  UNL     1       1.561   5.652   9.358  1.00  0.00     0.020 C 
HETATM   21  C7  UNL     1       1.701   5.927  10.849  1.00  0.00     0.003 C 
HETATM   22  C8  UNL     1       0.733   7.009  11.298  1.00  0.00     0.020 C 
HETATM   23  C9  UNL     1      -0.543   6.955  10.479  1.00  0.00     0.124 C 
ENDBRANCH   3  18
BRANCH   1  24
HETATM   24  C1  UNL     1      -2.852   1.195  10.666  1.00  0.00     0.203 C 
BRANCH  24  25
HETATM   25  O1  UNL     1      -3.314   1.016   9.357  1.00  0.00    -0.396 OA
ATOM     26  H1  UNL     1      -4.234   0.780   9.332  1.00  0.00     0.209 HD
ENDBRANCH  24  25
ENDBRANCH   1  24
TORSDOF 6
ENDMDL
MODEL 2
REMARK VINA RESULT: -7.051991935      0.894      1.419
REMARK  6 active torsions:
REMARK  status: ('A' for Active; 'I' for Inactive)
REMARK    1  A    between atoms: O1_1  and  C1_3 
REMARK    2  A    between atoms: C1_3  and  C2_4 
REMARK    3  A    between atoms: C4_6  and  N1_7 
REMARK    4  A    between atoms: N3_16  and  C11_18 
REMARK    5  A    between atoms: C11_18  and  C12_19 
REMARK    6  A    between atoms: C12_19  and  N4_20 
ROOT
HETATM    1  C2  UNL     1      -2.756   2.011  11.234  1.00  0.00    -0.028 A 
HETATM    2  C3  UNL     1      -1.751   2.690  10.601  1.00  0.00     0.058 A 
HETATM    3  C4  UNL     1      -1.530   4.034  10.825  1.00  0.00     0.105 A 
HETATM    4  N2  UNL     1      -2.343   4.657  11.693  1.00  0.00    -0.329 N 
ATOM      5  H2  UNL     1      -2.188   5.650  11.865  1.00  0.00     0.169 HD
HETATM    6  C10 UNL     1      -3.350   4.054  12.349  1.00  0.00     0.106 A 
HETATM    7  N3  UNL     1      -4.084   4.680  13.152  1.00  0.00    -0.354 N 
ATOM      8  H3  UNL     1      -3.850   5.666  13.256  1.00  0.00     0.166 HD
HETATM    9  C17 UNL     1      -3.568   2.713  12.124  1.00  0.00     0.058 A 
ENDROOT
BRANCH   7  10
HETATM   10  C11 UNL     1      -5.174   4.256  13.931  1.00  0.00     0.092 C 
BRANCH  10  11
HETATM   11  C12 UNL     1      -5.519   5.083  15.116  1.00  0.00     0.317 C 
BRANCH  11  12
HETATM   12  N4  UNL     1      -5.411   4.359  16.351  1.00  0.00     0.097 N 
HETATM   13  C13 UNL     1      -6.618   4.249  17.093  1.00  0.00     0.299 C 
HETATM   14  C14 UNL     1      -7.480   3.073  16.676  1.00  0.00     0.198 C 
HETATM   15  O2  UNL     1      -6.807   1.876  16.730  1.00  0.00    -0.388 OA
HETATM   16  C15 UNL     1      -5.460   2.028  16.991  1.00  0.00     0.198 C 
HETATM   17  C16 UNL     1      -4.804   3.083  16.140  1.00  0.00     0.299 C 
ENDBRANCH  11  12
ENDBRANCH  10  11
ENDBRANCH   7  10
BRANCH   3  18
HETATM   18  N1  UNL     1      -0.485   4.715  10.168  1.00  0.00    -0.367 N 
HETATM   19  C5  UNL     1       0.581   5.426  10.827  1.00  0.00     0.124 C 
HETATM   20  C6  UNL     1       0.719   6.764  10.097  1.00  0.00     0.020 C 
HETATM   21  C7  UNL     1      -0.562   7.132   9.361  1.00  0.00     0.003 C 
HETATM   22  C8  UNL     1      -0.894   6.102   8.294  1.00  0.00     0.020 C 
HETATM   23  C9  UNL     1      -0.433   4.722   8.725  1.00  0.00     0.124 C 
ENDBRANCH   3  18
BRANCH   1  24
HETATM   24  C1  UNL     1      -2.979   0.560  10.983  1.00  0.00     0.203 C 
BRANCH  24  25
HETATM   25  O1  UNL     1      -4.101   0.074  11.665  1.00  0.00    -0.396 OA
ATOM     26  H1  UNL     1      -4.857  -0.008  11.095  1.00  0.00     0.209 HD
ENDBRANCH  24  25
ENDBRANCH   1  24
TORSDOF 6
ENDMDL
MODEL 3
REMARK VINA RESULT: -6.890596518      2.017      7.327
REMARK  6 active torsions:
REMARK  status: ('A' for Active; 'I' for Inactive)
REMARK    1  A    between atoms: O1_1  and  C1_3 
REMARK    2  A    between atoms: C1_3  and  C2_4 
REMARK    3  A    between atoms: C4_6  and  N1_7 
REMARK    4  A    between atoms: N3_16  and  C11_18 
REMARK    5  A    between atoms: C11_18  and  C12_19 
REMARK    6  A    between atoms: C12_19  and  N4_20 
ROOT
HETATM    1  C2  UNL     1      -4.255   3.819  12.462  1.00  0.00    -0.028 A 
HETATM    2  C3  UNL     1      -4.697   3.468  13.709  1.00  0.00     0.058 A 
HETATM    3  C4  UNL     1      -4.348   4.189  14.833  1.00  0.00     0.105 A 
HETATM    4  N2  UNL     1      -3.553   5.257  14.659  1.00  0.00    -0.329 N 
ATOM      5  H2  UNL     1      -3.290   5.796  15.483  1.00  0.00     0.169 HD
HETATM    6  C10 UNL     1      -3.083   5.660  13.466  1.00  0.00     0.106 A 
HETATM    7  N3  UNL     1      -2.341   6.667  13.354  1.00  0.00    -0.354 N 
ATOM      8  H3  UNL     1      -2.135   7.138  14.234  1.00  0.00     0.166 HD
HETATM    9  C17 UNL     1      -3.432   4.939  12.346  1.00  0.00     0.058 A 
ENDROOT
BRANCH   7  10
HETATM   10  C11 UNL     1      -1.746   7.256  12.226  1.00  0.00     0.092 C 
BRANCH  10  11
HETATM   11  C12 UNL     1      -0.312   6.952  11.981  1.00  0.00     0.317 C 
BRANCH  11  12
HETATM   12  N4  UNL     1      -0.034   6.649  10.606  1.00  0.00     0.097 N 
HETATM   13  C13 UNL     1       0.519   5.361  10.372  1.00  0.00     0.299 C 
HETATM   14  C14 UNL     1      -0.525   4.271  10.225  1.00  0.00     0.198 C 
HETATM   15  O2  UNL     1      -1.448   4.549   9.245  1.00  0.00    -0.388 OA
HETATM   16  C15 UNL     1      -1.319   5.823   8.730  1.00  0.00     0.198 C 
HETATM   17  C16 UNL     1      -1.185   6.883   9.792  1.00  0.00     0.299 C 
ENDBRANCH  11  12
ENDBRANCH  10  11
ENDBRANCH   7  10
BRANCH   3  18
HETATM   18  N1  UNL     1      -4.818   3.815  16.108  1.00  0.00    -0.367 N 
HETATM   19  C5  UNL     1      -4.665   2.508  16.695  1.00  0.00     0.124 C 
HETATM   20  C6  UNL     1      -6.028   2.142  17.288  1.00  0.00     0.020 C 
HETATM   21  C7  UNL     1      -7.152   2.932  16.631  1.00  0.00     0.003 C 
HETATM   22  C8  UNL     1      -6.978   4.423  16.861  1.00  0.00     0.020 C 
HETATM   23  C9  UNL     1      -5.506   4.784  16.929  1.00  0.00     0.124 C 
ENDBRANCH   3  18
BRANCH   1  24
HETATM   24  C1  UNL     1      -4.644   3.032  11.260  1.00  0.00     0.203 C 
BRANCH  24  25
HETATM   25  O1  UNL     1      -5.863   3.460  10.721  1.00  0.00    -0.396 OA
ATOM     26  H1  UNL     1      -5.992   3.145   9.835  1.00  0.00     0.209 HD
ENDBRANCH  24  25
ENDBRANCH   1  24
TORSDOF 6
ENDMDL
MODEL 4
REMARK VINA RESULT: -6.869633013      1.986      6.989
REMARK  6 active torsions:
REMARK  status: ('A' for Active; 'I' for Inactive)
REMARK    1  A    between atoms: O1_1  and  C1_3 
REMARK    2  A    between atoms: C1_3  and  C2_4 
REMARK    3  A    between atoms: C4_6  and  N1_7 
REMARK    4  A    between atoms: N3_16  and  C11_18 
REMARK    5  A    between atoms: C11_18  and  C12_19 
REMARK    6  A    between atoms: C12_19  and  N4_20 
ROOT
HETATM    1  C2  UNL     1      -4.290   2.857  11.978  1.00  0.00    -0.028 A 
HETATM    2  C3  UNL     1      -4.549   2.699  13.312  1.00  0.00     0.058 A 
HETATM    3  C4  UNL     1      -4.545   3.769  14.184  1.00  0.00     0.105 A 
HETATM    4  N2  UNL     1      -4.275   4.981  13.672  1.00  0.00    -0.329 N 
ATOM      5  H2  UNL     1      -4.270   5.777  14.309  1.00  0.00     0.169 HD
HETATM    6  C10 UNL     1      -4.012   5.210  12.374  1.00  0.00     0.106 A 
HETATM    7  N3  UNL     1      -3.764   6.362  11.943  1.00  0.00    -0.354 N 
ATOM      8  H3  UNL     1      -3.782   7.091  12.655  1.00  0.00     0.166 HD
HETATM    9  C17 UNL     1      -4.016   4.141  11.506  1.00  0.00     0.058 A 
ENDROOT
BRANCH   7  10
HETATM   10  C11 UNL     1      -3.467   6.822  10.649  1.00  0.00     0.092 C 
BRANCH  10  11
HETATM   11  C12 UNL     1      -2.243   7.649  10.490  1.00  0.00     0.317 C 
BRANCH  11  12
HETATM   12  N4  UNL     1      -1.167   6.935   9.864  1.00  0.00     0.097 N 
HETATM   13  C13 UNL     1      -0.110   6.553  10.734  1.00  0.00     0.299 C 
HETATM   14  C14 UNL     1      -0.353   5.231  11.437  1.00  0.00     0.198 C 
HETATM   15  O2  UNL     1      -0.608   4.204  10.562  1.00  0.00    -0.388 OA
HETATM   16  C15 UNL     1      -0.751   4.631   9.257  1.00  0.00     0.198 C 
HETATM   17  C16 UNL     1      -1.662   5.822   9.117  1.00  0.00     0.299 C 
ENDBRANCH  11  12
ENDBRANCH  10  11
ENDBRANCH   7  10
BRANCH   3  18
HETATM   18  N1  UNL     1      -4.821   3.587  15.554  1.00  0.00    -0.367 N 
HETATM   19  C5  UNL     1      -4.761   2.327  16.250  1.00  0.00     0.124 C 
HETATM   20  C6  UNL     1      -6.029   2.249  17.103  1.00  0.00     0.020 C 
HETATM   21  C7  UNL     1      -7.123   3.160  16.563  1.00  0.00     0.003 C 
HETATM   22  C8  UNL     1      -6.684   4.614  16.591  1.00  0.00     0.020 C 
HETATM   23  C9  UNL     1      -5.188   4.724  16.367  1.00  0.00     0.124 C 
ENDBRANCH   3  18
BRANCH   1  24
HETATM   24  C1  UNL     1      -4.302   1.692  11.050  1.00  0.00     0.203 C 
BRANCH  24  25
HETATM   25  O1  UNL     1      -4.977   1.975   9.857  1.00  0.00    -0.396 OA
ATOM     26  H1  UNL     1      -4.917   1.261   9.234  1.00  0.00     0.209 HD
ENDBRANCH  24  25
ENDBRANCH   1  24
TORSDOF 6
ENDMDL
MODEL 5
REMARK VINA RESULT: -6.791045135      3.932      7.102
REMARK  6 active torsions:
REMARK  status: ('A' for Active; 'I' for Inactive)
REMARK    1  A    between atoms: O1_1  and  C1_3 
REMARK    2  A    between atoms: C1_3  and  C2_4 
REMARK    3  A    between atoms: C4_6  and  N1_7 
REMARK    4  A    between atoms: N3_16  and  C11_18 
REMARK    5  A    between atoms: C11_18  and  C12_19 
REMARK    6  A    between atoms: C12_19  and  N4_20 
ROOT
HETATM    1  C2  UNL     1      -4.344   2.824  11.645  1.00  0.00    -0.028 A 
HETATM    2  C3  UNL     1      -4.481   2.727  13.003  1.00  0.00     0.058 A 
HETATM    3  C4  UNL     1      -4.503   3.847  13.812  1.00  0.00     0.105 A 
HETATM    4  N2  UNL     1      -4.384   5.042  13.214  1.00  0.00    -0.329 N 
ATOM      5  H2  UNL     1      -4.400   5.874  13.803  1.00  0.00     0.169 HD
HETATM    6  C10 UNL     1      -4.246   5.212  11.888  1.00  0.00     0.106 A 
HETATM    7  N3  UNL     1      -4.138   6.353  11.375  1.00  0.00    -0.354 N 
ATOM      8  H3  UNL     1      -4.164   7.120  12.046  1.00  0.00     0.166 HD
HETATM    9  C17 UNL     1      -4.224   4.095  11.083  1.00  0.00     0.058 A 
ENDROOT
BRANCH   7  10
HETATM   10  C11 UNL     1      -3.986   6.755  10.037  1.00  0.00     0.092 C 
BRANCH  10  11
HETATM   11  C12 UNL     1      -4.515   8.094   9.670  1.00  0.00     0.317 C 
BRANCH  11  12
HETATM   12  N4  UNL     1      -5.915   8.235   9.950  1.00  0.00     0.097 N 
HETATM   13  C13 UNL     1      -6.233   9.139  10.999  1.00  0.00     0.299 C 
HETATM   14  C14 UNL     1      -6.351  10.580  10.542  1.00  0.00     0.198 C 
HETATM   15  O2  UNL     1      -7.257  10.740   9.522  1.00  0.00    -0.388 OA
HETATM   16  C15 UNL     1      -7.732   9.541   9.031  1.00  0.00     0.198 C 
HETATM   17  C16 UNL     1      -6.643   8.537   8.758  1.00  0.00     0.299 C 
ENDBRANCH  11  12
ENDBRANCH  10  11
ENDBRANCH   7  10
BRANCH   3  18
HETATM   18  N1  UNL     1      -4.652   3.727  15.209  1.00  0.00    -0.367 N 
HETATM   19  C5  UNL     1      -4.476   2.509  15.958  1.00  0.00     0.124 C 
HETATM   20  C6  UNL     1      -5.661   2.424  16.923  1.00  0.00     0.020 C 
HETATM   21  C7  UNL     1      -6.837   3.259  16.436  1.00  0.00     0.003 C 
HETATM   22  C8  UNL     1      -6.466   4.729  16.353  1.00  0.00     0.020 C 
HETATM   23  C9  UNL     1      -5.001   4.889  15.993  1.00  0.00     0.124 C 
ENDBRANCH   3  18
BRANCH   1  24
HETATM   24  C1  UNL     1      -4.325   1.607  10.787  1.00  0.00     0.203 C 
BRANCH  24  25
HETATM   25  O1  UNL     1      -4.894   1.841   9.530  1.00  0.00    -0.396 OA
ATOM     26  H1  UNL     1      -5.551   1.191   9.309  1.00  0.00     0.209 HD
ENDBRANCH  24  25
ENDBRANCH   1  24
TORSDOF 6
ENDMDL
