MODEL 1
REMARK VINA RESULT: -6.859042610      0.000      0.000
REMARK  9 active torsions:
REMARK  status: ('A' for Active; 'I' for Inactive)
REMARK    1  A    between atoms: C2_2  and  O1_3 
REMARK    2  A    between atoms: O1_3  and  C3_4 
REMARK    3  A    between atoms: C3_4  and  C4_8 
REMARK    4  A    between atoms: C4_8  and  N2_9 
REMARK    5  A    between atoms: C4_8  and  S1_13 
REMARK    6  A    between atoms: S1_13  and  S2_14 
REMARK    7  A    between atoms: S2_14  and  C5_15 
REMARK    8  A    between atoms: C7_20  and  O3_21 
REMARK    9  A    between atoms: C7_20  and  C8_23 
ROOT
HETATM    1  C5  UNL     1      -4.336   5.790  11.855  1.00  0.00     0.156 A 
HETATM    2  N3  UNL     1      -4.457   4.549  11.692  1.00  0.00    -0.327 N 
ATOM      3  H3  UNL     1      -4.261   3.940  10.898  1.00  0.00     0.166 HD
HETATM    4  C6  UNL     1      -4.939   4.297  12.934  1.00  0.00     0.339 A 
HETATM    5  O2  UNL     1      -4.234   3.742  13.996  1.00  0.00    -0.311 OA
HETATM    6  C7  UNL     1      -4.448   4.584  15.090  1.00  0.00     0.186 C 
HETATM    7  C13 UNL     1      -5.072   5.878  14.576  1.00  0.00     0.198 C 
HETATM    8  N4  UNL     1      -4.709   5.746  13.163  1.00  0.00    -0.312 N 
ENDROOT
BRANCH   1   9
HETATM    9  S2  UNL     1      -3.744   7.049  10.678  1.00  0.00    -0.019 SA
BRANCH   9  10
HETATM   10  S1  UNL     1      -1.924   7.893  11.308  1.00  0.00    -0.048 SA
BRANCH  10  11
HETATM   11  C4  UNL     1      -0.647   6.614  11.583  1.00  0.00     0.329 C 
BRANCH  11  12
HETATM   12  C3  UNL     1      -1.072   5.623  12.567  1.00  0.00     0.153 C 
HETATM   13  N1  UNL     1      -1.221   5.947  13.800  1.00  0.00    -0.381 N 
ATOM     14  H12 UNL     1      -1.518   5.255  14.487  1.00  0.00     0.158 HD
ATOM     15  H11 UNL     1      -1.035   6.914  14.067  1.00  0.00     0.158 HD
BRANCH  12  16
HETATM   16  O1  UNL     1      -1.325   4.313  12.205  1.00  0.00    -0.338 OA
BRANCH  16  17
HETATM   17  C2  UNL     1      -1.047   3.911  10.881  1.00  0.00     0.172 C 
HETATM   18  C1  UNL     1      -1.747   2.599  10.630  1.00  0.00     0.034 C 
ENDBRANCH  16  17
ENDBRANCH  12  16
ENDBRANCH  11  12
BRANCH  11  19
HETATM   19  N2  UNL     1       0.565   7.335  11.989  1.00  0.00    -0.058 N 
ATOM     20  H23 UNL     1       0.357   8.021  12.714  1.00  0.00     0.276 HD
ATOM     21  H22 UNL     1       1.194   6.726  12.514  1.00  0.00     0.276 HD
ATOM     22  H21 UNL     1       1.048   7.769  11.203  1.00  0.00     0.276 HD
ENDBRANCH  11  19
ENDBRANCH  10  11
ENDBRANCH   9  10
ENDBRANCH   1   9
BRANCH   6  23
HETATM   23  O3  UNL     1      -3.168   4.915  15.570  1.00  0.00    -0.364 OA
ATOM     24  H3  UNL     1      -3.003   4.318  16.291  1.00  0.00     0.213 HD
ENDBRANCH   6  23
BRANCH   6  25
HETATM   25  C8  UNL     1      -5.224   4.006  16.203  1.00  0.00     0.050 C 
HETATM   26  C9  UNL     1      -6.698   4.245  16.192  1.00  0.00     0.010 C 
HETATM   27  C10 UNL     1      -7.243   3.170  17.148  1.00  0.00     0.001 C 
HETATM   28  C11 UNL     1      -6.135   2.185  17.360  1.00  0.00     0.001 C 
HETATM   29  C12 UNL     1      -5.190   2.475  16.214  1.00  0.00     0.010 C 
ENDBRANCH   6  25
TORSDOF 9
ENDMDL
MODEL 2
REMARK VINA RESULT: -6.808010303      1.438      2.113
REMARK  9 active torsions:
REMARK  status: ('A' for Active; 'I' for Inactive)
REMARK    1  A    between atoms: C2_2  and  O1_3 
REMARK    2  A    between atoms: O1_3  and  C3_4 
REMARK    3  A    between atoms: C3_4  and  C4_8 
REMARK    4  A    between atoms: C4_8  and  N2_9 
REMARK    5  A    between atoms: C4_8  and  S1_13 
REMARK    6  A    between atoms: S1_13  and  S2_14 
REMARK    7  A    between atoms: S2_14  and  C5_15 
REMARK    8  A    between atoms: C7_20  and  O3_21 
REMARK    9  A    between atoms: C7_20  and  C8_23 
ROOT
HETATM    1  C5  UNL     1      -3.672   7.265  13.027  1.00  0.00     0.156 A 
HETATM    2  N3  UNL     1      -4.916   7.448  13.027  1.00  0.00    -0.327 N 
ATOM      3  H3  UNL     1      -5.526   8.005  12.429  1.00  0.00     0.166 HD
HETATM    4  C6  UNL     1      -5.170   6.651  14.095  1.00  0.00     0.339 A 
HETATM    5  O2  UNL     1      -5.706   5.368  14.058  1.00  0.00    -0.311 OA
HETATM    6  C7  UNL     1      -4.861   4.570  14.833  1.00  0.00     0.186 C 
HETATM    7  C13 UNL     1      -3.583   5.357  15.103  1.00  0.00     0.198 C 
HETATM    8  N4  UNL     1      -3.716   6.357  14.041  1.00  0.00    -0.312 N 
ENDROOT
BRANCH   1   9
HETATM    9  S2  UNL     1      -2.410   7.963  11.916  1.00  0.00    -0.019 SA
BRANCH   9  10
HETATM   10  S1  UNL     1      -1.811   6.568  10.460  1.00  0.00    -0.048 SA
BRANCH  10  11
HETATM   11  C4  UNL     1      -1.431   4.941  11.202  1.00  0.00     0.329 C 
BRANCH  11  12
HETATM   12  C3  UNL     1      -2.622   4.107  11.327  1.00  0.00     0.153 C 
HETATM   13  N1  UNL     1      -3.772   4.549  10.965  1.00  0.00    -0.381 N 
ATOM     14  H12 UNL     1      -4.604   3.966  11.052  1.00  0.00     0.158 HD
ATOM     15  H11 UNL     1      -3.824   5.496  10.589  1.00  0.00     0.158 HD
BRANCH  12  16
HETATM   16  O1  UNL     1      -2.551   2.824  11.836  1.00  0.00    -0.338 OA
BRANCH  16  17
HETATM   17  C2  UNL     1      -2.931   1.746  11.009  1.00  0.00     0.172 C 
HETATM   18  C1  UNL     1      -3.925   0.900  11.763  1.00  0.00     0.034 C 
ENDBRANCH  16  17
ENDBRANCH  12  16
ENDBRANCH  11  12
BRANCH  11  19
HETATM   19  N2  UNL     1      -0.798   5.226  12.496  1.00  0.00    -0.058 N 
ATOM     20  H23 UNL     1      -0.521   4.363  12.965  1.00  0.00     0.276 HD
ATOM     21  H22 UNL     1       0.123   5.646  12.368  1.00  0.00     0.276 HD
ATOM     22  H21 UNL     1      -1.381   5.801  13.103  1.00  0.00     0.276 HD
ENDBRANCH  11  19
ENDBRANCH  10  11
ENDBRANCH   9  10
ENDBRANCH   1   9
BRANCH   6  23
HETATM   23  O3  UNL     1      -4.503   3.486  14.011  1.00  0.00    -0.364 OA
ATOM     24  H3  UNL     1      -5.272   3.299  13.485  1.00  0.00     0.213 HD
ENDBRANCH   6  23
BRANCH   6  25
HETATM   25  C8  UNL     1      -5.447   4.034  16.076  1.00  0.00     0.050 C 
HETATM   26  C9  UNL     1      -6.930   4.138  16.221  1.00  0.00     0.010 C 
HETATM   27  C10 UNL     1      -7.256   3.113  17.322  1.00  0.00     0.001 C 
HETATM   28  C11 UNL     1      -6.039   2.256  17.481  1.00  0.00     0.001 C 
HETATM   29  C12 UNL     1      -5.261   2.519  16.210  1.00  0.00     0.010 C 
ENDBRANCH   6  25
TORSDOF 9
ENDMDL
MODEL 3
REMARK VINA RESULT: -6.761309051      0.938      1.266
REMARK  9 active torsions:
REMARK  status: ('A' for Active; 'I' for Inactive)
REMARK    1  A    between atoms: C2_2  and  O1_3 
REMARK    2  A    between atoms: O1_3  and  C3_4 
REMARK    3  A    between atoms: C3_4  and  C4_8 
REMARK    4  A    between atoms: C4_8  and  N2_9 
REMARK    5  A    between atoms: C4_8  and  S1_13 
REMARK    6  A    between atoms: S1_13  and  S2_14 
REMARK    7  A    between atoms: S2_14  and  C5_15 
REMARK    8  A    between atoms: C7_20  and  O3_21 
REMARK    9  A    between atoms: C7_20  and  C8_23 
ROOT
HETATM    1  C5  UNL     1      -4.222   5.884  12.014  1.00  0.00     0.156 A 
HETATM    2  N3  UNL     1      -4.464   4.670  11.792  1.00  0.00    -0.327 N 
ATOM      3  H3  UNL     1      -4.337   4.087  10.965  1.00  0.00     0.166 HD
HETATM    4  C6  UNL     1      -4.952   4.401  13.028  1.00  0.00     0.339 A 
HETATM    5  O2  UNL     1      -4.289   3.727  14.048  1.00  0.00    -0.311 OA
HETATM    6  C7  UNL     1      -4.408   4.528  15.186  1.00  0.00     0.186 C 
HETATM    7  C13 UNL     1      -4.912   5.900  14.749  1.00  0.00     0.198 C 
HETATM    8  N4  UNL     1      -4.582   5.808  13.325  1.00  0.00    -0.312 N 
ENDROOT
BRANCH   1   9
HETATM    9  S2  UNL     1      -3.528   7.140  10.893  1.00  0.00    -0.019 SA
BRANCH   9  10
HETATM   10  S1  UNL     1      -1.469   7.409  11.221  1.00  0.00    -0.048 SA
BRANCH  10  11
HETATM   11  C4  UNL     1      -0.691   5.898  11.894  1.00  0.00     0.329 C 
BRANCH  11  12
HETATM   12  C3  UNL     1      -1.001   4.720  11.089  1.00  0.00     0.153 C 
HETATM   13  N1  UNL     1      -0.702   4.683   9.841  1.00  0.00    -0.381 N 
ATOM     14  H12 UNL     1      -0.918   3.860   9.279  1.00  0.00     0.158 HD
ATOM     15  H11 UNL     1      -0.243   5.498   9.434  1.00  0.00     0.158 HD
BRANCH  12  16
HETATM   16  O1  UNL     1      -1.622   3.616  11.641  1.00  0.00    -0.338 OA
BRANCH  16  17
HETATM   17  C2  UNL     1      -1.676   2.423  10.889  1.00  0.00     0.172 C 
HETATM   18  C1  UNL     1      -2.929   1.679  11.273  1.00  0.00     0.034 C 
ENDBRANCH  16  17
ENDBRANCH  12  16
ENDBRANCH  11  12
BRANCH  11  19
HETATM   19  N2  UNL     1      -1.165   5.782  13.278  1.00  0.00    -0.058 N 
ATOM     20  H23 UNL     1      -1.086   4.821  13.612  1.00  0.00     0.276 HD
ATOM     21  H22 UNL     1      -0.520   6.235  13.925  1.00  0.00     0.276 HD
ATOM     22  H21 UNL     1      -2.114   6.135  13.401  1.00  0.00     0.276 HD
ENDBRANCH  11  19
ENDBRANCH  10  11
ENDBRANCH   9  10
ENDBRANCH   1   9
BRANCH   6  23
HETATM   23  O3  UNL     1      -3.096   4.711  15.660  1.00  0.00    -0.364 OA
ATOM     24  H3  UNL     1      -3.163   5.352  16.358  1.00  0.00     0.213 HD
ENDBRANCH   6  23
BRANCH   6  25
HETATM   25  C8  UNL     1      -5.221   3.970  16.283  1.00  0.00     0.050 C 
HETATM   26  C9  UNL     1      -6.685   4.263  16.252  1.00  0.00     0.010 C 
HETATM   27  C10 UNL     1      -7.284   3.200  17.190  1.00  0.00     0.001 C 
HETATM   28  C11 UNL     1      -6.216   2.174  17.409  1.00  0.00     0.001 C 
HETATM   29  C12 UNL     1      -5.244   2.439  16.280  1.00  0.00     0.010 C 
ENDBRANCH   6  25
TORSDOF 9
ENDMDL
MODEL 4
REMARK VINA RESULT: -6.600241295      2.236      3.074
REMARK  9 active torsions:
REMARK  status: ('A' for Active; 'I' for Inactive)
REMARK    1  A    between atoms: C2_2  and  O1_3 
REMARK    2  A    between atoms: O1_3  and  C3_4 
REMARK    3  A    between atoms: C3_4  and  C4_8 
REMARK    4  A    between atoms: C4_8  and  N2_9 
REMARK    5  A    between atoms: C4_8  and  S1_13 
REMARK    6  A    between atoms: S1_13  and  S2_14 
REMARK    7  A    between atoms: S2_14  and  C5_15 
REMARK    8  A    between atoms: C7_20  and  O3_21 
REMARK    9  A    between atoms: C7_20  and  C8_23 
ROOT
HETATM    1  C5  UNL     1      -3.963   2.230  12.358  1.00  0.00     0.156 A 
HETATM    2  N3  UNL     1      -3.993   1.330  13.236  1.00  0.00    -0.327 N 
ATOM      3  H3  UNL     1      -3.669   0.363  13.236  1.00  0.00     0.166 HD
HETATM    4  C6  UNL     1      -4.605   2.084  14.182  1.00  0.00     0.339 A 
HETATM    5  O2  UNL     1      -4.001   2.665  15.291  1.00  0.00    -0.311 OA
HETATM    6  C7  UNL     1      -4.391   4.006  15.290  1.00  0.00     0.186 C 
HETATM    7  C13 UNL     1      -5.022   4.315  13.935  1.00  0.00     0.198 C 
HETATM    8  N4  UNL     1      -4.487   3.177  13.184  1.00  0.00    -0.312 N 
ENDROOT
BRANCH   1   9
HETATM    9  S2  UNL     1      -3.308   2.156  10.661  1.00  0.00    -0.019 SA
BRANCH   9  10
HETATM   10  S1  UNL     1      -1.695   3.481  10.401  1.00  0.00    -0.048 SA
BRANCH  10  11
HETATM   11  C4  UNL     1      -2.190   5.213  10.712  1.00  0.00     0.329 C 
BRANCH  11  12
HETATM   12  C3  UNL     1      -1.995   5.593  12.108  1.00  0.00     0.153 C 
HETATM   13  N1  UNL     1      -1.041   5.083  12.798  1.00  0.00    -0.381 N 
ATOM     14  H12 UNL     1      -0.905   5.349  13.773  1.00  0.00     0.158 HD
ATOM     15  H11 UNL     1      -0.426   4.409  12.341  1.00  0.00     0.158 HD
BRANCH  12  16
HETATM   16  O1  UNL     1      -2.827   6.507  12.726  1.00  0.00    -0.338 OA
BRANCH  16  17
HETATM   17  C2  UNL     1      -2.248   7.525  13.513  1.00  0.00     0.172 C 
HETATM   18  C1  UNL     1      -3.332   8.141  14.361  1.00  0.00     0.034 C 
ENDBRANCH  16  17
ENDBRANCH  12  16
ENDBRANCH  11  12
BRANCH  11  19
HETATM   19  N2  UNL     1      -3.590   5.316  10.284  1.00  0.00    -0.058 N 
ATOM     20  H23 UNL     1      -4.221   4.997  11.019  1.00  0.00     0.276 HD
ATOM     21  H22 UNL     1      -3.884   6.292  10.227  1.00  0.00     0.276 HD
ATOM     22  H21 UNL     1      -3.772   4.827   9.408  1.00  0.00     0.276 HD
ENDBRANCH  11  19
ENDBRANCH  10  11
ENDBRANCH   9  10
ENDBRANCH   1   9
BRANCH   6  23
HETATM   23  O3  UNL     1      -3.198   4.749  15.359  1.00  0.00    -0.364 OA
ATOM     24  H3  UNL     1      -2.558   4.169  15.754  1.00  0.00     0.213 HD
ENDBRANCH   6  23
BRANCH   6  25
HETATM   25  C8  UNL     1      -5.260   4.424  16.407  1.00  0.00     0.050 C 
HETATM   26  C9  UNL     1      -6.603   4.970  16.047  1.00  0.00     0.010 C 
HETATM   27  C10 UNL     1      -7.400   4.855  17.358  1.00  0.00     0.001 C 
HETATM   28  C11 UNL     1      -6.615   3.952  18.258  1.00  0.00     0.001 C 
HETATM   29  C12 UNL     1      -5.668   3.253  17.306  1.00  0.00     0.010 C 
ENDBRANCH   6  25
TORSDOF 9
ENDMDL
MODEL 5
REMARK VINA RESULT: -6.548729465      1.864      2.768
REMARK  9 active torsions:
REMARK  status: ('A' for Active; 'I' for Inactive)
REMARK    1  A    between atoms: C2_2  and  O1_3 
REMARK    2  A    between atoms: O1_3  and  C3_4 
REMARK    3  A    between atoms: C3_4  and  C4_8 
REMARK    4  A    between atoms: C4_8  and  N2_9 
REMARK    5  A    between atoms: C4_8  and  S1_13 
REMARK    6  A    between atoms: S1_13  and  S2_14 
REMARK    7  A    between atoms: S2_14  and  C5_15 
REMARK    8  A    between atoms: C7_20  and  O3_21 
REMARK    9  A    between atoms: C7_20  and  C8_23 
ROOT
HETATM    1  C5  UNL     1      -3.349   2.937  11.723  1.00  0.00     0.156 A 
HETATM    2  N3  UNL     1      -3.521   1.781  12.187  1.00  0.00    -0.327 N 
ATOM      3  H3  UNL     1      -3.128   0.875  11.932  1.00  0.00     0.166 HD
HETATM    4  C6  UNL     1      -4.410   2.150  13.142  1.00  0.00     0.339 A 
HETATM    5  O2  UNL     1      -4.152   2.284  14.502  1.00  0.00    -0.311 OA
HETATM    6  C7  UNL     1      -4.640   3.540  14.870  1.00  0.00     0.186 C 
HETATM    7  C13 UNL     1      -4.937   4.325  13.596  1.00  0.00     0.198 C 
HETATM    8  N4  UNL     1      -4.139   3.528  12.661  1.00  0.00    -0.312 N 
ENDROOT
BRANCH   1   9
HETATM    9  S2  UNL     1      -2.288   3.473  10.343  1.00  0.00    -0.019 SA
BRANCH   9  10
HETATM   10  S1  UNL     1      -1.675   5.471  10.575  1.00  0.00    -0.048 SA
BRANCH  10  11
HETATM   11  C4  UNL     1      -0.734   5.712  12.124  1.00  0.00     0.329 C 
BRANCH  11  12
HETATM   12  C3  UNL     1      -1.596   6.128  13.226  1.00  0.00     0.153 C 
HETATM   13  N1  UNL     1      -1.355   5.743  14.427  1.00  0.00    -0.381 N 
ATOM     14  H12 UNL     1      -1.956   6.035  15.197  1.00  0.00     0.158 HD
ATOM     15  H11 UNL     1      -0.546   5.141  14.584  1.00  0.00     0.158 HD
BRANCH  12  16
HETATM   16  O1  UNL     1      -2.691   6.944  13.014  1.00  0.00    -0.338 OA
BRANCH  16  17
HETATM   17  C2  UNL     1      -2.926   8.009  13.911  1.00  0.00     0.172 C 
HETATM   18  C1  UNL     1      -4.160   7.685  14.714  1.00  0.00     0.034 C 
ENDBRANCH  16  17
ENDBRANCH  12  16
ENDBRANCH  11  12
BRANCH  11  19
HETATM   19  N2  UNL     1       0.309   6.697  11.814  1.00  0.00    -0.058 N 
ATOM     20  H23 UNL     1       1.138   6.543  12.388  1.00  0.00     0.276 HD
ATOM     21  H22 UNL     1       0.711   6.526  10.893  1.00  0.00     0.276 HD
ATOM     22  H21 UNL     1      -0.020   7.659  11.897  1.00  0.00     0.276 HD
ENDBRANCH  11  19
ENDBRANCH  10  11
ENDBRANCH   9  10
ENDBRANCH   1   9
BRANCH   6  23
HETATM   23  O3  UNL     1      -3.568   4.192  15.506  1.00  0.00    -0.364 OA
ATOM     24  H3  UNL     1      -3.892   4.440  16.364  1.00  0.00     0.213 HD
ENDBRANCH   6  23
BRANCH   6  25
HETATM   25  C8  UNL     1      -5.791   3.537  15.792  1.00  0.00     0.050 C 
HETATM   26  C9  UNL     1      -5.523   3.121  17.202  1.00  0.00     0.010 C 
HETATM   27  C10 UNL     1      -6.738   3.664  17.973  1.00  0.00     0.001 C 
HETATM   28  C11 UNL     1      -7.423   4.636  17.062  1.00  0.00     0.001 C 
HETATM   29  C12 UNL     1      -6.367   4.937  16.021  1.00  0.00     0.010 C 
ENDBRANCH   6  25
TORSDOF 9
ENDMDL
