MODEL 1
REMARK VINA RESULT: -5.603734887      0.000      0.000
REMARK  10 active torsions:
REMARK  status: ('A' for Active; 'I' for Inactive)
REMARK    1  A    between atoms: S1_2  and  C2_3 
REMARK    2  A    between atoms: C2_3  and  C3_4 
REMARK    3  A    between atoms: C3_4  and  S2_5 
REMARK    4  A    between atoms: C5_7  and  O1_8 
REMARK    5  A    between atoms: C6_10  and  N1_11 
REMARK    6  A    between atoms: N1_11  and  N2_13 
REMARK    7  A    between atoms: N2_13  and  N3_14 
REMARK    8  A    between atoms: C9_20  and  O2_21 
REMARK    9  A    between atoms: O2_21  and  C10_22 
REMARK   10  A    between atoms: C11_25  and  O4_26 
ROOT
HETATM    1  C3  UNL     1      -3.073   4.866  11.611  1.00  0.00     0.072 C 
HETATM    2  C5  UNL     1      -3.041   3.343  11.654  1.00  0.00     0.166 C 
HETATM    3  C6  UNL     1      -4.343   2.788  12.172  1.00  0.00     0.165 C 
HETATM    4  C7  UNL     1      -4.912   3.486  13.350  1.00  0.00     0.152 C 
HETATM    5  C8  UNL     1      -4.626   2.745  14.598  1.00  0.00     0.069 C 
HETATM    6  N4  UNL     1      -4.393   2.182  15.579  1.00  0.00    -0.197 NA
HETATM    7  C9  UNL     1      -4.588   4.939  13.483  1.00  0.00     0.183 C 
HETATM    8  C11 UNL     1      -3.187   5.300  13.041  1.00  0.00     0.171 C 
ENDROOT
BRANCH   3   9
HETATM    9  N1  UNL     1      -4.087   1.395  12.556  1.00  0.00    -0.244 N 
ATOM     10  H1  UNL     1      -4.212   1.095  13.524  1.00  0.00     0.197 HD
BRANCH   9  11
HETATM   11  N2  UNL     1      -3.721   0.591  11.699  1.00  0.00    -0.248 NA
BRANCH  11  12
HETATM   12  N3  UNL     1      -3.103  -0.263  11.068  1.00  0.00    -0.261 N 
ATOM     13  H32 UNL     1      -2.298   0.340  10.902  1.00  0.00     0.193 HD
ATOM     14  H31 UNL     1      -2.823  -1.126  10.600  1.00  0.00     0.193 HD
ENDBRANCH  11  12
ENDBRANCH   9  11
ENDBRANCH   3   9
BRANCH   7  15
HETATM   15  O2  UNL     1      -4.889   5.354  14.789  1.00  0.00    -0.297 OA
BRANCH  15  16
HETATM   16  C10 UNL     1      -6.117   5.870  15.171  1.00  0.00     0.373 C 
HETATM   17  N5  UNL     1      -6.800   5.419  16.337  1.00  0.00    -0.032 NA
HETATM   18  O3  UNL     1      -6.566   6.757  14.410  1.00  0.00    -0.242 OA
ENDBRANCH  15  16
ENDBRANCH   7  15
BRANCH   2  19
HETATM   19  O1  UNL     1      -2.896   2.903  10.339  1.00  0.00    -0.392 OA
ATOM     20  H1  UNL     1      -3.622   2.317  10.161  1.00  0.00     0.210 HD
ENDBRANCH   2  19
BRANCH   8  21
HETATM   21  O4  UNL     1      -3.054   6.656  13.113  1.00  0.00    -0.391 OA
ATOM     22  H4  UNL     1      -2.927   6.911  14.019  1.00  0.00     0.210 HD
ENDBRANCH   8  21
BRANCH   1  23
HETATM   23  C2  UNL     1      -1.880   5.327  10.852  1.00  0.00     0.099 C 
BRANCH  23  24
HETATM   24  S1  UNL     1      -0.288   5.104  11.587  1.00  0.00    -0.172 SA
HETATM   25  C1  UNL     1       1.058   5.907  10.726  1.00  0.00     0.089 C 
ENDBRANCH  23  24
ENDBRANCH   1  23
BRANCH   1  26
HETATM   26  S2  UNL     1      -4.607   5.294  10.717  1.00  0.00    -0.157 SA
HETATM   27  C4  UNL     1      -4.611   6.985  10.128  1.00  0.00     0.091 C 
ENDBRANCH   1  26
TORSDOF 10
ENDMDL
MODEL 2
REMARK VINA RESULT: -5.454853957      2.598      4.938
REMARK  10 active torsions:
REMARK  status: ('A' for Active; 'I' for Inactive)
REMARK    1  A    between atoms: S1_2  and  C2_3 
REMARK    2  A    between atoms: C2_3  and  C3_4 
REMARK    3  A    between atoms: C3_4  and  S2_5 
REMARK    4  A    between atoms: C5_7  and  O1_8 
REMARK    5  A    between atoms: C6_10  and  N1_11 
REMARK    6  A    between atoms: N1_11  and  N2_13 
REMARK    7  A    between atoms: N2_13  and  N3_14 
REMARK    8  A    between atoms: C9_20  and  O2_21 
REMARK    9  A    between atoms: O2_21  and  C10_22 
REMARK   10  A    between atoms: C11_25  and  O4_26 
ROOT
HETATM    1  C3  UNL     1      -2.727   5.857  10.982  1.00  0.00     0.072 C 
HETATM    2  C5  UNL     1      -3.057   7.016  11.916  1.00  0.00     0.166 C 
HETATM    3  C6  UNL     1      -3.087   6.562  13.353  1.00  0.00     0.165 C 
HETATM    4  C7  UNL     1      -3.778   5.273  13.603  1.00  0.00     0.152 C 
HETATM    5  C8  UNL     1      -5.145   5.494  14.121  1.00  0.00     0.069 C 
HETATM    6  N4  UNL     1      -6.221   5.657  14.511  1.00  0.00    -0.197 NA
HETATM    7  C9  UNL     1      -3.765   4.283  12.483  1.00  0.00     0.183 C 
HETATM    8  C11 UNL     1      -3.879   4.906  11.109  1.00  0.00     0.171 C 
ENDROOT
BRANCH   3   9
HETATM    9  N1  UNL     1      -3.789   7.602  14.113  1.00  0.00    -0.244 N 
ATOM     10  H1  UNL     1      -4.769   7.480  14.369  1.00  0.00     0.197 HD
BRANCH   9  11
HETATM   11  N2  UNL     1      -3.184   8.623  14.437  1.00  0.00    -0.248 NA
BRANCH  11  12
HETATM   12  N3  UNL     1      -2.330   9.495  14.582  1.00  0.00    -0.261 N 
ATOM     13  H32 UNL     1      -2.186   9.620  13.579  1.00  0.00     0.193 HD
ATOM     14  H31 UNL     1      -1.675  10.170  14.976  1.00  0.00     0.193 HD
ENDBRANCH  11  12
ENDBRANCH   9  11
ENDBRANCH   3   9
BRANCH   7  15
HETATM   15  O2  UNL     1      -4.732   3.299  12.734  1.00  0.00    -0.297 OA
BRANCH  15  16
HETATM   16  C10 UNL     1      -4.431   1.978  13.026  1.00  0.00     0.373 C 
HETATM   17  N5  UNL     1      -4.557   1.444  14.341  1.00  0.00    -0.032 NA
HETATM   18  O3  UNL     1      -4.043   1.305  12.044  1.00  0.00    -0.242 OA
ENDBRANCH  15  16
ENDBRANCH   7  15
BRANCH   2  19
HETATM   19  O1  UNL     1      -2.022   7.942  11.794  1.00  0.00    -0.392 OA
ATOM     20  H1  UNL     1      -1.288   7.604  12.293  1.00  0.00     0.210 HD
ENDBRANCH   2  19
BRANCH   8  21
HETATM   21  O4  UNL     1      -3.751   3.916  10.180  1.00  0.00    -0.391 OA
ATOM     22  H4  UNL     1      -4.612   3.584   9.954  1.00  0.00     0.210 HD
ENDBRANCH   8  21
BRANCH   1  23
HETATM   23  C2  UNL     1      -2.456   6.422   9.633  1.00  0.00     0.099 C 
BRANCH  23  24
HETATM   24  S1  UNL     1      -3.776   7.243   8.792  1.00  0.00    -0.172 SA
HETATM   25  C1  UNL     1      -3.790   7.023   7.017  1.00  0.00     0.089 C 
ENDBRANCH  23  24
ENDBRANCH   1  23
BRANCH   1  26
HETATM   26  S2  UNL     1      -1.221   5.090  11.672  1.00  0.00    -0.157 SA
HETATM   27  C4  UNL     1       0.248   5.490  10.731  1.00  0.00     0.091 C 
ENDBRANCH   1  26
TORSDOF 10
ENDMDL
MODEL 3
REMARK VINA RESULT: -5.431764420      1.843      2.037
REMARK  10 active torsions:
REMARK  status: ('A' for Active; 'I' for Inactive)
REMARK    1  A    between atoms: S1_2  and  C2_3 
REMARK    2  A    between atoms: C2_3  and  C3_4 
REMARK    3  A    between atoms: C3_4  and  S2_5 
REMARK    4  A    between atoms: C5_7  and  O1_8 
REMARK    5  A    between atoms: C6_10  and  N1_11 
REMARK    6  A    between atoms: N1_11  and  N2_13 
REMARK    7  A    between atoms: N2_13  and  N3_14 
REMARK    8  A    between atoms: C9_20  and  O2_21 
REMARK    9  A    between atoms: O2_21  and  C10_22 
REMARK   10  A    between atoms: C11_25  and  O4_26 
ROOT
HETATM    1  C3  UNL     1      -3.188   5.908  11.560  1.00  0.00     0.072 C 
HETATM    2  C5  UNL     1      -3.728   4.734  10.752  1.00  0.00     0.166 C 
HETATM    3  C6  UNL     1      -4.957   4.150  11.399  1.00  0.00     0.165 C 
HETATM    4  C7  UNL     1      -4.887   3.983  12.871  1.00  0.00     0.152 C 
HETATM    5  C8  UNL     1      -4.587   2.580  13.234  1.00  0.00     0.069 C 
HETATM    6  N4  UNL     1      -4.337   1.491  13.526  1.00  0.00    -0.197 NA
HETATM    7  C9  UNL     1      -4.010   4.943  13.610  1.00  0.00     0.183 C 
HETATM    8  C11 UNL     1      -2.747   5.319  12.866  1.00  0.00     0.171 C 
ENDROOT
BRANCH   3   9
HETATM    9  N1  UNL     1      -5.160   2.824  10.806  1.00  0.00    -0.244 N 
ATOM     10  H1  UNL     1      -6.059   2.349  10.899  1.00  0.00     0.197 HD
BRANCH   9  11
HETATM   11  N2  UNL     1      -4.236   2.289  10.195  1.00  0.00    -0.248 NA
BRANCH  11  12
HETATM   12  N3  UNL     1      -3.367   1.508   9.814  1.00  0.00    -0.261 N 
ATOM     13  H32 UNL     1      -3.763   0.712  10.314  1.00  0.00     0.193 HD
ATOM     14  H31 UNL     1      -2.550   1.093   9.366  1.00  0.00     0.193 HD
ENDBRANCH  11  12
ENDBRANCH   9  11
ENDBRANCH   3   9
BRANCH   7  15
HETATM   15  O2  UNL     1      -3.775   4.446  14.899  1.00  0.00    -0.297 OA
BRANCH  15  16
HETATM   16  C10 UNL     1      -4.758   4.322  15.869  1.00  0.00     0.373 C 
HETATM   17  N5  UNL     1      -5.926   5.137  15.874  1.00  0.00    -0.032 NA
HETATM   18  O3  UNL     1      -4.529   3.442  16.729  1.00  0.00    -0.242 OA
ENDBRANCH  15  16
ENDBRANCH   7  15
BRANCH   2  19
HETATM   19  O1  UNL     1      -4.112   5.239   9.510  1.00  0.00    -0.392 OA
ATOM     20  H1  UNL     1      -4.892   4.765   9.248  1.00  0.00     0.210 HD
ENDBRANCH   2  19
BRANCH   8  21
HETATM   21  O4  UNL     1      -2.094   6.272  13.592  1.00  0.00    -0.391 OA
ATOM     22  H4  UNL     1      -1.693   6.897  13.000  1.00  0.00     0.210 HD
ENDBRANCH   8  21
BRANCH   1  23
HETATM   23  C2  UNL     1      -2.154   6.591  10.738  1.00  0.00     0.099 C 
BRANCH  23  24
HETATM   24  S1  UNL     1      -0.687   5.693  10.327  1.00  0.00    -0.172 SA
HETATM   25  C1  UNL     1      -0.635   5.061   8.656  1.00  0.00     0.089 C 
ENDBRANCH  23  24
ENDBRANCH   1  23
BRANCH   1  26
HETATM   26  S2  UNL     1      -4.619   7.008  11.835  1.00  0.00    -0.157 SA
HETATM   27  C4  UNL     1      -4.140   8.720  12.049  1.00  0.00     0.091 C 
ENDBRANCH   1  26
TORSDOF 10
ENDMDL
MODEL 4
REMARK VINA RESULT: -5.406761149      2.632      4.964
REMARK  10 active torsions:
REMARK  status: ('A' for Active; 'I' for Inactive)
REMARK    1  A    between atoms: S1_2  and  C2_3 
REMARK    2  A    between atoms: C2_3  and  C3_4 
REMARK    3  A    between atoms: C3_4  and  S2_5 
REMARK    4  A    between atoms: C5_7  and  O1_8 
REMARK    5  A    between atoms: C6_10  and  N1_11 
REMARK    6  A    between atoms: N1_11  and  N2_13 
REMARK    7  A    between atoms: N2_13  and  N3_14 
REMARK    8  A    between atoms: C9_20  and  O2_21 
REMARK    9  A    between atoms: O2_21  and  C10_22 
REMARK   10  A    between atoms: C11_25  and  O4_26 
ROOT
HETATM    1  C3  UNL     1      -4.080   6.038  13.487  1.00  0.00     0.072 C 
HETATM    2  C5  UNL     1      -4.358   4.587  13.860  1.00  0.00     0.166 C 
HETATM    3  C6  UNL     1      -3.594   3.642  12.969  1.00  0.00     0.165 C 
HETATM    4  C7  UNL     1      -3.595   3.981  11.525  1.00  0.00     0.152 C 
HETATM    5  C8  UNL     1      -4.577   3.159  10.786  1.00  0.00     0.069 C 
HETATM    6  N4  UNL     1      -5.353   2.533  10.203  1.00  0.00    -0.197 NA
HETATM    7  C9  UNL     1      -3.719   5.431  11.183  1.00  0.00     0.183 C 
HETATM    8  C11 UNL     1      -4.635   6.205  12.105  1.00  0.00     0.171 C 
ENDROOT
BRANCH   3   9
HETATM    9  N1  UNL     1      -4.214   2.321  13.120  1.00  0.00    -0.244 N 
ATOM     10  H1  UNL     1      -4.563   1.818  12.303  1.00  0.00     0.197 HD
BRANCH   9  11
HETATM   11  N2  UNL     1      -4.310   1.824  14.242  1.00  0.00    -0.248 NA
BRANCH  11  12
HETATM   12  N3  UNL     1      -4.169   1.564  15.435  1.00  0.00    -0.261 N 
ATOM     13  H32 UNL     1      -3.438   2.262  15.574  1.00  0.00     0.193 HD
ATOM     14  H31 UNL     1      -4.255   1.158  16.367  1.00  0.00     0.193 HD
ENDBRANCH  11  12
ENDBRANCH   9  11
ENDBRANCH   3   9
BRANCH   7  15
HETATM   15  O2  UNL     1      -4.056   5.551   9.827  1.00  0.00    -0.297 OA
BRANCH  15  16
HETATM   16  C10 UNL     1      -3.440   6.433   8.954  1.00  0.00     0.373 C 
HETATM   17  N5  UNL     1      -3.823   6.540   7.586  1.00  0.00    -0.032 NA
HETATM   18  O3  UNL     1      -2.528   7.120   9.468  1.00  0.00    -0.242 OA
ENDBRANCH  15  16
ENDBRANCH   7  15
BRANCH   2  19
HETATM   19  O1  UNL     1      -3.888   4.405  15.160  1.00  0.00    -0.392 OA
ATOM     20  H1  UNL     1      -4.648   4.391  15.730  1.00  0.00     0.210 HD
ENDBRANCH   2  19
BRANCH   8  21
HETATM   21  O4  UNL     1      -4.581   7.522  11.753  1.00  0.00    -0.391 OA
ATOM     22  H4  UNL     1      -5.341   7.737  11.226  1.00  0.00     0.210 HD
ENDBRANCH   8  21
BRANCH   1  23
HETATM   23  C2  UNL     1      -4.645   6.902  14.557  1.00  0.00     0.099 C 
BRANCH  23  24
HETATM   24  S1  UNL     1      -6.376   6.784  14.896  1.00  0.00    -0.172 SA
HETATM   25  C1  UNL     1      -6.805   5.706  16.257  1.00  0.00     0.089 C 
ENDBRANCH  23  24
ENDBRANCH   1  23
BRANCH   1  26
HETATM   26  S2  UNL     1      -2.260   6.186  13.437  1.00  0.00    -0.157 SA
HETATM   27  C4  UNL     1      -1.701   7.873  13.653  1.00  0.00     0.091 C 
ENDBRANCH   1  26
TORSDOF 10
ENDMDL
MODEL 5
REMARK VINA RESULT: -5.340423762      3.138      4.480
REMARK  10 active torsions:
REMARK  status: ('A' for Active; 'I' for Inactive)
REMARK    1  A    between atoms: S1_2  and  C2_3 
REMARK    2  A    between atoms: C2_3  and  C3_4 
REMARK    3  A    between atoms: C3_4  and  S2_5 
REMARK    4  A    between atoms: C5_7  and  O1_8 
REMARK    5  A    between atoms: C6_10  and  N1_11 
REMARK    6  A    between atoms: N1_11  and  N2_13 
REMARK    7  A    between atoms: N2_13  and  N3_14 
REMARK    8  A    between atoms: C9_20  and  O2_21 
REMARK    9  A    between atoms: O2_21  and  C10_22 
REMARK   10  A    between atoms: C11_25  and  O4_26 
ROOT
HETATM    1  C3  UNL     1      -4.218   3.452  11.610  1.00  0.00     0.072 C 
HETATM    2  C5  UNL     1      -4.710   4.802  11.100  1.00  0.00     0.166 C 
HETATM    3  C6  UNL     1      -4.217   5.925  11.976  1.00  0.00     0.165 C 
HETATM    4  C7  UNL     1      -4.304   5.681  13.437  1.00  0.00     0.152 C 
HETATM    5  C8  UNL     1      -5.485   6.354  14.020  1.00  0.00     0.069 C 
HETATM    6  N4  UNL     1      -6.414   6.863  14.482  1.00  0.00    -0.197 NA
HETATM    7  C9  UNL     1      -4.204   4.257  13.882  1.00  0.00     0.183 C 
HETATM    8  C11 UNL     1      -4.872   3.273  12.947  1.00  0.00     0.171 C 
ENDROOT
BRANCH   3   9
HETATM    9  N1  UNL     1      -5.043   7.098  11.668  1.00  0.00    -0.244 N 
ATOM     10  H1  UNL     1      -5.416   7.678  12.419  1.00  0.00     0.197 HD
BRANCH   9  11
HETATM   11  N2  UNL     1      -5.281   7.375  10.492  1.00  0.00    -0.248 NA
BRANCH  11  12
HETATM   12  N3  UNL     1      -5.337   7.930   9.398  1.00  0.00    -0.261 N 
ATOM     13  H32 UNL     1      -6.171   7.421   9.103  1.00  0.00     0.193 HD
ATOM     14  H31 UNL     1      -5.153   8.523   8.588  1.00  0.00     0.193 HD
ENDBRANCH  11  12
ENDBRANCH   9  11
ENDBRANCH   3   9
BRANCH   7  15
HETATM   15  O2  UNL     1      -4.649   4.163  15.208  1.00  0.00    -0.297 OA
BRANCH  15  16
HETATM   16  C10 UNL     1      -4.723   2.972  15.914  1.00  0.00     0.373 C 
HETATM   17  N5  UNL     1      -5.967   2.346  16.217  1.00  0.00    -0.032 NA
HETATM   18  O3  UNL     1      -3.615   2.502  16.256  1.00  0.00    -0.242 OA
ENDBRANCH  15  16
ENDBRANCH   7  15
BRANCH   2  19
HETATM   19  O1  UNL     1      -4.151   4.986   9.836  1.00  0.00    -0.392 OA
ATOM     20  H1  UNL     1      -4.404   4.237   9.310  1.00  0.00     0.210 HD
ENDBRANCH   2  19
BRANCH   8  21
HETATM   21  O4  UNL     1      -4.621   2.013  13.406  1.00  0.00    -0.391 OA
ATOM     22  H4  UNL     1      -4.114   2.066  14.208  1.00  0.00     0.210 HD
ENDBRANCH   8  21
BRANCH   1  23
HETATM   23  C2  UNL     1      -4.512   2.435  10.567  1.00  0.00     0.099 C 
BRANCH  23  24
HETATM   24  S1  UNL     1      -3.305   1.179  10.262  1.00  0.00    -0.172 SA
HETATM   25  C1  UNL     1      -3.381  -0.222  11.371  1.00  0.00     0.089 C 
ENDBRANCH  23  24
ENDBRANCH   1  23
BRANCH   1  26
HETATM   26  S2  UNL     1      -2.416   3.644  11.831  1.00  0.00    -0.157 SA
HETATM   27  C4  UNL     1      -1.561   3.938  10.286  1.00  0.00     0.091 C 
ENDBRANCH   1  26
TORSDOF 10
ENDMDL
