MODEL 1
REMARK VINA RESULT: -7.661296850      0.000      0.000
REMARK  11 active torsions:
REMARK  status: ('A' for Active; 'I' for Inactive)
REMARK    1  A    between atoms: C2_2  and  O1_3 
REMARK    2  A    between atoms: O1_3  and  C3_4 
REMARK    3  A    between atoms: C3_4  and  O3_6 
REMARK    4  A    between atoms: O3_6  and  C4_7 
REMARK    5  A    between atoms: C4_7  and  O4_8 
REMARK    6  A    between atoms: O4_8  and  C5_9 
REMARK    7  A    between atoms: C5_9  and  C6_11 
REMARK    8  A    between atoms: C6_11  and  N1_12 
REMARK    9  A    between atoms: C6_11  and  C10_17 
REMARK       I    between atoms: N1_12  and  C8_14 
REMARK   10  A    between atoms: C10_17  and  O7_18 
REMARK   11  A    between atoms: C15_24  and  O8_25 
ROOT
HETATM    1  C6  UNL     1      -4.033   4.898  11.553  1.00  0.00     0.223 C 
ENDROOT
BRANCH   1   2
HETATM    2  C5  UNL     1      -4.609   3.548  11.835  1.00  0.00     0.287 C 
HETATM    3  O5  UNL     1      -5.704   3.240  11.312  1.00  0.00    -0.263 OA
BRANCH   2   4
HETATM    4  O4  UNL     1      -4.039   2.628  12.614  1.00  0.00    -0.293 OA
BRANCH   4   5
HETATM    5  C4  UNL     1      -4.197   1.524  13.336  1.00  0.00     0.360 C 
BRANCH   5   6
HETATM    6  O3  UNL     1      -4.909   1.370  14.470  1.00  0.00    -0.272 OA
BRANCH   6   7
HETATM    7  C3  UNL     1      -4.748   1.766  15.736  1.00  0.00     0.408 C 
HETATM    8  O2  UNL     1      -3.714   2.346  16.137  1.00  0.00    -0.229 OA
BRANCH   7   9
HETATM    9  O1  UNL     1      -5.721   1.574  16.739  1.00  0.00    -0.298 OA
BRANCH   9  10
HETATM   10  C2  UNL     1      -6.177   2.680  17.484  1.00  0.00     0.176 C 
HETATM   11  C1  UNL     1      -7.058   3.608  16.719  1.00  0.00     0.034 C 
ENDBRANCH   9  10
ENDBRANCH   7   9
ENDBRANCH   6   7
ENDBRANCH   5   6
ENDBRANCH   4   5
ENDBRANCH   2   4
ENDBRANCH   1   2
BRANCH   1  12
HETATM   12  N1  UNL     1      -2.719   4.754  10.914  1.00  0.00    -0.340 N 
HETATM   13  C7  UNL     1      -1.650   3.928  11.409  1.00  0.00     0.153 C 
HETATM   14  C8  UNL     1      -2.451   5.450   9.674  1.00  0.00     0.216 C 
HETATM   15  C9  UNL     1      -1.146   5.324   9.020  1.00  0.00     0.117 C 
HETATM   16  O6  UNL     1      -3.363   6.156   9.186  1.00  0.00    -0.274 OA
ENDBRANCH   1  12
BRANCH   1  17
HETATM   17  C10 UNL     1      -4.089   5.895  12.628  1.00  0.00     0.113 C 
HETATM   18  C11 UNL     1      -2.891   6.724  12.956  1.00  0.00     0.043 C 
HETATM   19  C12 UNL     1      -3.445   7.992  13.645  1.00  0.00     0.003 C 
HETATM   20  C13 UNL     1      -4.253   7.676  14.833  1.00  0.00     0.003 C 
HETATM   21  C14 UNL     1      -5.164   6.486  14.755  1.00  0.00     0.035 C 
HETATM   22  C15 UNL     1      -4.536   5.341  13.981  1.00  0.00     0.155 C 
BRANCH  17  23
HETATM   23  O7  UNL     1      -5.144   6.837  12.332  1.00  0.00    -0.385 OA
ATOM     24  H7  UNL     1      -5.153   7.505  13.008  1.00  0.00     0.210 HD
ENDBRANCH  17  23
BRANCH  22  25
HETATM   25  O8  UNL     1      -3.478   4.814  14.707  1.00  0.00    -0.392 OA
ATOM     26  H8  UNL     1      -3.756   4.473  15.550  1.00  0.00     0.210 HD
ENDBRANCH  22  25
ENDBRANCH   1  17
TORSDOF 11
ENDMDL
MODEL 2
REMARK VINA RESULT: -7.619194023      1.355      3.717
REMARK  11 active torsions:
REMARK  status: ('A' for Active; 'I' for Inactive)
REMARK    1  A    between atoms: C2_2  and  O1_3 
REMARK    2  A    between atoms: O1_3  and  C3_4 
REMARK    3  A    between atoms: C3_4  and  O3_6 
REMARK    4  A    between atoms: O3_6  and  C4_7 
REMARK    5  A    between atoms: C4_7  and  O4_8 
REMARK    6  A    between atoms: O4_8  and  C5_9 
REMARK    7  A    between atoms: C5_9  and  C6_11 
REMARK    8  A    between atoms: C6_11  and  N1_12 
REMARK    9  A    between atoms: C6_11  and  C10_17 
REMARK       I    between atoms: N1_12  and  C8_14 
REMARK   10  A    between atoms: C10_17  and  O7_18 
REMARK   11  A    between atoms: C15_24  and  O8_25 
ROOT
HETATM    1  C6  UNL     1      -3.478   4.644  12.224  1.00  0.00     0.223 C 
ENDROOT
BRANCH   1   2
HETATM    2  C5  UNL     1      -4.632   3.766  11.861  1.00  0.00     0.287 C 
HETATM    3  O5  UNL     1      -5.441   4.164  10.993  1.00  0.00    -0.263 OA
BRANCH   2   4
HETATM    4  O4  UNL     1      -4.873   2.569  12.399  1.00  0.00    -0.293 OA
BRANCH   4   5
HETATM    5  C4  UNL     1      -4.389   1.529  13.069  1.00  0.00     0.360 C 
BRANCH   5   6
HETATM    6  O3  UNL     1      -4.580   1.219  14.367  1.00  0.00    -0.272 OA
BRANCH   6   7
HETATM    7  C3  UNL     1      -4.703   1.932  15.490  1.00  0.00     0.408 C 
HETATM    8  O2  UNL     1      -3.717   2.319  16.157  1.00  0.00    -0.229 OA
BRANCH   7   9
HETATM    9  O1  UNL     1      -5.946   2.319  16.032  1.00  0.00    -0.298 OA
BRANCH   9  10
HETATM   10  C2  UNL     1      -6.133   2.292  17.428  1.00  0.00     0.176 C 
HETATM   11  C1  UNL     1      -6.325   3.635  18.043  1.00  0.00     0.034 C 
ENDBRANCH   9  10
ENDBRANCH   7   9
ENDBRANCH   6   7
ENDBRANCH   5   6
ENDBRANCH   4   5
ENDBRANCH   2   4
ENDBRANCH   1   2
BRANCH   1  12
HETATM   12  N1  UNL     1      -3.973   5.903  12.794  1.00  0.00    -0.340 N 
HETATM   13  C7  UNL     1      -4.669   6.922  12.055  1.00  0.00     0.153 C 
HETATM   14  C8  UNL     1      -3.797   6.162  14.207  1.00  0.00     0.216 C 
HETATM   15  C9  UNL     1      -4.279   7.413  14.797  1.00  0.00     0.117 C 
HETATM   16  O6  UNL     1      -3.225   5.288  14.898  1.00  0.00    -0.274 OA
ENDBRANCH   1  12
BRANCH   1  17
HETATM   17  C10 UNL     1      -2.406   4.794  11.234  1.00  0.00     0.113 C 
HETATM   18  C11 UNL     1      -1.478   3.661  10.944  1.00  0.00     0.043 C 
HETATM   19  C12 UNL     1      -0.927   3.933   9.525  1.00  0.00     0.003 C 
HETATM   20  C13 UNL     1      -0.265   5.243   9.424  1.00  0.00     0.003 C 
HETATM   21  C14 UNL     1      -0.896   6.396  10.147  1.00  0.00     0.035 C 
HETATM   22  C15 UNL     1      -1.474   5.979  11.487  1.00  0.00     0.155 C 
BRANCH  17  23
HETATM   23  O7  UNL     1      -2.995   5.148   9.963  1.00  0.00    -0.385 OA
ATOM     24  H7  UNL     1      -2.493   4.735   9.270  1.00  0.00     0.210 HD
ENDBRANCH  17  23
BRANCH  22  25
HETATM   25  O8  UNL     1      -0.442   5.659  12.358  1.00  0.00    -0.392 OA
ATOM     26  H8  UNL     1       0.413   5.801  11.969  1.00  0.00     0.210 HD
ENDBRANCH  22  25
ENDBRANCH   1  17
TORSDOF 11
ENDMDL
MODEL 3
REMARK VINA RESULT: -7.584119053      0.743      1.609
REMARK  11 active torsions:
REMARK  status: ('A' for Active; 'I' for Inactive)
REMARK    1  A    between atoms: C2_2  and  O1_3 
REMARK    2  A    between atoms: O1_3  and  C3_4 
REMARK    3  A    between atoms: C3_4  and  O3_6 
REMARK    4  A    between atoms: O3_6  and  C4_7 
REMARK    5  A    between atoms: C4_7  and  O4_8 
REMARK    6  A    between atoms: O4_8  and  C5_9 
REMARK    7  A    between atoms: C5_9  and  C6_11 
REMARK    8  A    between atoms: C6_11  and  N1_12 
REMARK    9  A    between atoms: C6_11  and  C10_17 
REMARK       I    between atoms: N1_12  and  C8_14 
REMARK   10  A    between atoms: C10_17  and  O7_18 
REMARK   11  A    between atoms: C15_24  and  O8_25 
ROOT
HETATM    1  C6  UNL     1      -4.158   4.505  11.671  1.00  0.00     0.223 C 
ENDROOT
BRANCH   1   2
HETATM    2  C5  UNL     1      -4.351   3.026  11.768  1.00  0.00     0.287 C 
HETATM    3  O5  UNL     1      -4.912   2.429  10.822  1.00  0.00    -0.263 OA
BRANCH   2   4
HETATM    4  O4  UNL     1      -3.965   2.277  12.803  1.00  0.00    -0.293 OA
BRANCH   4   5
HETATM    5  C4  UNL     1      -4.319   1.413  13.748  1.00  0.00     0.360 C 
BRANCH   5   6
HETATM    6  O3  UNL     1      -4.942   1.672  14.916  1.00  0.00    -0.272 OA
BRANCH   6   7
HETATM    7  C3  UNL     1      -4.577   2.255  16.061  1.00  0.00     0.408 C 
HETATM    8  O2  UNL     1      -3.562   2.982  16.158  1.00  0.00    -0.229 OA
BRANCH   7   9
HETATM    9  O1  UNL     1      -5.293   2.112  17.268  1.00  0.00    -0.298 OA
BRANCH   9  10
HETATM   10  C2  UNL     1      -6.177   3.131  17.675  1.00  0.00     0.176 C 
HETATM   11  C1  UNL     1      -7.479   3.134  16.952  1.00  0.00     0.034 C 
ENDBRANCH   9  10
ENDBRANCH   7   9
ENDBRANCH   6   7
ENDBRANCH   5   6
ENDBRANCH   4   5
ENDBRANCH   2   4
ENDBRANCH   1   2
BRANCH   1  12
HETATM   12  N1  UNL     1      -2.894   4.796  10.983  1.00  0.00    -0.340 N 
HETATM   13  C7  UNL     1      -1.598   4.353  11.421  1.00  0.00     0.153 C 
HETATM   14  C8  UNL     1      -2.915   5.554   9.749  1.00  0.00     0.216 C 
HETATM   15  C9  UNL     1      -1.667   5.860   9.047  1.00  0.00     0.117 C 
HETATM   16  O6  UNL     1      -4.025   5.933   9.310  1.00  0.00    -0.274 OA
ENDBRANCH   1  12
BRANCH   1  17
HETATM   17  C10 UNL     1      -4.397   5.298  12.881  1.00  0.00     0.113 C 
HETATM   18  C11 UNL     1      -5.691   5.184  13.619  1.00  0.00     0.043 C 
HETATM   19  C12 UNL     1      -5.382   5.639  15.064  1.00  0.00     0.003 C 
HETATM   20  C13 UNL     1      -4.824   6.999  15.115  1.00  0.00     0.003 C 
HETATM   21  C14 UNL     1      -3.839   7.384  14.050  1.00  0.00     0.035 C 
HETATM   22  C15 UNL     1      -4.209   6.804  12.698  1.00  0.00     0.155 C 
BRANCH  17  23
HETATM   23  O7  UNL     1      -3.370   4.989  13.850  1.00  0.00    -0.385 OA
ATOM     24  H7  UNL     1      -3.753   5.019  14.719  1.00  0.00     0.210 HD
ENDBRANCH  17  23
BRANCH  22  25
HETATM   25  O8  UNL     1      -5.358   7.423  12.226  1.00  0.00    -0.392 OA
ATOM     26  H8  UNL     1      -5.323   8.368  12.323  1.00  0.00     0.210 HD
ENDBRANCH  22  25
ENDBRANCH   1  17
TORSDOF 11
ENDMDL
MODEL 4
REMARK VINA RESULT: -7.351306537      1.060      1.126
REMARK  11 active torsions:
REMARK  status: ('A' for Active; 'I' for Inactive)
REMARK    1  A    between atoms: C2_2  and  O1_3 
REMARK    2  A    between atoms: O1_3  and  C3_4 
REMARK    3  A    between atoms: C3_4  and  O3_6 
REMARK    4  A    between atoms: O3_6  and  C4_7 
REMARK    5  A    between atoms: C4_7  and  O4_8 
REMARK    6  A    between atoms: O4_8  and  C5_9 
REMARK    7  A    between atoms: C5_9  and  C6_11 
REMARK    8  A    between atoms: C6_11  and  N1_12 
REMARK    9  A    between atoms: C6_11  and  C10_17 
REMARK       I    between atoms: N1_12  and  C8_14 
REMARK   10  A    between atoms: C10_17  and  O7_18 
REMARK   11  A    between atoms: C15_24  and  O8_25 
ROOT
HETATM    1  C6  UNL     1      -3.942   4.351  11.125  1.00  0.00     0.223 C 
ENDROOT
BRANCH   1   2
HETATM    2  C5  UNL     1      -4.562   2.993  11.201  1.00  0.00     0.287 C 
HETATM    3  O5  UNL     1      -4.917   2.434  10.139  1.00  0.00    -0.263 OA
BRANCH   2   4
HETATM    4  O4  UNL     1      -4.771   2.317  12.331  1.00  0.00    -0.293 OA
BRANCH   4   5
HETATM    5  C4  UNL     1      -4.260   1.531  13.272  1.00  0.00     0.360 C 
BRANCH   5   6
HETATM    6  O3  UNL     1      -4.760   1.274  14.498  1.00  0.00    -0.272 OA
BRANCH   6   7
HETATM    7  C3  UNL     1      -4.836   1.963  15.640  1.00  0.00     0.408 C 
HETATM    8  O2  UNL     1      -3.828   2.422  16.222  1.00  0.00    -0.229 OA
BRANCH   7   9
HETATM    9  O1  UNL     1      -6.052   2.241  16.299  1.00  0.00    -0.298 OA
BRANCH   9  10
HETATM   10  C2  UNL     1      -6.123   3.327  17.194  1.00  0.00     0.176 C 
HETATM   11  C1  UNL     1      -6.776   4.540  16.629  1.00  0.00     0.034 C 
ENDBRANCH   9  10
ENDBRANCH   7   9
ENDBRANCH   6   7
ENDBRANCH   5   6
ENDBRANCH   4   5
ENDBRANCH   2   4
ENDBRANCH   1   2
BRANCH   1  12
HETATM   12  N1  UNL     1      -2.547   4.237  10.684  1.00  0.00    -0.340 N 
HETATM   13  C7  UNL     1      -1.607   3.265  11.176  1.00  0.00     0.153 C 
HETATM   14  C8  UNL     1      -2.051   5.126   9.655  1.00  0.00     0.216 C 
HETATM   15  C9  UNL     1      -0.661   5.032   9.202  1.00  0.00     0.117 C 
HETATM   16  O6  UNL     1      -2.842   5.968   9.173  1.00  0.00    -0.274 OA
ENDBRANCH   1  12
BRANCH   1  17
HETATM   17  C10 UNL     1      -4.158   5.257  12.260  1.00  0.00     0.113 C 
HETATM   18  C11 UNL     1      -4.234   6.733  12.047  1.00  0.00     0.043 C 
HETATM   19  C12 UNL     1      -5.031   7.281  13.253  1.00  0.00     0.003 C 
HETATM   20  C13 UNL     1      -4.411   6.929  14.540  1.00  0.00     0.003 C 
HETATM   21  C14 UNL     1      -3.826   5.554  14.674  1.00  0.00     0.035 C 
HETATM   22  C15 UNL     1      -3.147   5.099  13.395  1.00  0.00     0.155 C 
BRANCH  17  23
HETATM   23  O7  UNL     1      -5.394   4.894  12.913  1.00  0.00    -0.385 OA
ATOM     24  H7  UNL     1      -5.392   5.258  13.791  1.00  0.00     0.210 HD
ENDBRANCH  17  23
BRANCH  22  25
HETATM   25  O8  UNL     1      -2.000   5.851  13.186  1.00  0.00    -0.392 OA
ATOM     26  H8  UNL     1      -1.360   5.391  12.655  1.00  0.00     0.210 HD
ENDBRANCH  22  25
ENDBRANCH   1  17
TORSDOF 11
ENDMDL
MODEL 5
REMARK VINA RESULT: -7.280662016      0.876      1.565
REMARK  11 active torsions:
REMARK  status: ('A' for Active; 'I' for Inactive)
REMARK    1  A    between atoms: C2_2  and  O1_3 
REMARK    2  A    between atoms: O1_3  and  C3_4 
REMARK    3  A    between atoms: C3_4  and  O3_6 
REMARK    4  A    between atoms: O3_6  and  C4_7 
REMARK    5  A    between atoms: C4_7  and  O4_8 
REMARK    6  A    between atoms: O4_8  and  C5_9 
REMARK    7  A    between atoms: C5_9  and  C6_11 
REMARK    8  A    between atoms: C6_11  and  N1_12 
REMARK    9  A    between atoms: C6_11  and  C10_17 
REMARK       I    between atoms: N1_12  and  C8_14 
REMARK   10  A    between atoms: C10_17  and  O7_18 
REMARK   11  A    between atoms: C15_24  and  O8_25 
ROOT
HETATM    1  C6  UNL     1      -3.614   4.898  11.319  1.00  0.00     0.223 C 
ENDROOT
BRANCH   1   2
HETATM    2  C5  UNL     1      -4.414   3.637  11.385  1.00  0.00     0.287 C 
HETATM    3  O5  UNL     1      -5.030   3.261  10.362  1.00  0.00    -0.263 OA
BRANCH   2   4
HETATM    4  O4  UNL     1      -4.527   2.867  12.468  1.00  0.00    -0.293 OA
BRANCH   4   5
HETATM    5  C4  UNL     1      -4.266   1.695  13.036  1.00  0.00     0.360 C 
BRANCH   5   6
HETATM    6  O3  UNL     1      -4.627   1.271  14.264  1.00  0.00    -0.272 OA
BRANCH   6   7
HETATM    7  C3  UNL     1      -4.645   1.829  15.477  1.00  0.00     0.408 C 
HETATM    8  O2  UNL     1      -3.785   2.656  15.855  1.00  0.00    -0.229 OA
BRANCH   7   9
HETATM    9  O1  UNL     1      -5.629   1.546  16.447  1.00  0.00    -0.298 OA
BRANCH   9  10
HETATM   10  C2  UNL     1      -6.066   2.569  17.311  1.00  0.00     0.176 C 
HETATM   11  C1  UNL     1      -7.429   3.086  17.001  1.00  0.00     0.034 C 
ENDBRANCH   9  10
ENDBRANCH   7   9
ENDBRANCH   6   7
ENDBRANCH   5   6
ENDBRANCH   4   5
ENDBRANCH   2   4
ENDBRANCH   1   2
BRANCH   1  12
HETATM   12  N1  UNL     1      -2.286   4.615  10.760  1.00  0.00    -0.340 N 
HETATM   13  C7  UNL     1      -1.321   3.723  11.345  1.00  0.00     0.153 C 
HETATM   14  C8  UNL     1      -1.894   5.231   9.511  1.00  0.00     0.216 C 
HETATM   15  C9  UNL     1      -0.573   4.966   8.936  1.00  0.00     0.117 C 
HETATM   16  O6  UNL     1      -2.715   5.991   8.946  1.00  0.00    -0.274 OA
ENDBRANCH   1  12
BRANCH   1  17
HETATM   17  C10 UNL     1      -3.612   5.760  12.506  1.00  0.00     0.113 C 
HETATM   18  C11 UNL     1      -4.834   6.529  12.886  1.00  0.00     0.043 C 
HETATM   19  C12 UNL     1      -4.691   6.805  14.401  1.00  0.00     0.003 C 
HETATM   20  C13 UNL     1      -3.450   7.525  14.724  1.00  0.00     0.003 C 
HETATM   21  C14 UNL     1      -2.208   7.133  13.980  1.00  0.00     0.035 C 
HETATM   22  C15 UNL     1      -2.497   6.805  12.526  1.00  0.00     0.155 C 
BRANCH  17  23
HETATM   23  O7  UNL     1      -3.284   4.957  13.661  1.00  0.00    -0.385 OA
ATOM     24  H7  UNL     1      -3.179   4.054  13.385  1.00  0.00     0.210 HD
ENDBRANCH  17  23
BRANCH  22  25
HETATM   25  O8  UNL     1      -2.851   7.964  11.851  1.00  0.00    -0.392 OA
ATOM     26  H8  UNL     1      -3.732   7.918  11.497  1.00  0.00     0.210 HD
ENDBRANCH  22  25
ENDBRANCH   1  17
TORSDOF 11
ENDMDL
