MODEL 1
REMARK VINA RESULT: -8.587233280      0.000      0.000
REMARK  5 active torsions:
REMARK  status: ('A' for Active; 'I' for Inactive)
REMARK       I    between atoms: C1_2  and  N1_3 
REMARK    1  A    between atoms: C1_2  and  C9_11 
REMARK    2  A    between atoms: N1_3  and  C2_4 
REMARK    3  A    between atoms: C2_4  and  C3_5 
REMARK    4  A    between atoms: C11_17  and  C12_18 
REMARK       I    between atoms: C12_18  and  N4_20 
REMARK    5  A    between atoms: N4_20  and  C13_22 
ROOT
HETATM    1  C9  UNL     1      -5.605   3.231  15.842  1.00  0.00     0.149 A 
HETATM    2  N2  UNL     1      -6.417   2.723  16.807  1.00  0.00    -0.345 N 
ATOM      3  H2  UNL     1      -6.411   1.770  17.168  1.00  0.00     0.167 HD
HETATM    4  C10 UNL     1      -7.212   3.699  17.181  1.00  0.00     0.181 A 
HETATM    5  N3  UNL     1      -6.962   4.828  16.507  1.00  0.00    -0.346 N 
ATOM      6  H3  UNL     1      -7.440   5.724  16.611  1.00  0.00     0.167 HD
HETATM    7  C11 UNL     1      -5.935   4.536  15.650  1.00  0.00     0.135 A 
ENDROOT
BRANCH   7   8
HETATM    8  C12 UNL     1      -5.314   5.514  14.746  1.00  0.00     0.271 C 
HETATM    9  O2  UNL     1      -5.886   6.165  13.860  1.00  0.00    -0.266 OA
HETATM   10  N4  UNL     1      -3.907   5.741  14.897  1.00  0.00    -0.351 N 
ATOM     11  H4  UNL     1      -3.379   5.242  15.613  1.00  0.00     0.163 HD
BRANCH  10  12
HETATM   12  C13 UNL     1      -3.246   6.676  14.034  1.00  0.00     0.085 C 
HETATM   13  C14 UNL     1      -3.324   8.093  14.628  1.00  0.00     0.028 C 
HETATM   14  C15 UNL     1      -2.886   9.045  13.546  1.00  0.00     0.039 C 
HETATM   15  C16 UNL     1      -1.436   8.783  13.206  1.00  0.00     0.170 C 
HETATM   16  F1  UNL     1      -1.112   9.537  12.092  1.00  0.00    -0.249 F 
HETATM   17  C17 UNL     1      -1.190   7.334  12.858  1.00  0.00     0.039 C 
HETATM   18  C18 UNL     1      -1.774   6.383  13.865  1.00  0.00     0.028 C 
ENDBRANCH  10  12
ENDBRANCH   7   8
BRANCH   1  19
HETATM   19  C1  UNL     1      -4.508   2.434  15.192  1.00  0.00     0.344 C 
HETATM   20  O1  UNL     1      -3.748   1.796  15.972  1.00  0.00    -0.249 OA
HETATM   21  N1  UNL     1      -4.381   2.422  13.832  1.00  0.00    -0.382 NA
BRANCH  21  22
HETATM   22  C2  UNL     1      -4.246   2.404  12.475  1.00  0.00     0.164 C 
BRANCH  22  23
HETATM   23  C3  UNL     1      -3.270   3.438  11.915  1.00  0.00     0.038 C 
HETATM   24  C4  UNL     1      -3.998   4.500  11.189  1.00  0.00     0.011 C 
HETATM   25  C5  UNL     1      -3.151   5.414  10.368  1.00  0.00     0.001 C 
HETATM   26  C6  UNL     1      -1.823   4.883   9.964  1.00  0.00     0.000 C 
HETATM   27  C7  UNL     1      -1.168   3.910  10.865  1.00  0.00     0.001 C 
HETATM   28  C8  UNL     1      -2.176   2.773  11.118  1.00  0.00     0.011 C 
ENDBRANCH  22  23
ENDBRANCH  21  22
ENDBRANCH   1  19
TORSDOF 5
ENDMDL
MODEL 2
REMARK VINA RESULT: -8.193907713      3.023      6.422
REMARK  5 active torsions:
REMARK  status: ('A' for Active; 'I' for Inactive)
REMARK       I    between atoms: C1_2  and  N1_3 
REMARK    1  A    between atoms: C1_2  and  C9_11 
REMARK    2  A    between atoms: N1_3  and  C2_4 
REMARK    3  A    between atoms: C2_4  and  C3_5 
REMARK    4  A    between atoms: C11_17  and  C12_18 
REMARK       I    between atoms: C12_18  and  N4_20 
REMARK    5  A    between atoms: N4_20  and  C13_22 
ROOT
HETATM    1  C9  UNL     1      -2.763   4.536  10.735  1.00  0.00     0.149 A 
HETATM    2  N2  UNL     1      -1.597   4.408  10.049  1.00  0.00    -0.345 N 
ATOM      3  H2  UNL     1      -1.232   5.046   9.341  1.00  0.00     0.167 HD
HETATM    4  C10 UNL     1      -1.031   3.302  10.473  1.00  0.00     0.181 A 
HETATM    5  N3  UNL     1      -1.771   2.692  11.407  1.00  0.00    -0.346 N 
ATOM      6  H3  UNL     1      -1.553   1.821  11.891  1.00  0.00     0.167 HD
HETATM    7  C11 UNL     1      -2.879   3.478  11.580  1.00  0.00     0.135 A 
ENDROOT
BRANCH   7   8
HETATM    8  C12 UNL     1      -3.942   3.196  12.554  1.00  0.00     0.271 C 
HETATM    9  O2  UNL     1      -4.860   2.372  12.427  1.00  0.00    -0.266 OA
HETATM   10  N4  UNL     1      -3.925   3.948  13.775  1.00  0.00    -0.351 N 
ATOM     11  H4  UNL     1      -3.193   4.637  13.944  1.00  0.00     0.163 HD
BRANCH  10  12
HETATM   12  C13 UNL     1      -4.946   3.724  14.757  1.00  0.00     0.085 C 
HETATM   13  C14 UNL     1      -4.381   2.905  15.930  1.00  0.00     0.028 C 
HETATM   14  C15 UNL     1      -5.558   2.459  16.758  1.00  0.00     0.039 C 
HETATM   15  C16 UNL     1      -6.244   3.671  17.348  1.00  0.00     0.170 C 
HETATM   16  F1  UNL     1      -7.419   3.251  17.946  1.00  0.00    -0.249 F 
HETATM   17  C17 UNL     1      -6.611   4.683  16.289  1.00  0.00     0.039 C 
HETATM   18  C18 UNL     1      -5.471   5.003  15.364  1.00  0.00     0.028 C 
ENDBRANCH  10  12
ENDBRANCH   7   8
BRANCH   1  19
HETATM   19  C1  UNL     1      -3.683   5.715  10.572  1.00  0.00     0.344 C 
HETATM   20  O1  UNL     1      -4.181   5.875   9.424  1.00  0.00    -0.249 OA
HETATM   21  N1  UNL     1      -3.944   6.535  11.633  1.00  0.00    -0.382 NA
BRANCH  21  22
HETATM   22  C2  UNL     1      -4.210   7.358  12.687  1.00  0.00     0.164 C 
BRANCH  22  23
HETATM   23  C3  UNL     1      -3.071   8.308  13.060  1.00  0.00     0.038 C 
HETATM   24  C4  UNL     1      -3.102   8.612  14.506  1.00  0.00     0.011 C 
HETATM   25  C5  UNL     1      -2.219   9.732  14.946  1.00  0.00     0.001 C 
HETATM   26  C6  UNL     1      -1.832  10.708  13.893  1.00  0.00     0.000 C 
HETATM   27  C7  UNL     1      -1.731  10.215  12.502  1.00  0.00     0.001 C 
HETATM   28  C8  UNL     1      -3.065   9.522  12.166  1.00  0.00     0.011 C 
ENDBRANCH  22  23
ENDBRANCH  21  22
ENDBRANCH   1  19
TORSDOF 5
ENDMDL
MODEL 3
REMARK VINA RESULT: -8.156358320      3.517      6.454
REMARK  5 active torsions:
REMARK  status: ('A' for Active; 'I' for Inactive)
REMARK       I    between atoms: C1_2  and  N1_3 
REMARK    1  A    between atoms: C1_2  and  C9_11 
REMARK    2  A    between atoms: N1_3  and  C2_4 
REMARK    3  A    between atoms: C2_4  and  C3_5 
REMARK    4  A    between atoms: C11_17  and  C12_18 
REMARK       I    between atoms: C12_18  and  N4_20 
REMARK    5  A    between atoms: N4_20  and  C13_22 
ROOT
HETATM    1  C9  UNL     1      -2.759   4.519  10.675  1.00  0.00     0.149 A 
HETATM    2  N2  UNL     1      -1.579   4.393  10.011  1.00  0.00    -0.345 N 
ATOM      3  H2  UNL     1      -1.218   5.014   9.287  1.00  0.00     0.167 HD
HETATM    4  C10 UNL     1      -0.996   3.315  10.482  1.00  0.00     0.181 A 
HETATM    5  N3  UNL     1      -1.737   2.722  11.426  1.00  0.00    -0.346 N 
ATOM      6  H3  UNL     1      -1.507   1.873  11.944  1.00  0.00     0.167 HD
HETATM    7  C11 UNL     1      -2.864   3.488  11.556  1.00  0.00     0.135 A 
ENDROOT
BRANCH   7   8
HETATM    8  C12 UNL     1      -3.936   3.217  12.523  1.00  0.00     0.271 C 
HETATM    9  O2  UNL     1      -4.865   2.408  12.387  1.00  0.00    -0.266 OA
HETATM   10  N4  UNL     1      -3.913   3.960  13.749  1.00  0.00    -0.351 N 
ATOM     11  H4  UNL     1      -3.170   4.637  13.925  1.00  0.00     0.163 HD
BRANCH  10  12
HETATM   12  C13 UNL     1      -4.941   3.746  14.725  1.00  0.00     0.085 C 
HETATM   13  C14 UNL     1      -4.390   2.924  15.903  1.00  0.00     0.028 C 
HETATM   14  C15 UNL     1      -5.575   2.488  16.724  1.00  0.00     0.039 C 
HETATM   15  C16 UNL     1      -6.254   3.706  17.309  1.00  0.00     0.170 C 
HETATM   16  F1  UNL     1      -7.436   3.297  17.900  1.00  0.00    -0.249 F 
HETATM   17  C17 UNL     1      -6.606   4.721  16.247  1.00  0.00     0.039 C 
HETATM   18  C18 UNL     1      -5.458   5.030  15.328  1.00  0.00     0.028 C 
ENDBRANCH  10  12
ENDBRANCH   7   8
BRANCH   1  19
HETATM   19  C1  UNL     1      -3.702   5.670  10.459  1.00  0.00     0.344 C 
HETATM   20  O1  UNL     1      -4.147   5.809   9.286  1.00  0.00    -0.249 OA
HETATM   21  N1  UNL     1      -4.036   6.490  11.499  1.00  0.00    -0.382 NA
BRANCH  21  22
HETATM   22  C2  UNL     1      -4.376   7.312  12.531  1.00  0.00     0.164 C 
BRANCH  22  23
HETATM   23  C3  UNL     1      -4.967   8.658  12.110  1.00  0.00     0.038 C 
HETATM   24  C4  UNL     1      -6.433   8.556  11.955  1.00  0.00     0.011 C 
HETATM   25  C5  UNL     1      -7.091   9.718  11.288  1.00  0.00     0.001 C 
HETATM   26  C6  UNL     1      -6.215  10.557  10.429  1.00  0.00     0.000 C 
HETATM   27  C7  UNL     1      -4.783  10.650  10.790  1.00  0.00     0.001 C 
HETATM   28  C8  UNL     1      -4.248   9.210  10.905  1.00  0.00     0.011 C 
ENDBRANCH  22  23
ENDBRANCH  21  22
ENDBRANCH   1  19
TORSDOF 5
ENDMDL
MODEL 4
REMARK VINA RESULT: -8.066965729      2.500      5.477
REMARK  5 active torsions:
REMARK  status: ('A' for Active; 'I' for Inactive)
REMARK       I    between atoms: C1_2  and  N1_3 
REMARK    1  A    between atoms: C1_2  and  C9_11 
REMARK    2  A    between atoms: N1_3  and  C2_4 
REMARK    3  A    between atoms: C2_4  and  C3_5 
REMARK    4  A    between atoms: C11_17  and  C12_18 
REMARK       I    between atoms: C12_18  and  N4_20 
REMARK    5  A    between atoms: N4_20  and  C13_22 
ROOT
HETATM    1  C9  UNL     1      -3.880   2.145  11.861  1.00  0.00     0.149 A 
HETATM    2  N2  UNL     1      -4.294   0.868  12.077  1.00  0.00    -0.345 N 
ATOM      3  H2  UNL     1      -5.146   0.577  12.557  1.00  0.00     0.167 HD
HETATM    4  C10 UNL     1      -3.384   0.083  11.550  1.00  0.00     0.181 A 
HETATM    5  N3  UNL     1      -2.386   0.783  10.995  1.00  0.00    -0.346 N 
ATOM      6  H3  UNL     1      -1.562   0.409  10.524  1.00  0.00     0.167 HD
HETATM    7  C11 UNL     1      -2.698   2.102  11.190  1.00  0.00     0.135 A 
ENDROOT
BRANCH   7   8
HETATM    8  C12 UNL     1      -1.885   3.221  10.696  1.00  0.00     0.271 C 
HETATM    9  O2  UNL     1      -1.372   3.321   9.572  1.00  0.00    -0.266 OA
HETATM   10  N4  UNL     1      -1.655   4.310  11.601  1.00  0.00    -0.351 N 
ATOM     11  H4  UNL     1      -2.055   4.292  12.539  1.00  0.00     0.163 HD
BRANCH  10  12
HETATM   12  C13 UNL     1      -0.858   5.424  11.177  1.00  0.00     0.085 C 
HETATM   13  C14 UNL     1      -1.145   6.648  12.062  1.00  0.00     0.028 C 
HETATM   14  C15 UNL     1      -0.514   7.835  11.384  1.00  0.00     0.039 C 
HETATM   15  C16 UNL     1       0.986   7.653  11.348  1.00  0.00     0.170 C 
HETATM   16  F1  UNL     1       1.524   8.658  10.563  1.00  0.00    -0.249 F 
HETATM   17  C17 UNL     1       1.380   6.334  10.726  1.00  0.00     0.039 C 
HETATM   18  C18 UNL     1       0.626   5.168  11.299  1.00  0.00     0.028 C 
ENDBRANCH  10  12
ENDBRANCH   7   8
BRANCH   1  19
HETATM   19  C1  UNL     1      -4.685   3.347  12.271  1.00  0.00     0.344 C 
HETATM   20  O1  UNL     1      -5.645   3.658  11.513  1.00  0.00    -0.249 OA
HETATM   21  N1  UNL     1      -4.367   4.031  13.410  1.00  0.00    -0.382 NA
BRANCH  21  22
HETATM   22  C2  UNL     1      -4.056   4.719  14.545  1.00  0.00     0.164 C 
BRANCH  22  23
HETATM   23  C3  UNL     1      -4.915   4.370  15.761  1.00  0.00     0.038 C 
HETATM   24  C4  UNL     1      -4.818   2.928  16.068  1.00  0.00     0.011 C 
HETATM   25  C5  UNL     1      -5.813   2.412  17.054  1.00  0.00     0.001 C 
HETATM   26  C6  UNL     1      -7.050   3.221  17.214  1.00  0.00     0.000 C 
HETATM   27  C7  UNL     1      -6.953   4.678  16.983  1.00  0.00     0.001 C 
HETATM   28  C8  UNL     1      -6.324   4.879  15.591  1.00  0.00     0.011 C 
ENDBRANCH  22  23
ENDBRANCH  21  22
ENDBRANCH   1  19
TORSDOF 5
ENDMDL
MODEL 5
REMARK VINA RESULT: -8.045863581      3.211      6.695
REMARK  5 active torsions:
REMARK  status: ('A' for Active; 'I' for Inactive)
REMARK       I    between atoms: C1_2  and  N1_3 
REMARK    1  A    between atoms: C1_2  and  C9_11 
REMARK    2  A    between atoms: N1_3  and  C2_4 
REMARK    3  A    between atoms: C2_4  and  C3_5 
REMARK    4  A    between atoms: C11_17  and  C12_18 
REMARK       I    between atoms: C12_18  and  N4_20 
REMARK    5  A    between atoms: N4_20  and  C13_22 
ROOT
HETATM    1  C9  UNL     1      -4.173   7.626  12.324  1.00  0.00     0.149 A 
HETATM    2  N2  UNL     1      -3.757   8.920  12.319  1.00  0.00    -0.345 N 
ATOM      3  H2  UNL     1      -3.979   9.634  13.013  1.00  0.00     0.167 HD
HETATM    4  C10 UNL     1      -3.015   9.073  11.248  1.00  0.00     0.181 A 
HETATM    5  N3  UNL     1      -2.922   7.939  10.543  1.00  0.00    -0.346 N 
ATOM      6  H3  UNL     1      -2.407   7.797   9.673  1.00  0.00     0.167 HD
HETATM    7  C11 UNL     1      -3.659   7.009  11.226  1.00  0.00     0.135 A 
ENDROOT
BRANCH   7   8
HETATM    8  C12 UNL     1      -3.792   5.604  10.820  1.00  0.00     0.271 C 
HETATM    9  O2  UNL     1      -4.271   5.186   9.756  1.00  0.00    -0.266 OA
HETATM   10  N4  UNL     1      -3.325   4.611  11.743  1.00  0.00    -0.351 N 
ATOM     11  H4  UNL     1      -2.915   4.889  12.634  1.00  0.00     0.163 HD
BRANCH  10  12
HETATM   12  C13 UNL     1      -3.441   3.222  11.404  1.00  0.00     0.085 C 
HETATM   13  C14 UNL     1      -2.054   2.636  11.092  1.00  0.00     0.028 C 
HETATM   14  C15 UNL     1      -2.282   1.286  10.464  1.00  0.00     0.039 C 
HETATM   15  C16 UNL     1      -2.937   0.369  11.472  1.00  0.00     0.170 C 
HETATM   16  F1  UNL     1      -3.301  -0.796  10.820  1.00  0.00    -0.249 F 
HETATM   17  C17 UNL     1      -4.192   0.973  12.053  1.00  0.00     0.039 C 
HETATM   18  C18 UNL     1      -3.996   2.384  12.531  1.00  0.00     0.028 C 
ENDBRANCH  10  12
ENDBRANCH   7   8
BRANCH   1  19
HETATM   19  C1  UNL     1      -5.007   7.038  13.429  1.00  0.00     0.344 C 
HETATM   20  O1  UNL     1      -6.198   7.449  13.503  1.00  0.00    -0.249 OA
HETATM   21  N1  UNL     1      -4.470   6.110  14.276  1.00  0.00    -0.382 NA
BRANCH  21  22
HETATM   22  C2  UNL     1      -3.943   5.184  15.125  1.00  0.00     0.164 C 
BRANCH  22  23
HETATM   23  C3  UNL     1      -4.948   4.556  16.091  1.00  0.00     0.038 C 
HETATM   24  C4  UNL     1      -4.637   3.127  16.308  1.00  0.00     0.011 C 
HETATM   25  C5  UNL     1      -5.694   2.339  17.008  1.00  0.00     0.001 C 
HETATM   26  C6  UNL     1      -7.071   2.896  16.946  1.00  0.00     0.000 C 
HETATM   27  C7  UNL     1      -7.214   4.365  16.848  1.00  0.00     0.001 C 
HETATM   28  C8  UNL     1      -6.364   4.827  15.649  1.00  0.00     0.011 C 
ENDBRANCH  22  23
ENDBRANCH  21  22
ENDBRANCH   1  19
TORSDOF 5
ENDMDL
