MODEL 1
REMARK VINA RESULT: -7.449767015      0.000      0.000
REMARK  6 active torsions:
REMARK  status: ('A' for Active; 'I' for Inactive)
REMARK    1  A    between atoms: C2_2  and  C3_3 
REMARK    2  A    between atoms: C2_2  and  N1_6 
REMARK    3  A    between atoms: C3_3  and  O1_4 
REMARK       I    between atoms: N1_6  and  C4_8 
REMARK       I    between atoms: C4_8  and  N2_10 
REMARK    4  A    between atoms: N2_10  and  C5_12 
REMARK    5  A    between atoms: N3_22  and  C14_23 
REMARK    6  A    between atoms: C14_23  and  C15_24 
ROOT
HETATM    1  C5  UNL     1      -4.567   5.485  13.023  1.00  0.00     0.069 C 
HETATM    2  C6  UNL     1      -4.765   6.668  12.086  1.00  0.00     0.071 C 
HETATM    3  C7  UNL     1      -4.407   7.877  12.896  1.00  0.00     0.180 C 
HETATM    4  F1  UNL     1      -4.747   9.061  12.289  1.00  0.00    -0.249 F 
HETATM    5  C8  UNL     1      -2.950   7.855  13.195  1.00  0.00    -0.016 C 
HETATM    6  C9  UNL     1      -2.162   8.419  12.002  1.00  0.00     0.018 C 
HETATM    7  C10 UNL     1      -2.728   8.886  14.317  1.00  0.00     0.018 C 
HETATM    8  C11 UNL     1      -2.380   6.564  13.645  1.00  0.00     0.020 C 
HETATM    9  C12 UNL     1      -3.094   5.332  13.279  1.00  0.00     0.045 C 
HETATM   10  C13 UNL     1      -2.619   4.700  11.964  1.00  0.00     0.279 C 
HETATM   11  N3  UNL     1      -3.776   4.244  11.261  1.00  0.00     0.091 N 
HETATM   12  C19 UNL     1      -4.849   4.218  12.234  1.00  0.00     0.303 C 
ENDROOT
BRANCH   1  13
HETATM   13  N2  UNL     1      -5.343   5.583  14.217  1.00  0.00    -0.332 N 
HETATM   14  C4  UNL     1      -5.261   4.613  15.230  1.00  0.00     0.317 C 
HETATM   15  N1  UNL     1      -6.036   4.687  16.432  1.00  0.00    -0.337 N 
HETATM   16  O2  UNL     1      -4.492   3.628  15.117  1.00  0.00    -0.247 OA
ATOM     17  H1  UNL     1      -6.676   5.471  16.560  1.00  0.00     0.164 HD
ATOM     18  H2  UNL     1      -5.972   6.377  14.337  1.00  0.00     0.165 HD
BRANCH  15  19
HETATM   19  C2  UNL     1      -5.939   3.685  17.471  1.00  0.00     0.105 C 
HETATM   20  C1  UNL     1      -6.274   4.224  18.821  1.00  0.00     0.034 C 
BRANCH  19  21
HETATM   21  C3  UNL     1      -6.760   2.464  17.094  1.00  0.00     0.189 C 
BRANCH  21  22
HETATM   22  O1  UNL     1      -5.890   1.367  16.894  1.00  0.00    -0.399 OA
ATOM     23  H1  UNL     1      -6.108   0.945  16.071  1.00  0.00     0.209 HD
ENDBRANCH  21  22
ENDBRANCH  19  21
ENDBRANCH  15  19
ENDBRANCH   1  13
BRANCH  11  24
HETATM   24  C14 UNL     1      -3.654   2.906  10.745  1.00  0.00     0.277 C 
BRANCH  24  25
HETATM   25  C15 UNL     1      -3.063   1.919  11.719  1.00  0.00     0.014 C 
HETATM   26  C16 UNL     1      -2.066   0.957  11.131  1.00  0.00     0.006 C 
HETATM   27  C17 UNL     1      -3.108  -0.152  11.114  1.00  0.00     0.001 C 
HETATM   28  C18 UNL     1      -4.025   0.764  11.908  1.00  0.00     0.006 C 
ENDBRANCH  24  25
ENDBRANCH  11  24
TORSDOF 6
ENDMDL
MODEL 2
REMARK VINA RESULT: -7.414768762      1.979      5.404
REMARK  6 active torsions:
REMARK  status: ('A' for Active; 'I' for Inactive)
REMARK    1  A    between atoms: C2_2  and  C3_3 
REMARK    2  A    between atoms: C2_2  and  N1_6 
REMARK    3  A    between atoms: C3_3  and  O1_4 
REMARK       I    between atoms: N1_6  and  C4_8 
REMARK       I    between atoms: C4_8  and  N2_10 
REMARK    4  A    between atoms: N2_10  and  C5_12 
REMARK    5  A    between atoms: N3_22  and  C14_23 
REMARK    6  A    between atoms: C14_23  and  C15_24 
ROOT
HETATM    1  C5  UNL     1      -4.639   5.614  13.807  1.00  0.00     0.069 C 
HETATM    2  C6  UNL     1      -3.385   5.854  14.636  1.00  0.00     0.071 C 
HETATM    3  C7  UNL     1      -2.540   6.779  13.813  1.00  0.00     0.180 C 
HETATM    4  F1  UNL     1      -1.262   6.927  14.296  1.00  0.00    -0.249 F 
HETATM    5  C8  UNL     1      -3.208   8.106  13.722  1.00  0.00    -0.016 C 
HETATM    6  C9  UNL     1      -2.898   8.936  14.978  1.00  0.00     0.018 C 
HETATM    7  C10 UNL     1      -2.502   8.863  12.583  1.00  0.00     0.018 C 
HETATM    8  C11 UNL     1      -4.661   8.102  13.433  1.00  0.00     0.020 C 
HETATM    9  C12 UNL     1      -5.427   6.893  13.768  1.00  0.00     0.045 C 
HETATM   10  C13 UNL     1      -6.046   6.913  15.172  1.00  0.00     0.279 C 
HETATM   11  N3  UNL     1      -5.889   5.609  15.733  1.00  0.00     0.091 N 
HETATM   12  C19 UNL     1      -5.570   4.734  14.624  1.00  0.00     0.303 C 
ENDROOT
BRANCH   1  13
HETATM   13  N2  UNL     1      -4.359   5.081  12.514  1.00  0.00    -0.332 N 
HETATM   14  C4  UNL     1      -3.893   3.766  12.344  1.00  0.00     0.317 C 
HETATM   15  N1  UNL     1      -3.598   3.213  11.056  1.00  0.00    -0.337 N 
HETATM   16  O2  UNL     1      -3.716   3.014  13.332  1.00  0.00    -0.247 OA
ATOM     17  H1  UNL     1      -3.725   3.795  10.227  1.00  0.00     0.164 HD
ATOM     18  H2  UNL     1      -4.499   5.669  11.692  1.00  0.00     0.165 HD
BRANCH  15  19
HETATM   19  C2  UNL     1      -3.125   1.856  10.893  1.00  0.00     0.105 C 
HETATM   20  C1  UNL     1      -3.945   1.075   9.922  1.00  0.00     0.034 C 
BRANCH  19  21
HETATM   21  C3  UNL     1      -1.643   1.858  10.559  1.00  0.00     0.189 C 
BRANCH  21  22
HETATM   22  O1  UNL     1      -1.374   2.916   9.659  1.00  0.00    -0.399 OA
ATOM     23  H1  UNL     1      -1.566   2.626   8.775  1.00  0.00     0.209 HD
ENDBRANCH  21  22
ENDBRANCH  19  21
ENDBRANCH  15  19
ENDBRANCH   1  13
BRANCH  11  24
HETATM   24  C14 UNL     1      -7.085   5.087  16.339  1.00  0.00     0.277 C 
BRANCH  24  25
HETATM   25  C15 UNL     1      -6.839   4.196  17.530  1.00  0.00     0.014 C 
HETATM   26  C16 UNL     1      -5.472   3.569  17.588  1.00  0.00     0.006 C 
HETATM   27  C17 UNL     1      -6.032   2.242  17.099  1.00  0.00     0.001 C 
HETATM   28  C18 UNL     1      -7.426   2.826  17.260  1.00  0.00     0.006 C 
ENDBRANCH  24  25
ENDBRANCH  11  24
TORSDOF 6
ENDMDL
MODEL 3
REMARK VINA RESULT: -7.351564924      1.737      5.075
REMARK  6 active torsions:
REMARK  status: ('A' for Active; 'I' for Inactive)
REMARK    1  A    between atoms: C2_2  and  C3_3 
REMARK    2  A    between atoms: C2_2  and  N1_6 
REMARK    3  A    between atoms: C3_3  and  O1_4 
REMARK       I    between atoms: N1_6  and  C4_8 
REMARK       I    between atoms: C4_8  and  N2_10 
REMARK    4  A    between atoms: N2_10  and  C5_12 
REMARK    5  A    between atoms: N3_22  and  C14_23 
REMARK    6  A    between atoms: C14_23  and  C15_24 
ROOT
HETATM    1  C5  UNL     1      -4.535   5.656  13.561  1.00  0.00     0.069 C 
HETATM    2  C6  UNL     1      -3.271   5.872  14.382  1.00  0.00     0.071 C 
HETATM    3  C7  UNL     1      -2.435   6.818  13.575  1.00  0.00     0.180 C 
HETATM    4  F1  UNL     1      -1.151   6.952  14.048  1.00  0.00    -0.249 F 
HETATM    5  C8  UNL     1      -3.102   8.148  13.528  1.00  0.00    -0.016 C 
HETATM    6  C9  UNL     1      -2.777   8.943  14.802  1.00  0.00     0.018 C 
HETATM    7  C10 UNL     1      -2.407   8.934  12.402  1.00  0.00     0.018 C 
HETATM    8  C11 UNL     1      -4.558   8.153  13.255  1.00  0.00     0.020 C 
HETATM    9  C12 UNL     1      -5.322   6.936  13.566  1.00  0.00     0.045 C 
HETATM   10  C13 UNL     1      -5.926   6.919  14.977  1.00  0.00     0.279 C 
HETATM   11  N3  UNL     1      -5.764   5.600  15.500  1.00  0.00     0.091 N 
HETATM   12  C19 UNL     1      -5.458   4.755  14.364  1.00  0.00     0.303 C 
ENDROOT
BRANCH   1  13
HETATM   13  N2  UNL     1      -4.270   5.158  12.251  1.00  0.00    -0.332 N 
HETATM   14  C4  UNL     1      -3.890   3.823  12.033  1.00  0.00     0.317 C 
HETATM   15  N1  UNL     1      -3.611   3.304  10.727  1.00  0.00    -0.337 N 
HETATM   16  O2  UNL     1      -3.779   3.021  12.992  1.00  0.00    -0.247 OA
ATOM     17  H1  UNL     1      -3.687   3.925   9.922  1.00  0.00     0.164 HD
ATOM     18  H2  UNL     1      -4.358   5.787  11.452  1.00  0.00     0.165 HD
BRANCH  15  19
HETATM   19  C2  UNL     1      -3.226   1.925  10.515  1.00  0.00     0.105 C 
HETATM   20  C1  UNL     1      -1.868   1.621  11.048  1.00  0.00     0.034 C 
BRANCH  19  21
HETATM   21  C3  UNL     1      -4.302   0.997  11.051  1.00  0.00     0.189 C 
BRANCH  21  22
HETATM   22  O1  UNL     1      -3.724   0.117  11.995  1.00  0.00    -0.399 OA
ATOM     23  H1  UNL     1      -4.347  -0.569  12.203  1.00  0.00     0.209 HD
ENDBRANCH  21  22
ENDBRANCH  19  21
ENDBRANCH  15  19
ENDBRANCH   1  13
BRANCH  11  24
HETATM   24  C14 UNL     1      -6.954   5.064  16.105  1.00  0.00     0.277 C 
BRANCH  24  25
HETATM   25  C15 UNL     1      -6.703   4.245  17.346  1.00  0.00     0.014 C 
HETATM   26  C16 UNL     1      -5.362   3.566  17.404  1.00  0.00     0.006 C 
HETATM   27  C17 UNL     1      -5.992   2.233  17.027  1.00  0.00     0.001 C 
HETATM   28  C18 UNL     1      -7.354   2.886  17.190  1.00  0.00     0.006 C 
ENDBRANCH  24  25
ENDBRANCH  11  24
TORSDOF 6
ENDMDL
MODEL 4
REMARK VINA RESULT: -7.000697717      2.414      6.265
REMARK  6 active torsions:
REMARK  status: ('A' for Active; 'I' for Inactive)
REMARK    1  A    between atoms: C2_2  and  C3_3 
REMARK    2  A    between atoms: C2_2  and  N1_6 
REMARK    3  A    between atoms: C3_3  and  O1_4 
REMARK       I    between atoms: N1_6  and  C4_8 
REMARK       I    between atoms: C4_8  and  N2_10 
REMARK    4  A    between atoms: N2_10  and  C5_12 
REMARK    5  A    between atoms: N3_22  and  C14_23 
REMARK    6  A    between atoms: C14_23  and  C15_24 
ROOT
HETATM    1  C5  UNL     1      -5.219   4.501  14.189  1.00  0.00     0.069 C 
HETATM    2  C6  UNL     1      -6.499   4.882  14.918  1.00  0.00     0.071 C 
HETATM    3  C7  UNL     1      -6.778   3.739  15.847  1.00  0.00     0.180 C 
HETATM    4  F1  UNL     1      -8.023   3.797  16.425  1.00  0.00    -0.249 F 
HETATM    5  C8  UNL     1      -5.728   3.692  16.899  1.00  0.00    -0.016 C 
HETATM    6  C9  UNL     1      -6.064   4.687  18.021  1.00  0.00     0.018 C 
HETATM    7  C10 UNL     1      -5.854   2.311  17.567  1.00  0.00     0.018 C 
HETATM    8  C11 UNL     1      -4.325   3.852  16.450  1.00  0.00     0.020 C 
HETATM    9  C12 UNL     1      -4.086   4.545  15.175  1.00  0.00     0.045 C 
HETATM   10  C13 UNL     1      -3.861   6.056  15.315  1.00  0.00     0.279 C 
HETATM   11  N3  UNL     1      -4.554   6.698  14.244  1.00  0.00     0.091 N 
HETATM   12  C19 UNL     1      -4.844   5.658  13.278  1.00  0.00     0.303 C 
ENDROOT
BRANCH   1  13
HETATM   13  N2  UNL     1      -5.321   3.257  13.497  1.00  0.00    -0.332 N 
HETATM   14  C4  UNL     1      -4.231   2.713  12.795  1.00  0.00     0.317 C 
HETATM   15  N1  UNL     1      -4.313   1.471  12.088  1.00  0.00    -0.337 N 
HETATM   16  O2  UNL     1      -3.126   3.307  12.763  1.00  0.00    -0.247 OA
ATOM     17  H1  UNL     1      -5.196   0.959  12.087  1.00  0.00     0.164 HD
ATOM     18  H2  UNL     1      -6.206   2.751  13.511  1.00  0.00     0.165 HD
BRANCH  15  19
HETATM   19  C2  UNL     1      -3.182   0.917  11.374  1.00  0.00     0.105 C 
HETATM   20  C1  UNL     1      -3.159  -0.574  11.404  1.00  0.00     0.034 C 
BRANCH  19  21
HETATM   21  C3  UNL     1      -3.125   1.489   9.968  1.00  0.00     0.189 C 
BRANCH  21  22
HETATM   22  O1  UNL     1      -2.193   2.553   9.940  1.00  0.00    -0.399 OA
ATOM     23  H1  UNL     1      -1.317   2.196   9.861  1.00  0.00     0.209 HD
ENDBRANCH  21  22
ENDBRANCH  19  21
ENDBRANCH  15  19
ENDBRANCH   1  13
BRANCH  11  24
HETATM   24  C14 UNL     1      -3.772   7.692  13.558  1.00  0.00     0.277 C 
BRANCH  24  25
HETATM   25  C15 UNL     1      -2.459   8.016  14.225  1.00  0.00     0.014 C 
HETATM   26  C16 UNL     1      -2.269   9.462  14.595  1.00  0.00     0.006 C 
HETATM   27  C17 UNL     1      -1.358   9.675  13.395  1.00  0.00     0.001 C 
HETATM   28  C18 UNL     1      -1.385   8.173  13.169  1.00  0.00     0.006 C 
ENDBRANCH  24  25
ENDBRANCH  11  24
TORSDOF 6
ENDMDL
MODEL 5
REMARK VINA RESULT: -6.793836726      2.558      5.165
REMARK  6 active torsions:
REMARK  status: ('A' for Active; 'I' for Inactive)
REMARK    1  A    between atoms: C2_2  and  C3_3 
REMARK    2  A    between atoms: C2_2  and  N1_6 
REMARK    3  A    between atoms: C3_3  and  O1_4 
REMARK       I    between atoms: N1_6  and  C4_8 
REMARK       I    between atoms: C4_8  and  N2_10 
REMARK    4  A    between atoms: N2_10  and  C5_12 
REMARK    5  A    between atoms: N3_22  and  C14_23 
REMARK    6  A    between atoms: C14_23  and  C15_24 
ROOT
HETATM    1  C5  UNL     1      -3.207   5.898  12.910  1.00  0.00     0.069 C 
HETATM    2  C6  UNL     1      -1.778   6.046  12.406  1.00  0.00     0.071 C 
HETATM    3  C7  UNL     1      -1.308   4.647  12.142  1.00  0.00     0.180 C 
HETATM    4  F1  UNL     1       0.042   4.562  11.899  1.00  0.00    -0.249 F 
HETATM    5  C8  UNL     1      -2.070   4.079  10.997  1.00  0.00    -0.016 C 
HETATM    6  C9  UNL     1      -1.446   4.542   9.671  1.00  0.00     0.018 C 
HETATM    7  C10 UNL     1      -1.817   2.561  11.027  1.00  0.00     0.018 C 
HETATM    8  C11 UNL     1      -3.536   4.296  10.999  1.00  0.00     0.020 C 
HETATM    9  C12 UNL     1      -4.063   5.433  11.766  1.00  0.00     0.045 C 
HETATM   10  C13 UNL     1      -4.210   6.725  10.951  1.00  0.00     0.279 C 
HETATM   11  N3  UNL     1      -3.786   7.809  11.777  1.00  0.00     0.091 N 
HETATM   12  C19 UNL     1      -3.765   7.294  13.130  1.00  0.00     0.303 C 
ENDROOT
BRANCH   1  13
HETATM   13  N2  UNL     1      -3.307   5.069  14.067  1.00  0.00    -0.332 N 
HETATM   14  C4  UNL     1      -4.551   4.731  14.626  1.00  0.00     0.317 C 
HETATM   15  N1  UNL     1      -4.676   3.907  15.791  1.00  0.00    -0.337 N 
HETATM   16  O2  UNL     1      -5.620   5.147  14.116  1.00  0.00    -0.247 OA
ATOM     17  H1  UNL     1      -3.830   3.552  16.237  1.00  0.00     0.164 HD
ATOM     18  H2  UNL     1      -2.454   4.712  14.499  1.00  0.00     0.165 HD
BRANCH  15  19
HETATM   19  C2  UNL     1      -5.963   3.561  16.354  1.00  0.00     0.105 C 
HETATM   20  C1  UNL     1      -6.002   2.166  16.880  1.00  0.00     0.034 C 
BRANCH  19  21
HETATM   21  C3  UNL     1      -6.377   4.600  17.381  1.00  0.00     0.189 C 
BRANCH  21  22
HETATM   22  O1  UNL     1      -7.107   5.624  16.734  1.00  0.00    -0.399 OA
ATOM     23  H1  UNL     1      -6.620   6.437  16.793  1.00  0.00     0.209 HD
ENDBRANCH  21  22
ENDBRANCH  19  21
ENDBRANCH  15  19
ENDBRANCH   1  13
BRANCH  11  24
HETATM   24  C14 UNL     1      -4.688   8.930  11.775  1.00  0.00     0.277 C 
BRANCH  24  25
HETATM   25  C15 UNL     1      -5.857   8.783  10.834  1.00  0.00     0.014 C 
HETATM   26  C16 UNL     1      -5.970   9.852   9.781  1.00  0.00     0.006 C 
HETATM   27  C17 UNL     1      -7.081  10.538  10.561  1.00  0.00     0.001 C 
HETATM   28  C18 UNL     1      -7.103   9.338  11.493  1.00  0.00     0.006 C 
ENDBRANCH  24  25
ENDBRANCH  11  24
TORSDOF 6
ENDMDL
