MODEL 1
REMARK VINA RESULT: -6.631083437      0.000      0.000
REMARK  8 active torsions:
REMARK  status: ('A' for Active; 'I' for Inactive)
REMARK    1  A    between atoms: O1_2  and  C2_3 
REMARK    2  A    between atoms: C2_3  and  C3_4 
REMARK    3  A    between atoms: C3_4  and  C5_12 
REMARK    4  A    between atoms: N1_5  and  N2_7 
REMARK    5  A    between atoms: N2_7  and  C4_9 
REMARK    6  A    between atoms: C7_14  and  C8_15 
REMARK    7  A    between atoms: C9_16  and  C10_17 
REMARK    8  A    between atoms: C13_23  and  C14_24 
ROOT
HETATM    1  C5  UNL     1      -3.381   4.346  11.671  1.00  0.00     0.016 A 
HETATM    2  C6  UNL     1      -4.043   4.804  12.819  1.00  0.00     0.054 A 
HETATM    3  C7  UNL     1      -4.495   3.735  13.546  1.00  0.00     0.088 A 
HETATM    4  N4  UNL     1      -4.135   2.644  12.887  1.00  0.00    -0.351 N 
ATOM      5  H4  UNL     1      -4.332   1.689  13.186  1.00  0.00     0.166 HD
HETATM    6  C13 UNL     1      -3.455   2.990  11.740  1.00  0.00     0.026 A 
ENDROOT
BRANCH   1   7
HETATM    7  C3  UNL     1      -2.745   5.259  10.712  1.00  0.00     0.061 C 
HETATM    8  N1  UNL     1      -1.472   5.159  10.591  1.00  0.00    -0.300 N 
ATOM      9  H1  UNL     1      -1.005   4.469  11.179  1.00  0.00     0.186 HD
BRANCH   7  10
HETATM   10  C2  UNL     1      -3.474   6.236   9.888  1.00  0.00     0.226 C 
BRANCH  10  11
HETATM   11  O1  UNL     1      -3.519   5.906   8.528  1.00  0.00    -0.390 OA
HETATM   12  C1  UNL     1      -3.466   7.014   7.717  1.00  0.00     0.201 C 
ENDBRANCH  10  11
ENDBRANCH   7  10
BRANCH   8  13
HETATM   13  N2  UNL     1      -0.686   5.883   9.755  1.00  0.00    -0.278 N 
ATOM     14  H2  UNL     1      -0.783   6.899   9.766  1.00  0.00     0.189 HD
BRANCH  13  15
HETATM   15  C4  UNL     1       0.273   5.307   8.856  1.00  0.00     0.199 C 
HETATM   16  N3  UNL     1      -0.071   4.486   7.756  1.00  0.00    -0.068 NA
HETATM   17  S1  UNL     1       1.843   5.622   9.132  1.00  0.00    -0.043 SA
ENDBRANCH  13  15
ENDBRANCH   8  13
ENDBRANCH   1   7
BRANCH   6  18
HETATM   18  C14 UNL     1      -2.969   1.988  10.781  1.00  0.00     0.028 C 
HETATM   19  C15 UNL     1      -1.438   1.851  10.880  1.00  0.00     0.016 C 
HETATM   20  C16 UNL     1      -3.464   0.607  11.263  1.00  0.00     0.016 C 
ENDBRANCH   6  18
BRANCH   3  21
HETATM   21  C8  UNL     1      -5.230   3.834  14.800  1.00  0.00    -0.047 C 
HETATM   22  C9  UNL     1      -5.859   3.908  15.832  1.00  0.00    -0.074 C 
BRANCH  22  23
HETATM   23  C10 UNL     1      -6.636   3.986  17.073  1.00  0.00     0.093 C 
HETATM   24  C11 UNL     1      -5.813   3.603  18.279  1.00  0.00     0.046 C 
HETATM   25  C12 UNL     1      -7.747   2.953  16.958  1.00  0.00     0.046 C 
HETATM   26 CL1  UNL     1      -7.323   5.599  17.332  1.00  0.00    -0.106 Cl
ENDBRANCH  22  23
ENDBRANCH   3  21
TORSDOF 8
ENDMDL
MODEL 2
REMARK VINA RESULT: -6.604705281      2.150      2.543
REMARK  8 active torsions:
REMARK  status: ('A' for Active; 'I' for Inactive)
REMARK    1  A    between atoms: O1_2  and  C2_3 
REMARK    2  A    between atoms: C2_3  and  C3_4 
REMARK    3  A    between atoms: C3_4  and  C5_12 
REMARK    4  A    between atoms: N1_5  and  N2_7 
REMARK    5  A    between atoms: N2_7  and  C4_9 
REMARK    6  A    between atoms: C7_14  and  C8_15 
REMARK    7  A    between atoms: C9_16  and  C10_17 
REMARK    8  A    between atoms: C13_23  and  C14_24 
ROOT
HETATM    1  C5  UNL     1      -3.525   4.656  11.498  1.00  0.00     0.016 A 
HETATM    2  C6  UNL     1      -4.219   5.047  12.652  1.00  0.00     0.054 A 
HETATM    3  C7  UNL     1      -4.509   3.942  13.408  1.00  0.00     0.088 A 
HETATM    4  N4  UNL     1      -4.021   2.895  12.762  1.00  0.00    -0.351 N 
ATOM      5  H4  UNL     1      -4.083   1.929  13.083  1.00  0.00     0.166 HD
HETATM    6  C13 UNL     1      -3.416   3.304  11.593  1.00  0.00     0.026 A 
ENDROOT
BRANCH   1   7
HETATM    7  C3  UNL     1      -3.034   5.624  10.508  1.00  0.00     0.061 C 
HETATM    8  N1  UNL     1      -3.877   6.503  10.105  1.00  0.00    -0.300 N 
ATOM      9  H1  UNL     1      -4.820   6.448  10.490  1.00  0.00     0.186 HD
BRANCH   7  10
HETATM   10  C2  UNL     1      -1.657   5.654   9.990  1.00  0.00     0.226 C 
BRANCH  10  11
HETATM   11  O1  UNL     1      -1.542   5.214   8.666  1.00  0.00    -0.390 OA
HETATM   12  C1  UNL     1      -0.258   4.843   8.346  1.00  0.00     0.201 C 
ENDBRANCH  10  11
ENDBRANCH   7  10
BRANCH   8  13
HETATM   13  N2  UNL     1      -3.636   7.498   9.216  1.00  0.00    -0.278 N 
ATOM     14  H2  UNL     1      -3.041   8.273   9.514  1.00  0.00     0.189 HD
BRANCH  13  15
HETATM   15  C4  UNL     1      -4.166   7.529   7.883  1.00  0.00     0.199 C 
HETATM   16  N3  UNL     1      -4.233   6.399   7.034  1.00  0.00    -0.068 NA
HETATM   17  S1  UNL     1      -4.716   8.954   7.327  1.00  0.00    -0.043 SA
ENDBRANCH  13  15
ENDBRANCH   8  13
ENDBRANCH   1   7
BRANCH   6  18
HETATM   18  C14 UNL     1      -2.821   2.355  10.642  1.00  0.00     0.028 C 
HETATM   19  C15 UNL     1      -1.306   2.229  10.890  1.00  0.00     0.016 C 
HETATM   20  C16 UNL     1      -3.340   0.947  11.006  1.00  0.00     0.016 C 
ENDBRANCH   6  18
BRANCH   3  21
HETATM   21  C8  UNL     1      -5.226   3.971  14.677  1.00  0.00    -0.047 C 
HETATM   22  C9  UNL     1      -5.841   3.993  15.719  1.00  0.00    -0.074 C 
BRANCH  22  23
HETATM   23  C10 UNL     1      -6.603   4.015  16.972  1.00  0.00     0.093 C 
HETATM   24  C11 UNL     1      -5.763   3.588  18.151  1.00  0.00     0.046 C 
HETATM   25  C12 UNL     1      -7.709   2.980  16.828  1.00  0.00     0.046 C 
HETATM   26 CL1  UNL     1      -7.298   5.611  17.305  1.00  0.00    -0.106 Cl
ENDBRANCH  22  23
ENDBRANCH   3  21
TORSDOF 8
ENDMDL
MODEL 3
REMARK VINA RESULT: -6.513599506      3.952      6.984
REMARK  8 active torsions:
REMARK  status: ('A' for Active; 'I' for Inactive)
REMARK    1  A    between atoms: O1_2  and  C2_3 
REMARK    2  A    between atoms: C2_3  and  C3_4 
REMARK    3  A    between atoms: C3_4  and  C5_12 
REMARK    4  A    between atoms: N1_5  and  N2_7 
REMARK    5  A    between atoms: N2_7  and  C4_9 
REMARK    6  A    between atoms: C7_14  and  C8_15 
REMARK    7  A    between atoms: C9_16  and  C10_17 
REMARK    8  A    between atoms: C13_23  and  C14_24 
ROOT
HETATM    1  C5  UNL     1      -3.811   4.349  11.865  1.00  0.00     0.016 A 
HETATM    2  C6  UNL     1      -4.753   5.350  11.587  1.00  0.00     0.054 A 
HETATM    3  C7  UNL     1      -4.172   6.328  10.823  1.00  0.00     0.088 A 
HETATM    4  N4  UNL     1      -2.915   5.962  10.623  1.00  0.00    -0.351 N 
ATOM      5  H4  UNL     1      -2.230   6.493  10.086  1.00  0.00     0.166 HD
HETATM    6  C13 UNL     1      -2.670   4.760  11.250  1.00  0.00     0.026 A 
ENDROOT
BRANCH   1   7
HETATM    7  C3  UNL     1      -4.148   3.141  12.630  1.00  0.00     0.061 C 
HETATM    8  N1  UNL     1      -4.130   3.253  13.907  1.00  0.00    -0.300 N 
ATOM      9  H1  UNL     1      -3.868   4.162  14.287  1.00  0.00     0.186 HD
BRANCH   7  10
HETATM   10  C2  UNL     1      -4.521   1.854  12.023  1.00  0.00     0.226 C 
BRANCH  10  11
HETATM   11  O1  UNL     1      -3.742   0.776  12.459  1.00  0.00    -0.390 OA
HETATM   12  C1  UNL     1      -3.402  -0.075  11.435  1.00  0.00     0.201 C 
ENDBRANCH  10  11
ENDBRANCH   7  10
BRANCH   8  13
HETATM   13  N2  UNL     1      -4.426   2.278  14.802  1.00  0.00    -0.278 N 
ATOM     14  H2  UNL     1      -4.093   1.333  14.609  1.00  0.00     0.189 HD
BRANCH  13  15
HETATM   15  C4  UNL     1      -5.178   2.495  16.004  1.00  0.00     0.199 C 
HETATM   16  N3  UNL     1      -5.680   1.453  16.820  1.00  0.00    -0.068 NA
HETATM   17  S1  UNL     1      -5.467   4.033  16.441  1.00  0.00    -0.043 SA
ENDBRANCH  13  15
ENDBRANCH   8  13
ENDBRANCH   1   7
BRANCH   6  18
HETATM   18  C14 UNL     1      -1.345   4.124  11.241  1.00  0.00     0.028 C 
HETATM   19  C15 UNL     1      -1.340   2.911  10.292  1.00  0.00     0.016 C 
HETATM   20  C16 UNL     1      -0.368   5.099  10.548  1.00  0.00     0.016 C 
ENDBRANCH   6  18
BRANCH   3  21
HETATM   21  C8  UNL     1      -4.854   7.524  10.347  1.00  0.00    -0.047 C 
HETATM   22  C9  UNL     1      -5.438   8.514   9.966  1.00  0.00    -0.074 C 
BRANCH  22  23
HETATM   23  C10 UNL     1      -6.159   9.709   9.519  1.00  0.00     0.093 C 
HETATM   24  C11 UNL     1      -5.367  10.502   8.509  1.00  0.00     0.046 C 
HETATM   25  C12 UNL     1      -6.325  10.601  10.740  1.00  0.00     0.046 C 
HETATM   26 CL1  UNL     1      -7.744   9.316   8.828  1.00  0.00    -0.106 Cl
ENDBRANCH  22  23
ENDBRANCH   3  21
TORSDOF 8
ENDMDL
MODEL 4
REMARK VINA RESULT: -6.470061433      1.905      2.285
REMARK  8 active torsions:
REMARK  status: ('A' for Active; 'I' for Inactive)
REMARK    1  A    between atoms: O1_2  and  C2_3 
REMARK    2  A    between atoms: C2_3  and  C3_4 
REMARK    3  A    between atoms: C3_4  and  C5_12 
REMARK    4  A    between atoms: N1_5  and  N2_7 
REMARK    5  A    between atoms: N2_7  and  C4_9 
REMARK    6  A    between atoms: C7_14  and  C8_15 
REMARK    7  A    between atoms: C9_16  and  C10_17 
REMARK    8  A    between atoms: C13_23  and  C14_24 
ROOT
HETATM    1  C5  UNL     1      -3.357   4.607  11.728  1.00  0.00     0.016 A 
HETATM    2  C6  UNL     1      -4.042   4.997  12.888  1.00  0.00     0.054 A 
HETATM    3  C7  UNL     1      -4.461   3.884  13.569  1.00  0.00     0.088 A 
HETATM    4  N4  UNL     1      -4.059   2.833  12.871  1.00  0.00    -0.351 N 
ATOM      5  H4  UNL     1      -4.225   1.861  13.131  1.00  0.00     0.166 HD
HETATM    6  C13 UNL     1      -3.384   3.247  11.744  1.00  0.00     0.026 A 
ENDROOT
BRANCH   1   7
HETATM    7  C3  UNL     1      -2.746   5.578  10.811  1.00  0.00     0.061 C 
HETATM    8  N1  UNL     1      -3.535   6.145   9.974  1.00  0.00    -0.300 N 
ATOM      9  H1  UNL     1      -4.515   5.866  10.002  1.00  0.00     0.186 HD
BRANCH   7  10
HETATM   10  C2  UNL     1      -1.320   5.942  10.820  1.00  0.00     0.226 C 
BRANCH  10  11
HETATM   11  O1  UNL     1      -1.081   7.283  11.146  1.00  0.00    -0.390 OA
HETATM   12  C1  UNL     1      -1.127   7.509  12.500  1.00  0.00     0.201 C 
ENDBRANCH  10  11
ENDBRANCH   7  10
BRANCH   8  13
HETATM   13  N2  UNL     1      -3.192   7.082   9.055  1.00  0.00    -0.278 N 
ATOM     14  H2  UNL     1      -2.966   8.020   9.388  1.00  0.00     0.189 HD
BRANCH  13  15
HETATM   15  C4  UNL     1      -3.127   6.834   7.643  1.00  0.00     0.199 C 
HETATM   16  N3  UNL     1      -4.231   6.413   6.864  1.00  0.00    -0.068 NA
HETATM   17  S1  UNL     1      -1.693   7.051   6.909  1.00  0.00    -0.043 SA
ENDBRANCH  13  15
ENDBRANCH   8  13
ENDBRANCH   1   7
BRANCH   6  18
HETATM   18  C14 UNL     1      -2.857   2.301  10.751  1.00  0.00     0.028 C 
HETATM   19  C15 UNL     1      -1.321   2.233  10.839  1.00  0.00     0.016 C 
HETATM   20  C16 UNL     1      -3.284   0.883  11.189  1.00  0.00     0.016 C 
ENDBRANCH   6  18
BRANCH   3  21
HETATM   21  C8  UNL     1      -5.208   3.910  14.820  1.00  0.00    -0.047 C 
HETATM   22  C9  UNL     1      -5.846   3.940  15.849  1.00  0.00    -0.074 C 
BRANCH  22  23
HETATM   23  C10 UNL     1      -6.635   3.984  17.083  1.00  0.00     0.093 C 
HETATM   24  C11 UNL     1      -5.818   3.589  18.289  1.00  0.00     0.046 C 
HETATM   25  C12 UNL     1      -7.730   2.938  16.938  1.00  0.00     0.046 C 
HETATM   26 CL1  UNL     1      -7.348   5.581  17.367  1.00  0.00    -0.106 Cl
ENDBRANCH  22  23
ENDBRANCH   3  21
TORSDOF 8
ENDMDL
MODEL 5
REMARK VINA RESULT: -6.466522806      4.557      6.549
REMARK  8 active torsions:
REMARK  status: ('A' for Active; 'I' for Inactive)
REMARK    1  A    between atoms: O1_2  and  C2_3 
REMARK    2  A    between atoms: C2_3  and  C3_4 
REMARK    3  A    between atoms: C3_4  and  C5_12 
REMARK    4  A    between atoms: N1_5  and  N2_7 
REMARK    5  A    between atoms: N2_7  and  C4_9 
REMARK    6  A    between atoms: C7_14  and  C8_15 
REMARK    7  A    between atoms: C9_16  and  C10_17 
REMARK    8  A    between atoms: C13_23  and  C14_24 
ROOT
HETATM    1  C5  UNL     1      -3.764   6.173  12.990  1.00  0.00     0.016 A 
HETATM    2  C6  UNL     1      -2.900   7.264  12.810  1.00  0.00     0.054 A 
HETATM    3  C7  UNL     1      -3.092   8.172  13.818  1.00  0.00     0.088 A 
HETATM    4  N4  UNL     1      -4.036   7.679  14.604  1.00  0.00    -0.351 N 
ATOM      5  H4  UNL     1      -4.394   8.134  15.444  1.00  0.00     0.166 HD
HETATM    6  C13 UNL     1      -4.463   6.462  14.121  1.00  0.00     0.026 A 
ENDROOT
BRANCH   1   7
HETATM    7  C3  UNL     1      -3.762   5.011  12.093  1.00  0.00     0.061 C 
HETATM    8  N1  UNL     1      -3.070   4.000  12.472  1.00  0.00    -0.300 N 
ATOM      9  H1  UNL     1      -2.567   4.090  13.355  1.00  0.00     0.186 HD
BRANCH   7  10
HETATM   10  C2  UNL     1      -4.512   4.939  10.829  1.00  0.00     0.226 C 
BRANCH  10  11
HETATM   11  O1  UNL     1      -3.706   5.029   9.687  1.00  0.00    -0.390 OA
HETATM   12  C1  UNL     1      -3.432   6.330   9.340  1.00  0.00     0.201 C 
ENDBRANCH  10  11
ENDBRANCH   7  10
BRANCH   8  13
HETATM   13  N2  UNL     1      -2.944   2.821  11.814  1.00  0.00    -0.278 N 
ATOM     14  H2  UNL     1      -2.329   2.790  11.001  1.00  0.00     0.189 HD
BRANCH  13  15
HETATM   15  C4  UNL     1      -3.623   1.614  12.193  1.00  0.00     0.199 C 
HETATM   16  N3  UNL     1      -4.460   1.503  13.329  1.00  0.00    -0.068 NA
HETATM   17  S1  UNL     1      -3.407   0.306  11.254  1.00  0.00    -0.043 SA
ENDBRANCH  13  15
ENDBRANCH   8  13
ENDBRANCH   1   7
BRANCH   6  18
HETATM   18  C14 UNL     1      -5.540   5.694  14.762  1.00  0.00     0.028 C 
HETATM   19  C15 UNL     1      -4.950   4.654  15.733  1.00  0.00     0.016 C 
HETATM   20  C16 UNL     1      -6.292   6.654  15.710  1.00  0.00     0.016 C 
ENDBRANCH   6  18
BRANCH   3  21
HETATM   21  C8  UNL     1      -2.367   9.429  13.951  1.00  0.00    -0.047 C 
HETATM   22  C9  UNL     1      -1.757  10.471  14.040  1.00  0.00    -0.074 C 
BRANCH  22  23
HETATM   23  C10 UNL     1      -1.014  11.732  14.127  1.00  0.00     0.093 C 
HETATM   24  C11 UNL     1      -0.022  11.882  13.000  1.00  0.00     0.046 C 
HETATM   25  C12 UNL     1      -0.206  11.674  15.415  1.00  0.00     0.046 C 
HETATM   26 CL1  UNL     1      -2.088  13.142  14.142  1.00  0.00    -0.106 Cl
ENDBRANCH  22  23
ENDBRANCH   3  21
TORSDOF 8
ENDMDL
