MODEL 1
REMARK VINA RESULT: -5.090070774      0.000      0.000
REMARK  1 active torsions:
REMARK  status: ('A' for Active; 'I' for Inactive)
REMARK    1  A    between atoms: C2_2  and  C4_4 
ROOT
HETATM    1  C4  UNL     1      -5.208   4.711  15.870  1.00  0.00     0.448 C 
HETATM    2  N1  UNL     1      -3.772   4.702  15.686  1.00  0.00    -0.035 N 
ATOM      3  H11 UNL     1      -3.432   3.807  15.333  1.00  0.00     0.280 HD
ATOM      4  H12 UNL     1      -3.267   4.708  16.572  1.00  0.00     0.280 HD
HETATM    5  C5  UNL     1      -3.393   5.821  14.824  1.00  0.00     0.192 C 
HETATM    6  C6  UNL     1      -4.336   6.997  15.020  1.00  0.00     0.063 C 
HETATM    7  C7  UNL     1      -5.724   6.565  14.593  1.00  0.00     0.277 C 
HETATM    8  N2  UNL     1      -5.783   5.086  14.596  1.00  0.00     0.123 N 
HETATM    9  C8  UNL     1      -5.000   4.612  13.462  1.00  0.00     0.277 C 
HETATM   10  C9  UNL     1      -3.646   5.326  13.394  1.00  0.00     0.063 C 
ENDROOT
BRANCH   1  11
HETATM   11  C2  UNL     1      -5.784   3.465  16.365  1.00  0.00    -0.033 C 
HETATM   12  C1  UNL     1      -5.056   2.359  16.376  1.00  0.00     0.018 C 
HETATM   13  C3  UNL     1      -7.189   3.369  16.871  1.00  0.00     0.046 C 
ENDBRANCH   1  11
TORSDOF 1
ENDMDL
MODEL 2
REMARK VINA RESULT: -4.942443573      0.119      1.028
REMARK  1 active torsions:
REMARK  status: ('A' for Active; 'I' for Inactive)
REMARK    1  A    between atoms: C2_2  and  C4_4 
ROOT
HETATM    1  C4  UNL     1      -5.228   4.802  15.877  1.00  0.00     0.448 C 
HETATM    2  N1  UNL     1      -3.794   4.737  15.695  1.00  0.00    -0.035 N 
ATOM      3  H11 UNL     1      -3.486   3.822  15.366  1.00  0.00     0.280 HD
ATOM      4  H12 UNL     1      -3.290   4.748  16.582  1.00  0.00     0.280 HD
HETATM    5  C5  UNL     1      -3.374   5.819  14.805  1.00  0.00     0.192 C 
HETATM    6  C6  UNL     1      -4.274   7.033  14.970  1.00  0.00     0.063 C 
HETATM    7  C7  UNL     1      -5.677   6.640  14.552  1.00  0.00     0.277 C 
HETATM    8  N2  UNL     1      -5.789   5.165  14.592  1.00  0.00     0.123 N 
HETATM    9  C8  UNL     1      -5.022   4.634  13.472  1.00  0.00     0.277 C 
HETATM   10  C9  UNL     1      -3.643   5.297  13.388  1.00  0.00     0.063 C 
ENDROOT
BRANCH   1  11
HETATM   11  C2  UNL     1      -5.850   3.590  16.402  1.00  0.00    -0.033 C 
HETATM   12  C1  UNL     1      -7.090   3.632  16.863  1.00  0.00     0.018 C 
HETATM   13  C3  UNL     1      -5.142   2.274  16.450  1.00  0.00     0.046 C 
ENDBRANCH   1  11
TORSDOF 1
ENDMDL
MODEL 3
REMARK VINA RESULT: -4.871911363      1.263      2.298
REMARK  1 active torsions:
REMARK  status: ('A' for Active; 'I' for Inactive)
REMARK    1  A    between atoms: C2_2  and  C4_4 
ROOT
HETATM    1  C4  UNL     1      -6.076   4.535  15.288  1.00  0.00     0.448 C 
HETATM    2  N1  UNL     1      -5.794   5.917  14.964  1.00  0.00    -0.035 N 
ATOM      3  H11 UNL     1      -5.567   6.471  15.791  1.00  0.00     0.280 HD
ATOM      4  H12 UNL     1      -6.629   6.426  14.675  1.00  0.00     0.280 HD
HETATM    5  C5  UNL     1      -4.736   5.966  13.955  1.00  0.00     0.192 C 
HETATM    6  C6  UNL     1      -4.806   4.753  13.041  1.00  0.00     0.063 C 
HETATM    7  C7  UNL     1      -4.555   3.516  13.879  1.00  0.00     0.277 C 
HETATM    8  N2  UNL     1      -4.802   3.848  15.300  1.00  0.00     0.123 N 
HETATM    9  C8  UNL     1      -3.707   4.697  15.751  1.00  0.00     0.277 C 
HETATM   10  C9  UNL     1      -3.427   5.814  14.740  1.00  0.00     0.063 C 
ENDROOT
BRANCH   1  11
HETATM   11  C2  UNL     1      -6.806   4.320  16.533  1.00  0.00    -0.033 C 
HETATM   12  C1  UNL     1      -7.092   5.347  17.318  1.00  0.00     0.018 C 
HETATM   13  C3  UNL     1      -7.259   2.966  16.980  1.00  0.00     0.046 C 
ENDBRANCH   1  11
TORSDOF 1
ENDMDL
MODEL 4
REMARK VINA RESULT: -4.855144197      1.226      2.216
REMARK  1 active torsions:
REMARK  status: ('A' for Active; 'I' for Inactive)
REMARK    1  A    between atoms: C2_2  and  C4_4 
ROOT
HETATM    1  C4  UNL     1      -6.096   4.191  15.752  1.00  0.00     0.448 C 
HETATM    2  N1  UNL     1      -5.896   5.622  15.657  1.00  0.00    -0.035 N 
ATOM      3  H11 UNL     1      -5.587   6.029  16.540  1.00  0.00     0.280 HD
ATOM      4  H12 UNL     1      -6.774   6.131  15.562  1.00  0.00     0.280 HD
HETATM    5  C5  UNL     1      -4.969   5.904  14.561  1.00  0.00     0.192 C 
HETATM    6  C6  UNL     1      -5.113   4.871  13.455  1.00  0.00     0.063 C 
HETATM    7  C7  UNL     1      -4.726   3.519  14.018  1.00  0.00     0.277 C 
HETATM    8  N2  UNL     1      -4.811   3.578  15.494  1.00  0.00     0.123 N 
HETATM    9  C8  UNL     1      -3.694   4.388  15.966  1.00  0.00     0.277 C 
HETATM   10  C9  UNL     1      -3.571   5.680  15.152  1.00  0.00     0.063 C 
ENDROOT
BRANCH   1  11
HETATM   11  C2  UNL     1      -6.665   3.720  17.011  1.00  0.00    -0.033 C 
HETATM   12  C1  UNL     1      -7.507   2.698  17.013  1.00  0.00     0.018 C 
HETATM   13  C3  UNL     1      -6.339   4.346  18.330  1.00  0.00     0.046 C 
ENDBRANCH   1  11
TORSDOF 1
ENDMDL
MODEL 5
REMARK VINA RESULT: -4.853436667      1.476      4.029
REMARK  1 active torsions:
REMARK  status: ('A' for Active; 'I' for Inactive)
REMARK    1  A    between atoms: C2_2  and  C4_4 
ROOT
HETATM    1  C4  UNL     1      -5.673   4.411  15.902  1.00  0.00     0.448 C 
HETATM    2  N1  UNL     1      -4.789   3.742  16.832  1.00  0.00    -0.035 N 
ATOM      3  H11 UNL     1      -4.205   4.398  17.352  1.00  0.00     0.280 HD
ATOM      4  H12 UNL     1      -4.045   3.230  16.360  1.00  0.00     0.280 HD
HETATM    5  C5  UNL     1      -5.581   2.884  17.713  1.00  0.00     0.192 C 
HETATM    6  C6  UNL     1      -6.805   2.350  16.988  1.00  0.00     0.063 C 
HETATM    7  C7  UNL     1      -7.684   3.526  16.615  1.00  0.00     0.277 C 
HETATM    8  N2  UNL     1      -6.865   4.759  16.645  1.00  0.00     0.123 N 
HETATM    9  C8  UNL     1      -6.588   5.069  18.042  1.00  0.00     0.277 C 
HETATM   10  C9  UNL     1      -6.125   3.821  18.800  1.00  0.00     0.063 C 
ENDROOT
BRANCH   1  11
HETATM   11  C2  UNL     1      -5.110   5.576  15.229  1.00  0.00    -0.033 C 
HETATM   12  C1  UNL     1      -3.804   5.650  15.018  1.00  0.00     0.018 C 
HETATM   13  C3  UNL     1      -5.949   6.720  14.754  1.00  0.00     0.046 C 
ENDBRANCH   1  11
TORSDOF 1
ENDMDL
