MODEL 1
REMARK VINA RESULT: -5.399396203      0.000      0.000
REMARK  1 active torsions:
REMARK  status: ('A' for Active; 'I' for Inactive)
REMARK    1  A    between atoms: C6_9  and  O1_10 
ROOT
HETATM    1  C1  UNL     1      -2.217   6.863  13.998  1.00  0.00     0.014 C 
HETATM    2  C2  UNL     1      -3.307   6.334  13.956  1.00  0.00    -0.080 C 
HETATM    3  C3  UNL     1      -4.624   5.680  13.926  1.00  0.00     0.329 C 
HETATM    4  C4  UNL     1      -4.476   4.257  13.392  1.00  0.00     0.283 C 
HETATM    5  N1  UNL     1      -4.256   3.491  14.576  1.00  0.00    -0.038 N 
ATOM      6  H11 UNL     1      -3.417   2.915  14.514  1.00  0.00     0.280 HD
ATOM      7  H12 UNL     1      -4.938   2.741  14.684  1.00  0.00     0.280 HD
HETATM    8  C5  UNL     1      -4.229   4.365  15.703  1.00  0.00     0.449 C 
HETATM    9  C6  UNL     1      -4.974   3.855  16.903  1.00  0.00     0.183 C 
HETATM   10  C8  UNL     1      -6.377   4.402  16.826  1.00  0.00     0.066 C 
HETATM   11  C9  UNL     1      -6.381   5.030  15.432  1.00  0.00     0.279 C 
HETATM   12  N2  UNL     1      -5.031   5.506  15.304  1.00  0.00     0.140 N 
ENDROOT
BRANCH   9  13
HETATM   13  O1  UNL     1      -4.967   2.457  16.814  1.00  0.00    -0.387 OA
HETATM   14  C7  UNL     1      -6.083   1.984  17.516  1.00  0.00     0.202 C 
ENDBRANCH   9  13
TORSDOF 1
ENDMDL
MODEL 2
REMARK VINA RESULT: -5.321535434      1.813      4.187
REMARK  1 active torsions:
REMARK  status: ('A' for Active; 'I' for Inactive)
REMARK    1  A    between atoms: C6_9  and  O1_10 
ROOT
HETATM    1  C1  UNL     1      -7.587   3.023  16.870  1.00  0.00     0.014 C 
HETATM    2  C2  UNL     1      -6.425   3.353  16.772  1.00  0.00    -0.080 C 
HETATM    3  C3  UNL     1      -5.018   3.756  16.627  1.00  0.00     0.329 C 
HETATM    4  C4  UNL     1      -4.197   2.572  16.119  1.00  0.00     0.283 C 
HETATM    5  N1  UNL     1      -4.261   2.722  14.700  1.00  0.00    -0.038 N 
ATOM      6  H11 UNL     1      -4.582   1.873  14.235  1.00  0.00     0.280 HD
ATOM      7  H12 UNL     1      -3.336   2.778  14.275  1.00  0.00     0.280 HD
HETATM    8  C5  UNL     1      -5.072   3.852  14.384  1.00  0.00     0.449 C 
HETATM    9  C6  UNL     1      -4.525   4.722  13.289  1.00  0.00     0.183 C 
HETATM   10  C8  UNL     1      -3.708   5.807  13.944  1.00  0.00     0.066 C 
HETATM   11  C9  UNL     1      -3.680   5.329  15.396  1.00  0.00     0.279 C 
HETATM   12  N2  UNL     1      -4.971   4.715  15.544  1.00  0.00     0.140 N 
ENDROOT
BRANCH   9  13
HETATM   13  O1  UNL     1      -3.727   3.899  12.484  1.00  0.00    -0.387 OA
HETATM   14  C7  UNL     1      -4.377   3.758  11.251  1.00  0.00     0.202 C 
ENDBRANCH   9  13
TORSDOF 1
ENDMDL
MODEL 3
REMARK VINA RESULT: -5.037758514      2.116      4.331
REMARK  1 active torsions:
REMARK  status: ('A' for Active; 'I' for Inactive)
REMARK    1  A    between atoms: C6_9  and  O1_10 
ROOT
HETATM    1  C1  UNL     1      -7.231   2.960  17.012  1.00  0.00     0.014 C 
HETATM    2  C2  UNL     1      -6.142   3.217  16.545  1.00  0.00    -0.080 C 
HETATM    3  C3  UNL     1      -4.832   3.550  15.965  1.00  0.00     0.329 C 
HETATM    4  C4  UNL     1      -4.754   3.013  14.538  1.00  0.00     0.283 C 
HETATM    5  N1  UNL     1      -5.243   4.103  13.757  1.00  0.00    -0.038 N 
ATOM      6  H11 UNL     1      -6.002   3.825  13.135  1.00  0.00     0.280 HD
ATOM      7  H12 UNL     1      -4.575   4.399  13.045  1.00  0.00     0.280 HD
HETATM    8  C5  UNL     1      -5.618   5.171  14.624  1.00  0.00     0.449 C 
HETATM    9  C6  UNL     1      -5.196   6.533  14.152  1.00  0.00     0.183 C 
HETATM   10  C8  UNL     1      -3.856   6.829  14.777  1.00  0.00     0.066 C 
HETATM   11  C9  UNL     1      -3.512   5.480  15.408  1.00  0.00     0.279 C 
HETATM   12  N2  UNL     1      -4.802   4.988  15.809  1.00  0.00     0.140 N 
ENDROOT
BRANCH   9  13
HETATM   13  O1  UNL     1      -5.103   6.462  12.756  1.00  0.00    -0.387 OA
HETATM   14  C7  UNL     1      -4.332   7.550  12.329  1.00  0.00     0.202 C 
ENDBRANCH   9  13
TORSDOF 1
ENDMDL
MODEL 4
REMARK VINA RESULT: -5.037312166      2.341      3.699
REMARK  1 active torsions:
REMARK  status: ('A' for Active; 'I' for Inactive)
REMARK    1  A    between atoms: C6_9  and  O1_10 
ROOT
HETATM    1  C1  UNL     1      -6.493   6.973  15.469  1.00  0.00     0.014 C 
HETATM    2  C2  UNL     1      -5.405   6.653  15.040  1.00  0.00    -0.080 C 
HETATM    3  C3  UNL     1      -4.096   6.244  14.509  1.00  0.00     0.329 C 
HETATM    4  C4  UNL     1      -3.475   5.198  15.432  1.00  0.00     0.283 C 
HETATM    5  N1  UNL     1      -3.947   3.966  14.886  1.00  0.00    -0.038 N 
ATOM      6  H11 UNL     1      -4.401   3.381  15.586  1.00  0.00     0.280 HD
ATOM      7  H12 UNL     1      -3.185   3.334  14.641  1.00  0.00     0.280 HD
HETATM    8  C5  UNL     1      -4.800   4.241  13.776  1.00  0.00     0.449 C 
HETATM    9  C6  UNL     1      -4.583   3.347  12.589  1.00  0.00     0.183 C 
HETATM   10  C8  UNL     1      -3.596   4.036  11.682  1.00  0.00     0.066 C 
HETATM   11  C9  UNL     1      -3.153   5.211  12.554  1.00  0.00     0.279 C 
HETATM   12  N2  UNL     1      -4.353   5.528  13.278  1.00  0.00     0.140 N 
ENDROOT
BRANCH   9  13
HETATM   13  O1  UNL     1      -4.066   2.143  13.084  1.00  0.00    -0.387 OA
HETATM   14  C7  UNL     1      -3.998   1.242  12.015  1.00  0.00     0.202 C 
ENDBRANCH   9  13
TORSDOF 1
ENDMDL
MODEL 5
REMARK VINA RESULT: -4.823796522      3.490      5.214
REMARK  1 active torsions:
REMARK  status: ('A' for Active; 'I' for Inactive)
REMARK    1  A    between atoms: C6_9  and  O1_10 
ROOT
HETATM    1  C1  UNL     1      -3.017  -0.675  11.537  1.00  0.00     0.014 C 
HETATM    2  C2  UNL     1      -3.113   0.420  11.026  1.00  0.00    -0.080 C 
HETATM    3  C3  UNL     1      -3.236   1.758  10.428  1.00  0.00     0.329 C 
HETATM    4  C4  UNL     1      -4.701   2.036  10.096  1.00  0.00     0.283 C 
HETATM    5  N1  UNL     1      -5.188   2.655  11.287  1.00  0.00    -0.038 N 
ATOM      6  H11 UNL     1      -6.024   2.196  11.648  1.00  0.00     0.280 HD
ATOM      7  H12 UNL     1      -5.594   3.573  11.108  1.00  0.00     0.280 HD
HETATM    8  C5  UNL     1      -4.140   2.705  12.253  1.00  0.00     0.449 C 
HETATM    9  C6  UNL     1      -4.046   4.003  13.001  1.00  0.00     0.183 C 
HETATM   10  C8  UNL     1      -3.066   4.878  12.260  1.00  0.00     0.066 C 
HETATM   11  C9  UNL     1      -2.832   4.060  10.990  1.00  0.00     0.279 C 
HETATM   12  N2  UNL     1      -2.918   2.709  11.472  1.00  0.00     0.140 N 
ENDROOT
BRANCH   9  13
HETATM   13  O1  UNL     1      -5.331   4.562  12.998  1.00  0.00    -0.387 OA
HETATM   14  C7  UNL     1      -5.633   4.931  14.314  1.00  0.00     0.202 C 
ENDBRANCH   9  13
TORSDOF 1
ENDMDL
