MODEL 1
REMARK VINA RESULT: -5.164665291      0.000      0.000
REMARK  1 active torsions:
REMARK  status: ('A' for Active; 'I' for Inactive)
REMARK    1  A    between atoms: C5_6  and  C6_7 
ROOT
HETATM    1  C1  UNL     1      -3.449   5.297  13.385  1.00  0.00     0.309 C 
HETATM    2  N1  UNL     1      -3.993   5.875  14.624  1.00  0.00     0.084 N 
HETATM    3  C2  UNL     1      -4.991   6.830  14.341  1.00  0.00     0.272 C 
HETATM    4  C3  UNL     1      -6.119   6.967  15.277  1.00  0.00     0.031 C 
HETATM    5  C4  UNL     1      -6.434   5.780  16.113  1.00  0.00     0.010 C 
HETATM    6  C5  UNL     1      -5.800   4.579  15.487  1.00  0.00     0.045 C 
HETATM    7  C9  UNL     1      -4.326   4.807  15.489  1.00  0.00     0.278 C 
ENDROOT
BRANCH   6   8
HETATM    8  C6  UNL     1      -6.204   3.285  16.140  1.00  0.00     0.193 C 
HETATM    9  C7  UNL     1      -6.541   3.372  17.608  1.00  0.00     0.061 C 
HETATM   10  C8  UNL     1      -5.902   1.990  17.647  1.00  0.00     0.235 C 
HETATM   11  N2  UNL     1      -5.092   2.421  16.505  1.00  0.00    -0.070 N 
ATOM     12  H22 UNL     1      -4.706   1.747  15.844  1.00  0.00     0.277 HD
ATOM     13  H21 UNL     1      -4.151   2.793  16.632  1.00  0.00     0.277 HD
ENDBRANCH   6   8
TORSDOF 1
ENDMDL
MODEL 2
REMARK VINA RESULT: -4.862396709      1.484      4.201
REMARK  1 active torsions:
REMARK  status: ('A' for Active; 'I' for Inactive)
REMARK    1  A    between atoms: C5_6  and  C6_7 
ROOT
HETATM    1  C1  UNL     1      -4.614   2.787  16.099  1.00  0.00     0.309 C 
HETATM    2  N1  UNL     1      -5.391   3.808  15.377  1.00  0.00     0.084 N 
HETATM    3  C2  UNL     1      -6.151   4.591  16.271  1.00  0.00     0.272 C 
HETATM    4  C3  UNL     1      -6.373   6.011  15.949  1.00  0.00     0.031 C 
HETATM    5  C4  UNL     1      -5.372   6.651  15.057  1.00  0.00     0.010 C 
HETATM    6  C5  UNL     1      -4.136   5.810  15.051  1.00  0.00     0.045 C 
HETATM    7  C9  UNL     1      -4.510   4.478  14.495  1.00  0.00     0.278 C 
ENDROOT
BRANCH   6   8
HETATM    8  C6  UNL     1      -2.982   6.454  14.330  1.00  0.00     0.193 C 
HETATM    9  C7  UNL     1      -2.820   6.067  12.882  1.00  0.00     0.061 C 
HETATM   10  C8  UNL     1      -1.337   6.189  13.206  1.00  0.00     0.235 C 
HETATM   11  N2  UNL     1      -1.692   5.832  14.582  1.00  0.00    -0.070 N 
ATOM     12  H22 UNL     1      -1.111   6.116  15.370  1.00  0.00     0.277 HD
ATOM     13  H21 UNL     1      -1.623   4.870  14.915  1.00  0.00     0.277 HD
ENDBRANCH   6   8
TORSDOF 1
ENDMDL
MODEL 3
REMARK VINA RESULT: -4.767669394      1.517      2.118
REMARK  1 active torsions:
REMARK  status: ('A' for Active; 'I' for Inactive)
REMARK    1  A    between atoms: C5_6  and  C6_7 
ROOT
HETATM    1  C1  UNL     1      -4.967   3.687  11.711  1.00  0.00     0.309 C 
HETATM    2  N1  UNL     1      -4.039   4.005  12.807  1.00  0.00     0.084 N 
HETATM    3  C2  UNL     1      -3.734   5.382  12.828  1.00  0.00     0.272 C 
HETATM    4  C3  UNL     1      -3.496   6.030  14.129  1.00  0.00     0.031 C 
HETATM    5  C4  UNL     1      -4.113   5.382  15.315  1.00  0.00     0.010 C 
HETATM    6  C5  UNL     1      -5.195   4.464  14.843  1.00  0.00     0.045 C 
HETATM    7  C9  UNL     1      -4.551   3.423  13.990  1.00  0.00     0.278 C 
ENDROOT
BRANCH   6   8
HETATM    8  C6  UNL     1      -6.019   3.890  15.964  1.00  0.00     0.193 C 
HETATM    9  C7  UNL     1      -6.686   4.898  16.864  1.00  0.00     0.061 C 
HETATM   10  C8  UNL     1      -6.391   3.859  17.938  1.00  0.00     0.235 C 
HETATM   11  N2  UNL     1      -5.247   3.454  17.117  1.00  0.00    -0.070 N 
ATOM     12  H22 UNL     1      -4.863   2.511  17.172  1.00  0.00     0.277 HD
ATOM     13  H21 UNL     1      -4.311   3.816  17.296  1.00  0.00     0.277 HD
ENDBRANCH   6   8
TORSDOF 1
ENDMDL
MODEL 4
REMARK VINA RESULT: -4.752904577      2.401      4.138
REMARK  1 active torsions:
REMARK  status: ('A' for Active; 'I' for Inactive)
REMARK    1  A    between atoms: C5_6  and  C6_7 
ROOT
HETATM    1  C1  UNL     1      -6.009   6.180  15.287  1.00  0.00     0.309 C 
HETATM    2  N1  UNL     1      -5.014   5.158  15.650  1.00  0.00     0.084 N 
HETATM    3  C2  UNL     1      -5.590   4.157  16.460  1.00  0.00     0.272 C 
HETATM    4  C3  UNL     1      -5.097   2.776  16.327  1.00  0.00     0.031 C 
HETATM    5  C4  UNL     1      -4.466   2.419  15.030  1.00  0.00     0.010 C 
HETATM    6  C5  UNL     1      -4.877   3.432  14.010  1.00  0.00     0.045 C 
HETATM    7  C9  UNL     1      -4.357   4.754  14.464  1.00  0.00     0.278 C 
ENDROOT
BRANCH   6   8
HETATM    8  C6  UNL     1      -4.453   3.073  12.611  1.00  0.00     0.193 C 
HETATM    9  C7  UNL     1      -4.081   1.628  12.393  1.00  0.00     0.061 C 
HETATM   10  C8  UNL     1      -3.058   2.228  11.436  1.00  0.00     0.235 C 
HETATM   11  N2  UNL     1      -3.076   3.418  12.292  1.00  0.00    -0.070 N 
ATOM     12  H22 UNL     1      -2.831   4.338  11.927  1.00  0.00     0.277 HD
ATOM     13  H21 UNL     1      -2.380   3.555  13.025  1.00  0.00     0.277 HD
ENDBRANCH   6   8
TORSDOF 1
ENDMDL
MODEL 5
REMARK VINA RESULT: -4.722049252      2.929      4.182
REMARK  1 active torsions:
REMARK  status: ('A' for Active; 'I' for Inactive)
REMARK    1  A    between atoms: C5_6  and  C6_7 
ROOT
HETATM    1  C1  UNL     1      -3.338   5.010  10.920  1.00  0.00     0.309 C 
HETATM    2  N1  UNL     1      -4.009   3.702  10.969  1.00  0.00     0.084 N 
HETATM    3  C2  UNL     1      -3.086   2.652  10.787  1.00  0.00     0.272 C 
HETATM    4  C3  UNL     1      -3.317   1.381  11.494  1.00  0.00     0.031 C 
HETATM    5  C4  UNL     1      -4.136   1.451  12.731  1.00  0.00     0.010 C 
HETATM    6  C5  UNL     1      -4.166   2.870  13.199  1.00  0.00     0.045 C 
HETATM    7  C9  UNL     1      -4.820   3.675  12.128  1.00  0.00     0.278 C 
ENDROOT
BRANCH   6   8
HETATM    8  C6  UNL     1      -4.811   3.038  14.549  1.00  0.00     0.193 C 
HETATM    9  C7  UNL     1      -4.461   4.306  15.286  1.00  0.00     0.061 C 
HETATM   10  C8  UNL     1      -4.552   3.401  16.508  1.00  0.00     0.235 C 
HETATM   11  N2  UNL     1      -4.163   2.301  15.622  1.00  0.00    -0.070 N 
ATOM     12  H22 UNL     1      -4.418   1.336  15.832  1.00  0.00     0.277 HD
ATOM     13  H21 UNL     1      -3.192   1.999  15.547  1.00  0.00     0.277 HD
ENDBRANCH   6   8
TORSDOF 1
ENDMDL
