MODEL 1
REMARK VINA RESULT: -5.159934024      0.000      0.000
REMARK  2 active torsions:
REMARK  status: ('A' for Active; 'I' for Inactive)
REMARK    1  A    between atoms: C3_3  and  C4_4 
REMARK    2  A    between atoms: C9_10  and  O1_11 
ROOT
HETATM    1  C1  UNL     1      -6.241   3.823  18.656  1.00  0.00     0.012 C 
HETATM    2  C2  UNL     1      -6.109   3.645  17.468  1.00  0.00    -0.117 C 
HETATM    3  C3  UNL     1      -5.962   3.450  16.024  1.00  0.00     0.107 C 
ENDROOT
BRANCH   3   4
HETATM    4  C4  UNL     1      -5.334   4.644  15.450  1.00  0.00     0.027 C 
HETATM    5  C5  UNL     1      -3.892   4.857  15.841  1.00  0.00     0.045 C 
HETATM    6  C6  UNL     1      -3.424   5.799  14.727  1.00  0.00     0.277 C 
HETATM    7  N1  UNL     1      -4.534   5.886  13.777  1.00  0.00     0.117 N 
HETATM    8  C7  UNL     1      -5.629   6.682  14.345  1.00  0.00     0.277 C 
HETATM    9  C9  UNL     1      -5.155   4.553  13.925  1.00  0.00     0.366 C 
HETATM   10  C8  UNL     1      -6.049   5.934  15.613  1.00  0.00     0.045 C 
BRANCH   9  11
HETATM   11  O1  UNL     1      -4.263   3.541  13.656  1.00  0.00    -0.367 OA
ATOM     12  H1  UNL     1      -3.405   3.927  13.527  1.00  0.00     0.212 HD
ENDBRANCH   9  11
ENDBRANCH   3   4
TORSDOF 2
ENDMDL
MODEL 2
REMARK VINA RESULT: -5.124552102      3.808      5.159
REMARK  2 active torsions:
REMARK  status: ('A' for Active; 'I' for Inactive)
REMARK    1  A    between atoms: C3_3  and  C4_4 
REMARK    2  A    between atoms: C9_10  and  O1_11 
ROOT
HETATM    1  C1  UNL     1      -2.731  -0.720  11.509  1.00  0.00     0.012 C 
HETATM    2  C2  UNL     1      -3.482   0.169  11.184  1.00  0.00    -0.117 C 
HETATM    3  C3  UNL     1      -4.398   1.249  10.814  1.00  0.00     0.107 C 
ENDROOT
BRANCH   3   4
HETATM    4  C4  UNL     1      -4.068   2.438  11.605  1.00  0.00     0.027 C 
HETATM    5  C5  UNL     1      -2.711   3.037  11.320  1.00  0.00     0.045 C 
HETATM    6  C6  UNL     1      -2.899   4.456  11.868  1.00  0.00     0.277 C 
HETATM    7  N1  UNL     1      -4.311   4.567  12.231  1.00  0.00     0.117 N 
HETATM    8  C7  UNL     1      -4.588   3.785  13.443  1.00  0.00     0.277 C 
HETATM    9  C9  UNL     1      -4.941   3.655  11.254  1.00  0.00     0.366 C 
HETATM   10  C8  UNL     1      -4.227   2.342  13.077  1.00  0.00     0.045 C 
BRANCH   9  11
HETATM   11  O1  UNL     1      -4.664   4.024   9.958  1.00  0.00    -0.367 OA
ATOM     12  H1  UNL     1      -5.016   3.359   9.378  1.00  0.00     0.212 HD
ENDBRANCH   9  11
ENDBRANCH   3   4
TORSDOF 2
ENDMDL
MODEL 3
REMARK VINA RESULT: -5.112252302      2.427      3.886
REMARK  2 active torsions:
REMARK  status: ('A' for Active; 'I' for Inactive)
REMARK    1  A    between atoms: C3_3  and  C4_4 
REMARK    2  A    between atoms: C9_10  and  O1_11 
ROOT
HETATM    1  C1  UNL     1      -6.009   6.817  14.568  1.00  0.00     0.012 C 
HETATM    2  C2  UNL     1      -6.355   6.282  15.595  1.00  0.00    -0.117 C 
HETATM    3  C3  UNL     1      -6.780   5.614  16.826  1.00  0.00     0.107 C 
ENDROOT
BRANCH   3   4
HETATM    4  C4  UNL     1      -6.064   4.340  16.942  1.00  0.00     0.027 C 
HETATM    5  C5  UNL     1      -6.049   3.740  18.328  1.00  0.00     0.045 C 
HETATM    6  C6  UNL     1      -5.726   2.277  18.008  1.00  0.00     0.277 C 
HETATM    7  N1  UNL     1      -5.758   2.164  16.550  1.00  0.00     0.117 N 
HETATM    8  C7  UNL     1      -4.582   2.821  15.963  1.00  0.00     0.277 C 
HETATM    9  C9  UNL     1      -6.761   3.190  16.194  1.00  0.00     0.366 C 
HETATM   10  C8  UNL     1      -4.683   4.284  16.403  1.00  0.00     0.045 C 
BRANCH   9  11
HETATM   11  O1  UNL     1      -7.972   2.952  16.803  1.00  0.00    -0.367 OA
ATOM     12  H1  UNL     1      -7.808   2.723  17.710  1.00  0.00     0.212 HD
ENDBRANCH   9  11
ENDBRANCH   3   4
TORSDOF 2
ENDMDL
MODEL 4
REMARK VINA RESULT: -5.108381236      1.524      2.215
REMARK  2 active torsions:
REMARK  status: ('A' for Active; 'I' for Inactive)
REMARK    1  A    between atoms: C3_3  and  C4_4 
REMARK    2  A    between atoms: C9_10  and  O1_11 
ROOT
HETATM    1  C1  UNL     1      -7.058   2.692  17.160  1.00  0.00     0.012 C 
HETATM    2  C2  UNL     1      -6.883   3.833  16.806  1.00  0.00    -0.117 C 
HETATM    3  C3  UNL     1      -6.646   5.215  16.384  1.00  0.00     0.107 C 
ENDROOT
BRANCH   3   4
HETATM    4  C4  UNL     1      -5.522   5.234  15.443  1.00  0.00     0.027 C 
HETATM    5  C5  UNL     1      -5.755   4.482  14.155  1.00  0.00     0.045 C 
HETATM    6  C6  UNL     1      -4.690   5.114  13.252  1.00  0.00     0.277 C 
HETATM    7  N1  UNL     1      -4.108   6.214  14.021  1.00  0.00     0.117 N 
HETATM    8  C7  UNL     1      -3.256   5.689  15.095  1.00  0.00     0.277 C 
HETATM    9  C9  UNL     1      -5.253   6.631  14.856  1.00  0.00     0.366 C 
HETATM   10  C8  UNL     1      -4.189   4.844  15.967  1.00  0.00     0.045 C 
BRANCH   9  11
HETATM   11  O1  UNL     1      -6.338   6.992  14.092  1.00  0.00    -0.367 OA
ATOM     12  H1  UNL     1      -6.923   7.511  14.633  1.00  0.00     0.212 HD
ENDBRANCH   9  11
ENDBRANCH   3   4
TORSDOF 2
ENDMDL
MODEL 5
REMARK VINA RESULT: -4.813062427      3.445      4.763
REMARK  2 active torsions:
REMARK  status: ('A' for Active; 'I' for Inactive)
REMARK    1  A    between atoms: C3_3  and  C4_4 
REMARK    2  A    between atoms: C9_10  and  O1_11 
ROOT
HETATM    1  C1  UNL     1      -3.075   6.074  14.630  1.00  0.00     0.012 C 
HETATM    2  C2  UNL     1      -3.527   5.808  13.542  1.00  0.00    -0.117 C 
HETATM    3  C3  UNL     1      -4.053   5.477  12.216  1.00  0.00     0.107 C 
ENDROOT
BRANCH   3   4
HETATM    4  C4  UNL     1      -3.765   4.067  11.934  1.00  0.00     0.027 C 
HETATM    5  C5  UNL     1      -4.266   3.093  12.974  1.00  0.00     0.045 C 
HETATM    6  C6  UNL     1      -4.285   1.791  12.167  1.00  0.00     0.277 C 
HETATM    7  N1  UNL     1      -3.974   2.164  10.787  1.00  0.00     0.117 N 
HETATM    8  C7  UNL     1      -2.556   2.523  10.664  1.00  0.00     0.277 C 
HETATM    9  C9  UNL     1      -4.535   3.529  10.716  1.00  0.00     0.366 C 
HETATM   10  C8  UNL     1      -2.362   3.710  11.611  1.00  0.00     0.045 C 
BRANCH   9  11
HETATM   11  O1  UNL     1      -5.878   3.546  11.014  1.00  0.00    -0.367 OA
ATOM     12  H1  UNL     1      -6.160   2.652  11.165  1.00  0.00     0.212 HD
ENDBRANCH   9  11
ENDBRANCH   3   4
TORSDOF 2
ENDMDL
