MODEL 1
REMARK VINA RESULT: -8.641444492      0.000      0.000
REMARK  8 active torsions:
REMARK  status: ('A' for Active; 'I' for Inactive)
REMARK    1  A    between atoms: C2_2  and  C3_3 
REMARK    2  A    between atoms: C3_3  and  C4_4 
REMARK    3  A    between atoms: C4_4  and  O1_5 
REMARK    4  A    between atoms: C13_15  and  O2_16 
REMARK    5  A    between atoms: C14_18  and  O3_19 
REMARK    6  A    between atoms: O3_19  and  C15_20 
REMARK    7  A    between atoms: C20_27  and  C21_28 
REMARK    8  A    between atoms: C26_33  and  C27_34 
ROOT
HETATM    1  C3  UNL     1       1.530  43.256  22.219  1.00  0.00     0.061 C 
HETATM    2  C5  UNL     1       2.828  43.210  21.645  1.00  0.00    -0.162 C 
HETATM    3  C6  UNL     1       4.139  43.579  21.260  1.00  0.00     0.108 C 
HETATM    4  C7  UNL     1       5.031  42.374  21.613  1.00  0.00    -0.012 C 
HETATM    5  C8  UNL     1       4.722  41.120  21.467  1.00  0.00    -0.079 C 
HETATM    6  C9  UNL     1       5.823  40.152  21.919  1.00  0.00     0.068 C 
HETATM    7  C10 UNL     1       5.353  39.231  22.976  1.00  0.00    -0.074 C 
HETATM    8  C11 UNL     1       6.372  38.995  24.018  1.00  0.00     0.044 C 
HETATM    9  C12 UNL     1       4.231  38.561  23.210  1.00  0.00    -0.038 C 
HETATM   10  C13 UNL     1       3.312  37.656  23.942  1.00  0.00     0.192 C 
HETATM   11  C14 UNL     1       2.299  37.644  22.920  1.00  0.00     0.172 C 
HETATM   12  C17 UNL     1       0.937  38.153  22.909  1.00  0.00     0.194 C 
HETATM   13  O5  UNL     1       0.024  37.475  23.445  1.00  0.00    -0.289 OA
HETATM   14  C18 UNL     1       0.566  39.424  22.293  1.00  0.00    -0.005 C 
HETATM   15  C19 UNL     1      -0.499  39.481  21.480  1.00  0.00     0.024 C 
HETATM   16  C20 UNL     1       1.435  40.645  22.594  1.00  0.00     0.023 C 
HETATM   17  C23 UNL     1       2.732  40.083  22.202  1.00  0.00     0.019 C 
HETATM   18  C24 UNL     1       3.474  40.514  20.957  1.00  0.00     0.041 C 
HETATM   19  C25 UNL     1       3.064  38.656  22.222  1.00  0.00     0.069 C 
HETATM   20  C26 UNL     1       0.883  41.890  22.104  1.00  0.00     0.090 C 
ENDROOT
BRANCH   1  21
HETATM   21  C2  UNL     1       1.396  43.971  23.467  1.00  0.00    -0.013 C 
HETATM   22  C1  UNL     1       1.752  45.229  23.580  1.00  0.00     0.008 C 
ENDBRANCH   1  21
BRANCH   1  23
HETATM   23  C4  UNL     1       0.656  44.127  21.241  1.00  0.00     0.190 C 
BRANCH  23  24
HETATM   24  O1  UNL     1       0.973  43.595  19.968  1.00  0.00    -0.399 OA
ATOM     25  H1  UNL     1       1.576  44.236  19.611  1.00  0.00     0.209 HD
ENDBRANCH  23  24
ENDBRANCH   1  23
BRANCH  20  26
HETATM   26  C27 UNL     1      -0.528  42.189  22.492  1.00  0.00     0.239 C 
HETATM   27  O6  UNL     1      -1.430  42.521  21.759  1.00  0.00    -0.306 OA
ENDBRANCH  20  26
BRANCH  16  28
HETATM   28  C21 UNL     1       1.251  40.729  24.088  1.00  0.00    -0.021 C 
HETATM   29  C22 UNL     1       2.157  40.954  24.993  1.00  0.00     0.008 C 
ENDBRANCH  16  28
BRANCH  11  30
HETATM   30  O3  UNL     1       2.300  36.337  22.274  1.00  0.00    -0.298 OA
BRANCH  30  31
HETATM   31  C15 UNL     1       1.886  36.163  20.984  1.00  0.00     0.256 C 
HETATM   32  C16 UNL     1       2.875  36.448  19.888  1.00  0.00     0.126 C 
HETATM   33  O4  UNL     1       0.735  35.784  20.748  1.00  0.00    -0.266 OA
ENDBRANCH  30  31
ENDBRANCH  11  30
BRANCH  10  34
HETATM   34  O2  UNL     1       4.104  36.501  24.170  1.00  0.00    -0.388 OA
ATOM     35  H2  UNL     1       4.799  36.820  24.732  1.00  0.00     0.210 HD
ENDBRANCH  10  34
TORSDOF 8
ENDMDL
MODEL 2
REMARK VINA RESULT: -7.844145304      2.392      4.325
REMARK  8 active torsions:
REMARK  status: ('A' for Active; 'I' for Inactive)
REMARK    1  A    between atoms: C2_2  and  C3_3 
REMARK    2  A    between atoms: C3_3  and  C4_4 
REMARK    3  A    between atoms: C4_4  and  O1_5 
REMARK    4  A    between atoms: C13_15  and  O2_16 
REMARK    5  A    between atoms: C14_18  and  O3_19 
REMARK    6  A    between atoms: O3_19  and  C15_20 
REMARK    7  A    between atoms: C20_27  and  C21_28 
REMARK    8  A    between atoms: C26_33  and  C27_34 
ROOT
HETATM    1  C3  UNL     1       1.261  39.053  21.416  1.00  0.00     0.061 C 
HETATM    2  C5  UNL     1       2.309  39.817  20.837  1.00  0.00    -0.162 C 
HETATM    3  C6  UNL     1       2.997  40.825  20.120  1.00  0.00     0.108 C 
HETATM    4  C7  UNL     1       4.133  41.293  21.049  1.00  0.00    -0.012 C 
HETATM    5  C8  UNL     1       4.860  40.536  21.816  1.00  0.00    -0.079 C 
HETATM    6  C9  UNL     1       5.910  41.304  22.630  1.00  0.00     0.068 C 
HETATM    7  C10 UNL     1       5.740  41.100  24.086  1.00  0.00    -0.074 C 
HETATM    8  C11 UNL     1       5.971  42.335  24.862  1.00  0.00     0.044 C 
HETATM    9  C12 UNL     1       5.432  40.070  24.863  1.00  0.00    -0.038 C 
HETATM   10  C13 UNL     1       5.155  39.356  26.133  1.00  0.00     0.192 C 
HETATM   11  C14 UNL     1       5.082  38.048  25.535  1.00  0.00     0.172 C 
HETATM   12  C17 UNL     1       3.974  37.118  25.386  1.00  0.00     0.194 C 
HETATM   13  O5  UNL     1       3.645  36.396  26.360  1.00  0.00    -0.289 OA
HETATM   14  C18 UNL     1       3.218  36.971  24.145  1.00  0.00    -0.005 C 
HETATM   15  C19 UNL     1       2.969  35.744  23.662  1.00  0.00     0.024 C 
HETATM   16  C20 UNL     1       2.757  38.242  23.433  1.00  0.00     0.023 C 
HETATM   17  C23 UNL     1       4.058  38.911  23.330  1.00  0.00     0.019 C 
HETATM   18  C24 UNL     1       4.799  39.074  22.022  1.00  0.00     0.041 C 
HETATM   19  C25 UNL     1       5.185  38.691  24.241  1.00  0.00     0.069 C 
HETATM   20  C26 UNL     1       1.854  37.999  22.328  1.00  0.00     0.090 C 
ENDROOT
BRANCH   1  21
HETATM   21  C2  UNL     1       0.104  39.783  21.880  1.00  0.00    -0.013 C 
HETATM   22  C1  UNL     1       0.130  41.086  22.037  1.00  0.00     0.008 C 
ENDBRANCH   1  21
BRANCH   1  23
HETATM   23  C4  UNL     1       0.660  38.188  20.246  1.00  0.00     0.190 C 
BRANCH  23  24
HETATM   24  O1  UNL     1       1.807  37.601  19.659  1.00  0.00    -0.399 OA
ATOM     25  H1  UNL     1       1.454  36.843  19.210  1.00  0.00     0.209 HD
ENDBRANCH  23  24
ENDBRANCH   1  23
BRANCH  20  26
HETATM   26  C27 UNL     1       0.665  37.144  22.619  1.00  0.00     0.239 C 
HETATM   27  O6  UNL     1       0.340  36.129  22.049  1.00  0.00    -0.306 OA
ENDBRANCH  20  26
BRANCH  16  28
HETATM   28  C21 UNL     1       1.871  38.829  24.503  1.00  0.00    -0.021 C 
HETATM   29  C22 UNL     1       1.857  40.050  24.948  1.00  0.00     0.008 C 
ENDBRANCH  16  28
BRANCH  11  30
HETATM   30  O3  UNL     1       6.263  37.288  25.924  1.00  0.00    -0.298 OA
BRANCH  30  31
HETATM   31  C15 UNL     1       6.944  36.499  25.041  1.00  0.00     0.256 C 
HETATM   32  C16 UNL     1       6.609  35.033  25.011  1.00  0.00     0.126 C 
HETATM   33  O4  UNL     1       7.802  36.992  24.302  1.00  0.00    -0.266 OA
ENDBRANCH  30  31
ENDBRANCH  11  30
BRANCH  10  34
HETATM   34  O2  UNL     1       6.261  39.701  26.950  1.00  0.00    -0.388 OA
ATOM     35  H2  UNL     1       5.996  40.525  27.341  1.00  0.00     0.210 HD
ENDBRANCH  10  34
TORSDOF 8
ENDMDL
MODEL 3
REMARK VINA RESULT: -7.639472293      1.842      4.441
REMARK  8 active torsions:
REMARK  status: ('A' for Active; 'I' for Inactive)
REMARK    1  A    between atoms: C2_2  and  C3_3 
REMARK    2  A    between atoms: C3_3  and  C4_4 
REMARK    3  A    between atoms: C4_4  and  O1_5 
REMARK    4  A    between atoms: C13_15  and  O2_16 
REMARK    5  A    between atoms: C14_18  and  O3_19 
REMARK    6  A    between atoms: O3_19  and  C15_20 
REMARK    7  A    between atoms: C20_27  and  C21_28 
REMARK    8  A    between atoms: C26_33  and  C27_34 
ROOT
HETATM    1  C3  UNL     1       2.983  43.263  22.379  1.00  0.00     0.061 C 
HETATM    2  C5  UNL     1       1.597  42.957  22.354  1.00  0.00    -0.162 C 
HETATM    3  C6  UNL     1       0.224  42.976  22.010  1.00  0.00     0.108 C 
HETATM    4  C7  UNL     1      -0.175  41.501  21.809  1.00  0.00    -0.012 C 
HETATM    5  C8  UNL     1       0.223  40.493  22.526  1.00  0.00    -0.079 C 
HETATM    6  C9  UNL     1      -0.346  39.144  22.069  1.00  0.00     0.068 C 
HETATM    7  C10 UNL     1       0.721  38.181  21.722  1.00  0.00    -0.074 C 
HETATM    8  C11 UNL     1       0.391  37.373  20.530  1.00  0.00     0.044 C 
HETATM    9  C12 UNL     1       1.907  37.865  22.228  1.00  0.00    -0.038 C 
HETATM   10  C13 UNL     1       3.199  37.143  22.326  1.00  0.00     0.192 C 
HETATM   11  C14 UNL     1       3.574  37.718  23.592  1.00  0.00     0.172 C 
HETATM   12  C17 UNL     1       4.656  38.618  23.957  1.00  0.00     0.194 C 
HETATM   13  O5  UNL     1       5.809  38.152  24.131  1.00  0.00    -0.289 OA
HETATM   14  C18 UNL     1       4.469  40.054  24.143  1.00  0.00    -0.005 C 
HETATM   15  C19 UNL     1       4.979  40.654  25.229  1.00  0.00     0.024 C 
HETATM   16  C20 UNL     1       3.671  40.815  23.084  1.00  0.00     0.023 C 
HETATM   17  C23 UNL     1       2.457  39.991  23.101  1.00  0.00     0.019 C 
HETATM   18  C24 UNL     1       1.145  40.468  23.681  1.00  0.00     0.041 C 
HETATM   19  C25 UNL     1       2.413  38.578  23.487  1.00  0.00     0.069 C 
HETATM   20  C26 UNL     1       3.704  42.252  23.247  1.00  0.00     0.090 C 
ENDROOT
BRANCH   1  21
HETATM   21  C2  UNL     1       3.589  43.638  21.122  1.00  0.00    -0.013 C 
HETATM   22  C1  UNL     1       3.028  43.344  19.973  1.00  0.00     0.008 C 
ENDBRANCH   1  21
BRANCH   1  23
HETATM   23  C4  UNL     1       3.117  44.588  23.219  1.00  0.00     0.190 C 
BRANCH  23  24
HETATM   24  O1  UNL     1       2.623  45.578  22.337  1.00  0.00    -0.399 OA
ATOM     25  H1  UNL     1       3.362  46.168  22.240  1.00  0.00     0.209 HD
ENDBRANCH  23  24
ENDBRANCH   1  23
BRANCH  20  26
HETATM   26  C27 UNL     1       5.056  42.874  23.378  1.00  0.00     0.239 C 
HETATM   27  O6  UNL     1       5.992  42.748  22.623  1.00  0.00    -0.306 OA
ENDBRANCH  20  26
BRANCH  16  28
HETATM   28  C21 UNL     1       4.541  40.566  21.878  1.00  0.00    -0.021 C 
HETATM   29  C22 UNL     1       4.183  40.109  20.715  1.00  0.00     0.008 C 
ENDBRANCH  16  28
BRANCH  11  30
HETATM   30  O3  UNL     1       3.471  36.691  24.621  1.00  0.00    -0.298 OA
BRANCH  30  31
HETATM   31  C15 UNL     1       3.280  36.999  25.939  1.00  0.00     0.256 C 
HETATM   32  C16 UNL     1       1.999  37.690  26.317  1.00  0.00     0.126 C 
HETATM   33  O4  UNL     1       4.143  36.710  26.774  1.00  0.00    -0.266 OA
ENDBRANCH  30  31
ENDBRANCH  11  30
BRANCH  10  34
HETATM   34  O2  UNL     1       2.817  35.780  22.252  1.00  0.00    -0.388 OA
ATOM     35  H2  UNL     1       3.642  35.317  22.337  1.00  0.00     0.210 HD
ENDBRANCH  10  34
TORSDOF 8
ENDMDL
MODEL 4
REMARK VINA RESULT: -7.574769619      2.694      5.471
REMARK  8 active torsions:
REMARK  status: ('A' for Active; 'I' for Inactive)
REMARK    1  A    between atoms: C2_2  and  C3_3 
REMARK    2  A    between atoms: C3_3  and  C4_4 
REMARK    3  A    between atoms: C4_4  and  O1_5 
REMARK    4  A    between atoms: C13_15  and  O2_16 
REMARK    5  A    between atoms: C14_18  and  O3_19 
REMARK    6  A    between atoms: O3_19  and  C15_20 
REMARK    7  A    between atoms: C20_27  and  C21_28 
REMARK    8  A    between atoms: C26_33  and  C27_34 
ROOT
HETATM    1  C3  UNL     1       1.852  38.661  21.440  1.00  0.00     0.061 C 
HETATM    2  C5  UNL     1       2.034  37.354  21.963  1.00  0.00    -0.162 C 
HETATM    3  C6  UNL     1       2.199  35.951  22.041  1.00  0.00     0.108 C 
HETATM    4  C7  UNL     1       3.393  35.724  22.989  1.00  0.00    -0.012 C 
HETATM    5  C8  UNL     1       3.651  36.393  24.073  1.00  0.00    -0.079 C 
HETATM    6  C9  UNL     1       4.922  35.933  24.799  1.00  0.00     0.068 C 
HETATM    7  C10 UNL     1       5.904  37.029  24.946  1.00  0.00    -0.074 C 
HETATM    8  C11 UNL     1       7.294  36.577  24.736  1.00  0.00     0.044 C 
HETATM    9  C12 UNL     1       5.835  38.324  25.226  1.00  0.00    -0.038 C 
HETATM   10  C13 UNL     1       6.347  39.695  25.469  1.00  0.00     0.192 C 
HETATM   11  C14 UNL     1       5.077  40.238  25.877  1.00  0.00     0.172 C 
HETATM   12  C17 UNL     1       4.217  41.238  25.265  1.00  0.00     0.194 C 
HETATM   13  O5  UNL     1       4.484  42.456  25.423  1.00  0.00    -0.289 OA
HETATM   14  C18 UNL     1       3.037  40.898  24.474  1.00  0.00    -0.005 C 
HETATM   15  C19 UNL     1       1.878  41.532  24.707  1.00  0.00     0.024 C 
HETATM   16  C20 UNL     1       3.177  39.806  23.415  1.00  0.00     0.023 C 
HETATM   17  C23 UNL     1       3.715  38.745  24.274  1.00  0.00     0.019 C 
HETATM   18  C24 UNL     1       2.916  37.526  24.675  1.00  0.00     0.041 C 
HETATM   19  C25 UNL     1       4.475  38.974  25.505  1.00  0.00     0.069 C 
HETATM   20  C26 UNL     1       2.021  39.675  22.554  1.00  0.00     0.090 C 
ENDROOT
BRANCH   1  21
HETATM   21  C2  UNL     1       2.465  38.942  20.163  1.00  0.00    -0.013 C 
HETATM   22  C1  UNL     1       2.211  38.213  19.102  1.00  0.00     0.008 C 
ENDBRANCH   1  21
BRANCH   1  23
HETATM   23  C4  UNL     1       0.318  38.781  21.105  1.00  0.00     0.190 C 
BRANCH  23  24
HETATM   24  O1  UNL     1      -0.306  38.376  22.309  1.00  0.00    -0.399 OA
ATOM     25  H1  UNL     1      -1.214  38.262  22.053  1.00  0.00     0.209 HD
ENDBRANCH  23  24
ENDBRANCH   1  23
BRANCH  20  26
HETATM   26  C27 UNL     1       1.535  40.928  21.901  1.00  0.00     0.239 C 
HETATM   27  O6  UNL     1       0.437  41.423  22.002  1.00  0.00    -0.306 OA
ENDBRANCH  20  26
BRANCH  16  28
HETATM   28  C21 UNL     1       4.220  40.439  22.529  1.00  0.00    -0.021 C 
HETATM   29  C22 UNL     1       5.263  39.876  21.995  1.00  0.00     0.008 C 
ENDBRANCH  16  28
BRANCH  11  30
HETATM   30  O3  UNL     1       5.114  40.487  27.313  1.00  0.00    -0.298 OA
BRANCH  30  31
HETATM   31  C15 UNL     1       4.010  40.344  28.104  1.00  0.00     0.256 C 
HETATM   32  C16 UNL     1       3.726  38.979  28.668  1.00  0.00     0.126 C 
HETATM   33  O4  UNL     1       3.283  41.315  28.337  1.00  0.00    -0.266 OA
ENDBRANCH  30  31
ENDBRANCH  11  30
BRANCH  10  34
HETATM   34  O2  UNL     1       7.373  39.496  26.426  1.00  0.00    -0.388 OA
ATOM     35  H2  UNL     1       8.152  39.809  25.981  1.00  0.00     0.210 HD
ENDBRANCH  10  34
TORSDOF 8
ENDMDL
MODEL 5
REMARK VINA RESULT: -7.411054732      1.918      4.987
REMARK  8 active torsions:
REMARK  status: ('A' for Active; 'I' for Inactive)
REMARK    1  A    between atoms: C2_2  and  C3_3 
REMARK    2  A    between atoms: C3_3  and  C4_4 
REMARK    3  A    between atoms: C4_4  and  O1_5 
REMARK    4  A    between atoms: C13_15  and  O2_16 
REMARK    5  A    between atoms: C14_18  and  O3_19 
REMARK    6  A    between atoms: O3_19  and  C15_20 
REMARK    7  A    between atoms: C20_27  and  C21_28 
REMARK    8  A    between atoms: C26_33  and  C27_34 
ROOT
HETATM    1  C3  UNL     1       5.239  41.737  23.725  1.00  0.00     0.061 C 
HETATM    2  C5  UNL     1       4.257  42.484  24.428  1.00  0.00    -0.162 C 
HETATM    3  C6  UNL     1       3.551  43.569  24.998  1.00  0.00     0.108 C 
HETATM    4  C7  UNL     1       2.077  43.364  24.595  1.00  0.00    -0.012 C 
HETATM    5  C8  UNL     1       1.445  42.230  24.545  1.00  0.00    -0.079 C 
HETATM    6  C9  UNL     1      -0.017  42.353  24.097  1.00  0.00     0.068 C 
HETATM    7  C10 UNL     1      -0.296  41.551  22.887  1.00  0.00    -0.074 C 
HETATM    8  C11 UNL     1      -1.194  42.244  21.941  1.00  0.00     0.044 C 
HETATM    9  C12 UNL     1       0.066  40.352  22.447  1.00  0.00    -0.038 C 
HETATM   10  C13 UNL     1       0.123  39.204  21.509  1.00  0.00     0.192 C 
HETATM   11  C14 UNL     1       0.847  38.340  22.405  1.00  0.00     0.172 C 
HETATM   12  C17 UNL     1       2.190  37.785  22.331  1.00  0.00     0.194 C 
HETATM   13  O5  UNL     1       2.395  36.772  21.616  1.00  0.00    -0.289 OA
HETATM   14  C18 UNL     1       3.325  38.345  23.059  1.00  0.00    -0.005 C 
HETATM   15  C19 UNL     1       4.136  37.531  23.750  1.00  0.00     0.024 C 
HETATM   16  C20 UNL     1       3.527  39.859  23.013  1.00  0.00     0.023 C 
HETATM   17  C23 UNL     1       2.194  40.265  23.470  1.00  0.00     0.019 C 
HETATM   18  C24 UNL     1       1.938  40.866  24.833  1.00  0.00     0.041 C 
HETATM   19  C25 UNL     1       0.976  39.467  23.306  1.00  0.00     0.069 C 
HETATM   20  C26 UNL     1       4.778  40.300  23.593  1.00  0.00     0.090 C 
ENDROOT
BRANCH   1  21
HETATM   21  C2  UNL     1       5.836  42.370  22.571  1.00  0.00    -0.013 C 
HETATM   22  C1  UNL     1       6.975  43.016  22.653  1.00  0.00     0.008 C 
ENDBRANCH   1  21
BRANCH   1  23
HETATM   23  C4  UNL     1       6.466  41.610  24.704  1.00  0.00     0.190 C 
BRANCH  23  24
HETATM   24  O1  UNL     1       5.882  41.089  25.883  1.00  0.00    -0.399 OA
ATOM     25  H1  UNL     1       6.347  40.270  26.010  1.00  0.00     0.209 HD
ENDBRANCH  23  24
ENDBRANCH   1  23
BRANCH  20  26
HETATM   26  C27 UNL     1       6.014  39.627  23.094  1.00  0.00     0.239 C 
HETATM   27  O6  UNL     1       6.757  38.909  23.722  1.00  0.00    -0.306 OA
ENDBRANCH  20  26
BRANCH  16  28
HETATM   28  C21 UNL     1       3.729  40.047  21.530  1.00  0.00    -0.021 C 
HETATM   29  C22 UNL     1       3.226  40.970  20.766  1.00  0.00     0.008 C 
ENDBRANCH  16  28
BRANCH  11  30
HETATM   30  O3  UNL     1      -0.052  37.293  22.875  1.00  0.00    -0.298 OA
BRANCH  30  31
HETATM   31  C15 UNL     1       0.334  36.366  23.802  1.00  0.00     0.256 C 
HETATM   32  C16 UNL     1       0.172  34.914  23.447  1.00  0.00     0.126 C 
HETATM   33  O4  UNL     1       0.797  36.729  24.887  1.00  0.00    -0.266 OA
ENDBRANCH  30  31
ENDBRANCH  11  30
BRANCH  10  34
HETATM   34  O2  UNL     1      -1.242  38.947  21.226  1.00  0.00    -0.388 OA
ATOM     35  H2  UNL     1      -1.376  38.073  21.572  1.00  0.00     0.210 HD
ENDBRANCH  10  34
TORSDOF 8
ENDMDL
