MODEL 1
REMARK VINA RESULT: -9.603324820      0.000      0.000
REMARK  5 active torsions:
REMARK  status: ('A' for Active; 'I' for Inactive)
REMARK    1  A    between atoms: C4_4  and  C5_5 
REMARK    2  A    between atoms: C5_5  and  C6_6 
REMARK    3  A    between atoms: C6_6  and  C7_8 
REMARK    4  A    between atoms: C7_8  and  O2_9 
REMARK    5  A    between atoms: C27_33  and  O6_34 
ROOT
HETATM    1  C7  UNL     1       1.016  36.331  21.082  1.00  0.00     0.135 C 
HETATM    2  C8  UNL     1      -0.055  37.447  21.399  1.00  0.00     0.048 C 
HETATM    3  C9  UNL     1      -0.071  38.547  20.431  1.00  0.00     0.017 C 
HETATM    4  C10 UNL     1       0.207  37.839  22.846  1.00  0.00    -0.000 C 
HETATM    5  C11 UNL     1       1.480  38.152  22.949  1.00  0.00     0.054 C 
HETATM    6  C12 UNL     1       2.315  38.129  21.783  1.00  0.00     0.170 C 
HETATM    7  O3  UNL     1       2.893  38.897  21.022  1.00  0.00    -0.292 OA
HETATM    8  C13 UNL     1       2.391  36.589  21.575  1.00  0.00     0.104 C 
HETATM    9  C14 UNL     1       3.021  36.100  22.785  1.00  0.00     0.036 C 
HETATM   10  C15 UNL     1       3.212  36.813  24.093  1.00  0.00     0.058 C 
HETATM   11  C16 UNL     1       2.144  37.934  24.254  1.00  0.00     0.174 C 
HETATM   12  O4  UNL     1       1.824  38.565  25.213  1.00  0.00    -0.291 OA
HETATM   13  C17 UNL     1       4.505  37.404  24.455  1.00  0.00     0.008 C 
HETATM   14  C18 UNL     1       4.850  38.753  23.931  1.00  0.00     0.012 C 
HETATM   15  C19 UNL     1       5.643  36.432  24.413  1.00  0.00     0.036 C 
HETATM   16  C20 UNL     1       6.922  36.860  25.017  1.00  0.00    -0.041 C 
HETATM   17  C21 UNL     1       7.800  37.646  24.033  1.00  0.00     0.015 C 
HETATM   18  C22 UNL     1       6.905  37.516  26.334  1.00  0.00     0.015 C 
HETATM   19  C23 UNL     1       7.640  35.509  25.192  1.00  0.00     0.012 C 
HETATM   20  C24 UNL     1       6.556  34.443  25.123  1.00  0.00     0.042 C 
HETATM   21  C25 UNL     1       5.291  35.239  25.267  1.00  0.00     0.095 A 
HETATM   22  O5  UNL     1       4.923  35.405  26.596  1.00  0.00    -0.366 OA
HETATM   23  C26 UNL     1       4.021  34.893  25.507  1.00  0.00     0.187 A 
HETATM   24  C27 UNL     1       2.900  35.822  25.248  1.00  0.00     0.166 C 
ENDROOT
BRANCH  24  25
HETATM   25  O6  UNL     1       2.610  36.550  26.403  1.00  0.00    -0.392 OA
ATOM     26  H6  UNL     1       1.797  37.024  26.273  1.00  0.00     0.210 HD
ENDBRANCH  24  25
BRANCH   1  27
HETATM   27  C6  UNL     1       0.457  35.010  21.363  1.00  0.00     0.166 C 
HETATM   28  O1  UNL     1      -0.397  34.576  20.628  1.00  0.00    -0.294 OA
BRANCH  27  29
HETATM   29  C5  UNL     1       0.891  34.189  22.502  1.00  0.00     0.109 C 
BRANCH  29  30
HETATM   30  C4  UNL     1      -0.238  33.761  23.371  1.00  0.00    -0.017 C 
HETATM   31  C2  UNL     1      -0.032  32.816  24.274  1.00  0.00    -0.091 C 
HETATM   32  C1  UNL     1      -1.147  32.376  25.151  1.00  0.00     0.042 C 
HETATM   33  C3  UNL     1       1.315  32.180  24.428  1.00  0.00     0.042 C 
ENDBRANCH  29  30
ENDBRANCH  27  29
ENDBRANCH   1  27
BRANCH   1  34
HETATM   34  O2  UNL     1       1.014  36.418  19.680  1.00  0.00    -0.381 OA
ATOM     35  H2  UNL     1       1.483  37.222  19.494  1.00  0.00     0.211 HD
ENDBRANCH   1  34
TORSDOF 5
ENDMDL
MODEL 2
REMARK VINA RESULT: -9.542313654      2.422      4.184
REMARK  5 active torsions:
REMARK  status: ('A' for Active; 'I' for Inactive)
REMARK    1  A    between atoms: C4_4  and  C5_5 
REMARK    2  A    between atoms: C5_5  and  C6_6 
REMARK    3  A    between atoms: C6_6  and  C7_8 
REMARK    4  A    between atoms: C7_8  and  O2_9 
REMARK    5  A    between atoms: C27_33  and  O6_34 
ROOT
HETATM    1  C7  UNL     1       3.694  40.355  22.325  1.00  0.00     0.135 C 
HETATM    2  C8  UNL     1       4.273  41.765  22.733  1.00  0.00     0.048 C 
HETATM    3  C9  UNL     1       5.216  42.325  21.761  1.00  0.00     0.017 C 
HETATM    4  C10 UNL     1       4.810  41.573  24.144  1.00  0.00    -0.000 C 
HETATM    5  C11 UNL     1       5.633  40.547  24.120  1.00  0.00     0.054 C 
HETATM    6  C12 UNL     1       5.903  39.882  22.879  1.00  0.00     0.170 C 
HETATM    7  O3  UNL     1       6.803  39.747  22.057  1.00  0.00    -0.292 OA
HETATM    8  C13 UNL     1       4.528  39.180  22.680  1.00  0.00     0.104 C 
HETATM    9  C14 UNL     1       4.409  38.304  23.827  1.00  0.00     0.036 C 
HETATM   10  C15 UNL     1       5.200  38.323  25.103  1.00  0.00     0.058 C 
HETATM   11  C16 UNL     1       5.778  39.746  25.357  1.00  0.00     0.174 C 
HETATM   12  O4  UNL     1       6.265  40.220  26.336  1.00  0.00    -0.291 OA
HETATM   13  C17 UNL     1       6.297  37.374  25.332  1.00  0.00     0.008 C 
HETATM   14  C18 UNL     1       7.638  37.675  24.764  1.00  0.00     0.012 C 
HETATM   15  C19 UNL     1       5.889  35.940  25.190  1.00  0.00     0.036 C 
HETATM   16  C20 UNL     1       6.843  34.915  25.663  1.00  0.00    -0.041 C 
HETATM   17  C21 UNL     1       7.874  34.536  24.590  1.00  0.00     0.015 C 
HETATM   18  C22 UNL     1       7.497  35.097  26.967  1.00  0.00     0.015 C 
HETATM   19  C23 UNL     1       5.928  33.683  25.780  1.00  0.00     0.012 C 
HETATM   20  C24 UNL     1       4.503  34.218  25.827  1.00  0.00     0.042 C 
HETATM   21  C25 UNL     1       4.703  35.684  26.085  1.00  0.00     0.095 A 
HETATM   22  O5  UNL     1       4.766  35.974  27.443  1.00  0.00    -0.366 OA
HETATM   23  C26 UNL     1       3.869  36.663  26.452  1.00  0.00     0.187 A 
HETATM   24  C27 UNL     1       4.229  38.090  26.293  1.00  0.00     0.166 C 
ENDROOT
BRANCH  24  25
HETATM   25  O6  UNL     1       4.825  38.561  27.463  1.00  0.00    -0.392 OA
ATOM     26  H6  UNL     1       4.179  39.043  27.966  1.00  0.00     0.210 HD
ENDBRANCH  24  25
BRANCH   1  27
HETATM   27  C6  UNL     1       2.276  40.279  22.673  1.00  0.00     0.166 C 
HETATM   28  O1  UNL     1       1.870  40.950  23.591  1.00  0.00    -0.294 OA
BRANCH  27  29
HETATM   29  C5  UNL     1       1.325  39.422  21.950  1.00  0.00     0.109 C 
BRANCH  29  30
HETATM   30  C4  UNL     1       0.723  38.370  22.813  1.00  0.00    -0.017 C 
HETATM   31  C2  UNL     1       1.021  37.102  22.583  1.00  0.00    -0.091 C 
HETATM   32  C1  UNL     1       0.430  36.037  23.433  1.00  0.00     0.042 C 
HETATM   33  C3  UNL     1       1.951  36.720  21.472  1.00  0.00     0.042 C 
ENDBRANCH  29  30
ENDBRANCH  27  29
ENDBRANCH   1  27
BRANCH   1  34
HETATM   34  O2  UNL     1       3.701  40.511  20.929  1.00  0.00    -0.381 OA
ATOM     35  H2  UNL     1       3.983  41.408  20.795  1.00  0.00     0.211 HD
ENDBRANCH   1  34
TORSDOF 5
ENDMDL
MODEL 3
REMARK VINA RESULT: -9.251513314      3.220      5.166
REMARK  5 active torsions:
REMARK  status: ('A' for Active; 'I' for Inactive)
REMARK    1  A    between atoms: C4_4  and  C5_5 
REMARK    2  A    between atoms: C5_5  and  C6_6 
REMARK    3  A    between atoms: C6_6  and  C7_8 
REMARK    4  A    between atoms: C7_8  and  O2_9 
REMARK    5  A    between atoms: C27_33  and  O6_34 
ROOT
HETATM    1  C7  UNL     1       3.650  40.375  22.390  1.00  0.00     0.135 C 
HETATM    2  C8  UNL     1       4.216  41.791  22.797  1.00  0.00     0.048 C 
HETATM    3  C9  UNL     1       5.146  42.363  21.819  1.00  0.00     0.017 C 
HETATM    4  C10 UNL     1       4.765  41.602  24.204  1.00  0.00    -0.000 C 
HETATM    5  C11 UNL     1       5.599  40.585  24.172  1.00  0.00     0.054 C 
HETATM    6  C12 UNL     1       5.868  39.925  22.927  1.00  0.00     0.170 C 
HETATM    7  O3  UNL     1       6.763  39.802  22.099  1.00  0.00    -0.292 OA
HETATM    8  C13 UNL     1       4.499  39.209  22.736  1.00  0.00     0.104 C 
HETATM    9  C14 UNL     1       4.398  38.329  23.883  1.00  0.00     0.036 C 
HETATM   10  C15 UNL     1       5.198  38.354  25.153  1.00  0.00     0.058 C 
HETATM   11  C16 UNL     1       5.761  39.782  25.405  1.00  0.00     0.174 C 
HETATM   12  O4  UNL     1       6.250  40.260  26.382  1.00  0.00    -0.291 OA
HETATM   13  C17 UNL     1       6.306  37.417  25.373  1.00  0.00     0.008 C 
HETATM   14  C18 UNL     1       7.640  37.734  24.795  1.00  0.00     0.012 C 
HETATM   15  C19 UNL     1       5.913  35.979  25.230  1.00  0.00     0.036 C 
HETATM   16  C20 UNL     1       6.882  34.964  25.694  1.00  0.00    -0.041 C 
HETATM   17  C21 UNL     1       7.910  34.598  24.613  1.00  0.00     0.015 C 
HETATM   18  C22 UNL     1       7.543  35.149  26.994  1.00  0.00     0.015 C 
HETATM   19  C23 UNL     1       5.981  33.721  25.815  1.00  0.00     0.012 C 
HETATM   20  C24 UNL     1       4.551  34.240  25.874  1.00  0.00     0.042 C 
HETATM   21  C25 UNL     1       4.737  35.708  26.133  1.00  0.00     0.095 A 
HETATM   22  O5  UNL     1       4.806  35.996  27.491  1.00  0.00    -0.366 OA
HETATM   23  C26 UNL     1       3.895  36.677  26.508  1.00  0.00     0.187 A 
HETATM   24  C27 UNL     1       4.238  38.108  26.350  1.00  0.00     0.166 C 
ENDROOT
BRANCH  24  25
HETATM   25  O6  UNL     1       4.837  38.584  27.516  1.00  0.00    -0.392 OA
ATOM     26  H6  UNL     1       4.159  38.881  28.112  1.00  0.00     0.210 HD
ENDBRANCH  24  25
BRANCH   1  27
HETATM   27  C6  UNL     1       2.235  40.283  22.747  1.00  0.00     0.166 C 
HETATM   28  O1  UNL     1       1.937  40.224  23.916  1.00  0.00    -0.294 OA
BRANCH  27  29
HETATM   29  C5  UNL     1       1.161  40.259  21.744  1.00  0.00     0.109 C 
BRANCH  29  30
HETATM   30  C4  UNL     1      -0.082  40.930  22.209  1.00  0.00    -0.017 C 
HETATM   31  C2  UNL     1      -0.278  42.202  21.904  1.00  0.00    -0.091 C 
HETATM   32  C1  UNL     1      -1.513  42.890  22.360  1.00  0.00     0.042 C 
HETATM   33  C3  UNL     1       0.731  42.965  21.102  1.00  0.00     0.042 C 
ENDBRANCH  29  30
ENDBRANCH  27  29
ENDBRANCH   1  27
BRANCH   1  34
HETATM   34  O2  UNL     1       3.645  40.534  20.995  1.00  0.00    -0.381 OA
ATOM     35  H2  UNL     1       4.487  40.194  20.717  1.00  0.00     0.211 HD
ENDBRANCH   1  34
TORSDOF 5
ENDMDL
MODEL 4
REMARK VINA RESULT: -9.213385593      2.231      3.689
REMARK  5 active torsions:
REMARK  status: ('A' for Active; 'I' for Inactive)
REMARK    1  A    between atoms: C4_4  and  C5_5 
REMARK    2  A    between atoms: C5_5  and  C6_6 
REMARK    3  A    between atoms: C6_6  and  C7_8 
REMARK    4  A    between atoms: C7_8  and  O2_9 
REMARK    5  A    between atoms: C27_33  and  O6_34 
ROOT
HETATM    1  C7  UNL     1       2.986  40.355  21.215  1.00  0.00     0.135 C 
HETATM    2  C8  UNL     1       3.010  41.804  21.839  1.00  0.00     0.048 C 
HETATM    3  C9  UNL     1       4.057  42.671  21.291  1.00  0.00     0.017 C 
HETATM    4  C10 UNL     1       3.054  41.580  23.344  1.00  0.00    -0.000 C 
HETATM    5  C11 UNL     1       4.066  40.778  23.597  1.00  0.00     0.054 C 
HETATM    6  C12 UNL     1       4.910  40.337  22.523  1.00  0.00     0.170 C 
HETATM    7  O3  UNL     1       6.041  40.505  22.084  1.00  0.00    -0.292 OA
HETATM    8  C13 UNL     1       3.915  39.369  21.821  1.00  0.00     0.104 C 
HETATM    9  C14 UNL     1       3.631  38.364  22.825  1.00  0.00     0.036 C 
HETATM   10  C15 UNL     1       3.898  38.416  24.301  1.00  0.00     0.058 C 
HETATM   11  C16 UNL     1       3.971  39.895  24.781  1.00  0.00     0.174 C 
HETATM   12  O4  UNL     1       3.951  40.353  25.882  1.00  0.00    -0.291 OA
HETATM   13  C17 UNL     1       5.049  37.723  24.891  1.00  0.00     0.008 C 
HETATM   14  C18 UNL     1       6.381  38.384  24.858  1.00  0.00     0.012 C 
HETATM   15  C19 UNL     1       5.094  36.259  24.576  1.00  0.00     0.036 C 
HETATM   16  C20 UNL     1       6.052  35.432  25.340  1.00  0.00    -0.041 C 
HETATM   17  C21 UNL     1       7.451  35.422  24.707  1.00  0.00     0.015 C 
HETATM   18  C22 UNL     1       6.143  35.607  26.797  1.00  0.00     0.015 C 
HETATM   19  C23 UNL     1       5.496  34.018  25.086  1.00  0.00     0.012 C 
HETATM   20  C24 UNL     1       4.058  34.206  24.624  1.00  0.00     0.042 C 
HETATM   21  C25 UNL     1       3.777  35.639  24.971  1.00  0.00     0.095 A 
HETATM   22  O5  UNL     1       3.290  35.780  26.265  1.00  0.00    -0.366 OA
HETATM   23  C26 UNL     1       2.649  36.355  25.032  1.00  0.00     0.187 A 
HETATM   24  C27 UNL     1       2.667  37.834  25.050  1.00  0.00     0.166 C 
ENDROOT
BRANCH  24  25
HETATM   25  O6  UNL     1       2.680  38.293  26.367  1.00  0.00    -0.392 OA
ATOM     26  H6  UNL     1       2.009  38.958  26.469  1.00  0.00     0.210 HD
ENDBRANCH  24  25
BRANCH   1  27
HETATM   27  C6  UNL     1       1.605  39.919  21.019  1.00  0.00     0.166 C 
HETATM   28  O1  UNL     1       0.724  40.522  21.584  1.00  0.00    -0.294 OA
BRANCH  27  29
HETATM   29  C5  UNL     1       1.244  38.779  20.165  1.00  0.00     0.109 C 
BRANCH  29  30
HETATM   30  C4  UNL     1       0.605  37.668  20.921  1.00  0.00    -0.017 C 
HETATM   31  C2  UNL     1       1.172  36.473  20.908  1.00  0.00    -0.091 C 
HETATM   32  C1  UNL     1       0.549  35.351  21.657  1.00  0.00     0.042 C 
HETATM   33  C3  UNL     1       2.438  36.230  20.147  1.00  0.00     0.042 C 
ENDBRANCH  29  30
ENDBRANCH  27  29
ENDBRANCH   1  27
BRANCH   1  34
HETATM   34  O2  UNL     1       3.438  40.667  19.922  1.00  0.00    -0.381 OA
ATOM     35  H2  UNL     1       3.836  39.862  19.612  1.00  0.00     0.211 HD
ENDBRANCH   1  34
TORSDOF 5
ENDMDL
MODEL 5
REMARK VINA RESULT: -9.213027895      2.500      6.779
REMARK  5 active torsions:
REMARK  status: ('A' for Active; 'I' for Inactive)
REMARK    1  A    between atoms: C4_4  and  C5_5 
REMARK    2  A    between atoms: C5_5  and  C6_6 
REMARK    3  A    between atoms: C6_6  and  C7_8 
REMARK    4  A    between atoms: C7_8  and  O2_9 
REMARK    5  A    between atoms: C27_33  and  O6_34 
ROOT
HETATM    1  C7  UNL     1       4.937  38.522  26.183  1.00  0.00     0.135 C 
HETATM    2  C8  UNL     1       4.353  39.685  27.076  1.00  0.00     0.048 C 
HETATM    3  C9  UNL     1       3.596  39.218  28.241  1.00  0.00     0.017 C 
HETATM    4  C10 UNL     1       3.594  40.578  26.106  1.00  0.00    -0.000 C 
HETATM    5  C11 UNL     1       2.748  39.819  25.444  1.00  0.00     0.054 C 
HETATM    6  C12 UNL     1       2.652  38.422  25.757  1.00  0.00     0.170 C 
HETATM    7  O3  UNL     1       1.888  37.625  26.290  1.00  0.00    -0.292 OA
HETATM    8  C13 UNL     1       4.015  37.952  25.170  1.00  0.00     0.104 C 
HETATM    9  C14 UNL     1       3.920  38.268  23.760  1.00  0.00     0.036 C 
HETATM   10  C15 UNL     1       2.939  39.171  23.068  1.00  0.00     0.058 C 
HETATM   11  C16 UNL     1       2.382  40.225  24.068  1.00  0.00     0.174 C 
HETATM   12  O4  UNL     1       1.765  41.226  23.874  1.00  0.00    -0.291 OA
HETATM   13  C17 UNL     1       1.786  38.627  22.341  1.00  0.00     0.008 C 
HETATM   14  C18 UNL     1       0.563  38.260  23.104  1.00  0.00     0.012 C 
HETATM   15  C19 UNL     1       2.158  37.633  21.284  1.00  0.00     0.036 C 
HETATM   16  C20 UNL     1       1.104  37.238  20.326  1.00  0.00    -0.041 C 
HETATM   17  C21 UNL     1       0.242  36.081  20.849  1.00  0.00     0.015 C 
HETATM   18  C22 UNL     1       0.261  38.281  19.722  1.00  0.00     0.015 C 
HETATM   19  C23 UNL     1       1.944  36.621  19.192  1.00  0.00     0.012 C 
HETATM   20  C24 UNL     1       3.362  37.140  19.386  1.00  0.00     0.042 C 
HETATM   21  C25 UNL     1       3.179  38.261  20.368  1.00  0.00     0.095 A 
HETATM   22  O5  UNL     1       2.914  39.471  19.738  1.00  0.00    -0.366 OA
HETATM   23  C26 UNL     1       3.980  39.251  20.776  1.00  0.00     0.187 A 
HETATM   24  C27 UNL     1       3.702  40.017  22.012  1.00  0.00     0.166 C 
ENDROOT
BRANCH  24  25
HETATM   25  O6  UNL     1       2.947  41.150  21.708  1.00  0.00    -0.392 OA
ATOM     26  H6  UNL     1       2.118  40.877  21.333  1.00  0.00     0.210 HD
ENDBRANCH  24  25
BRANCH   1  27
HETATM   27  C6  UNL     1       6.279  38.873  25.722  1.00  0.00     0.166 C 
HETATM   28  O1  UNL     1       6.821  39.838  26.205  1.00  0.00    -0.294 OA
BRANCH  27  29
HETATM   29  C5  UNL     1       6.995  38.101  24.697  1.00  0.00     0.109 C 
BRANCH  29  30
HETATM   30  C4  UNL     1       7.952  37.120  25.274  1.00  0.00    -0.017 C 
HETATM   31  C2  UNL     1       7.639  35.835  25.263  1.00  0.00    -0.091 C 
HETATM   32  C1  UNL     1       8.583  34.839  25.835  1.00  0.00     0.042 C 
HETATM   33  C3  UNL     1       6.342  35.364  24.682  1.00  0.00     0.042 C 
ENDBRANCH  29  30
ENDBRANCH  27  29
ENDBRANCH   1  27
BRANCH   1  34
HETATM   34  O2  UNL     1       5.155  37.564  27.187  1.00  0.00    -0.381 OA
ATOM     35  H2  UNL     1       4.789  37.957  27.970  1.00  0.00     0.211 HD
ENDBRANCH   1  34
TORSDOF 5
ENDMDL
