MODEL 1
REMARK VINA RESULT: -8.514142126      0.000      0.000
REMARK  8 active torsions:
REMARK  status: ('A' for Active; 'I' for Inactive)
REMARK    1  A    between atoms: C4_4  and  C5_5 
REMARK    2  A    between atoms: C12_13  and  C13_14 
REMARK    3  A    between atoms: C13_14  and  O2_15 
REMARK    4  A    between atoms: C17_21  and  O4_22 
REMARK    5  A    between atoms: C18_24  and  O5_25 
REMARK    6  A    between atoms: O5_25  and  C19_26 
REMARK    7  A    between atoms: C19_26  and  C20_28 
REMARK    8  A    between atoms: C20_28  and  C21_29 
ROOT
HETATM    1  C1  UNL     1       0.002  33.949  22.308  1.00  0.00     0.017 C 
HETATM    2  C2  UNL     1       0.225  34.754  21.431  1.00  0.00    -0.090 C 
HETATM    3  C3  UNL     1       0.484  35.698  20.373  1.00  0.00     0.060 C 
HETATM    4  C4  UNL     1       0.994  36.898  20.591  1.00  0.00    -0.009 C 
ENDROOT
BRANCH   4   5
HETATM    5  C5  UNL     1       1.323  37.308  22.007  1.00  0.00     0.044 C 
HETATM    6  C6  UNL     1       2.800  37.077  22.077  1.00  0.00    -0.020 C 
HETATM    7  C7  UNL     1       3.715  38.050  22.371  1.00  0.00    -0.013 C 
HETATM    8  C8  UNL     1       3.065  39.288  22.594  1.00  0.00     0.042 C 
HETATM    9  C9  UNL     1       3.578  40.613  22.674  1.00  0.00    -0.025 C 
HETATM   10  C12 UNL     1       2.319  39.068  23.893  1.00  0.00     0.100 C 
HETATM   11  C17 UNL     1       2.096  39.379  21.400  1.00  0.00     0.147 C 
HETATM   12  C10 UNL     1       2.555  41.456  22.959  1.00  0.00     0.080 C 
HETATM   13  C25 UNL     1       4.893  41.193  22.519  1.00  0.00    -0.021 C 
HETATM   14  O1  UNL     1       1.252  40.902  23.111  1.00  0.00    -0.346 OA
HETATM   15  C18 UNL     1       2.793  42.926  23.111  1.00  0.00     0.188 C 
HETATM   16  C11 UNL     1       1.024  39.490  23.381  1.00  0.00     0.151 C 
HETATM   17  C15 UNL     1       0.922  38.742  22.062  1.00  0.00     0.021 C 
HETATM   18  C16 UNL     1      -0.390  39.040  21.440  1.00  0.00     0.022 C 
HETATM   19  C23 UNL     1       3.768  43.411  22.098  1.00  0.00     0.040 C 
HETATM   20  C24 UNL     1       4.849  42.465  21.718  1.00  0.00     0.016 C 
HETATM   21  C26 UNL     1       5.584  41.503  23.835  1.00  0.00     0.019 C 
HETATM   22  C27 UNL     1       5.857  40.265  21.770  1.00  0.00     0.019 C 
BRANCH  15  23
HETATM   23  O5  UNL     1       1.550  43.582  22.857  1.00  0.00    -0.309 OA
BRANCH  23  24
HETATM   24  C19 UNL     1       1.337  44.358  21.728  1.00  0.00     0.259 C 
HETATM   25  O6  UNL     1       1.632  45.578  21.766  1.00  0.00    -0.265 OA
BRANCH  24  26
HETATM   26  C20 UNL     1       0.762  43.733  20.494  1.00  0.00     0.111 C 
BRANCH  26  27
HETATM   27  C21 UNL     1      -0.492  44.434  20.066  1.00  0.00     0.005 C 
HETATM   28  C22 UNL     1      -1.592  44.061  21.037  1.00  0.00     0.005 C 
ENDBRANCH  26  27
ENDBRANCH  24  26
ENDBRANCH  23  24
ENDBRANCH  15  23
BRANCH  10  29
HETATM   29  C13 UNL     1       2.546  37.863  24.669  1.00  0.00     0.191 A 
HETATM   30  C14 UNL     1       1.520  36.995  25.308  1.00  0.00     0.240 A 
HETATM   31  O3  UNL     1       1.861  38.063  26.027  1.00  0.00    -0.347 OA
BRANCH  29  32
HETATM   32  O2  UNL     1       3.884  37.783  25.175  1.00  0.00    -0.363 OA
ATOM     33  H2  UNL     1       3.935  37.988  26.101  1.00  0.00     0.213 HD
ENDBRANCH  29  32
ENDBRANCH  10  29
BRANCH  11  34
HETATM   34  O4  UNL     1       1.893  40.569  20.812  1.00  0.00    -0.393 OA
ATOM     35  H4  UNL     1       2.643  41.112  20.598  1.00  0.00     0.210 HD
ENDBRANCH  11  34
ENDBRANCH   4   5
TORSDOF 8
ENDMDL
MODEL 2
REMARK VINA RESULT: -8.265024682      1.043      1.270
REMARK  8 active torsions:
REMARK  status: ('A' for Active; 'I' for Inactive)
REMARK    1  A    between atoms: C4_4  and  C5_5 
REMARK    2  A    between atoms: C12_13  and  C13_14 
REMARK    3  A    between atoms: C13_14  and  O2_15 
REMARK    4  A    between atoms: C17_21  and  O4_22 
REMARK    5  A    between atoms: C18_24  and  O5_25 
REMARK    6  A    between atoms: O5_25  and  C19_26 
REMARK    7  A    between atoms: C19_26  and  C20_28 
REMARK    8  A    between atoms: C20_28  and  C21_29 
ROOT
HETATM    1  C1  UNL     1       0.216  34.236  22.447  1.00  0.00     0.017 C 
HETATM    2  C2  UNL     1       0.405  35.029  21.552  1.00  0.00    -0.090 C 
HETATM    3  C3  UNL     1       0.623  35.960  20.473  1.00  0.00     0.060 C 
HETATM    4  C4  UNL     1       1.094  37.181  20.662  1.00  0.00    -0.009 C 
ENDROOT
BRANCH   4   5
HETATM    5  C5  UNL     1       1.422  37.631  22.067  1.00  0.00     0.044 C 
HETATM    6  C6  UNL     1       2.912  37.506  22.109  1.00  0.00    -0.020 C 
HETATM    7  C7  UNL     1       3.761  38.545  22.372  1.00  0.00    -0.013 C 
HETATM    8  C8  UNL     1       3.029  39.736  22.596  1.00  0.00     0.042 C 
HETATM    9  C9  UNL     1       3.448  41.095  22.651  1.00  0.00    -0.025 C 
HETATM   10  C12 UNL     1       2.326  39.479  23.912  1.00  0.00     0.100 C 
HETATM   11  C17 UNL     1       2.032  39.743  21.422  1.00  0.00     0.147 C 
HETATM   12  C10 UNL     1       2.373  41.867  22.949  1.00  0.00     0.080 C 
HETATM   13  C25 UNL     1       4.715  41.765  22.463  1.00  0.00    -0.021 C 
HETATM   14  O1  UNL     1       1.116  41.223  23.133  1.00  0.00    -0.346 OA
HETATM   15  C18 UNL     1       2.508  43.351  23.080  1.00  0.00     0.188 C 
HETATM   16  C11 UNL     1       0.995  39.802  23.423  1.00  0.00     0.151 C 
HETATM   17  C15 UNL     1       0.920  39.033  22.114  1.00  0.00     0.021 C 
HETATM   18  C16 UNL     1      -0.421  39.229  21.516  1.00  0.00     0.022 C 
HETATM   19  C23 UNL     1       3.426  43.892  22.041  1.00  0.00     0.040 C 
HETATM   20  C24 UNL     1       4.564  43.021  21.650  1.00  0.00     0.016 C 
HETATM   21  C26 UNL     1       5.408  42.139  23.761  1.00  0.00     0.019 C 
HETATM   22  C27 UNL     1       5.728  40.899  21.704  1.00  0.00     0.019 C 
BRANCH  15  23
HETATM   23  O5  UNL     1       1.217  43.914  22.844  1.00  0.00    -0.309 OA
BRANCH  23  24
HETATM   24  C19 UNL     1       0.520  44.610  23.820  1.00  0.00     0.259 C 
HETATM   25  O6  UNL     1       1.160  45.139  24.763  1.00  0.00    -0.265 OA
BRANCH  24  26
HETATM   26  C20 UNL     1      -0.972  44.717  23.734  1.00  0.00     0.111 C 
BRANCH  26  27
HETATM   27  C21 UNL     1      -1.610  43.361  23.701  1.00  0.00     0.005 C 
HETATM   28  C22 UNL     1      -2.143  43.128  22.303  1.00  0.00     0.005 C 
ENDBRANCH  26  27
ENDBRANCH  24  26
ENDBRANCH  23  24
ENDBRANCH  15  23
BRANCH  10  29
HETATM   29  C13 UNL     1       2.654  38.303  24.696  1.00  0.00     0.191 A 
HETATM   30  C14 UNL     1       1.709  37.403  25.412  1.00  0.00     0.240 A 
HETATM   31  O3  UNL     1       2.042  38.502  26.089  1.00  0.00    -0.347 OA
BRANCH  29  32
HETATM   32  O2  UNL     1       4.022  38.294  25.123  1.00  0.00    -0.363 OA
ATOM     33  H2  UNL     1       4.158  37.759  25.896  1.00  0.00     0.213 HD
ENDBRANCH  29  32
ENDBRANCH  10  29
BRANCH  11  34
HETATM   34  O4  UNL     1       1.734  40.908  20.825  1.00  0.00    -0.393 OA
ATOM     35  H4  UNL     1       2.169  41.136  20.012  1.00  0.00     0.210 HD
ENDBRANCH  11  34
ENDBRANCH   4   5
TORSDOF 8
ENDMDL
MODEL 3
REMARK VINA RESULT: -8.226274175      3.725      8.060
REMARK  8 active torsions:
REMARK  status: ('A' for Active; 'I' for Inactive)
REMARK    1  A    between atoms: C4_4  and  C5_5 
REMARK    2  A    between atoms: C12_13  and  C13_14 
REMARK    3  A    between atoms: C13_14  and  O2_15 
REMARK    4  A    between atoms: C17_21  and  O4_22 
REMARK    5  A    between atoms: C18_24  and  O5_25 
REMARK    6  A    between atoms: O5_25  and  C19_26 
REMARK    7  A    between atoms: C19_26  and  C20_28 
REMARK    8  A    between atoms: C20_28  and  C21_29 
ROOT
HETATM    1  C1  UNL     1       8.375  39.788  26.700  1.00  0.00     0.017 C 
HETATM    2  C2  UNL     1       8.314  38.835  25.955  1.00  0.00    -0.090 C 
HETATM    3  C3  UNL     1       8.261  37.702  25.065  1.00  0.00     0.060 C 
HETATM    4  C4  UNL     1       7.135  37.076  24.767  1.00  0.00    -0.009 C 
ENDROOT
BRANCH   4   5
HETATM    5  C5  UNL     1       5.842  37.560  25.380  1.00  0.00     0.044 C 
HETATM    6  C6  UNL     1       5.343  38.533  24.358  1.00  0.00    -0.020 C 
HETATM    7  C7  UNL     1       4.137  38.425  23.721  1.00  0.00    -0.013 C 
HETATM    8  C8  UNL     1       3.446  37.272  24.167  1.00  0.00     0.042 C 
HETATM    9  C9  UNL     1       2.306  36.603  23.639  1.00  0.00    -0.025 C 
HETATM   10  C12 UNL     1       3.086  37.606  25.600  1.00  0.00     0.100 C 
HETATM   11  C17 UNL     1       4.531  36.182  24.102  1.00  0.00     0.147 C 
HETATM   12  C10 UNL     1       1.990  35.572  24.463  1.00  0.00     0.080 C 
HETATM   13  C25 UNL     1       1.476  36.798  22.472  1.00  0.00    -0.021 C 
HETATM   14  O1  UNL     1       2.800  35.363  25.616  1.00  0.00    -0.346 OA
HETATM   15  C18 UNL     1       0.823  34.684  24.166  1.00  0.00     0.188 C 
HETATM   16  C11 UNL     1       3.661  36.397  26.171  1.00  0.00     0.151 C 
HETATM   17  C15 UNL     1       5.023  36.322  25.501  1.00  0.00     0.021 C 
HETATM   18  C16 UNL     1       5.755  35.148  26.032  1.00  0.00     0.022 C 
HETATM   19  C23 UNL     1       0.733  34.399  22.708  1.00  0.00     0.040 C 
HETATM   20  C24 UNL     1       1.153  35.494  21.796  1.00  0.00     0.016 C 
HETATM   21  C26 UNL     1       0.163  37.502  22.765  1.00  0.00     0.019 C 
HETATM   22  C27 UNL     1       2.162  37.659  21.404  1.00  0.00     0.019 C 
BRANCH  15  23
HETATM   23  O5  UNL     1       1.060  33.442  24.830  1.00  0.00    -0.309 OA
BRANCH  23  24
HETATM   24  C19 UNL     1       0.033  32.580  25.183  1.00  0.00     0.259 C 
HETATM   25  O6  UNL     1      -1.155  32.965  25.052  1.00  0.00    -0.265 OA
BRANCH  24  26
HETATM   26  C20 UNL     1       0.357  31.216  25.712  1.00  0.00     0.111 C 
BRANCH  26  27
HETATM   27  C21 UNL     1       1.839  31.020  25.828  1.00  0.00     0.005 C 
HETATM   28  C22 UNL     1       2.271  30.063  24.737  1.00  0.00     0.005 C 
ENDBRANCH  26  27
ENDBRANCH  24  26
ENDBRANCH  23  24
ENDBRANCH  15  23
BRANCH  10  29
HETATM   29  C13 UNL     1       3.306  38.946  26.113  1.00  0.00     0.191 A 
HETATM   30  C14 UNL     1       4.092  39.333  27.316  1.00  0.00     0.240 A 
HETATM   31  O3  UNL     1       2.842  38.953  27.575  1.00  0.00    -0.347 OA
BRANCH  29  32
HETATM   32  O2  UNL     1       2.334  39.882  25.632  1.00  0.00    -0.363 OA
ATOM     33  H2  UNL     1       1.606  39.990  26.232  1.00  0.00     0.213 HD
ENDBRANCH  29  32
ENDBRANCH  10  29
BRANCH  11  34
HETATM   34  O4  UNL     1       4.194  34.948  23.694  1.00  0.00    -0.393 OA
ATOM     35  H4  UNL     1       3.820  34.340  24.321  1.00  0.00     0.210 HD
ENDBRANCH  11  34
ENDBRANCH   4   5
TORSDOF 8
ENDMDL
MODEL 4
REMARK VINA RESULT: -8.181291663      1.903      4.441
REMARK  8 active torsions:
REMARK  status: ('A' for Active; 'I' for Inactive)
REMARK    1  A    between atoms: C4_4  and  C5_5 
REMARK    2  A    between atoms: C12_13  and  C13_14 
REMARK    3  A    between atoms: C13_14  and  O2_15 
REMARK    4  A    between atoms: C17_21  and  O4_22 
REMARK    5  A    between atoms: C18_24  and  O5_25 
REMARK    6  A    between atoms: O5_25  and  C19_26 
REMARK    7  A    between atoms: C19_26  and  C20_28 
REMARK    8  A    between atoms: C20_28  and  C21_29 
ROOT
HETATM    1  C1  UNL     1      -0.282  33.580  21.264  1.00  0.00     0.017 C 
HETATM    2  C2  UNL     1      -0.149  34.103  22.348  1.00  0.00    -0.090 C 
HETATM    3  C3  UNL     1      -0.002  34.711  23.647  1.00  0.00     0.060 C 
HETATM    4  C4  UNL     1       0.682  35.824  23.846  1.00  0.00    -0.009 C 
ENDROOT
BRANCH   4   5
HETATM    5  C5  UNL     1       1.344  36.498  22.666  1.00  0.00     0.044 C 
HETATM    6  C6  UNL     1       0.187  37.144  21.970  1.00  0.00    -0.020 C 
HETATM    7  C7  UNL     1       0.087  38.488  21.735  1.00  0.00    -0.013 C 
HETATM    8  C8  UNL     1       1.224  39.163  22.242  1.00  0.00     0.042 C 
HETATM    9  C9  UNL     1       1.466  40.547  22.468  1.00  0.00    -0.025 C 
HETATM   10  C12 UNL     1       2.344  38.704  21.333  1.00  0.00     0.100 C 
HETATM   11  C17 UNL     1       1.369  38.566  23.654  1.00  0.00     0.147 C 
HETATM   12  C10 UNL     1       2.737  40.696  22.916  1.00  0.00     0.080 C 
HETATM   13  C25 UNL     1       0.669  41.744  22.321  1.00  0.00    -0.021 C 
HETATM   14  O1  UNL     1       3.535  39.526  23.069  1.00  0.00    -0.346 OA
HETATM   15  C18 UNL     1       3.283  42.052  23.236  1.00  0.00     0.188 C 
HETATM   16  C11 UNL     1       3.224  38.269  22.407  1.00  0.00     0.151 C 
HETATM   17  C15 UNL     1       2.296  37.456  23.295  1.00  0.00     0.021 C 
HETATM   18  C16 UNL     1       3.077  36.898  24.424  1.00  0.00     0.022 C 
HETATM   19  C23 UNL     1       2.256  42.889  23.914  1.00  0.00     0.040 C 
HETATM   20  C24 UNL     1       0.849  42.677  23.487  1.00  0.00     0.016 C 
HETATM   21  C26 UNL     1       0.968  42.527  21.056  1.00  0.00     0.019 C 
HETATM   22  C27 UNL     1      -0.833  41.443  22.260  1.00  0.00     0.019 C 
BRANCH  15  23
HETATM   23  O5  UNL     1       4.358  41.866  24.157  1.00  0.00    -0.309 OA
BRANCH  23  24
HETATM   24  C19 UNL     1       5.634  42.354  23.919  1.00  0.00     0.259 C 
HETATM   25  O6  UNL     1       6.481  42.319  24.846  1.00  0.00    -0.265 OA
BRANCH  24  26
HETATM   26  C20 UNL     1       5.975  42.913  22.571  1.00  0.00     0.111 C 
BRANCH  26  27
HETATM   27  C21 UNL     1       6.945  42.027  21.849  1.00  0.00     0.005 C 
HETATM   28  C22 UNL     1       6.324  40.651  21.732  1.00  0.00     0.005 C 
ENDBRANCH  26  27
ENDBRANCH  24  26
ENDBRANCH  23  24
ENDBRANCH  15  23
BRANCH  10  29
HETATM   29  C13 UNL     1       2.046  37.926  20.145  1.00  0.00     0.191 A 
HETATM   30  C14 UNL     1       2.721  36.679  19.690  1.00  0.00     0.240 A 
HETATM   31  O3  UNL     1       3.349  37.803  19.345  1.00  0.00    -0.347 OA
BRANCH  29  32
HETATM   32  O2  UNL     1       1.326  38.681  19.162  1.00  0.00    -0.363 OA
ATOM     33  H2  UNL     1       1.516  38.398  18.276  1.00  0.00     0.213 HD
ENDBRANCH  29  32
ENDBRANCH  10  29
BRANCH  11  34
HETATM   34  O4  UNL     1       1.738  39.366  24.667  1.00  0.00    -0.393 OA
ATOM     35  H4  UNL     1       2.172  38.985  25.422  1.00  0.00     0.210 HD
ENDBRANCH  11  34
ENDBRANCH   4   5
TORSDOF 8
ENDMDL
MODEL 5
REMARK VINA RESULT: -8.090298595      2.562      7.063
REMARK  8 active torsions:
REMARK  status: ('A' for Active; 'I' for Inactive)
REMARK    1  A    between atoms: C4_4  and  C5_5 
REMARK    2  A    between atoms: C12_13  and  C13_14 
REMARK    3  A    between atoms: C13_14  and  O2_15 
REMARK    4  A    between atoms: C17_21  and  O4_22 
REMARK    5  A    between atoms: C18_24  and  O5_25 
REMARK    6  A    between atoms: O5_25  and  C19_26 
REMARK    7  A    between atoms: C19_26  and  C20_28 
REMARK    8  A    between atoms: C20_28  and  C21_29 
ROOT
HETATM    1  C1  UNL     1       6.987  41.398  26.973  1.00  0.00     0.017 C 
HETATM    2  C2  UNL     1       7.118  40.341  26.397  1.00  0.00    -0.090 C 
HETATM    3  C3  UNL     1       7.294  39.081  25.718  1.00  0.00     0.060 C 
HETATM    4  C4  UNL     1       6.351  38.530  24.973  1.00  0.00    -0.009 C 
ENDROOT
BRANCH   4   5
HETATM    5  C5  UNL     1       5.028  39.243  24.819  1.00  0.00     0.044 C 
HETATM    6  C6  UNL     1       5.124  39.811  23.439  1.00  0.00    -0.020 C 
HETATM    7  C7  UNL     1       4.246  39.527  22.429  1.00  0.00    -0.013 C 
HETATM    8  C8  UNL     1       3.248  38.630  22.882  1.00  0.00     0.042 C 
HETATM    9  C9  UNL     1       2.291  37.857  22.166  1.00  0.00    -0.025 C 
HETATM   10  C12 UNL     1       2.443  39.457  23.861  1.00  0.00     0.100 C 
HETATM   11  C17 UNL     1       4.072  37.549  23.607  1.00  0.00     0.147 C 
HETATM   12  C10 UNL     1       1.516  37.193  23.059  1.00  0.00     0.080 C 
HETATM   13  C25 UNL     1       2.006  37.659  20.763  1.00  0.00    -0.021 C 
HETATM   14  O1  UNL     1       1.787  37.374  24.446  1.00  0.00    -0.346 OA
HETATM   15  C18 UNL     1       0.410  36.298  22.598  1.00  0.00     0.188 C 
HETATM   16  C11 UNL     1       2.543  38.507  24.959  1.00  0.00     0.151 C 
HETATM   17  C15 UNL     1       4.021  38.154  24.967  1.00  0.00     0.021 C 
HETATM   18  C16 UNL     1       4.286  37.217  26.084  1.00  0.00     0.022 C 
HETATM   19  C23 UNL     1       0.824  35.522  21.397  1.00  0.00     0.040 C 
HETATM   20  C24 UNL     1       1.737  36.212  20.450  1.00  0.00     0.016 C 
HETATM   21  C26 UNL     1       0.822  38.465  20.259  1.00  0.00     0.019 C 
HETATM   22  C27 UNL     1       3.180  38.065  19.864  1.00  0.00     0.019 C 
BRANCH  15  23
HETATM   23  O5  UNL     1       0.162  35.361  23.646  1.00  0.00    -0.309 OA
BRANCH  23  24
HETATM   24  C19 UNL     1       0.745  34.103  23.673  1.00  0.00     0.259 C 
HETATM   25  O6  UNL     1       1.945  33.997  24.027  1.00  0.00    -0.265 OA
BRANCH  24  26
HETATM   26  C20 UNL     1      -0.061  32.902  23.281  1.00  0.00     0.111 C 
BRANCH  26  27
HETATM   27  C21 UNL     1      -1.360  32.855  24.028  1.00  0.00     0.005 C 
HETATM   28  C22 UNL     1      -1.124  32.120  25.331  1.00  0.00     0.005 C 
ENDBRANCH  26  27
ENDBRANCH  24  26
ENDBRANCH  23  24
ENDBRANCH  15  23
BRANCH  10  29
HETATM   29  C13 UNL     1       2.684  40.883  23.981  1.00  0.00     0.191 A 
HETATM   30  C14 UNL     1       2.777  41.680  25.235  1.00  0.00     0.240 A 
HETATM   31  O3  UNL     1       1.533  41.469  24.808  1.00  0.00    -0.347 OA
BRANCH  29  32
HETATM   32  O2  UNL     1       2.389  41.592  22.771  1.00  0.00    -0.363 OA
ATOM     33  H2  UNL     1       1.676  42.210  22.877  1.00  0.00     0.213 HD
ENDBRANCH  29  32
ENDBRANCH  10  29
BRANCH  11  34
HETATM   34  O4  UNL     1       3.703  36.263  23.497  1.00  0.00    -0.393 OA
ATOM     35  H4  UNL     1       3.373  35.809  24.264  1.00  0.00     0.210 HD
ENDBRANCH  11  34
ENDBRANCH   4   5
TORSDOF 8
ENDMDL
