MODEL 1
REMARK VINA RESULT: -8.981548731      0.000      0.000
REMARK  7 active torsions:
REMARK  status: ('A' for Active; 'I' for Inactive)
REMARK    1  A    between atoms: C3_3  and  O1_4 
REMARK    2  A    between atoms: O1_4  and  C4_5 
REMARK    3  A    between atoms: C4_5  and  C5_7 
REMARK    4  A    between atoms: C22_26  and  C23_27 
REMARK    5  A    between atoms: C23_27  and  C26_30 
REMARK    6  A    between atoms: C26_30  and  O5_31 
REMARK    7  A    between atoms: C27_33  and  O6_34 
ROOT
HETATM    1  C1  UNL     1      -1.099  32.865  24.545  1.00  0.00     0.014 C 
HETATM    2  C2  UNL     1      -0.368  33.205  23.635  1.00  0.00    -0.091 C 
HETATM    3  C3  UNL     1       0.495  33.616  22.520  1.00  0.00     0.271 C 
ENDROOT
BRANCH   3   4
HETATM    4  O1  UNL     1       0.479  35.027  22.472  1.00  0.00    -0.309 OA
BRANCH   4   5
HETATM    5  C4  UNL     1       0.265  35.693  21.271  1.00  0.00     0.272 C 
HETATM    6  O2  UNL     1      -0.435  35.085  20.417  1.00  0.00    -0.264 OA
BRANCH   5   7
HETATM    7  C5  UNL     1       0.858  37.016  21.106  1.00  0.00     0.066 C 
HETATM    8  C6  UNL     1       0.876  37.437  19.666  1.00  0.00     0.031 C 
HETATM    9  C7  UNL     1       0.091  38.045  21.919  1.00  0.00    -0.011 C 
HETATM   10  C8  UNL     1       0.207  39.339  22.212  1.00  0.00    -0.021 C 
HETATM   11  C9  UNL     1       1.153  40.393  21.876  1.00  0.00     0.051 C 
HETATM   12  C10 UNL     1       0.456  41.695  22.269  1.00  0.00     0.024 C 
HETATM   13  C13 UNL     1       2.538  40.394  22.528  1.00  0.00     0.094 C 
HETATM   14  C11 UNL     1      -0.341  41.640  23.518  1.00  0.00     0.013 C 
HETATM   15  C12 UNL     1       1.752  42.380  22.578  1.00  0.00     0.156 C 
HETATM   16  O3  UNL     1       2.201  41.349  23.472  1.00  0.00    -0.369 OA
HETATM   17  C27 UNL     1       2.564  42.323  21.351  1.00  0.00     0.160 C 
HETATM   18  C22 UNL     1       3.564  41.204  21.799  1.00  0.00     0.030 C 
HETATM   19  C21 UNL     1       3.960  40.343  20.628  1.00  0.00     0.016 C 
HETATM   20  C20 UNL     1       4.054  38.834  20.781  1.00  0.00     0.007 C 
HETATM   21  C19 UNL     1       2.829  38.361  21.451  1.00  0.00     0.010 C 
HETATM   22  C14 UNL     1       2.902  39.047  22.824  1.00  0.00     0.053 C 
HETATM   23  C18 UNL     1       2.313  37.062  21.714  1.00  0.00     0.019 C 
HETATM   24  C15 UNL     1       4.139  38.511  23.384  1.00  0.00     0.027 C 
HETATM   25  C16 UNL     1       2.021  38.252  23.761  1.00  0.00     0.139 C 
HETATM   26  O4  UNL     1       1.538  38.688  24.753  1.00  0.00    -0.297 OA
HETATM   27  C17 UNL     1       1.920  36.918  23.194  1.00  0.00     0.085 C 
BRANCH  17  28
HETATM   28  O6  UNL     1       2.089  42.255  20.117  1.00  0.00    -0.392 OA
ATOM     29  H6  UNL     1       1.706  41.486  19.714  1.00  0.00     0.210 HD
ENDBRANCH  17  28
BRANCH  18  30
HETATM   30  C23 UNL     1       4.612  42.011  22.391  1.00  0.00    -0.013 C 
HETATM   31  C24 UNL     1       6.048  41.469  21.969  1.00  0.00     0.018 C 
HETATM   32  C25 UNL     1       4.819  43.441  22.066  1.00  0.00     0.018 C 
BRANCH  30  33
HETATM   33  C26 UNL     1       4.927  41.876  23.871  1.00  0.00     0.173 C 
BRANCH  33  34
HETATM   34  O5  UNL     1       4.580  42.941  24.649  1.00  0.00    -0.400 OA
ATOM     35  H5  UNL     1       3.991  42.750  25.370  1.00  0.00     0.209 HD
ENDBRANCH  33  34
ENDBRANCH  30  33
ENDBRANCH  18  30
ENDBRANCH   5   7
ENDBRANCH   4   5
ENDBRANCH   3   4
TORSDOF 7
ENDMDL
MODEL 2
REMARK VINA RESULT: -8.905266458      1.844      3.329
REMARK  7 active torsions:
REMARK  status: ('A' for Active; 'I' for Inactive)
REMARK    1  A    between atoms: C3_3  and  O1_4 
REMARK    2  A    between atoms: O1_4  and  C4_5 
REMARK    3  A    between atoms: C4_5  and  C5_7 
REMARK    4  A    between atoms: C22_26  and  C23_27 
REMARK    5  A    between atoms: C23_27  and  C26_30 
REMARK    6  A    between atoms: C26_30  and  O5_31 
REMARK    7  A    between atoms: C27_33  and  O6_34 
ROOT
HETATM    1  C1  UNL     1      -1.492  33.205  24.084  1.00  0.00     0.014 C 
HETATM    2  C2  UNL     1      -0.301  32.969  24.041  1.00  0.00    -0.091 C 
HETATM    3  C3  UNL     1       1.136  32.676  23.965  1.00  0.00     0.271 C 
ENDROOT
BRANCH   3   4
HETATM    4  O1  UNL     1       1.783  33.850  23.521  1.00  0.00    -0.309 OA
BRANCH   4   5
HETATM    5  C4  UNL     1       2.503  34.641  24.408  1.00  0.00     0.272 C 
HETATM    6  O2  UNL     1       2.620  34.193  25.581  1.00  0.00    -0.264 OA
BRANCH   5   7
HETATM    7  C5  UNL     1       3.054  35.899  23.914  1.00  0.00     0.066 C 
HETATM    8  C6  UNL     1       4.548  35.935  24.041  1.00  0.00     0.031 C 
HETATM    9  C7  UNL     1       2.669  36.110  22.460  1.00  0.00    -0.011 C 
HETATM   10  C8  UNL     1       2.807  37.067  21.545  1.00  0.00    -0.021 C 
HETATM   11  C9  UNL     1       3.410  38.393  21.519  1.00  0.00     0.051 C 
HETATM   12  C10 UNL     1       3.506  38.757  20.038  1.00  0.00     0.024 C 
HETATM   13  C13 UNL     1       2.710  39.548  22.237  1.00  0.00     0.094 C 
HETATM   14  C11 UNL     1       2.358  38.333  19.200  1.00  0.00     0.013 C 
HETATM   15  C12 UNL     1       3.358  40.223  20.316  1.00  0.00     0.156 C 
HETATM   16  O3  UNL     1       2.151  40.060  21.078  1.00  0.00    -0.369 OA
HETATM   17  C27 UNL     1       4.447  40.591  21.236  1.00  0.00     0.160 C 
HETATM   18  C22 UNL     1       3.598  40.712  22.547  1.00  0.00     0.030 C 
HETATM   19  C21 UNL     1       4.398  40.267  23.743  1.00  0.00     0.016 C 
HETATM   20  C20 UNL     1       3.756  39.407  24.820  1.00  0.00     0.007 C 
HETATM   21  C19 UNL     1       3.046  38.297  24.161  1.00  0.00     0.010 C 
HETATM   22  C14 UNL     1       1.969  39.020  23.336  1.00  0.00     0.053 C 
HETATM   23  C18 UNL     1       2.405  37.129  24.660  1.00  0.00     0.019 C 
HETATM   24  C15 UNL     1       1.190  39.709  24.360  1.00  0.00     0.027 C 
HETATM   25  C16 UNL     1       0.880  38.009  23.051  1.00  0.00     0.139 C 
HETATM   26  O4  UNL     1       0.115  38.090  22.147  1.00  0.00    -0.297 OA
HETATM   27  C17 UNL     1       0.987  36.992  24.082  1.00  0.00     0.085 C 
BRANCH  17  28
HETATM   28  O6  UNL     1       5.618  39.980  21.325  1.00  0.00    -0.392 OA
ATOM     29  H6  UNL     1       5.927  39.484  22.073  1.00  0.00     0.210 HD
ENDBRANCH  17  28
BRANCH  18  30
HETATM   30  C23 UNL     1       3.238  42.115  22.496  1.00  0.00    -0.013 C 
HETATM   31  C24 UNL     1       3.577  42.834  23.876  1.00  0.00     0.018 C 
HETATM   32  C25 UNL     1       3.882  43.088  21.584  1.00  0.00     0.018 C 
BRANCH  30  33
HETATM   33  C26 UNL     1       1.777  42.525  22.570  1.00  0.00     0.173 C 
BRANCH  33  34
HETATM   34  O5  UNL     1       1.169  42.763  21.372  1.00  0.00    -0.400 OA
ATOM     35  H5  UNL     1       0.220  42.737  21.380  1.00  0.00     0.209 HD
ENDBRANCH  33  34
ENDBRANCH  30  33
ENDBRANCH  18  30
ENDBRANCH   5   7
ENDBRANCH   4   5
ENDBRANCH   3   4
TORSDOF 7
ENDMDL
MODEL 3
REMARK VINA RESULT: -8.820252210      3.386      5.692
REMARK  7 active torsions:
REMARK  status: ('A' for Active; 'I' for Inactive)
REMARK    1  A    between atoms: C3_3  and  O1_4 
REMARK    2  A    between atoms: O1_4  and  C4_5 
REMARK    3  A    between atoms: C4_5  and  C5_7 
REMARK    4  A    between atoms: C22_26  and  C23_27 
REMARK    5  A    between atoms: C23_27  and  C26_30 
REMARK    6  A    between atoms: C26_30  and  O5_31 
REMARK    7  A    between atoms: C27_33  and  O6_34 
ROOT
HETATM    1  C1  UNL     1       7.627  35.853  25.193  1.00  0.00     0.014 C 
HETATM    2  C2  UNL     1       7.397  37.045  25.118  1.00  0.00    -0.091 C 
HETATM    3  C3  UNL     1       7.135  38.485  25.006  1.00  0.00     0.271 C 
ENDROOT
BRANCH   3   4
HETATM    4  O1  UNL     1       6.010  38.645  24.167  1.00  0.00    -0.309 OA
BRANCH   4   5
HETATM    5  C4  UNL     1       6.016  39.587  23.145  1.00  0.00     0.272 C 
HETATM    6  O2  UNL     1       6.853  39.397  22.221  1.00  0.00    -0.264 OA
BRANCH   5   7
HETATM    7  C5  UNL     1       5.069  40.694  23.227  1.00  0.00     0.066 C 
HETATM    8  C6  UNL     1       5.531  41.745  24.192  1.00  0.00     0.031 C 
HETATM    9  C7  UNL     1       4.871  41.323  21.859  1.00  0.00    -0.011 C 
HETATM   10  C8  UNL     1       4.103  42.271  21.323  1.00  0.00    -0.021 C 
HETATM   11  C9  UNL     1       3.069  43.166  21.822  1.00  0.00     0.051 C 
HETATM   12  C10 UNL     1       2.893  44.219  20.728  1.00  0.00     0.024 C 
HETATM   13  C13 UNL     1       1.685  42.603  22.151  1.00  0.00     0.094 C 
HETATM   14  C11 UNL     1       2.976  43.713  19.336  1.00  0.00     0.013 C 
HETATM   15  C12 UNL     1       1.446  44.424  21.060  1.00  0.00     0.156 C 
HETATM   16  O3  UNL     1       1.120  43.028  20.961  1.00  0.00    -0.369 OA
HETATM   17  C27 UNL     1       1.389  44.819  22.477  1.00  0.00     0.160 C 
HETATM   18  C22 UNL     1       0.869  43.463  23.064  1.00  0.00     0.030 C 
HETATM   19  C21 UNL     1       1.450  43.218  24.432  1.00  0.00     0.016 C 
HETATM   20  C20 UNL     1       1.941  41.833  24.821  1.00  0.00     0.007 C 
HETATM   21  C19 UNL     1       2.799  41.325  23.735  1.00  0.00     0.010 C 
HETATM   22  C14 UNL     1       1.830  41.240  22.545  1.00  0.00     0.053 C 
HETATM   23  C18 UNL     1       3.630  40.178  23.617  1.00  0.00     0.019 C 
HETATM   24  C15 UNL     1       0.829  40.287  23.015  1.00  0.00     0.027 C 
HETATM   25  C16 UNL     1       2.432  40.265  21.557  1.00  0.00     0.139 C 
HETATM   26  O4  UNL     1       2.178  40.248  20.398  1.00  0.00    -0.297 OA
HETATM   27  C17 UNL     1       3.329  39.412  22.318  1.00  0.00     0.085 C 
BRANCH  17  28
HETATM   28  O6  UNL     1       2.350  45.442  23.142  1.00  0.00    -0.392 OA
ATOM     29  H6  UNL     1       2.457  45.442  24.085  1.00  0.00     0.210 HD
ENDBRANCH  17  28
BRANCH  18  30
HETATM   30  C23 UNL     1      -0.562  43.682  23.000  1.00  0.00    -0.013 C 
HETATM   31  C24 UNL     1      -1.280  43.101  24.298  1.00  0.00     0.018 C 
HETATM   32  C25 UNL     1      -1.181  45.028  22.998  1.00  0.00     0.018 C 
BRANCH  30  33
HETATM   33  C26 UNL     1      -1.416  42.835  22.072  1.00  0.00     0.173 C 
BRANCH  33  34
HETATM   34  O5  UNL     1      -2.671  42.546  22.524  1.00  0.00    -0.400 OA
ATOM     35  H5  UNL     1      -3.042  41.729  22.212  1.00  0.00     0.209 HD
ENDBRANCH  33  34
ENDBRANCH  30  33
ENDBRANCH  18  30
ENDBRANCH   5   7
ENDBRANCH   4   5
ENDBRANCH   3   4
TORSDOF 7
ENDMDL
MODEL 4
REMARK VINA RESULT: -8.802981437      1.425      2.486
REMARK  7 active torsions:
REMARK  status: ('A' for Active; 'I' for Inactive)
REMARK    1  A    between atoms: C3_3  and  O1_4 
REMARK    2  A    between atoms: O1_4  and  C4_5 
REMARK    3  A    between atoms: C4_5  and  C5_7 
REMARK    4  A    between atoms: C22_26  and  C23_27 
REMARK    5  A    between atoms: C23_27  and  C26_30 
REMARK    6  A    between atoms: C26_30  and  O5_31 
REMARK    7  A    between atoms: C27_33  and  O6_34 
ROOT
HETATM    1  C1  UNL     1      -1.120  32.746  24.471  1.00  0.00     0.014 C 
HETATM    2  C2  UNL     1      -0.590  33.202  23.477  1.00  0.00    -0.091 C 
HETATM    3  C3  UNL     1       0.027  33.755  22.265  1.00  0.00     0.271 C 
ENDROOT
BRANCH   3   4
HETATM    4  O1  UNL     1       0.161  35.148  22.458  1.00  0.00    -0.309 OA
BRANCH   4   5
HETATM    5  C4  UNL     1       0.620  35.966  21.432  1.00  0.00     0.272 C 
HETATM    6  O2  UNL     1      -0.008  35.893  20.342  1.00  0.00    -0.264 OA
BRANCH   5   7
HETATM    7  C5  UNL     1       1.769  36.824  21.702  1.00  0.00     0.066 C 
HETATM    8  C6  UNL     1       3.052  36.181  21.265  1.00  0.00     0.031 C 
HETATM    9  C7  UNL     1       1.611  38.158  20.993  1.00  0.00    -0.011 C 
HETATM   10  C8  UNL     1       2.267  39.315  20.935  1.00  0.00    -0.021 C 
HETATM   11  C9  UNL     1       3.478  39.847  21.545  1.00  0.00     0.051 C 
HETATM   12  C10 UNL     1       3.810  41.104  20.742  1.00  0.00     0.024 C 
HETATM   13  C13 UNL     1       3.464  40.234  23.026  1.00  0.00     0.094 C 
HETATM   14  C11 UNL     1       2.644  41.919  20.322  1.00  0.00     0.013 C 
HETATM   15  C12 UNL     1       4.444  41.777  21.920  1.00  0.00     0.156 C 
HETATM   16  O3  UNL     1       3.304  41.585  22.773  1.00  0.00    -0.369 OA
HETATM   17  C27 UNL     1       5.527  40.891  22.381  1.00  0.00     0.160 C 
HETATM   18  C22 UNL     1       4.818  40.320  23.655  1.00  0.00     0.030 C 
HETATM   19  C21 UNL     1       5.217  38.886  23.888  1.00  0.00     0.016 C 
HETATM   20  C20 UNL     1       4.177  37.857  24.301  1.00  0.00     0.007 C 
HETATM   21  C19 UNL     1       3.015  37.990  23.405  1.00  0.00     0.010 C 
HETATM   22  C14 UNL     1       2.513  39.412  23.702  1.00  0.00     0.053 C 
HETATM   23  C18 UNL     1       1.837  37.213  23.229  1.00  0.00     0.019 C 
HETATM   24  C15 UNL     1       2.174  39.342  25.120  1.00  0.00     0.027 C 
HETATM   25  C16 UNL     1       1.068  39.470  23.260  1.00  0.00     0.139 C 
HETATM   26  O4  UNL     1       0.496  40.472  22.979  1.00  0.00    -0.297 OA
HETATM   27  C17 UNL     1       0.582  38.101  23.269  1.00  0.00     0.085 C 
BRANCH  17  28
HETATM   28  O6  UNL     1       6.197  40.037  21.623  1.00  0.00    -0.392 OA
ATOM     29  H6  UNL     1       6.973  40.241  21.115  1.00  0.00     0.210 HD
ENDBRANCH  17  28
BRANCH  18  30
HETATM   30  C23 UNL     1       5.253  41.280  24.649  1.00  0.00    -0.013 C 
HETATM   31  C24 UNL     1       5.906  40.541  25.900  1.00  0.00     0.018 C 
HETATM   32  C25 UNL     1       6.323  42.275  24.406  1.00  0.00     0.018 C 
BRANCH  30  33
HETATM   33  C26 UNL     1       4.227  41.984  25.521  1.00  0.00     0.173 C 
BRANCH  33  34
HETATM   34  O5  UNL     1       3.992  43.293  25.217  1.00  0.00    -0.400 OA
ATOM     35  H5  UNL     1       3.231  43.457  24.672  1.00  0.00     0.209 HD
ENDBRANCH  33  34
ENDBRANCH  30  33
ENDBRANCH  18  30
ENDBRANCH   5   7
ENDBRANCH   4   5
ENDBRANCH   3   4
TORSDOF 7
ENDMDL
MODEL 5
REMARK VINA RESULT: -8.791920069      2.662      6.136
REMARK  7 active torsions:
REMARK  status: ('A' for Active; 'I' for Inactive)
REMARK    1  A    between atoms: C3_3  and  O1_4 
REMARK    2  A    between atoms: O1_4  and  C4_5 
REMARK    3  A    between atoms: C4_5  and  C5_7 
REMARK    4  A    between atoms: C22_26  and  C23_27 
REMARK    5  A    between atoms: C23_27  and  C26_30 
REMARK    6  A    between atoms: C26_30  and  O5_31 
REMARK    7  A    between atoms: C27_33  and  O6_34 
ROOT
HETATM    1  C1  UNL     1      -2.230  43.314  22.199  1.00  0.00     0.014 C 
HETATM    2  C2  UNL     1      -1.513  43.767  21.327  1.00  0.00    -0.091 C 
HETATM    3  C3  UNL     1      -0.640  44.331  20.290  1.00  0.00     0.271 C 
ENDROOT
BRANCH   3   4
HETATM    4  O1  UNL     1       0.624  43.714  20.421  1.00  0.00    -0.309 OA
BRANCH   4   5
HETATM    5  C4  UNL     1       1.513  44.122  21.408  1.00  0.00     0.272 C 
HETATM    6  O2  UNL     1       1.847  45.338  21.385  1.00  0.00    -0.264 OA
BRANCH   5   7
HETATM    7  C5  UNL     1       1.974  43.126  22.370  1.00  0.00     0.066 C 
HETATM    8  C6  UNL     1       1.480  43.426  23.754  1.00  0.00     0.031 C 
HETATM    9  C7  UNL     1       1.509  41.740  21.960  1.00  0.00    -0.011 C 
HETATM   10  C8  UNL     1       1.683  40.489  22.383  1.00  0.00    -0.021 C 
HETATM   11  C9  UNL     1       2.424  39.859  23.467  1.00  0.00     0.051 C 
HETATM   12  C10 UNL     1       1.870  38.437  23.553  1.00  0.00     0.024 C 
HETATM   13  C13 UNL     1       3.948  39.757  23.373  1.00  0.00     0.094 C 
HETATM   14  C11 UNL     1       1.558  37.793  22.254  1.00  0.00     0.013 C 
HETATM   15  C12 UNL     1       3.173  37.882  24.043  1.00  0.00     0.156 C 
HETATM   16  O3  UNL     1       3.933  38.437  22.957  1.00  0.00    -0.369 OA
HETATM   17  C27 UNL     1       3.510  38.617  25.274  1.00  0.00     0.160 C 
HETATM   18  C22 UNL     1       4.634  39.534  24.683  1.00  0.00     0.030 C 
HETATM   19  C21 UNL     1       4.623  40.885  25.349  1.00  0.00     0.016 C 
HETATM   20  C20 UNL     1       4.807  42.149  24.525  1.00  0.00     0.007 C 
HETATM   21  C19 UNL     1       3.904  42.076  23.362  1.00  0.00     0.010 C 
HETATM   22  C14 UNL     1       4.430  40.852  22.596  1.00  0.00     0.053 C 
HETATM   23  C18 UNL     1       3.548  43.016  22.356  1.00  0.00     0.019 C 
HETATM   24  C15 UNL     1       5.799  41.242  22.271  1.00  0.00     0.027 C 
HETATM   25  C16 UNL     1       3.951  40.988  21.168  1.00  0.00     0.139 C 
HETATM   26  O4  UNL     1       3.831  40.078  20.415  1.00  0.00    -0.297 OA
HETATM   27  C17 UNL     1       3.697  42.402  20.954  1.00  0.00     0.085 C 
BRANCH  17  28
HETATM   28  O6  UNL     1       2.639  39.177  26.098  1.00  0.00    -0.392 OA
ATOM     29  H6  UNL     1       2.127  39.956  25.915  1.00  0.00     0.210 HD
ENDBRANCH  17  28
BRANCH  18  30
HETATM   30  C23 UNL     1       5.799  38.706  24.922  1.00  0.00    -0.013 C 
HETATM   31  C24 UNL     1       6.855  39.468  25.838  1.00  0.00     0.018 C 
HETATM   32  C25 UNL     1       5.750  37.428  25.670  1.00  0.00     0.018 C 
BRANCH  30  33
HETATM   33  C26 UNL     1       6.818  38.495  23.815  1.00  0.00     0.173 C 
BRANCH  33  34
HETATM   34  O5  UNL     1       7.925  37.777  24.159  1.00  0.00    -0.400 OA
ATOM     35  H5  UNL     1       8.701  38.287  24.358  1.00  0.00     0.209 HD
ENDBRANCH  33  34
ENDBRANCH  30  33
ENDBRANCH  18  30
ENDBRANCH   5   7
ENDBRANCH   4   5
ENDBRANCH   3   4
TORSDOF 7
ENDMDL
