MODEL 1
REMARK VINA RESULT: -6.020223024      0.000      0.000
REMARK  7 active torsions:
REMARK  status: ('A' for Active; 'I' for Inactive)
REMARK    1  A    between atoms: N2_13  and  C9_14 
REMARK    2  A    between atoms: C9_14  and  C10_15 
REMARK    3  A    between atoms: C10_15  and  C11_16 
REMARK    4  A    between atoms: C11_16  and  N3_17 
REMARK    5  A    between atoms: N3_17  and  C12_20 
REMARK    6  A    between atoms: C12_20  and  C13_21 
REMARK    7  A    between atoms: C13_21  and  O2_22 
ROOT
HETATM    1  O1  UNL     1     -29.309 -53.975  16.480  1.00  0.00    -0.273 OA
HETATM    2  C1  UNL     1     -29.381 -53.511  17.622  1.00  0.00     0.228 C 
HETATM    3  C2  UNL     1     -28.774 -54.295  18.750  1.00  0.00     0.134 C 
HETATM    4  C3  UNL     1     -27.854 -53.408  19.568  1.00  0.00     0.040 C 
HETATM    5  C4  UNL     1     -27.585 -54.105  20.897  1.00  0.00     0.031 C 
HETATM    6  C5  UNL     1     -26.252 -54.759  20.775  1.00  0.00     0.002 C 
HETATM    7  C6  UNL     1     -25.857 -54.627  19.328  1.00  0.00     0.002 C 
HETATM    8  C7  UNL     1     -26.496 -53.326  18.877  1.00  0.00     0.031 C 
HETATM    9  N1  UNL     1     -28.422 -52.133  19.857  1.00  0.00    -0.357 N 
ATOM     10  H1  UNL     1     -28.035 -51.584  20.625  1.00  0.00     0.162 HD
HETATM   11  C8  UNL     1     -29.491 -51.610  19.124  1.00  0.00     0.177 C 
HETATM   12  S1  UNL     1     -30.187 -50.179  19.582  1.00  0.00    -0.041 SA
HETATM   13  N2  UNL     1     -29.997 -52.287  17.986  1.00  0.00    -0.295 N 
ENDROOT
BRANCH  13  14
HETATM   14  C9  UNL     1     -31.082 -51.734  17.214  1.00  0.00     0.136 C 
BRANCH  14  15
HETATM   15  C10 UNL     1     -32.348 -52.517  17.201  1.00  0.00     0.048 C 
BRANCH  15  16
HETATM   16  C11 UNL     1     -32.759 -53.212  18.436  1.00  0.00     0.234 C 
BRANCH  16  17
HETATM   17  N3  UNL     1     -33.269 -52.292  19.456  1.00  0.00    -0.073 N 
ATOM     18  H32 UNL     1     -33.001 -51.333  19.235  1.00  0.00     0.277 HD
ATOM     19  H31 UNL     1     -34.283 -52.210  19.387  1.00  0.00     0.277 HD
BRANCH  17  20
HETATM   20  C12 UNL     1     -32.887 -52.621  20.787  1.00  0.00     0.258 C 
BRANCH  20  21
HETATM   21  C13 UNL     1     -31.935 -53.826  20.765  1.00  0.00     0.191 C 
BRANCH  21  22
HETATM   22  O2  UNL     1     -30.843 -53.570  21.580  1.00  0.00    -0.399 OA
ATOM     23  H2  UNL     1     -30.237 -54.300  21.537  1.00  0.00     0.209 HD
ENDBRANCH  21  22
ENDBRANCH  20  21
ENDBRANCH  17  20
ENDBRANCH  16  17
ENDBRANCH  15  16
ENDBRANCH  14  15
ENDBRANCH  13  14
TORSDOF 7
ENDMDL
MODEL 2
REMARK VINA RESULT: -5.854399875      1.365      1.471
REMARK  7 active torsions:
REMARK  status: ('A' for Active; 'I' for Inactive)
REMARK    1  A    between atoms: N2_13  and  C9_14 
REMARK    2  A    between atoms: C9_14  and  C10_15 
REMARK    3  A    between atoms: C10_15  and  C11_16 
REMARK    4  A    between atoms: C11_16  and  N3_17 
REMARK    5  A    between atoms: N3_17  and  C12_20 
REMARK    6  A    between atoms: C12_20  and  C13_21 
REMARK    7  A    between atoms: C13_21  and  O2_22 
ROOT
HETATM    1  O1  UNL     1     -30.003 -54.374  17.994  1.00  0.00    -0.273 OA
HETATM    2  C1  UNL     1     -29.709 -53.482  18.794  1.00  0.00     0.228 C 
HETATM    3  C2  UNL     1     -28.649 -53.765  19.820  1.00  0.00     0.134 C 
HETATM    4  C3  UNL     1     -27.603 -52.666  19.809  1.00  0.00     0.040 C 
HETATM    5  C4  UNL     1     -26.794 -52.773  21.097  1.00  0.00     0.031 C 
HETATM    6  C5  UNL     1     -25.530 -53.481  20.750  1.00  0.00     0.002 C 
HETATM    7  C6  UNL     1     -25.704 -53.969  19.336  1.00  0.00     0.002 C 
HETATM    8  C7  UNL     1     -26.606 -52.937  18.687  1.00  0.00     0.031 C 
HETATM    9  N1  UNL     1     -28.169 -51.359  19.764  1.00  0.00    -0.357 N 
ATOM     10  H1  UNL     1     -27.596 -50.564  20.045  1.00  0.00     0.162 HD
HETATM   11  C8  UNL     1     -29.484 -51.131  19.346  1.00  0.00     0.177 C 
HETATM   12  S1  UNL     1     -30.126 -49.606  19.427  1.00  0.00    -0.041 SA
HETATM   13  N2  UNL     1     -30.287 -52.189  18.849  1.00  0.00    -0.295 N 
ENDROOT
BRANCH  13  14
HETATM   14  C9  UNL     1     -31.633 -51.948  18.393  1.00  0.00     0.136 C 
BRANCH  14  15
HETATM   15  C10 UNL     1     -32.723 -52.261  19.359  1.00  0.00     0.048 C 
BRANCH  15  16
HETATM   16  C11 UNL     1     -33.328 -53.606  19.327  1.00  0.00     0.234 C 
BRANCH  16  17
HETATM   17  N3  UNL     1     -33.200 -54.310  20.605  1.00  0.00    -0.073 N 
ATOM     18  H32 UNL     1     -34.083 -54.288  21.114  1.00  0.00     0.277 HD
ATOM     19  H31 UNL     1     -33.112 -55.315  20.451  1.00  0.00     0.277 HD
BRANCH  17  20
HETATM   20  C12 UNL     1     -32.139 -53.841  21.430  1.00  0.00     0.258 C 
BRANCH  20  21
HETATM   21  C13 UNL     1     -31.350 -55.038  21.982  1.00  0.00     0.191 C 
BRANCH  21  22
HETATM   22  O2  UNL     1     -32.155 -55.769  22.841  1.00  0.00    -0.399 OA
ATOM     23  H2  UNL     1     -32.082 -56.694  22.637  1.00  0.00     0.209 HD
ENDBRANCH  21  22
ENDBRANCH  20  21
ENDBRANCH  17  20
ENDBRANCH  16  17
ENDBRANCH  15  16
ENDBRANCH  14  15
ENDBRANCH  13  14
TORSDOF 7
ENDMDL
MODEL 3
REMARK VINA RESULT: -5.804835571      2.637      5.202
REMARK  7 active torsions:
REMARK  status: ('A' for Active; 'I' for Inactive)
REMARK    1  A    between atoms: N2_13  and  C9_14 
REMARK    2  A    between atoms: C9_14  and  C10_15 
REMARK    3  A    between atoms: C10_15  and  C11_16 
REMARK    4  A    between atoms: C11_16  and  N3_17 
REMARK    5  A    between atoms: N3_17  and  C12_20 
REMARK    6  A    between atoms: C12_20  and  C13_21 
REMARK    7  A    between atoms: C13_21  and  O2_22 
ROOT
HETATM    1  O1  UNL     1     -28.364 -51.118  19.754  1.00  0.00    -0.273 OA
HETATM    2  C1  UNL     1     -28.643 -52.220  19.271  1.00  0.00     0.228 C 
HETATM    3  C2  UNL     1     -30.080 -52.658  19.279  1.00  0.00     0.134 C 
HETATM    4  C3  UNL     1     -30.497 -53.105  17.891  1.00  0.00     0.040 C 
HETATM    5  C4  UNL     1     -31.792 -53.900  18.021  1.00  0.00     0.031 C 
HETATM    6  C5  UNL     1     -32.901 -52.972  17.662  1.00  0.00     0.002 C 
HETATM    7  C6  UNL     1     -32.277 -51.608  17.541  1.00  0.00     0.002 C 
HETATM    8  C7  UNL     1     -30.863 -51.878  17.060  1.00  0.00     0.031 C 
HETATM    9  N1  UNL     1     -29.535 -53.949  17.264  1.00  0.00    -0.357 N 
ATOM     10  H1  UNL     1     -29.828 -54.533  16.481  1.00  0.00     0.162 HD
HETATM   11  C8  UNL     1     -28.204 -54.002  17.687  1.00  0.00     0.177 C 
HETATM   12  S1  UNL     1     -27.159 -55.089  17.000  1.00  0.00    -0.041 SA
HETATM   13  N2  UNL     1     -27.724 -53.136  18.702  1.00  0.00    -0.295 N 
ENDROOT
BRANCH  13  14
HETATM   14  C9  UNL     1     -26.344 -53.173  19.119  1.00  0.00     0.136 C 
BRANCH  14  15
HETATM   15  C10 UNL     1     -26.072 -53.789  20.447  1.00  0.00     0.048 C 
BRANCH  15  16
HETATM   16  C11 UNL     1     -26.020 -55.261  20.543  1.00  0.00     0.234 C 
BRANCH  16  17
HETATM   17  N3  UNL     1     -27.349 -55.861  20.689  1.00  0.00    -0.073 N 
ATOM     18  H32 UNL     1     -27.805 -55.940  19.780  1.00  0.00     0.277 HD
ATOM     19  H31 UNL     1     -27.268 -56.848  20.931  1.00  0.00     0.277 HD
BRANCH  17  20
HETATM   20  C12 UNL     1     -28.197 -55.191  21.615  1.00  0.00     0.258 C 
BRANCH  20  21
HETATM   21  C13 UNL     1     -28.896 -56.224  22.511  1.00  0.00     0.191 C 
BRANCH  21  22
HETATM   22  O2  UNL     1     -28.546 -56.005  23.834  1.00  0.00    -0.399 OA
ATOM     23  H2  UNL     1     -29.271 -55.596  24.292  1.00  0.00     0.209 HD
ENDBRANCH  21  22
ENDBRANCH  20  21
ENDBRANCH  17  20
ENDBRANCH  16  17
ENDBRANCH  15  16
ENDBRANCH  14  15
ENDBRANCH  13  14
TORSDOF 7
ENDMDL
MODEL 4
REMARK VINA RESULT: -5.782814710      2.969      5.148
REMARK  7 active torsions:
REMARK  status: ('A' for Active; 'I' for Inactive)
REMARK    1  A    between atoms: N2_13  and  C9_14 
REMARK    2  A    between atoms: C9_14  and  C10_15 
REMARK    3  A    between atoms: C10_15  and  C11_16 
REMARK    4  A    between atoms: C11_16  and  N3_17 
REMARK    5  A    between atoms: N3_17  and  C12_20 
REMARK    6  A    between atoms: C12_20  and  C13_21 
REMARK    7  A    between atoms: C13_21  and  O2_22 
ROOT
HETATM    1  O1  UNL     1     -30.957 -54.963  21.076  1.00  0.00    -0.273 OA
HETATM    2  C1  UNL     1     -30.142 -54.588  20.228  1.00  0.00     0.228 C 
HETATM    3  C2  UNL     1     -30.650 -54.238  18.858  1.00  0.00     0.134 C 
HETATM    4  C3  UNL     1     -30.139 -52.870  18.445  1.00  0.00     0.040 C 
HETATM    5  C4  UNL     1     -30.331 -52.731  16.939  1.00  0.00     0.031 C 
HETATM    6  C5  UNL     1     -31.571 -51.929  16.738  1.00  0.00     0.002 C 
HETATM    7  C6  UNL     1     -32.202 -51.796  18.098  1.00  0.00     0.002 C 
HETATM    8  C7  UNL     1     -31.031 -51.797  19.063  1.00  0.00     0.031 C 
HETATM    9  N1  UNL     1     -28.753 -52.686  18.722  1.00  0.00    -0.357 N 
ATOM     10  H1  UNL     1     -28.248 -51.947  18.233  1.00  0.00     0.162 HD
HETATM   11  C8  UNL     1     -28.065 -53.484  19.640  1.00  0.00     0.177 C 
HETATM   12  S1  UNL     1     -26.430 -53.302  19.832  1.00  0.00    -0.041 SA
HETATM   13  N2  UNL     1     -28.744 -54.455  20.418  1.00  0.00    -0.295 N 
ENDROOT
BRANCH  13  14
HETATM   14  C9  UNL     1     -28.038 -55.259  21.384  1.00  0.00     0.136 C 
BRANCH  14  15
HETATM   15  C10 UNL     1     -27.701 -56.648  20.966  1.00  0.00     0.048 C 
BRANCH  15  16
HETATM   16  C11 UNL     1     -28.331 -57.773  21.685  1.00  0.00     0.234 C 
BRANCH  16  17
HETATM   17  N3  UNL     1     -29.769 -57.870  21.424  1.00  0.00    -0.073 N 
ATOM     18  H32 UNL     1     -30.101 -57.035  20.942  1.00  0.00     0.277 HD
ATOM     19  H31 UNL     1     -29.954 -58.571  20.706  1.00  0.00     0.277 HD
BRANCH  17  20
HETATM   20  C12 UNL     1     -30.560 -58.124  22.580  1.00  0.00     0.258 C 
BRANCH  20  21
HETATM   21  C13 UNL     1     -29.992 -57.338  23.772  1.00  0.00     0.191 C 
BRANCH  21  22
HETATM   22  O2  UNL     1     -30.607 -56.097  23.845  1.00  0.00    -0.399 OA
ATOM     23  H2  UNL     1     -30.022 -55.477  24.264  1.00  0.00     0.209 HD
ENDBRANCH  21  22
ENDBRANCH  20  21
ENDBRANCH  17  20
ENDBRANCH  16  17
ENDBRANCH  15  16
ENDBRANCH  14  15
ENDBRANCH  13  14
TORSDOF 7
ENDMDL
MODEL 5
REMARK VINA RESULT: -5.717405882      3.259      5.079
REMARK  7 active torsions:
REMARK  status: ('A' for Active; 'I' for Inactive)
REMARK    1  A    between atoms: N2_13  and  C9_14 
REMARK    2  A    between atoms: C9_14  and  C10_15 
REMARK    3  A    between atoms: C10_15  and  C11_16 
REMARK    4  A    between atoms: C11_16  and  N3_17 
REMARK    5  A    between atoms: N3_17  and  C12_20 
REMARK    6  A    between atoms: C12_20  and  C13_21 
REMARK    7  A    between atoms: C13_21  and  O2_22 
ROOT
HETATM    1  O1  UNL     1     -28.344 -54.242  21.988  1.00  0.00    -0.273 OA
HETATM    2  C1  UNL     1     -28.590 -54.363  20.784  1.00  0.00     0.228 C 
HETATM    3  C2  UNL     1     -29.721 -53.563  20.203  1.00  0.00     0.134 C 
HETATM    4  C3  UNL     1     -29.252 -52.813  18.970  1.00  0.00     0.040 C 
HETATM    5  C4  UNL     1     -30.485 -52.354  18.200  1.00  0.00     0.031 C 
HETATM    6  C5  UNL     1     -30.697 -50.921  18.547  1.00  0.00     0.002 C 
HETATM    7  C6  UNL     1     -29.735 -50.619  19.665  1.00  0.00     0.002 C 
HETATM    8  C7  UNL     1     -28.550 -51.530  19.403  1.00  0.00     0.031 C 
HETATM    9  N1  UNL     1     -28.471 -53.620  18.091  1.00  0.00    -0.357 N 
ATOM     10  H1  UNL     1     -28.358 -53.324  17.122  1.00  0.00     0.162 HD
HETATM   11  C8  UNL     1     -27.857 -54.802  18.514  1.00  0.00     0.177 C 
HETATM   12  S1  UNL     1     -27.063 -55.759  17.421  1.00  0.00    -0.041 SA
HETATM   13  N2  UNL     1     -27.900 -55.203  19.874  1.00  0.00    -0.295 N 
ENDROOT
BRANCH  13  14
HETATM   14  C9  UNL     1     -27.243 -56.408  20.314  1.00  0.00     0.136 C 
BRANCH  14  15
HETATM   15  C10 UNL     1     -28.058 -57.654  20.280  1.00  0.00     0.048 C 
BRANCH  15  16
HETATM   16  C11 UNL     1     -28.764 -58.068  21.508  1.00  0.00     0.234 C 
BRANCH  16  17
HETATM   17  N3  UNL     1     -30.133 -57.551  21.571  1.00  0.00    -0.073 N 
ATOM     18  H32 UNL     1     -30.323 -56.948  20.771  1.00  0.00     0.277 HD
ATOM     19  H31 UNL     1     -30.804 -58.298  21.391  1.00  0.00     0.277 HD
BRANCH  17  20
HETATM   20  C12 UNL     1     -30.452 -56.881  22.785  1.00  0.00     0.258 C 
BRANCH  20  21
HETATM   21  C13 UNL     1     -29.354 -57.153  23.825  1.00  0.00     0.191 C 
BRANCH  21  22
HETATM   22  O2  UNL     1     -28.729 -55.962  24.163  1.00  0.00    -0.399 OA
ATOM     23  H2  UNL     1     -27.852 -55.948  23.796  1.00  0.00     0.209 HD
ENDBRANCH  21  22
ENDBRANCH  20  21
ENDBRANCH  17  20
ENDBRANCH  16  17
ENDBRANCH  15  16
ENDBRANCH  14  15
ENDBRANCH  13  14
TORSDOF 7
ENDMDL
