MODEL 1
REMARK VINA RESULT: -7.058912074      0.000      0.000
REMARK  7 active torsions:
REMARK  status: ('A' for Active; 'I' for Inactive)
REMARK    1  A    between atoms: C1_2  and  C2_4 
REMARK    2  A    between atoms: C5_7  and  C6_8 
REMARK    3  A    between atoms: C6_8  and  C7_9 
REMARK    4  A    between atoms: C7_9  and  C8_10 
REMARK    5  A    between atoms: C10_14  and  C11_15 
REMARK    6  A    between atoms: C11_15  and  C12_16 
REMARK    7  A    between atoms: C12_16  and  N3_17 
ROOT
HETATM    1  C8  UNL     1     -31.922 -53.178  19.843  1.00  0.00     0.026 A 
HETATM    2  C9  UNL     1     -32.095 -52.370  20.931  1.00  0.00     0.114 A 
HETATM    3  N2  UNL     1     -31.996 -53.112  22.046  1.00  0.00    -0.354 N 
ATOM      4  H2  UNL     1     -32.080 -52.787  23.009  1.00  0.00     0.166 HD
HETATM    5  C10 UNL     1     -31.762 -54.382  21.629  1.00  0.00     0.085 A 
HETATM    6  N5  UNL     1     -31.717 -54.412  20.274  1.00  0.00    -0.348 N 
ATOM      7  H5  UNL     1     -31.555 -55.234  19.693  1.00  0.00     0.167 HD
ENDROOT
BRANCH   1   8
HETATM    8  C7  UNL     1     -31.960 -52.729  18.433  1.00  0.00     0.063 C 
BRANCH   8   9
HETATM    9  C6  UNL     1     -30.711 -52.013  18.016  1.00  0.00     0.044 C 
BRANCH   9  10
HETATM   10  C5  UNL     1     -29.476 -52.486  18.633  1.00  0.00    -0.058 A 
HETATM   11  C4  UNL     1     -28.900 -53.719  18.404  1.00  0.00     0.008 A 
HETATM   12  C3  UNL     1     -27.735 -54.124  19.005  1.00  0.00     0.017 A 
HETATM   13  C2  UNL     1     -27.085 -53.282  19.884  1.00  0.00     0.029 A 
HETATM   14  C15 UNL     1     -27.632 -52.062  20.126  1.00  0.00     0.017 A 
HETATM   15  C14 UNL     1     -28.818 -51.651  19.514  1.00  0.00     0.008 A 
BRANCH  13  16
HETATM   16  C1  UNL     1     -25.845 -53.741  20.509  1.00  0.00     0.264 C 
HETATM   17  N1  UNL     1     -25.470 -55.099  20.485  1.00  0.00    -0.057 NA
HETATM   18  O1  UNL     1     -25.089 -52.916  21.083  1.00  0.00    -0.271 OA
ENDBRANCH  13  16
ENDBRANCH   9  10
ENDBRANCH   8   9
ENDBRANCH   1   8
BRANCH   5  19
HETATM   19  C11 UNL     1     -31.573 -55.589  22.463  1.00  0.00     0.143 C 
BRANCH  19  20
HETATM   20  C12 UNL     1     -30.145 -56.082  22.247  1.00  0.00     0.234 A 
HETATM   21  C13 UNL     1     -29.842 -57.492  22.548  1.00  0.00     0.119 A 
HETATM   22  N4  UNL     1     -30.043 -57.167  21.341  1.00  0.00    -0.362 N 
ATOM     23  H4  UNL     1     -30.096 -57.477  20.371  1.00  0.00     0.161 HD
BRANCH  20  24
HETATM   24  N3  UNL     1     -29.083 -55.099  22.221  1.00  0.00    -0.047 N 
ATOM     25  H33 UNL     1     -29.081 -54.585  23.103  1.00  0.00     0.277 HD
ATOM     26  H32 UNL     1     -28.184 -55.576  22.272  1.00  0.00     0.277 HD
ATOM     27  H31 UNL     1     -29.066 -54.434  21.448  1.00  0.00     0.277 HD
ENDBRANCH  20  24
ENDBRANCH  19  20
ENDBRANCH   5  19
TORSDOF 7
ENDMDL
MODEL 2
REMARK VINA RESULT: -6.906917385      1.319      1.474
REMARK  7 active torsions:
REMARK  status: ('A' for Active; 'I' for Inactive)
REMARK    1  A    between atoms: C1_2  and  C2_4 
REMARK    2  A    between atoms: C5_7  and  C6_8 
REMARK    3  A    between atoms: C6_8  and  C7_9 
REMARK    4  A    between atoms: C7_9  and  C8_10 
REMARK    5  A    between atoms: C10_14  and  C11_15 
REMARK    6  A    between atoms: C11_15  and  C12_16 
REMARK    7  A    between atoms: C12_16  and  N3_17 
ROOT
HETATM    1  C8  UNL     1     -32.556 -53.210  20.153  1.00  0.00     0.026 A 
HETATM    2  C9  UNL     1     -32.535 -52.568  21.358  1.00  0.00     0.114 A 
HETATM    3  N2  UNL     1     -31.929 -53.354  22.262  1.00  0.00    -0.354 N 
ATOM      4  H2  UNL     1     -31.764 -53.143  23.247  1.00  0.00     0.166 HD
HETATM    5  C10 UNL     1     -31.580 -54.485  21.598  1.00  0.00     0.085 A 
HETATM    6  N5  UNL     1     -31.969 -54.386  20.302  1.00  0.00    -0.348 N 
ATOM      7  H5  UNL     1     -31.833 -55.090  19.576  1.00  0.00     0.167 HD
ENDROOT
BRANCH   1   8
HETATM    8  C7  UNL     1     -33.139 -52.666  18.906  1.00  0.00     0.063 C 
BRANCH   8   9
HETATM    9  C6  UNL     1     -32.186 -51.791  18.151  1.00  0.00     0.044 C 
BRANCH   9  10
HETATM   10  C5  UNL     1     -30.774 -52.131  18.285  1.00  0.00    -0.058 A 
HETATM   11  C4  UNL     1     -30.129 -53.126  17.577  1.00  0.00     0.008 A 
HETATM   12  C3  UNL     1     -28.796 -53.412  17.733  1.00  0.00     0.017 A 
HETATM   13  C2  UNL     1     -28.038 -52.691  18.633  1.00  0.00     0.029 A 
HETATM   14  C15 UNL     1     -28.649 -51.707  19.343  1.00  0.00     0.017 A 
HETATM   15  C14 UNL     1     -30.006 -51.416  19.183  1.00  0.00     0.008 A 
BRANCH  13  16
HETATM   16  C1  UNL     1     -26.621 -53.020  18.778  1.00  0.00     0.264 C 
HETATM   17  N1  UNL     1     -26.063 -53.334  20.032  1.00  0.00    -0.057 NA
HETATM   18  O1  UNL     1     -25.873 -53.026  17.766  1.00  0.00    -0.271 OA
ENDBRANCH  13  16
ENDBRANCH   9  10
ENDBRANCH   8   9
ENDBRANCH   1   8
BRANCH   5  19
HETATM   19  C11 UNL     1     -30.883 -55.673  22.137  1.00  0.00     0.143 C 
BRANCH  19  20
HETATM   20  C12 UNL     1     -29.448 -55.643  21.618  1.00  0.00     0.234 A 
HETATM   21  C13 UNL     1     -28.741 -56.924  21.450  1.00  0.00     0.119 A 
HETATM   22  N4  UNL     1     -29.252 -56.382  20.426  1.00  0.00    -0.362 N 
ATOM     23  H4  UNL     1     -29.414 -56.440  19.421  1.00  0.00     0.161 HD
BRANCH  20  24
HETATM   24  N3  UNL     1     -28.699 -54.412  21.762  1.00  0.00    -0.047 N 
ATOM     25  H33 UNL     1     -29.094 -53.706  21.140  1.00  0.00     0.277 HD
ATOM     26  H32 UNL     1     -28.902 -54.002  22.674  1.00  0.00     0.277 HD
ATOM     27  H31 UNL     1     -27.689 -54.448  21.628  1.00  0.00     0.277 HD
ENDBRANCH  20  24
ENDBRANCH  19  20
ENDBRANCH   5  19
TORSDOF 7
ENDMDL
MODEL 3
REMARK VINA RESULT: -6.861930910      3.707      5.101
REMARK  7 active torsions:
REMARK  status: ('A' for Active; 'I' for Inactive)
REMARK    1  A    between atoms: C1_2  and  C2_4 
REMARK    2  A    between atoms: C5_7  and  C6_8 
REMARK    3  A    between atoms: C6_8  and  C7_9 
REMARK    4  A    between atoms: C7_9  and  C8_10 
REMARK    5  A    between atoms: C10_14  and  C11_15 
REMARK    6  A    between atoms: C11_15  and  C12_16 
REMARK    7  A    between atoms: C12_16  and  N3_17 
ROOT
HETATM    1  C8  UNL     1     -28.851 -52.173  19.528  1.00  0.00     0.026 A 
HETATM    2  C9  UNL     1     -29.284 -50.878  19.564  1.00  0.00     0.114 A 
HETATM    3  N2  UNL     1     -30.536 -50.848  20.047  1.00  0.00    -0.354 N 
ATOM      4  H2  UNL     1     -31.120 -50.023  20.190  1.00  0.00     0.166 HD
HETATM    5  C10 UNL     1     -30.867 -52.138  20.306  1.00  0.00     0.085 A 
HETATM    6  N5  UNL     1     -29.824 -52.945  19.985  1.00  0.00    -0.348 N 
ATOM      7  H5  UNL     1     -29.795 -53.960  20.078  1.00  0.00     0.167 HD
ENDROOT
BRANCH   1   8
HETATM    8  C7  UNL     1     -27.520 -52.616  19.057  1.00  0.00     0.063 C 
BRANCH   8   9
HETATM    9  C6  UNL     1     -27.402 -54.107  18.962  1.00  0.00     0.044 C 
BRANCH   9  10
HETATM   10  C5  UNL     1     -27.243 -54.644  17.615  1.00  0.00    -0.058 A 
HETATM   11  C4  UNL     1     -27.028 -55.975  17.315  1.00  0.00     0.008 A 
HETATM   12  C3  UNL     1     -26.885 -56.439  16.032  1.00  0.00     0.017 A 
HETATM   13  C2  UNL     1     -26.953 -55.560  14.971  1.00  0.00     0.029 A 
HETATM   14  C15 UNL     1     -27.164 -54.245  15.239  1.00  0.00     0.017 A 
HETATM   15  C14 UNL     1     -27.310 -53.774  16.546  1.00  0.00     0.008 A 
BRANCH  13  16
HETATM   16  C1  UNL     1     -26.797 -56.085  13.615  1.00  0.00     0.264 C 
HETATM   17  N1  UNL     1     -25.660 -55.787  12.838  1.00  0.00    -0.057 NA
HETATM   18  O1  UNL     1     -27.690 -56.820  13.121  1.00  0.00    -0.271 OA
ENDBRANCH  13  16
ENDBRANCH   9  10
ENDBRANCH   8   9
ENDBRANCH   1   8
BRANCH   5  19
HETATM   19  C11 UNL     1     -32.140 -52.655  20.854  1.00  0.00     0.143 C 
BRANCH  19  20
HETATM   20  C12 UNL     1     -33.142 -52.728  19.705  1.00  0.00     0.234 A 
HETATM   21  C13 UNL     1     -34.027 -53.903  19.626  1.00  0.00     0.119 A 
HETATM   22  N4  UNL     1     -34.491 -52.836  20.125  1.00  0.00    -0.362 N 
ATOM     23  H4  UNL     1     -35.294 -52.369  20.546  1.00  0.00     0.161 HD
BRANCH  20  24
HETATM   24  N3  UNL     1     -32.880 -51.934  18.523  1.00  0.00    -0.047 N 
ATOM     25  H33 UNL     1     -33.016 -50.947  18.746  1.00  0.00     0.277 HD
ATOM     26  H32 UNL     1     -31.880 -51.952  18.323  1.00  0.00     0.277 HD
ATOM     27  H31 UNL     1     -33.396 -52.158  17.673  1.00  0.00     0.277 HD
ENDBRANCH  20  24
ENDBRANCH  19  20
ENDBRANCH   5  19
TORSDOF 7
ENDMDL
MODEL 4
REMARK VINA RESULT: -6.856815871      3.617      4.931
REMARK  7 active torsions:
REMARK  status: ('A' for Active; 'I' for Inactive)
REMARK    1  A    between atoms: C1_2  and  C2_4 
REMARK    2  A    between atoms: C5_7  and  C6_8 
REMARK    3  A    between atoms: C6_8  and  C7_9 
REMARK    4  A    between atoms: C7_9  and  C8_10 
REMARK    5  A    between atoms: C10_14  and  C11_15 
REMARK    6  A    between atoms: C11_15  and  C12_16 
REMARK    7  A    between atoms: C12_16  and  N3_17 
ROOT
HETATM    1  C8  UNL     1     -28.906 -55.534  20.174  1.00  0.00     0.026 A 
HETATM    2  C9  UNL     1     -28.352 -54.741  21.139  1.00  0.00     0.114 A 
HETATM    3  N2  UNL     1     -29.319 -54.003  21.706  1.00  0.00    -0.354 N 
ATOM      4  H2  UNL     1     -29.211 -53.320  22.456  1.00  0.00     0.166 HD
HETATM    5  C10 UNL     1     -30.471 -54.350  21.078  1.00  0.00     0.085 A 
HETATM    6  N5  UNL     1     -30.206 -55.293  20.138  1.00  0.00    -0.348 N 
ATOM      7  H5  UNL     1     -30.885 -55.734  19.519  1.00  0.00     0.167 HD
ENDROOT
BRANCH   1   8
HETATM    8  C7  UNL     1     -28.162 -56.491  19.325  1.00  0.00     0.063 C 
BRANCH   8   9
HETATM    9  C6  UNL     1     -28.702 -56.574  17.930  1.00  0.00     0.044 C 
BRANCH   9  10
HETATM   10  C5  UNL     1     -27.829 -56.055  16.882  1.00  0.00    -0.058 A 
HETATM   11  C4  UNL     1     -27.113 -56.832  15.993  1.00  0.00     0.008 A 
HETATM   12  C3  UNL     1     -26.303 -56.303  15.020  1.00  0.00     0.017 A 
HETATM   13  C2  UNL     1     -26.177 -54.934  14.899  1.00  0.00     0.029 A 
HETATM   14  C15 UNL     1     -26.872 -54.147  15.762  1.00  0.00     0.017 A 
HETATM   15  C14 UNL     1     -27.696 -54.687  16.752  1.00  0.00     0.008 A 
BRANCH  13  16
HETATM   16  C1  UNL     1     -25.307 -54.400  13.852  1.00  0.00     0.264 C 
HETATM   17  N1  UNL     1     -24.068 -54.998  13.551  1.00  0.00    -0.057 NA
HETATM   18  O1  UNL     1     -25.662 -53.384  13.200  1.00  0.00    -0.271 OA
ENDBRANCH  13  16
ENDBRANCH   9  10
ENDBRANCH   8   9
ENDBRANCH   1   8
BRANCH   5  19
HETATM   19  C11 UNL     1     -31.832 -53.829  21.327  1.00  0.00     0.143 C 
BRANCH  19  20
HETATM   20  C12 UNL     1     -32.096 -52.719  20.313  1.00  0.00     0.234 A 
HETATM   21  C13 UNL     1     -32.975 -53.016  19.168  1.00  0.00     0.119 A 
HETATM   22  N4  UNL     1     -33.467 -52.396  20.157  1.00  0.00    -0.362 N 
ATOM     23  H4  UNL     1     -34.292 -51.960  20.566  1.00  0.00     0.161 HD
BRANCH  20  24
HETATM   24  N3  UNL     1     -31.148 -51.627  20.239  1.00  0.00    -0.047 N 
ATOM     25  H33 UNL     1     -30.477 -51.815  19.494  1.00  0.00     0.277 HD
ATOM     26  H32 UNL     1     -31.619 -50.800  19.873  1.00  0.00     0.277 HD
ATOM     27  H31 UNL     1     -30.642 -51.376  21.088  1.00  0.00     0.277 HD
ENDBRANCH  20  24
ENDBRANCH  19  20
ENDBRANCH   5  19
TORSDOF 7
ENDMDL
MODEL 5
REMARK VINA RESULT: -6.852302611      4.091      5.299
REMARK  7 active torsions:
REMARK  status: ('A' for Active; 'I' for Inactive)
REMARK    1  A    between atoms: C1_2  and  C2_4 
REMARK    2  A    between atoms: C5_7  and  C6_8 
REMARK    3  A    between atoms: C6_8  and  C7_9 
REMARK    4  A    between atoms: C7_9  and  C8_10 
REMARK    5  A    between atoms: C10_14  and  C11_15 
REMARK    6  A    between atoms: C11_15  and  C12_16 
REMARK    7  A    between atoms: C12_16  and  N3_17 
ROOT
HETATM    1  C8  UNL     1     -29.085 -52.770  19.001  1.00  0.00     0.026 A 
HETATM    2  C9  UNL     1     -29.092 -51.467  19.409  1.00  0.00     0.114 A 
HETATM    3  N2  UNL     1     -30.209 -51.237  20.118  1.00  0.00    -0.354 N 
ATOM      4  H2  UNL     1     -30.491 -50.358  20.552  1.00  0.00     0.166 HD
HETATM    5  C10 UNL     1     -30.886 -52.413  20.139  1.00  0.00     0.085 A 
HETATM    6  N5  UNL     1     -30.186 -53.349  19.450  1.00  0.00    -0.348 N 
ATOM      7  H5  UNL     1     -30.459 -54.321  19.306  1.00  0.00     0.167 HD
ENDROOT
BRANCH   1   8
HETATM    8  C7  UNL     1     -28.018 -53.406  18.196  1.00  0.00     0.063 C 
BRANCH   8   9
HETATM    9  C6  UNL     1     -28.555 -54.231  17.065  1.00  0.00     0.044 C 
BRANCH   9  10
HETATM   10  C5  UNL     1     -27.563 -54.727  16.118  1.00  0.00    -0.058 A 
HETATM   11  C4  UNL     1     -27.255 -56.059  15.921  1.00  0.00     0.008 A 
HETATM   12  C3  UNL     1     -26.315 -56.484  15.017  1.00  0.00     0.017 A 
HETATM   13  C2  UNL     1     -25.626 -55.562  14.255  1.00  0.00     0.029 A 
HETATM   14  C15 UNL     1     -25.910 -54.245  14.430  1.00  0.00     0.017 A 
HETATM   15  C14 UNL     1     -26.868 -53.814  15.351  1.00  0.00     0.008 A 
BRANCH  13  16
HETATM   16  C1  UNL     1     -24.630 -56.045  13.300  1.00  0.00     0.264 C 
HETATM   17  N1  UNL     1     -23.260 -56.089  13.626  1.00  0.00    -0.057 NA
HETATM   18  O1  UNL     1     -24.992 -56.434  12.160  1.00  0.00    -0.271 OA
ENDBRANCH  13  16
ENDBRANCH   9  10
ENDBRANCH   8   9
ENDBRANCH   1   8
BRANCH   5  19
HETATM   19  C11 UNL     1     -32.182 -52.701  20.790  1.00  0.00     0.143 C 
BRANCH  19  20
HETATM   20  C12 UNL     1     -33.251 -52.731  19.700  1.00  0.00     0.234 A 
HETATM   21  C13 UNL     1     -34.163 -53.887  19.651  1.00  0.00     0.119 A 
HETATM   22  N4  UNL     1     -34.575 -52.821  20.197  1.00  0.00    -0.362 N 
ATOM     23  H4  UNL     1     -35.342 -52.347  20.673  1.00  0.00     0.161 HD
BRANCH  20  24
HETATM   24  N3  UNL     1     -33.042 -51.917  18.522  1.00  0.00    -0.047 N 
ATOM     25  H33 UNL     1     -33.179 -50.935  18.764  1.00  0.00     0.277 HD
ATOM     26  H32 UNL     1     -32.051 -51.921  18.283  1.00  0.00     0.277 HD
ATOM     27  H31 UNL     1     -33.588 -52.134  17.688  1.00  0.00     0.277 HD
ENDBRANCH  20  24
ENDBRANCH  19  20
ENDBRANCH   5  19
TORSDOF 7
ENDMDL
