MODEL 1
REMARK VINA RESULT: -7.268130996      0.000      0.000
REMARK  6 active torsions:
REMARK  status: ('A' for Active; 'I' for Inactive)
REMARK    1  A    between atoms: C1_2  and  N1_3 
REMARK    2  A    between atoms: N2_6  and  C4_7 
REMARK    3  A    between atoms: C4_7  and  C5_8 
REMARK    4  A    between atoms: C5_8  and  C6_9 
REMARK    5  A    between atoms: C8_11  and  C9_12 
REMARK    6  A    between atoms: C9_12  and  C10_13 
ROOT
HETATM    1  C6  UNL     1     -27.621 -52.454  19.156  1.00  0.00     0.011 A 
HETATM    2  C7  UNL     1     -28.868 -52.743  18.597  1.00  0.00     0.033 A 
HETATM    3  C8  UNL     1     -29.732 -51.693  18.838  1.00  0.00    -0.035 A 
HETATM    4  C13 UNL     1     -28.992 -50.765  19.549  1.00  0.00     0.095 A 
HETATM    5  N5  UNL     1     -27.751 -51.253  19.715  1.00  0.00    -0.369 N 
ATOM      6  H5  UNL     1     -27.003 -50.764  20.208  1.00  0.00     0.165 HD
ENDROOT
BRANCH   1   7
HETATM    7  C5  UNL     1     -26.443 -53.361  19.093  1.00  0.00     0.087 C 
BRANCH   7   8
HETATM    8  C4  UNL     1     -26.289 -54.098  20.378  1.00  0.00     0.280 C 
BRANCH   8   9
HETATM    9  N2  UNL     1     -27.200 -55.158  20.609  1.00  0.00     0.107 N 
HETATM   10  C3  UNL     1     -26.634 -56.443  20.829  1.00  0.00     0.294 C 
HETATM   11  C2  UNL     1     -27.842 -57.274  21.214  1.00  0.00     0.157 C 
HETATM   12  N1  UNL     1     -28.549 -56.329  22.057  1.00  0.00    -0.332 N 
HETATM   13  C14 UNL     1     -28.146 -54.992  21.658  1.00  0.00     0.399 C 
BRANCH  12  14
HETATM   14  C1  UNL     1     -29.464 -56.684  23.079  1.00  0.00     0.352 C 
HETATM   15  O1  UNL     1     -29.278 -56.327  24.270  1.00  0.00    -0.283 OA
ENDBRANCH  12  14
ENDBRANCH   8   9
ENDBRANCH   7   8
ENDBRANCH   1   7
BRANCH   3  16
HETATM   16  C9  UNL     1     -31.171 -51.566  18.425  1.00  0.00     0.098 C 
BRANCH  16  17
HETATM   17  C10 UNL     1     -32.041 -52.438  19.228  1.00  0.00     0.033 A 
HETATM   18  C11 UNL     1     -31.842 -52.922  20.481  1.00  0.00     0.118 A 
HETATM   19  N3  UNL     1     -32.884 -53.687  20.863  1.00  0.00    -0.317 N 
HETATM   20  C12 UNL     1     -33.744 -53.666  19.807  1.00  0.00     0.324 A 
ATOM     21  H3  UNL     1     -33.003 -54.176  21.750  1.00  0.00     0.170 HD
HETATM   22  O2  UNL     1     -34.852 -54.263  19.758  1.00  0.00    -0.247 OA
HETATM   23  N4  UNL     1     -33.237 -52.914  18.823  1.00  0.00    -0.311 N 
ATOM     24  H4  UNL     1     -33.679 -52.732  17.922  1.00  0.00     0.170 HD
ENDBRANCH  16  17
ENDBRANCH   3  16
TORSDOF 6
ENDMDL
MODEL 2
REMARK VINA RESULT: -6.998951890      1.022      1.221
REMARK  6 active torsions:
REMARK  status: ('A' for Active; 'I' for Inactive)
REMARK    1  A    between atoms: C1_2  and  N1_3 
REMARK    2  A    between atoms: N2_6  and  C4_7 
REMARK    3  A    between atoms: C4_7  and  C5_8 
REMARK    4  A    between atoms: C5_8  and  C6_9 
REMARK    5  A    between atoms: C8_11  and  C9_12 
REMARK    6  A    between atoms: C9_12  and  C10_13 
ROOT
HETATM    1  C6  UNL     1     -27.705 -53.184  18.149  1.00  0.00     0.011 A 
HETATM    2  C7  UNL     1     -28.609 -52.386  18.852  1.00  0.00     0.033 A 
HETATM    3  C8  UNL     1     -29.834 -52.412  18.215  1.00  0.00    -0.035 A 
HETATM    4  C13 UNL     1     -29.659 -53.236  17.117  1.00  0.00     0.095 A 
HETATM    5  N5  UNL     1     -28.387 -53.671  17.115  1.00  0.00    -0.369 N 
ATOM      6  H5  UNL     1     -27.995 -54.296  16.411  1.00  0.00     0.165 HD
ENDROOT
BRANCH   1   7
HETATM    7  C5  UNL     1     -26.285 -53.390  18.546  1.00  0.00     0.087 C 
BRANCH   7   8
HETATM    8  C4  UNL     1     -26.206 -53.850  19.961  1.00  0.00     0.280 C 
BRANCH   8   9
HETATM    9  N2  UNL     1     -26.983 -54.985  20.298  1.00  0.00     0.107 N 
HETATM   10  C3  UNL     1     -26.272 -56.197  20.514  1.00  0.00     0.294 C 
HETATM   11  C2  UNL     1     -27.356 -57.128  21.022  1.00  0.00     0.157 C 
HETATM   12  N1  UNL     1     -28.090 -56.226  21.886  1.00  0.00    -0.332 N 
HETATM   13  C14 UNL     1     -27.858 -54.872  21.412  1.00  0.00     0.399 C 
BRANCH  12  14
HETATM   14  C1  UNL     1     -28.884 -56.628  22.989  1.00  0.00     0.352 C 
HETATM   15  O1  UNL     1     -28.745 -56.094  24.118  1.00  0.00    -0.283 OA
ENDBRANCH  12  14
ENDBRANCH   8   9
ENDBRANCH   7   8
ENDBRANCH   1   7
BRANCH   3  16
HETATM   16  C9  UNL     1     -31.099 -51.705  18.611  1.00  0.00     0.098 C 
BRANCH  16  17
HETATM   17  C10 UNL     1     -32.026 -52.608  19.309  1.00  0.00     0.033 A 
HETATM   18  C11 UNL     1     -31.790 -53.414  20.378  1.00  0.00     0.118 A 
HETATM   19  N3  UNL     1     -32.908 -54.084  20.719  1.00  0.00    -0.317 N 
HETATM   20  C12 UNL     1     -33.854 -53.671  19.831  1.00  0.00     0.324 A 
ATOM     21  H3  UNL     1     -33.022 -54.756  21.479  1.00  0.00     0.170 HD
HETATM   22  O2  UNL     1     -35.050 -54.064  19.806  1.00  0.00    -0.247 OA
HETATM   23  N4  UNL     1     -33.323 -52.783  18.982  1.00  0.00    -0.311 N 
ATOM     24  H4  UNL     1     -33.814 -52.318  18.219  1.00  0.00     0.170 HD
ENDBRANCH  16  17
ENDBRANCH   3  16
TORSDOF 6
ENDMDL
MODEL 3
REMARK VINA RESULT: -6.964988511      1.874      1.993
REMARK  6 active torsions:
REMARK  status: ('A' for Active; 'I' for Inactive)
REMARK    1  A    between atoms: C1_2  and  N1_3 
REMARK    2  A    between atoms: N2_6  and  C4_7 
REMARK    3  A    between atoms: C4_7  and  C5_8 
REMARK    4  A    between atoms: C5_8  and  C6_9 
REMARK    5  A    between atoms: C8_11  and  C9_12 
REMARK    6  A    between atoms: C9_12  and  C10_13 
ROOT
HETATM    1  C6  UNL     1     -27.620 -52.407  19.351  1.00  0.00     0.011 A 
HETATM    2  C7  UNL     1     -28.847 -52.720  18.763  1.00  0.00     0.033 A 
HETATM    3  C8  UNL     1     -29.721 -51.666  18.938  1.00  0.00    -0.035 A 
HETATM    4  C13 UNL     1     -29.008 -50.711  19.641  1.00  0.00     0.095 A 
HETATM    5  N5  UNL     1     -27.771 -51.188  19.865  1.00  0.00    -0.369 N 
ATOM      6  H5  UNL     1     -27.041 -50.680  20.364  1.00  0.00     0.165 HD
ENDROOT
BRANCH   1   7
HETATM    7  C5  UNL     1     -26.439 -53.312  19.358  1.00  0.00     0.087 C 
BRANCH   7   8
HETATM    8  C4  UNL     1     -26.677 -54.480  18.464  1.00  0.00     0.280 C 
BRANCH   8   9
HETATM    9  N2  UNL     1     -26.836 -55.736  19.099  1.00  0.00     0.107 N 
HETATM   10  C3  UNL     1     -26.412 -56.876  18.362  1.00  0.00     0.294 C 
HETATM   11  C2  UNL     1     -26.548 -57.993  19.377  1.00  0.00     0.157 C 
HETATM   12  N1  UNL     1     -26.057 -57.325  20.567  1.00  0.00    -0.332 N 
HETATM   13  C14 UNL     1     -26.255 -55.897  20.386  1.00  0.00     0.399 C 
BRANCH  12  14
HETATM   14  C1  UNL     1     -25.490 -57.981  21.688  1.00  0.00     0.352 C 
HETATM   15  O1  UNL     1     -24.399 -57.600  22.180  1.00  0.00    -0.283 OA
ENDBRANCH  12  14
ENDBRANCH   8   9
ENDBRANCH   7   8
ENDBRANCH   1   7
BRANCH   3  16
HETATM   16  C9  UNL     1     -31.146 -51.558  18.474  1.00  0.00     0.098 C 
BRANCH  16  17
HETATM   17  C10 UNL     1     -32.036 -52.428  19.259  1.00  0.00     0.033 A 
HETATM   18  C11 UNL     1     -31.853 -52.931  20.507  1.00  0.00     0.118 A 
HETATM   19  N3  UNL     1     -32.910 -53.685  20.871  1.00  0.00    -0.317 N 
HETATM   20  C12 UNL     1     -33.761 -53.637  19.809  1.00  0.00     0.324 A 
ATOM     21  H3  UNL     1     -33.043 -54.184  21.751  1.00  0.00     0.170 HD
HETATM   22  O2  UNL     1     -34.877 -54.217  19.744  1.00  0.00    -0.247 OA
HETATM   23  N4  UNL     1     -33.235 -52.880  18.839  1.00  0.00    -0.311 N 
ATOM     24  H4  UNL     1     -33.667 -52.680  17.937  1.00  0.00     0.170 HD
ENDBRANCH  16  17
ENDBRANCH   3  16
TORSDOF 6
ENDMDL
MODEL 4
REMARK VINA RESULT: -6.924539154      1.823      2.160
REMARK  6 active torsions:
REMARK  status: ('A' for Active; 'I' for Inactive)
REMARK    1  A    between atoms: C1_2  and  N1_3 
REMARK    2  A    between atoms: N2_6  and  C4_7 
REMARK    3  A    between atoms: C4_7  and  C5_8 
REMARK    4  A    between atoms: C5_8  and  C6_9 
REMARK    5  A    between atoms: C8_11  and  C9_12 
REMARK    6  A    between atoms: C9_12  and  C10_13 
ROOT
HETATM    1  C6  UNL     1     -27.690 -53.231  18.276  1.00  0.00     0.011 A 
HETATM    2  C7  UNL     1     -29.060 -52.963  18.230  1.00  0.00     0.033 A 
HETATM    3  C8  UNL     1     -29.369 -52.001  19.170  1.00  0.00    -0.035 A 
HETATM    4  C13 UNL     1     -28.170 -51.690  19.786  1.00  0.00     0.095 A 
HETATM    5  N5  UNL     1     -27.203 -52.439  19.228  1.00  0.00    -0.369 N 
ATOM      6  H5  UNL     1     -26.220 -52.404  19.500  1.00  0.00     0.165 HD
ENDROOT
BRANCH   1   7
HETATM    7  C5  UNL     1     -27.000 -54.219  17.402  1.00  0.00     0.087 C 
BRANCH   7   8
HETATM    8  C4  UNL     1     -27.317 -55.607  17.840  1.00  0.00     0.280 C 
BRANCH   8   9
HETATM    9  N2  UNL     1     -27.127 -55.892  19.214  1.00  0.00     0.107 N 
HETATM   10  C3  UNL     1     -28.181 -56.588  19.868  1.00  0.00     0.294 C 
HETATM   11  C2  UNL     1     -27.585 -56.881  21.230  1.00  0.00     0.157 C 
HETATM   12  N1  UNL     1     -26.230 -57.232  20.853  1.00  0.00    -0.332 N 
HETATM   13  C14 UNL     1     -25.945 -56.591  19.581  1.00  0.00     0.399 C 
BRANCH  12  14
HETATM   14  C1  UNL     1     -25.366 -58.058  21.614  1.00  0.00     0.352 C 
HETATM   15  O1  UNL     1     -24.415 -57.568  22.274  1.00  0.00    -0.283 OA
ENDBRANCH  12  14
ENDBRANCH   8   9
ENDBRANCH   7   8
ENDBRANCH   1   7
BRANCH   3  16
HETATM   16  C9  UNL     1     -30.714 -51.404  19.476  1.00  0.00     0.098 C 
BRANCH  16  17
HETATM   17  C10 UNL     1     -31.686 -52.438  19.864  1.00  0.00     0.033 A 
HETATM   18  C11 UNL     1     -31.532 -53.473  20.730  1.00  0.00     0.118 A 
HETATM   19  N3  UNL     1     -32.668 -54.195  20.810  1.00  0.00    -0.317 N 
HETATM   20  C12 UNL     1     -33.540 -53.577  19.966  1.00  0.00     0.324 A 
ATOM     21  H3  UNL     1     -32.837 -55.025  21.379  1.00  0.00     0.170 HD
HETATM   22  O2  UNL     1     -34.726 -53.942  19.749  1.00  0.00    -0.247 OA
HETATM   23  N4  UNL     1     -32.949 -52.520  19.396  1.00  0.00    -0.311 N 
ATOM     24  H4  UNL     1     -33.380 -51.884  18.725  1.00  0.00     0.170 HD
ENDBRANCH  16  17
ENDBRANCH   3  16
TORSDOF 6
ENDMDL
MODEL 5
REMARK VINA RESULT: -6.855615026      2.017      2.627
REMARK  6 active torsions:
REMARK  status: ('A' for Active; 'I' for Inactive)
REMARK    1  A    between atoms: C1_2  and  N1_3 
REMARK    2  A    between atoms: N2_6  and  C4_7 
REMARK    3  A    between atoms: C4_7  and  C5_8 
REMARK    4  A    between atoms: C5_8  and  C6_9 
REMARK    5  A    between atoms: C8_11  and  C9_12 
REMARK    6  A    between atoms: C9_12  and  C10_13 
ROOT
HETATM    1  C6  UNL     1     -27.509 -53.216  18.227  1.00  0.00     0.011 A 
HETATM    2  C7  UNL     1     -28.900 -53.125  18.304  1.00  0.00     0.033 A 
HETATM    3  C8  UNL     1     -29.245 -52.186  19.257  1.00  0.00    -0.035 A 
HETATM    4  C13 UNL     1     -28.045 -51.711  19.755  1.00  0.00     0.095 A 
HETATM    5  N5  UNL     1     -27.044 -52.344  19.120  1.00  0.00    -0.369 N 
ATOM      6  H5  UNL     1     -26.054 -52.178  19.299  1.00  0.00     0.165 HD
ENDROOT
BRANCH   1   7
HETATM    7  C5  UNL     1     -26.779 -54.129  17.306  1.00  0.00     0.087 C 
BRANCH   7   8
HETATM    8  C4  UNL     1     -27.009 -55.548  17.696  1.00  0.00     0.280 C 
BRANCH   8   9
HETATM    9  N2  UNL     1     -26.924 -55.842  19.079  1.00  0.00     0.107 N 
HETATM   10  C3  UNL     1     -28.028 -56.533  19.649  1.00  0.00     0.294 C 
HETATM   11  C2  UNL     1     -27.537 -56.839  21.050  1.00  0.00     0.157 C 
HETATM   12  N1  UNL     1     -26.161 -57.199  20.771  1.00  0.00    -0.332 N 
HETATM   13  C14 UNL     1     -25.777 -56.553  19.527  1.00  0.00     0.399 C 
BRANCH  12  14
HETATM   14  C1  UNL     1     -25.361 -58.036  21.589  1.00  0.00     0.352 C 
HETATM   15  O1  UNL     1     -24.385 -57.575  22.232  1.00  0.00    -0.283 OA
ENDBRANCH  12  14
ENDBRANCH   8   9
ENDBRANCH   7   8
ENDBRANCH   1   7
BRANCH   3  16
HETATM   16  C9  UNL     1     -30.622 -51.758  19.678  1.00  0.00     0.098 C 
BRANCH  16  17
HETATM   17  C10 UNL     1     -31.331 -52.838  20.381  1.00  0.00     0.033 A 
HETATM   18  C11 UNL     1     -32.537 -53.394  20.094  1.00  0.00     0.118 A 
HETATM   19  N3  UNL     1     -32.832 -54.364  20.983  1.00  0.00    -0.317 N 
HETATM   20  C12 UNL     1     -31.771 -54.398  21.835  1.00  0.00     0.324 A 
ATOM     21  H3  UNL     1     -33.670 -54.946  21.011  1.00  0.00     0.170 HD
HETATM   22  O2  UNL     1     -31.652 -55.175  22.820  1.00  0.00    -0.247 OA
HETATM   23  N4  UNL     1     -30.867 -53.480  21.473  1.00  0.00    -0.311 N 
ATOM     24  H4  UNL     1     -29.980 -53.297  21.941  1.00  0.00     0.170 HD
ENDBRANCH  16  17
ENDBRANCH   3  16
TORSDOF 6
ENDMDL
