MODEL 1
REMARK VINA RESULT: -6.814742087      0.000      0.000
REMARK  7 active torsions:
REMARK  status: ('A' for Active; 'I' for Inactive)
REMARK    1  A    between atoms: C1_4  and  C2_6 
REMARK    2  A    between atoms: N3_8  and  C4_9 
REMARK    3  A    between atoms: C4_9  and  C5_10 
REMARK    4  A    between atoms: C5_10  and  C6_11 
REMARK    5  A    between atoms: C6_11  and  C7_12 
REMARK    6  A    between atoms: C7_12  and  N4_13 
REMARK    7  A    between atoms: N5_22  and  N6_23 
ROOT
HETATM    1  C2  UNL     1     -31.481 -53.487  20.315  1.00  0.00     0.113 A 
HETATM    2  C3  UNL     1     -30.635 -54.238  19.488  1.00  0.00     0.127 A 
HETATM    3  N3  UNL     1     -29.656 -54.719  20.265  1.00  0.00    -0.349 N 
HETATM    4  C15 UNL     1     -29.877 -54.293  21.499  1.00  0.00     0.209 A 
HETATM    5  N5  UNL     1     -31.002 -53.523  21.572  1.00  0.00    -0.254 N 
ENDROOT
BRANCH   3   6
HETATM    6  C4  UNL     1     -28.540 -55.566  19.816  1.00  0.00     0.129 C 
BRANCH   6   7
HETATM    7  C5  UNL     1     -28.422 -55.542  18.318  1.00  0.00     0.022 C 
BRANCH   7   8
HETATM    8  C6  UNL     1     -27.007 -55.375  17.875  1.00  0.00     0.022 C 
BRANCH   8   9
HETATM    9  C7  UNL     1     -26.650 -53.933  17.593  1.00  0.00     0.128 C 
BRANCH   9  10
HETATM   10  N4  UNL     1     -26.437 -53.246  18.862  1.00  0.00    -0.356 N 
HETATM   11  C8  UNL     1     -25.424 -53.533  19.689  1.00  0.00     0.091 A 
HETATM   12  C9  UNL     1     -25.201 -52.898  20.893  1.00  0.00     0.018 A 
HETATM   13  C10 UNL     1     -26.069 -51.891  21.299  1.00  0.00     0.015 A 
HETATM   14  C11 UNL     1     -27.107 -51.602  20.446  1.00  0.00    -0.009 A 
HETATM   15  C12 UNL     1     -27.289 -52.263  19.252  1.00  0.00     0.044 A 
HETATM   16  C14 UNL     1     -28.292 -50.829  20.118  1.00  0.00     0.016 A 
HETATM   17  C13 UNL     1     -28.469 -51.474  18.955  1.00  0.00     0.031 A 
ENDBRANCH   9  10
ENDBRANCH   8   9
ENDBRANCH   7   8
ENDBRANCH   6   7
ENDBRANCH   3   6
BRANCH   1  18
HETATM   18  C1  UNL     1     -32.669 -52.805  19.815  1.00  0.00     0.140 C 
HETATM   19  N1  UNL     1     -32.677 -51.674  19.257  1.00  0.00    -0.386 N 
ATOM     20  H12 UNL     1     -33.508 -51.197  18.908  1.00  0.00     0.157 HD
ATOM     21  H11 UNL     1     -31.780 -51.202  19.149  1.00  0.00     0.157 HD
HETATM   22  N2  UNL     1     -33.946 -53.477  19.969  1.00  0.00    -0.081 NA
ENDBRANCH   1  18
BRANCH   5  23
HETATM   23  N6  UNL     1     -31.498 -52.931  22.731  1.00  0.00    -0.337 N 
ATOM     24  H62 UNL     1     -32.055 -52.077  22.764  1.00  0.00     0.177 HD
ATOM     25  H61 UNL     1     -31.402 -53.222  23.703  1.00  0.00     0.177 HD
ENDBRANCH   5  23
TORSDOF 7
ENDMDL
MODEL 2
REMARK VINA RESULT: -6.800957803      1.503      2.164
REMARK  7 active torsions:
REMARK  status: ('A' for Active; 'I' for Inactive)
REMARK    1  A    between atoms: C1_4  and  C2_6 
REMARK    2  A    between atoms: N3_8  and  C4_9 
REMARK    3  A    between atoms: C4_9  and  C5_10 
REMARK    4  A    between atoms: C5_10  and  C6_11 
REMARK    5  A    between atoms: C6_11  and  C7_12 
REMARK    6  A    between atoms: C7_12  and  N4_13 
REMARK    7  A    between atoms: N5_22  and  N6_23 
ROOT
HETATM    1  C2  UNL     1     -31.177 -53.978  21.111  1.00  0.00     0.113 A 
HETATM    2  C3  UNL     1     -30.231 -54.334  20.142  1.00  0.00     0.127 A 
HETATM    3  N3  UNL     1     -29.375 -55.183  20.727  1.00  0.00    -0.349 N 
HETATM    4  C15 UNL     1     -29.763 -55.343  21.983  1.00  0.00     0.209 A 
HETATM    5  N5  UNL     1     -30.881 -54.610  22.261  1.00  0.00    -0.254 N 
ENDROOT
BRANCH   3   6
HETATM    6  C4  UNL     1     -28.214 -55.815  20.080  1.00  0.00     0.129 C 
BRANCH   6   7
HETATM    7  C5  UNL     1     -28.329 -55.734  18.584  1.00  0.00     0.022 C 
BRANCH   7   8
HETATM    8  C6  UNL     1     -27.306 -54.820  17.997  1.00  0.00     0.022 C 
BRANCH   8   9
HETATM    9  C7  UNL     1     -27.917 -53.725  17.152  1.00  0.00     0.128 C 
BRANCH   9  10
HETATM   10  N4  UNL     1     -28.374 -52.654  18.031  1.00  0.00    -0.356 N 
HETATM   11  C8  UNL     1     -27.643 -52.180  19.049  1.00  0.00     0.091 A 
HETATM   12  C9  UNL     1     -28.051 -51.170  19.892  1.00  0.00     0.018 A 
HETATM   13  C10 UNL     1     -29.298 -50.586  19.698  1.00  0.00     0.015 A 
HETATM   14  C11 UNL     1     -30.043 -51.077  18.653  1.00  0.00    -0.009 A 
HETATM   15  C12 UNL     1     -29.593 -52.090  17.835  1.00  0.00     0.044 A 
HETATM   16  C14 UNL     1     -31.254 -51.064  17.851  1.00  0.00     0.016 A 
HETATM   17  C13 UNL     1     -30.814 -52.050  17.054  1.00  0.00     0.031 A 
ENDBRANCH   9  10
ENDBRANCH   8   9
ENDBRANCH   7   8
ENDBRANCH   6   7
ENDBRANCH   3   6
BRANCH   1  18
HETATM   18  C1  UNL     1     -32.277 -53.060  20.837  1.00  0.00     0.140 C 
HETATM   19  N1  UNL     1     -32.354 -51.872  21.254  1.00  0.00    -0.386 N 
ATOM     20  H12 UNL     1     -33.123 -51.231  21.062  1.00  0.00     0.157 HD
ATOM     21  H11 UNL     1     -31.584 -51.530  21.828  1.00  0.00     0.157 HD
HETATM   22  N2  UNL     1     -33.373 -53.547  20.020  1.00  0.00    -0.081 NA
ENDBRANCH   1  18
BRANCH   5  23
HETATM   23  N6  UNL     1     -31.530 -54.569  23.493  1.00  0.00    -0.337 N 
ATOM     24  H62 UNL     1     -31.645 -53.736  24.071  1.00  0.00     0.177 HD
ATOM     25  H61 UNL     1     -31.982 -55.319  24.016  1.00  0.00     0.177 HD
ENDBRANCH   5  23
TORSDOF 7
ENDMDL
MODEL 3
REMARK VINA RESULT: -6.782440391      2.034      4.976
REMARK  7 active torsions:
REMARK  status: ('A' for Active; 'I' for Inactive)
REMARK    1  A    between atoms: C1_4  and  C2_6 
REMARK    2  A    between atoms: N3_8  and  C4_9 
REMARK    3  A    between atoms: C4_9  and  C5_10 
REMARK    4  A    between atoms: C5_10  and  C6_11 
REMARK    5  A    between atoms: C6_11  and  C7_12 
REMARK    6  A    between atoms: C7_12  and  N4_13 
REMARK    7  A    between atoms: N5_22  and  N6_23 
ROOT
HETATM    1  C2  UNL     1     -28.423 -55.213  21.810  1.00  0.00     0.113 A 
HETATM    2  C3  UNL     1     -27.985 -53.903  21.575  1.00  0.00     0.127 A 
HETATM    3  N3  UNL     1     -27.512 -53.869  20.322  1.00  0.00    -0.349 N 
HETATM    4  C15 UNL     1     -27.646 -55.082  19.809  1.00  0.00     0.209 A 
HETATM    5  N5  UNL     1     -28.208 -55.947  20.703  1.00  0.00    -0.254 N 
ENDROOT
BRANCH   3   6
HETATM    6  C4  UNL     1     -26.947 -52.689  19.648  1.00  0.00     0.129 C 
BRANCH   6   7
HETATM    7  C5  UNL     1     -27.203 -51.444  20.450  1.00  0.00     0.022 C 
BRANCH   7   8
HETATM    8  C6  UNL     1     -27.937 -50.415  19.657  1.00  0.00     0.022 C 
BRANCH   8   9
HETATM    9  C7  UNL     1     -29.383 -50.275  20.078  1.00  0.00     0.128 C 
BRANCH   9  10
HETATM   10  N4  UNL     1     -30.173 -51.287  19.384  1.00  0.00    -0.356 N 
HETATM   11  C8  UNL     1     -30.181 -51.423  18.052  1.00  0.00     0.091 A 
HETATM   12  C9  UNL     1     -30.918 -52.370  17.374  1.00  0.00     0.018 A 
HETATM   13  C10 UNL     1     -31.713 -53.255  18.094  1.00  0.00     0.015 A 
HETATM   14  C11 UNL     1     -31.699 -53.110  19.460  1.00  0.00    -0.009 A 
HETATM   15  C12 UNL     1     -30.946 -52.147  20.095  1.00  0.00     0.044 A 
HETATM   16  C14 UNL     1     -32.150 -53.525  20.778  1.00  0.00     0.016 A 
HETATM   17  C13 UNL     1     -31.415 -52.587  21.395  1.00  0.00     0.031 A 
ENDBRANCH   9  10
ENDBRANCH   8   9
ENDBRANCH   7   8
ENDBRANCH   6   7
ENDBRANCH   3   6
BRANCH   1  18
HETATM   18  C1  UNL     1     -29.005 -55.632  23.079  1.00  0.00     0.140 C 
HETATM   19  N1  UNL     1     -30.233 -55.831  23.285  1.00  0.00    -0.386 N 
ATOM     20  H12 UNL     1     -30.641 -56.124  24.173  1.00  0.00     0.157 HD
ATOM     21  H11 UNL     1     -30.866 -55.684  22.499  1.00  0.00     0.157 HD
HETATM   22  N2  UNL     1     -28.104 -55.841  24.198  1.00  0.00    -0.081 NA
ENDBRANCH   1  18
BRANCH   5  23
HETATM   23  N6  UNL     1     -28.478 -57.292  20.461  1.00  0.00    -0.337 N 
ATOM     24  H62 UNL     1     -29.405 -57.688  20.301  1.00  0.00     0.177 HD
ATOM     25  H61 UNL     1     -27.838 -58.084  20.404  1.00  0.00     0.177 HD
ENDBRANCH   5  23
TORSDOF 7
ENDMDL
MODEL 4
REMARK VINA RESULT: -6.773533201      2.525      3.858
REMARK  7 active torsions:
REMARK  status: ('A' for Active; 'I' for Inactive)
REMARK    1  A    between atoms: C1_4  and  C2_6 
REMARK    2  A    between atoms: N3_8  and  C4_9 
REMARK    3  A    between atoms: C4_9  and  C5_10 
REMARK    4  A    between atoms: C5_10  and  C6_11 
REMARK    5  A    between atoms: C6_11  and  C7_12 
REMARK    6  A    between atoms: C7_12  and  N4_13 
REMARK    7  A    between atoms: N5_22  and  N6_23 
ROOT
HETATM    1  C2  UNL     1     -29.689 -56.562  22.606  1.00  0.00     0.113 A 
HETATM    2  C3  UNL     1     -28.381 -56.648  22.112  1.00  0.00     0.127 A 
HETATM    3  N3  UNL     1     -28.093 -55.461  21.562  1.00  0.00    -0.349 N 
HETATM    4  C15 UNL     1     -29.156 -54.685  21.703  1.00  0.00     0.209 A 
HETATM    5  N5  UNL     1     -30.171 -55.332  22.347  1.00  0.00    -0.254 N 
ENDROOT
BRANCH   3   6
HETATM    6  C4  UNL     1     -26.821 -55.099  20.918  1.00  0.00     0.129 C 
BRANCH   6   7
HETATM    7  C5  UNL     1     -26.828 -55.489  19.467  1.00  0.00     0.022 C 
BRANCH   7   8
HETATM    8  C6  UNL     1     -26.835 -54.296  18.571  1.00  0.00     0.022 C 
BRANCH   8   9
HETATM    9  C7  UNL     1     -28.211 -53.980  18.031  1.00  0.00     0.128 C 
BRANCH   9  10
HETATM   10  N4  UNL     1     -28.647 -52.700  18.579  1.00  0.00    -0.356 N 
HETATM   11  C8  UNL     1     -27.921 -51.991  19.453  1.00  0.00     0.091 A 
HETATM   12  C9  UNL     1     -28.310 -50.780  19.984  1.00  0.00     0.018 A 
HETATM   13  C10 UNL     1     -29.532 -50.235  19.605  1.00  0.00     0.015 A 
HETATM   14  C11 UNL     1     -30.272 -50.967  18.708  1.00  0.00    -0.009 A 
HETATM   15  C12 UNL     1     -29.842 -52.174  18.204  1.00  0.00     0.044 A 
HETATM   16  C14 UNL     1     -31.467 -51.135  17.898  1.00  0.00     0.016 A 
HETATM   17  C13 UNL     1     -31.046 -52.311  17.407  1.00  0.00     0.031 A 
ENDBRANCH   9  10
ENDBRANCH   8   9
ENDBRANCH   7   8
ENDBRANCH   6   7
ENDBRANCH   3   6
BRANCH   1  18
HETATM   18  C1  UNL     1     -30.351 -57.673  23.280  1.00  0.00     0.140 C 
HETATM   19  N1  UNL     1     -31.174 -58.463  22.742  1.00  0.00    -0.386 N 
ATOM     20  H12 UNL     1     -31.637 -59.240  23.213  1.00  0.00     0.157 HD
ATOM     21  H11 UNL     1     -31.392 -58.309  21.758  1.00  0.00     0.157 HD
HETATM   22  N2  UNL     1     -30.042 -57.892  24.680  1.00  0.00    -0.081 NA
ENDBRANCH   1  18
BRANCH   5  23
HETATM   23  N6  UNL     1     -31.415 -54.783  22.645  1.00  0.00    -0.337 N 
ATOM     24  H62 UNL     1     -32.093 -55.178  23.298  1.00  0.00     0.177 HD
ATOM     25  H61 UNL     1     -31.855 -53.936  22.288  1.00  0.00     0.177 HD
ENDBRANCH   5  23
TORSDOF 7
ENDMDL
MODEL 5
REMARK VINA RESULT: -6.708805203      2.175      4.698
REMARK  7 active torsions:
REMARK  status: ('A' for Active; 'I' for Inactive)
REMARK    1  A    between atoms: C1_4  and  C2_6 
REMARK    2  A    between atoms: N3_8  and  C4_9 
REMARK    3  A    between atoms: C4_9  and  C5_10 
REMARK    4  A    between atoms: C5_10  and  C6_11 
REMARK    5  A    between atoms: C6_11  and  C7_12 
REMARK    6  A    between atoms: C7_12  and  N4_13 
REMARK    7  A    between atoms: N5_22  and  N6_23 
ROOT
HETATM    1  C2  UNL     1     -29.036 -55.640  22.266  1.00  0.00     0.113 A 
HETATM    2  C3  UNL     1     -28.282 -54.476  22.070  1.00  0.00     0.127 A 
HETATM    3  N3  UNL     1     -27.308 -54.784  21.204  1.00  0.00    -0.349 N 
HETATM    4  C15 UNL     1     -27.445 -56.061  20.881  1.00  0.00     0.209 A 
HETATM    5  N5  UNL     1     -28.509 -56.630  21.521  1.00  0.00    -0.254 N 
ENDROOT
BRANCH   3   6
HETATM    6  C4  UNL     1     -26.275 -53.860  20.709  1.00  0.00     0.129 C 
BRANCH   6   7
HETATM    7  C5  UNL     1     -26.745 -52.436  20.801  1.00  0.00     0.022 C 
BRANCH   7   8
HETATM    8  C6  UNL     1     -27.475 -52.012  19.570  1.00  0.00     0.022 C 
BRANCH   8   9
HETATM    9  C7  UNL     1     -28.645 -51.103  19.870  1.00  0.00     0.128 C 
BRANCH   9  10
HETATM   10  N4  UNL     1     -29.826 -51.617  19.185  1.00  0.00    -0.356 N 
HETATM   11  C8  UNL     1     -29.919 -51.703  17.851  1.00  0.00     0.091 A 
HETATM   12  C9  UNL     1     -31.022 -52.185  17.181  1.00  0.00     0.018 A 
HETATM   13  C10 UNL     1     -32.124 -52.618  17.910  1.00  0.00     0.015 A 
HETATM   14  C11 UNL     1     -32.022 -52.527  19.277  1.00  0.00    -0.009 A 
HETATM   15  C12 UNL     1     -30.897 -52.038  19.904  1.00  0.00     0.044 A 
HETATM   16  C14 UNL     1     -32.590 -52.717  20.601  1.00  0.00     0.016 A 
HETATM   17  C13 UNL     1     -31.494 -52.240  21.210  1.00  0.00     0.031 A 
ENDBRANCH   9  10
ENDBRANCH   8   9
ENDBRANCH   7   8
ENDBRANCH   6   7
ENDBRANCH   3   6
BRANCH   1  18
HETATM   18  C1  UNL     1     -30.193 -55.690  23.153  1.00  0.00     0.140 C 
HETATM   19  N1  UNL     1     -31.379 -55.429  22.815  1.00  0.00    -0.386 N 
ATOM     20  H12 UNL     1     -32.188 -55.464  23.435  1.00  0.00     0.157 HD
ATOM     21  H11 UNL     1     -31.539 -55.163  21.843  1.00  0.00     0.157 HD
HETATM   22  N2  UNL     1     -29.966 -56.069  24.535  1.00  0.00    -0.081 NA
ENDBRANCH   1  18
BRANCH   5  23
HETATM   23  N6  UNL     1     -28.912 -57.956  21.389  1.00  0.00    -0.337 N 
ATOM     24  H62 UNL     1     -28.295 -58.767  21.434  1.00  0.00     0.177 HD
ATOM     25  H61 UNL     1     -29.843 -58.341  21.230  1.00  0.00     0.177 HD
ENDBRANCH   5  23
TORSDOF 7
ENDMDL
