MODEL 1
REMARK VINA RESULT: -7.556272120      0.000      0.000
REMARK  7 active torsions:
REMARK  status: ('A' for Active; 'I' for Inactive)
REMARK    1  A    between atoms: C7_12  and  C8_13 
REMARK    2  A    between atoms: C8_13  and  C9_14 
REMARK    3  A    between atoms: C10_19  and  C11_20 
REMARK    4  A    between atoms: C11_20  and  C12_21 
REMARK    5  A    between atoms: C12_21  and  C13_22 
REMARK    6  A    between atoms: C13_22  and  C14_23 
REMARK    7  A    between atoms: C14_23  and  O2_24 
ROOT
HETATM    1  C8  UNL     1     -30.245 -54.660  20.769  1.00  0.00     0.106 C 
ENDROOT
BRANCH   1   2
HETATM    2  C7  UNL     1     -28.824 -54.299  20.563  1.00  0.00     0.029 A 
HETATM    3  C1  UNL     1     -27.794 -54.162  21.584  1.00  0.00     0.254 A 
HETATM    4  O1  UNL     1     -27.985 -54.340  22.815  1.00  0.00    -0.268 OA
HETATM    5  N1  UNL     1     -26.616 -53.806  20.888  1.00  0.00    -0.308 N 
HETATM    6  C2  UNL     1     -26.891 -53.738  19.628  1.00  0.00     0.118 A 
ATOM      7  H1  UNL     1     -25.704 -53.634  21.310  1.00  0.00     0.170 HD
HETATM    8  N2  UNL     1     -26.059 -53.428  18.584  1.00  0.00    -0.352 N 
HETATM    9  C6  UNL     1     -28.216 -54.033  19.426  1.00  0.00     0.020 A 
HETATM   10  C3  UNL     1     -26.582 -53.420  17.348  1.00  0.00     0.090 A 
ATOM     11  H2  UNL     1     -25.075 -53.211  18.741  1.00  0.00     0.166 HD
HETATM   12  C4  UNL     1     -27.905 -53.708  17.097  1.00  0.00     0.018 A 
HETATM   13  C5  UNL     1     -28.746 -54.021  18.132  1.00  0.00     0.017 A 
ENDBRANCH   1   2
BRANCH   1  14
HETATM   14  C9  UNL     1     -30.936 -53.440  21.257  1.00  0.00     0.054 A 
HETATM   15  N3  UNL     1     -31.313 -52.865  22.390  1.00  0.00    -0.302 N 
HETATM   16  N4  UNL     1     -31.826 -51.819  21.787  1.00  0.00    -0.303 N 
ATOM     17  H3  UNL     1     -31.234 -53.135  23.370  1.00  0.00     0.186 HD
HETATM   18  C10 UNL     1     -31.476 -52.337  20.598  1.00  0.00     0.050 A 
ATOM     19  H4  UNL     1     -32.295 -50.967  22.093  1.00  0.00     0.186 HD
BRANCH  18  20
HETATM   20  C11 UNL     1     -31.553 -51.925  19.190  1.00  0.00     0.061 C 
BRANCH  20  21
HETATM   21  C12 UNL     1     -30.528 -51.023  18.669  1.00  0.00     0.008 C 
BRANCH  21  22
HETATM   22  C13 UNL     1     -29.354 -50.678  19.477  1.00  0.00     0.026 C 
BRANCH  22  23
HETATM   23  C14 UNL     1     -29.165 -49.276  19.899  1.00  0.00     0.164 C 
BRANCH  23  24
HETATM   24  O2  UNL     1     -30.204 -48.434  19.474  1.00  0.00    -0.401 OA
ATOM     25  H2  UNL     1     -30.024 -47.516  19.636  1.00  0.00     0.209 HD
ENDBRANCH  23  24
ENDBRANCH  22  23
ENDBRANCH  21  22
ENDBRANCH  20  21
ENDBRANCH  18  20
ENDBRANCH   1  14
TORSDOF 7
ENDMDL
MODEL 2
REMARK VINA RESULT: -7.247910678      1.593      3.694
REMARK  7 active torsions:
REMARK  status: ('A' for Active; 'I' for Inactive)
REMARK    1  A    between atoms: C7_12  and  C8_13 
REMARK    2  A    between atoms: C8_13  and  C9_14 
REMARK    3  A    between atoms: C10_19  and  C11_20 
REMARK    4  A    between atoms: C11_20  and  C12_21 
REMARK    5  A    between atoms: C12_21  and  C13_22 
REMARK    6  A    between atoms: C13_22  and  C14_23 
REMARK    7  A    between atoms: C14_23  and  O2_24 
ROOT
HETATM    1  C8  UNL     1     -29.921 -52.039  17.961  1.00  0.00     0.106 C 
ENDROOT
BRANCH   1   2
HETATM    2  C7  UNL     1     -28.805 -51.728  18.882  1.00  0.00     0.029 A 
HETATM    3  C1  UNL     1     -28.626 -50.516  19.671  1.00  0.00     0.254 A 
HETATM    4  O1  UNL     1     -29.426 -49.545  19.672  1.00  0.00    -0.268 OA
HETATM    5  N1  UNL     1     -27.418 -50.701  20.380  1.00  0.00    -0.308 N 
HETATM    6  C2  UNL     1     -26.933 -51.856  20.067  1.00  0.00     0.118 A 
ATOM      7  H1  UNL     1     -27.000 -50.034  21.029  1.00  0.00     0.170 HD
HETATM    8  N2  UNL     1     -25.781 -52.452  20.511  1.00  0.00    -0.352 N 
HETATM    9  C6  UNL     1     -27.761 -52.479  19.168  1.00  0.00     0.020 A 
HETATM   10  C3  UNL     1     -25.483 -53.672  20.036  1.00  0.00     0.090 A 
ATOM     11  H2  UNL     1     -25.170 -51.985  21.181  1.00  0.00     0.166 HD
HETATM   12  C4  UNL     1     -26.284 -54.334  19.132  1.00  0.00     0.018 A 
HETATM   13  C5  UNL     1     -27.438 -53.750  18.682  1.00  0.00     0.017 A 
ENDBRANCH   1   2
BRANCH   1  14
HETATM   14  C9  UNL     1     -31.181 -51.801  18.711  1.00  0.00     0.054 A 
HETATM   15  N3  UNL     1     -32.174 -50.926  18.785  1.00  0.00    -0.302 N 
HETATM   16  N4  UNL     1     -32.802 -51.593  19.724  1.00  0.00    -0.303 N 
ATOM     17  H3  UNL     1     -32.375 -50.055  18.294  1.00  0.00     0.186 HD
HETATM   18  C10 UNL     1     -31.834 -52.523  19.707  1.00  0.00     0.050 A 
ATOM     19  H4  UNL     1     -33.667 -51.460  20.247  1.00  0.00     0.186 HD
BRANCH  18  20
HETATM   20  C11 UNL     1     -31.567 -53.799  20.385  1.00  0.00     0.061 C 
BRANCH  20  21
HETATM   21  C12 UNL     1     -30.445 -53.875  21.318  1.00  0.00     0.008 C 
BRANCH  21  22
HETATM   22  C13 UNL     1     -29.589 -55.064  21.363  1.00  0.00     0.026 C 
BRANCH  22  23
HETATM   23  C14 UNL     1     -28.341 -55.016  22.150  1.00  0.00     0.164 C 
BRANCH  23  24
HETATM   24  O2  UNL     1     -27.969 -53.709  22.501  1.00  0.00    -0.401 OA
ATOM     25  H2  UNL     1     -27.885 -53.589  23.440  1.00  0.00     0.209 HD
ENDBRANCH  23  24
ENDBRANCH  22  23
ENDBRANCH  21  22
ENDBRANCH  20  21
ENDBRANCH  18  20
ENDBRANCH   1  14
TORSDOF 7
ENDMDL
MODEL 3
REMARK VINA RESULT: -7.039302152      2.134      4.344
REMARK  7 active torsions:
REMARK  status: ('A' for Active; 'I' for Inactive)
REMARK    1  A    between atoms: C7_12  and  C8_13 
REMARK    2  A    between atoms: C8_13  and  C9_14 
REMARK    3  A    between atoms: C10_19  and  C11_20 
REMARK    4  A    between atoms: C11_20  and  C12_21 
REMARK    5  A    between atoms: C12_21  and  C13_22 
REMARK    6  A    between atoms: C13_22  and  C14_23 
REMARK    7  A    between atoms: C14_23  and  O2_24 
ROOT
HETATM    1  C8  UNL     1     -26.822 -53.348  18.532  1.00  0.00     0.106 C 
ENDROOT
BRANCH   1   2
HETATM    2  C7  UNL     1     -27.766 -52.304  18.994  1.00  0.00     0.029 A 
HETATM    3  C1  UNL     1     -27.566 -51.359  20.085  1.00  0.00     0.254 A 
HETATM    4  O1  UNL     1     -26.531 -51.305  20.798  1.00  0.00    -0.268 OA
HETATM    5  N1  UNL     1     -28.744 -50.579  20.130  1.00  0.00    -0.308 N 
HETATM    6  C2  UNL     1     -29.542 -50.990  19.202  1.00  0.00     0.118 A 
ATOM      7  H1  UNL     1     -28.931 -49.819  20.784  1.00  0.00     0.170 HD
HETATM    8  N2  UNL     1     -30.791 -50.528  18.877  1.00  0.00    -0.352 N 
HETATM    9  C6  UNL     1     -28.960 -52.027  18.515  1.00  0.00     0.020 A 
HETATM   10  C3  UNL     1     -31.435 -51.125  17.860  1.00  0.00     0.090 A 
ATOM     11  H2  UNL     1     -31.217 -49.757  19.389  1.00  0.00     0.166 HD
HETATM   12  C4  UNL     1     -30.891 -52.168  17.144  1.00  0.00     0.018 A 
HETATM   13  C5  UNL     1     -29.643 -52.637  17.459  1.00  0.00     0.017 A 
ENDBRANCH   1   2
BRANCH   1  14
HETATM   14  C9  UNL     1     -26.680 -54.324  19.641  1.00  0.00     0.054 A 
HETATM   15  N3  UNL     1     -25.744 -54.873  20.403  1.00  0.00    -0.302 N 
HETATM   16  N4  UNL     1     -26.603 -55.590  21.087  1.00  0.00    -0.303 N 
ATOM     17  H3  UNL     1     -24.730 -54.774  20.443  1.00  0.00     0.186 HD
HETATM   18  C10 UNL     1     -27.607 -55.079  20.357  1.00  0.00     0.050 A 
ATOM     19  H4  UNL     1     -26.536 -56.258  21.855  1.00  0.00     0.186 HD
BRANCH  18  20
HETATM   20  C11 UNL     1     -29.072 -55.190  20.329  1.00  0.00     0.061 C 
BRANCH  20  21
HETATM   21  C12 UNL     1     -29.849 -54.427  21.304  1.00  0.00     0.008 C 
BRANCH  21  22
HETATM   22  C13 UNL     1     -31.091 -53.755  20.908  1.00  0.00     0.026 C 
BRANCH  22  23
HETATM   23  C14 UNL     1     -31.748 -52.846  21.867  1.00  0.00     0.164 C 
BRANCH  23  24
HETATM   24  O2  UNL     1     -31.350 -51.509  21.711  1.00  0.00    -0.401 OA
ATOM     25  H2  UNL     1     -31.217 -51.064  22.539  1.00  0.00     0.209 HD
ENDBRANCH  23  24
ENDBRANCH  22  23
ENDBRANCH  21  22
ENDBRANCH  20  21
ENDBRANCH  18  20
ENDBRANCH   1  14
TORSDOF 7
ENDMDL
MODEL 4
REMARK VINA RESULT: -7.022015009      2.071      2.527
REMARK  7 active torsions:
REMARK  status: ('A' for Active; 'I' for Inactive)
REMARK    1  A    between atoms: C7_12  and  C8_13 
REMARK    2  A    between atoms: C8_13  and  C9_14 
REMARK    3  A    between atoms: C10_19  and  C11_20 
REMARK    4  A    between atoms: C11_20  and  C12_21 
REMARK    5  A    between atoms: C12_21  and  C13_22 
REMARK    6  A    between atoms: C13_22  and  C14_23 
REMARK    7  A    between atoms: C14_23  and  O2_24 
ROOT
HETATM    1  C8  UNL     1     -31.133 -53.038  21.326  1.00  0.00     0.106 C 
ENDROOT
BRANCH   1   2
HETATM    2  C7  UNL     1     -30.391 -54.316  21.415  1.00  0.00     0.029 A 
HETATM    3  C1  UNL     1     -30.462 -55.301  22.487  1.00  0.00     0.254 A 
HETATM    4  O1  UNL     1     -31.188 -55.189  23.509  1.00  0.00    -0.268 OA
HETATM    5  N1  UNL     1     -29.574 -56.335  22.111  1.00  0.00    -0.308 N 
HETATM    6  C2  UNL     1     -29.042 -56.023  20.976  1.00  0.00     0.118 A 
ATOM      7  H1  UNL     1     -29.386 -57.183  22.645  1.00  0.00     0.170 HD
HETATM    8  N2  UNL     1     -28.128 -56.725  20.235  1.00  0.00    -0.352 N 
HETATM    9  C6  UNL     1     -29.529 -54.811  20.552  1.00  0.00     0.020 A 
HETATM   10  C3  UNL     1     -27.718 -56.189  19.074  1.00  0.00     0.090 A 
ATOM     11  H2  UNL     1     -27.771 -57.626  20.554  1.00  0.00     0.166 HD
HETATM   12  C4  UNL     1     -28.178 -54.977  18.610  1.00  0.00     0.018 A 
HETATM   13  C5  UNL     1     -29.093 -54.267  19.341  1.00  0.00     0.017 A 
ENDBRANCH   1   2
BRANCH   1  14
HETATM   14  C9  UNL     1     -32.330 -53.289  20.485  1.00  0.00     0.054 A 
HETATM   15  N3  UNL     1     -33.550 -53.800  20.573  1.00  0.00    -0.302 N 
HETATM   16  N4  UNL     1     -33.834 -53.555  19.316  1.00  0.00    -0.303 N 
ATOM     17  H3  UNL     1     -34.075 -54.227  21.336  1.00  0.00     0.186 HD
HETATM   18  C10 UNL     1     -32.613 -53.021  19.147  1.00  0.00     0.050 A 
ATOM     19  H4  UNL     1     -34.645 -53.707  18.716  1.00  0.00     0.186 HD
BRANCH  18  20
HETATM   20  C11 UNL     1     -31.875 -52.368  18.058  1.00  0.00     0.061 C 
BRANCH  20  21
HETATM   21  C12 UNL     1     -31.345 -51.024  18.279  1.00  0.00     0.008 C 
BRANCH  21  22
HETATM   22  C13 UNL     1     -29.956 -50.829  18.705  1.00  0.00     0.026 C 
BRANCH  22  23
HETATM   23  C14 UNL     1     -29.670 -49.876  19.795  1.00  0.00     0.164 C 
BRANCH  23  24
HETATM   24  O2  UNL     1     -30.089 -48.569  19.500  1.00  0.00    -0.401 OA
ATOM     25  H2  UNL     1     -29.512 -48.126  18.890  1.00  0.00     0.209 HD
ENDBRANCH  23  24
ENDBRANCH  22  23
ENDBRANCH  21  22
ENDBRANCH  20  21
ENDBRANCH  18  20
ENDBRANCH   1  14
TORSDOF 7
ENDMDL
MODEL 5
REMARK VINA RESULT: -6.996314086      2.551      4.904
REMARK  7 active torsions:
REMARK  status: ('A' for Active; 'I' for Inactive)
REMARK    1  A    between atoms: C7_12  and  C8_13 
REMARK    2  A    between atoms: C8_13  and  C9_14 
REMARK    3  A    between atoms: C10_19  and  C11_20 
REMARK    4  A    between atoms: C11_20  and  C12_21 
REMARK    5  A    between atoms: C12_21  and  C13_22 
REMARK    6  A    between atoms: C13_22  and  C14_23 
REMARK    7  A    between atoms: C14_23  and  O2_24 
ROOT
HETATM    1  C8  UNL     1     -30.131 -52.573  18.968  1.00  0.00     0.106 C 
ENDROOT
BRANCH   1   2
HETATM    2  C7  UNL     1     -30.671 -53.274  20.155  1.00  0.00     0.029 A 
HETATM    3  C1  UNL     1     -31.977 -53.081  20.772  1.00  0.00     0.254 A 
HETATM    4  O1  UNL     1     -32.843 -52.266  20.361  1.00  0.00    -0.268 OA
HETATM    5  N1  UNL     1     -32.016 -53.976  21.866  1.00  0.00    -0.308 N 
HETATM    6  C2  UNL     1     -30.896 -54.619  21.906  1.00  0.00     0.118 A 
ATOM      7  H1  UNL     1     -32.795 -54.093  22.512  1.00  0.00     0.170 HD
HETATM    8  N2  UNL     1     -30.492 -55.582  22.794  1.00  0.00    -0.352 N 
HETATM    9  C6  UNL     1     -30.084 -54.202  20.881  1.00  0.00     0.020 A 
HETATM   10  C3  UNL     1     -29.268 -56.110  22.631  1.00  0.00     0.090 A 
ATOM     11  H2  UNL     1     -31.101 -55.889  23.552  1.00  0.00     0.166 HD
HETATM   12  C4  UNL     1     -28.420 -55.723  21.618  1.00  0.00     0.018 A 
HETATM   13  C5  UNL     1     -28.813 -54.762  20.724  1.00  0.00     0.017 A 
ENDBRANCH   1   2
BRANCH   1  14
HETATM   14  C9  UNL     1     -29.551 -51.293  19.447  1.00  0.00     0.054 A 
HETATM   15  N3  UNL     1     -29.925 -50.066  19.784  1.00  0.00    -0.302 N 
HETATM   16  N4  UNL     1     -28.706 -49.687  20.083  1.00  0.00    -0.303 N 
ATOM     17  H3  UNL     1     -30.828 -49.593  19.803  1.00  0.00     0.186 HD
HETATM   18  C10 UNL     1     -28.249 -50.908  19.760  1.00  0.00     0.050 A 
ATOM     19  H4  UNL     1     -28.282 -48.823  20.421  1.00  0.00     0.186 HD
BRANCH  18  20
HETATM   20  C11 UNL     1     -26.955 -51.601  19.775  1.00  0.00     0.061 C 
BRANCH  20  21
HETATM   21  C12 UNL     1     -26.360 -51.945  21.065  1.00  0.00     0.008 C 
BRANCH  21  22
HETATM   22  C13 UNL     1     -25.278 -52.931  21.151  1.00  0.00     0.026 C 
BRANCH  22  23
HETATM   23  C14 UNL     1     -25.291 -54.087  20.232  1.00  0.00     0.164 C 
BRANCH  23  24
HETATM   24  O2  UNL     1     -24.983 -55.296  20.874  1.00  0.00    -0.401 OA
ATOM     25  H2  UNL     1     -24.566 -55.925  20.295  1.00  0.00     0.209 HD
ENDBRANCH  23  24
ENDBRANCH  22  23
ENDBRANCH  21  22
ENDBRANCH  20  21
ENDBRANCH  18  20
ENDBRANCH   1  14
TORSDOF 7
ENDMDL
