MODEL 1
REMARK VINA RESULT: -6.025385170      0.000      0.000
REMARK  7 active torsions:
REMARK  status: ('A' for Active; 'I' for Inactive)
REMARK    1  A    between atoms: C2_2  and  C3_3 
REMARK    2  A    between atoms: C3_3  and  N1_4 
REMARK    3  A    between atoms: N2_7  and  C6_8 
REMARK    4  A    between atoms: C6_8  and  C7_9 
REMARK    5  A    between atoms: C7_9  and  C8_10 
REMARK    6  A    between atoms: C8_10  and  N3_11 
REMARK    7  A    between atoms: N3_11  and  C9_13 
ROOT
HETATM    1  N3  UNL     1     -29.924 -50.593  20.349  1.00  0.00    -0.370 N 
ATOM      2  H3  UNL     1     -30.076 -49.760  20.917  1.00  0.00     0.161 HD
ENDROOT
BRANCH   1   3
HETATM    3  C8  UNL     1     -28.795 -50.649  19.463  1.00  0.00     0.123 C 
BRANCH   3   4
HETATM    4  C7  UNL     1     -27.495 -50.935  20.184  1.00  0.00     0.040 C 
BRANCH   4   5
HETATM    5  C6  UNL     1     -26.866 -52.176  19.544  1.00  0.00     0.131 C 
BRANCH   5   6
HETATM    6  N2  UNL     1     -27.513 -53.364  20.110  1.00  0.00    -0.351 N 
HETATM    7  C5  UNL     1     -28.314 -54.232  19.461  1.00  0.00     0.109 A 
HETATM    8  C4  UNL     1     -28.720 -55.211  20.343  1.00  0.00     0.109 A 
HETATM    9  N1  UNL     1     -28.159 -54.938  21.539  1.00  0.00    -0.352 N 
HETATM   10  C12 UNL     1     -27.436 -53.817  21.372  1.00  0.00     0.185 A 
BRANCH   9  11
HETATM   11  C3  UNL     1     -28.328 -55.727  22.756  1.00  0.00     0.129 C 
BRANCH  11  12
HETATM   12  C2  UNL     1     -28.875 -57.098  22.415  1.00  0.00     0.016 C 
HETATM   13  C1  UNL     1     -30.201 -57.300  23.101  1.00  0.00     0.006 C 
ENDBRANCH  11  12
ENDBRANCH   9  11
ENDBRANCH   5   6
ENDBRANCH   4   5
ENDBRANCH   3   4
ENDBRANCH   1   3
BRANCH   1  14
HETATM   14  C9  UNL     1     -30.750 -51.579  20.438  1.00  0.00     0.160 A 
HETATM   15  N4  UNL     1     -30.812 -52.345  21.541  1.00  0.00    -0.171 N 
HETATM   16  C10 UNL     1     -31.616 -53.377  21.740  1.00  0.00     0.678 A 
ATOM     17  H4  UNL     1     -30.176 -52.106  22.301  1.00  0.00     0.186 HD
HETATM   18  N5  UNL     1     -31.492 -53.973  22.906  1.00  0.00    -0.234 N 
HETATM   19  N6  UNL     1     -32.532 -53.882  20.904  1.00  0.00    -0.196 N 
ATOM     20  H52 UNL     1     -30.795 -53.588  23.544  1.00  0.00     0.174 HD
ATOM     21  H51 UNL     1     -32.112 -54.768  23.060  1.00  0.00     0.174 HD
HETATM   22  C11 UNL     1     -32.792 -53.403  19.676  1.00  0.00     0.159 A 
ATOM     23  H6  UNL     1     -33.070 -54.688  21.221  1.00  0.00     0.184 HD
HETATM   24  S1  UNL     1     -31.858 -52.060  19.218  1.00  0.00    -0.048 SA
ENDBRANCH   1  14
TORSDOF 7
ENDMDL
MODEL 2
REMARK VINA RESULT: -5.899397680      1.141      1.291
REMARK  7 active torsions:
REMARK  status: ('A' for Active; 'I' for Inactive)
REMARK    1  A    between atoms: C2_2  and  C3_3 
REMARK    2  A    between atoms: C3_3  and  N1_4 
REMARK    3  A    between atoms: N2_7  and  C6_8 
REMARK    4  A    between atoms: C6_8  and  C7_9 
REMARK    5  A    between atoms: C7_9  and  C8_10 
REMARK    6  A    between atoms: C8_10  and  N3_11 
REMARK    7  A    between atoms: N3_11  and  C9_13 
ROOT
HETATM    1  N3  UNL     1     -29.532 -51.216  19.119  1.00  0.00    -0.370 N 
ATOM      2  H3  UNL     1     -29.533 -50.904  18.148  1.00  0.00     0.161 HD
ENDROOT
BRANCH   1   3
HETATM    3  C8  UNL     1     -28.432 -50.866  19.973  1.00  0.00     0.123 C 
BRANCH   3   4
HETATM    4  C7  UNL     1     -27.170 -51.641  19.655  1.00  0.00     0.040 C 
BRANCH   4   5
HETATM    5  C6  UNL     1     -26.547 -52.089  20.980  1.00  0.00     0.131 C 
BRANCH   5   6
HETATM    6  N2  UNL     1     -26.631 -53.551  21.058  1.00  0.00    -0.351 N 
HETATM    7  C5  UNL     1     -25.729 -54.436  20.592  1.00  0.00     0.109 A 
HETATM    8  C4  UNL     1     -26.175 -55.713  20.860  1.00  0.00     0.109 A 
HETATM    9  N1  UNL     1     -27.360 -55.603  21.496  1.00  0.00    -0.352 N 
HETATM   10  C12 UNL     1     -27.613 -54.287  21.603  1.00  0.00     0.185 A 
BRANCH   9  11
HETATM   11  C3  UNL     1     -28.179 -56.718  21.963  1.00  0.00     0.129 C 
BRANCH  11  12
HETATM   12  C2  UNL     1     -29.465 -56.200  22.572  1.00  0.00     0.016 C 
HETATM   13  C1  UNL     1     -29.476 -56.484  24.052  1.00  0.00     0.006 C 
ENDBRANCH  11  12
ENDBRANCH   9  11
ENDBRANCH   5   6
ENDBRANCH   4   5
ENDBRANCH   3   4
ENDBRANCH   1   3
BRANCH   1  14
HETATM   14  C9  UNL     1     -30.518 -51.919  19.559  1.00  0.00     0.160 A 
HETATM   15  N4  UNL     1     -30.605 -52.273  20.853  1.00  0.00    -0.171 N 
HETATM   16  C10 UNL     1     -31.568 -52.990  21.411  1.00  0.00     0.678 A 
ATOM     17  H4  UNL     1     -29.854 -51.958  21.466  1.00  0.00     0.186 HD
HETATM   18  N5  UNL     1     -31.434 -53.209  22.701  1.00  0.00    -0.234 N 
HETATM   19  N6  UNL     1     -32.652 -53.513  20.824  1.00  0.00    -0.196 N 
ATOM     20  H52 UNL     1     -30.609 -52.809  23.148  1.00  0.00     0.174 HD
ATOM     21  H51 UNL     1     -32.176 -53.761  23.132  1.00  0.00     0.174 HD
HETATM   22  C11 UNL     1     -32.949 -53.391  19.520  1.00  0.00     0.159 A 
ATOM     23  H6  UNL     1     -33.299 -54.043  21.409  1.00  0.00     0.184 HD
HETATM   24  S1  UNL     1     -31.828 -52.496  18.610  1.00  0.00    -0.048 SA
ENDBRANCH   1  14
TORSDOF 7
ENDMDL
MODEL 3
REMARK VINA RESULT: -5.820022339      2.004      4.434
REMARK  7 active torsions:
REMARK  status: ('A' for Active; 'I' for Inactive)
REMARK    1  A    between atoms: C2_2  and  C3_3 
REMARK    2  A    between atoms: C3_3  and  N1_4 
REMARK    3  A    between atoms: N2_7  and  C6_8 
REMARK    4  A    between atoms: C6_8  and  C7_9 
REMARK    5  A    between atoms: C7_9  and  C8_10 
REMARK    6  A    between atoms: C8_10  and  N3_11 
REMARK    7  A    between atoms: N3_11  and  C9_13 
ROOT
HETATM    1  N3  UNL     1     -27.303 -54.232  21.455  1.00  0.00    -0.370 N 
ATOM      2  H3  UNL     1     -26.773 -53.514  21.949  1.00  0.00     0.161 HD
ENDROOT
BRANCH   1   3
HETATM    3  C8  UNL     1     -26.724 -54.877  20.311  1.00  0.00     0.123 C 
BRANCH   3   4
HETATM    4  C7  UNL     1     -26.989 -54.133  19.018  1.00  0.00     0.040 C 
BRANCH   4   5
HETATM    5  C6  UNL     1     -26.602 -52.667  19.234  1.00  0.00     0.131 C 
BRANCH   5   6
HETATM    6  N2  UNL     1     -27.831 -51.867  19.271  1.00  0.00    -0.351 N 
HETATM    7  C5  UNL     1     -28.039 -50.743  19.983  1.00  0.00     0.109 A 
HETATM    8  C4  UNL     1     -29.321 -50.294  19.747  1.00  0.00     0.109 A 
HETATM    9  N1  UNL     1     -29.899 -51.154  18.882  1.00  0.00    -0.352 N 
HETATM   10  C12 UNL     1     -28.977 -52.095  18.610  1.00  0.00     0.185 A 
BRANCH   9  11
HETATM   11  C3  UNL     1     -31.260 -51.051  18.364  1.00  0.00     0.129 C 
BRANCH  11  12
HETATM   12  C2  UNL     1     -31.594 -52.272  17.532  1.00  0.00     0.016 C 
HETATM   13  C1  UNL     1     -32.554 -53.153  18.288  1.00  0.00     0.006 C 
ENDBRANCH  11  12
ENDBRANCH   9  11
ENDBRANCH   5   6
ENDBRANCH   4   5
ENDBRANCH   3   4
ENDBRANCH   1   3
BRANCH   1  14
HETATM   14  C9  UNL     1     -28.483 -54.544  21.870  1.00  0.00     0.160 A 
HETATM   15  N4  UNL     1     -29.529 -53.718  21.697  1.00  0.00    -0.171 N 
HETATM   16  C10 UNL     1     -30.777 -53.936  22.080  1.00  0.00     0.678 A 
ATOM     17  H4  UNL     1     -29.342 -52.835  21.222  1.00  0.00     0.186 HD
HETATM   18  N5  UNL     1     -31.630 -52.975  21.798  1.00  0.00    -0.234 N 
HETATM   19  N6  UNL     1     -31.270 -55.007  22.714  1.00  0.00    -0.196 N 
ATOM     20  H52 UNL     1     -31.255 -52.159  21.315  1.00  0.00     0.174 HD
ATOM     21  H51 UNL     1     -32.592 -53.142  22.093  1.00  0.00     0.174 HD
HETATM   22  C11 UNL     1     -30.547 -56.078  23.079  1.00  0.00     0.159 A 
ATOM     23  H6  UNL     1     -32.266 -55.010  22.936  1.00  0.00     0.184 HD
HETATM   24  S1  UNL     1     -28.898 -56.002  22.676  1.00  0.00    -0.048 SA
ENDBRANCH   1  14
TORSDOF 7
ENDMDL
MODEL 4
REMARK VINA RESULT: -5.774034229      1.795      4.173
REMARK  7 active torsions:
REMARK  status: ('A' for Active; 'I' for Inactive)
REMARK    1  A    between atoms: C2_2  and  C3_3 
REMARK    2  A    between atoms: C3_3  and  N1_4 
REMARK    3  A    between atoms: N2_7  and  C6_8 
REMARK    4  A    between atoms: C6_8  and  C7_9 
REMARK    5  A    between atoms: C7_9  and  C8_10 
REMARK    6  A    between atoms: C8_10  and  N3_11 
REMARK    7  A    between atoms: N3_11  and  C9_13 
ROOT
HETATM    1  N3  UNL     1     -31.600 -53.980  21.156  1.00  0.00    -0.370 N 
ATOM      2  H3  UNL     1     -32.601 -54.169  21.204  1.00  0.00     0.161 HD
ENDROOT
BRANCH   1   3
HETATM    3  C8  UNL     1     -30.720 -54.590  22.113  1.00  0.00     0.123 C 
BRANCH   3   4
HETATM    4  C7  UNL     1     -29.553 -55.307  21.466  1.00  0.00     0.040 C 
BRANCH   4   5
HETATM    5  C6  UNL     1     -28.262 -54.679  22.000  1.00  0.00     0.131 C 
BRANCH   5   6
HETATM    6  N2  UNL     1     -27.632 -53.926  20.911  1.00  0.00    -0.351 N 
HETATM    7  C5  UNL     1     -27.028 -52.725  21.006  1.00  0.00     0.109 A 
HETATM    8  C4  UNL     1     -26.565 -52.358  19.760  1.00  0.00     0.109 A 
HETATM    9  N1  UNL     1     -26.889 -53.345  18.899  1.00  0.00    -0.352 N 
HETATM   10  C12 UNL     1     -27.533 -54.280  19.619  1.00  0.00     0.185 A 
BRANCH   9  11
HETATM   11  C3  UNL     1     -26.584 -53.360  17.472  1.00  0.00     0.129 C 
BRANCH  11  12
HETATM   12  C2  UNL     1     -27.549 -54.274  16.743  1.00  0.00     0.016 C 
HETATM   13  C1  UNL     1     -26.818 -55.498  16.255  1.00  0.00     0.006 C 
ENDBRANCH  11  12
ENDBRANCH   9  11
ENDBRANCH   5   6
ENDBRANCH   4   5
ENDBRANCH   3   4
ENDBRANCH   1   3
BRANCH   1  14
HETATM   14  C9  UNL     1     -31.146 -53.198  20.238  1.00  0.00     0.160 A 
HETATM   15  N4  UNL     1     -30.612 -52.002  20.537  1.00  0.00    -0.171 N 
HETATM   16  C10 UNL     1     -30.118 -51.122  19.680  1.00  0.00     0.678 A 
ATOM     17  H4  UNL     1     -30.583 -51.746  21.524  1.00  0.00     0.186 HD
HETATM   18  N5  UNL     1     -29.648 -50.016  20.213  1.00  0.00    -0.234 N 
HETATM   19  N6  UNL     1     -30.041 -51.224  18.347  1.00  0.00    -0.196 N 
ATOM     20  H52 UNL     1     -29.705 -49.938  21.229  1.00  0.00     0.174 HD
ATOM     21  H51 UNL     1     -29.267 -49.338  19.553  1.00  0.00     0.174 HD
HETATM   22  C11 UNL     1     -30.471 -52.279  17.635  1.00  0.00     0.159 A 
ATOM     23  H6  UNL     1     -29.627 -50.445  17.835  1.00  0.00     0.184 HD
HETATM   24  S1  UNL     1     -31.148 -53.536  18.555  1.00  0.00    -0.048 SA
ENDBRANCH   1  14
TORSDOF 7
ENDMDL
MODEL 5
REMARK VINA RESULT: -5.773229703      2.154      4.192
REMARK  7 active torsions:
REMARK  status: ('A' for Active; 'I' for Inactive)
REMARK    1  A    between atoms: C2_2  and  C3_3 
REMARK    2  A    between atoms: C3_3  and  N1_4 
REMARK    3  A    between atoms: N2_7  and  C6_8 
REMARK    4  A    between atoms: C6_8  and  C7_9 
REMARK    5  A    between atoms: C7_9  and  C8_10 
REMARK    6  A    between atoms: C8_10  and  N3_11 
REMARK    7  A    between atoms: N3_11  and  C9_13 
ROOT
HETATM    1  N3  UNL     1     -27.308 -53.418  21.681  1.00  0.00    -0.370 N 
ATOM      2  H3  UNL     1     -27.549 -52.531  22.123  1.00  0.00     0.161 HD
ENDROOT
BRANCH   1   3
HETATM    3  C8  UNL     1     -26.119 -53.509  20.880  1.00  0.00     0.123 C 
BRANCH   3   4
HETATM    4  C7  UNL     1     -26.199 -52.684  19.612  1.00  0.00     0.040 C 
BRANCH   4   5
HETATM    5  C6  UNL     1     -27.206 -51.555  19.849  1.00  0.00     0.131 C 
BRANCH   5   6
HETATM    6  N2  UNL     1     -28.485 -51.944  19.247  1.00  0.00    -0.351 N 
HETATM    7  C5  UNL     1     -28.662 -52.756  18.187  1.00  0.00     0.109 A 
HETATM    8  C4  UNL     1     -30.013 -52.871  17.933  1.00  0.00     0.109 A 
HETATM    9  N1  UNL     1     -30.663 -52.121  18.847  1.00  0.00    -0.352 N 
HETATM   10  C12 UNL     1     -29.717 -51.572  19.629  1.00  0.00     0.185 A 
BRANCH   9  11
HETATM   11  C3  UNL     1     -32.111 -51.962  18.939  1.00  0.00     0.129 C 
BRANCH  11  12
HETATM   12  C2  UNL     1     -32.606 -52.462  20.281  1.00  0.00     0.016 C 
HETATM   13  C1  UNL     1     -33.641 -53.536  20.071  1.00  0.00     0.006 C 
ENDBRANCH  11  12
ENDBRANCH   9  11
ENDBRANCH   5   6
ENDBRANCH   4   5
ENDBRANCH   3   4
ENDBRANCH   1   3
BRANCH   1  14
HETATM   14  C9  UNL     1     -28.077 -54.439  21.850  1.00  0.00     0.160 A 
HETATM   15  N4  UNL     1     -29.365 -54.296  22.202  1.00  0.00    -0.171 N 
HETATM   16  C10 UNL     1     -30.241 -55.269  22.402  1.00  0.00     0.678 A 
ATOM     17  H4  UNL     1     -29.704 -53.342  22.329  1.00  0.00     0.186 HD
HETATM   18  N5  UNL     1     -31.450 -54.880  22.743  1.00  0.00    -0.234 N 
HETATM   19  N6  UNL     1     -30.043 -56.590  22.300  1.00  0.00    -0.196 N 
ATOM     20  H52 UNL     1     -31.601 -53.874  22.820  1.00  0.00     0.174 HD
ATOM     21  H51 UNL     1     -32.125 -55.629  22.897  1.00  0.00     0.174 HD
HETATM   22  C11 UNL     1     -28.876 -57.163  21.964  1.00  0.00     0.159 A 
ATOM     23  H6  UNL     1     -30.835 -57.204  22.490  1.00  0.00     0.184 HD
HETATM   24  S1  UNL     1     -27.604 -56.079  21.661  1.00  0.00    -0.048 SA
ENDBRANCH   1  14
TORSDOF 7
ENDMDL
