MODEL 1
REMARK VINA RESULT: -6.465462253      0.000      0.000
REMARK  6 active torsions:
REMARK  status: ('A' for Active; 'I' for Inactive)
REMARK       I    between atoms: N2_3  and  C2_5 
REMARK       I    between atoms: C2_5  and  N5_11 
REMARK    1  A    between atoms: N3_6  and  C3_8 
REMARK    2  A    between atoms: N5_11  and  C4_13 
REMARK    3  A    between atoms: C4_13  and  C5_14 
REMARK    4  A    between atoms: C5_14  and  C6_15 
REMARK    5  A    between atoms: C6_15  and  C7_16 
REMARK    6  A    between atoms: C7_16  and  N6_17 
ROOT
HETATM    1  N1  UNL     1      42.368  -0.562  16.745  1.00  0.00    -0.171 NA
HETATM    2  C1  UNL     1      43.290  -0.770  17.410  1.00  0.00     0.196 C 
HETATM    3  N2  UNL     1      44.417  -1.014  18.195  1.00  0.00    -0.126 N 
ATOM      4  H2  UNL     1      45.363  -0.764  17.906  1.00  0.00     0.197 HD
HETATM    5  C2  UNL     1      44.117  -1.658  19.468  1.00  0.00     0.689 C 
HETATM    6  N3  UNL     1      44.684  -2.693  19.829  1.00  0.00    -0.168 N 
ATOM      7  H3  UNL     1      45.370  -3.046  19.160  1.00  0.00     0.186 HD
HETATM    8  N5  UNL     1      43.126  -1.002  20.223  1.00  0.00    -0.225 N 
ATOM      9  H5  UNL     1      42.223  -1.446  20.389  1.00  0.00     0.177 HD
ENDROOT
BRANCH   6  10
HETATM   10  C3  UNL     1      44.564  -3.461  20.967  1.00  0.00     0.199 C 
HETATM   11  N4  UNL     1      43.266  -3.892  21.414  1.00  0.00    -0.069 NA
HETATM   12  S1  UNL     1      45.879  -3.900  21.852  1.00  0.00    -0.044 SA
ENDBRANCH   6  10
BRANCH   8  13
HETATM   13  C4  UNL     1      43.407   0.304  20.758  1.00  0.00     0.138 C 
BRANCH  13  14
HETATM   14  C5  UNL     1      42.383   1.302  20.255  1.00  0.00     0.022 C 
BRANCH  14  15
HETATM   15  C6  UNL     1      41.479   1.618  21.446  1.00  0.00     0.021 C 
BRANCH  15  16
HETATM   16  C7  UNL     1      42.042   2.834  22.117  1.00  0.00     0.117 C 
BRANCH  16  17
HETATM   17  N6  UNL     1      42.598   2.568  23.395  1.00  0.00    -0.412 N 
HETATM   18  C8  UNL     1      44.008   2.855  23.400  1.00  0.00     0.117 C 
HETATM   19  C9  UNL     1      44.740   1.565  23.735  1.00  0.00     0.019 C 
HETATM   20  C10 UNL     1      44.390   1.292  25.196  1.00  0.00     0.003 C 
HETATM   21  C11 UNL     1      42.913   1.367  25.430  1.00  0.00     0.019 C 
HETATM   22  C12 UNL     1      42.197   1.396  24.074  1.00  0.00     0.117 C 
ENDBRANCH  16  17
ENDBRANCH  15  16
ENDBRANCH  14  15
ENDBRANCH  13  14
ENDBRANCH   8  13
TORSDOF 6
ENDMDL
MODEL 2
REMARK VINA RESULT: -6.225910300      1.878      2.973
REMARK  6 active torsions:
REMARK  status: ('A' for Active; 'I' for Inactive)
REMARK       I    between atoms: N2_3  and  C2_5 
REMARK       I    between atoms: C2_5  and  N5_11 
REMARK    1  A    between atoms: N3_6  and  C3_8 
REMARK    2  A    between atoms: N5_11  and  C4_13 
REMARK    3  A    between atoms: C4_13  and  C5_14 
REMARK    4  A    between atoms: C5_14  and  C6_15 
REMARK    5  A    between atoms: C6_15  and  C7_16 
REMARK    6  A    between atoms: C7_16  and  N6_17 
ROOT
HETATM    1  N1  UNL     1      47.037  -0.940  21.956  1.00  0.00    -0.171 NA
HETATM    2  C1  UNL     1      46.184  -1.525  21.443  1.00  0.00     0.196 C 
HETATM    3  N2  UNL     1      45.156  -2.249  20.837  1.00  0.00    -0.126 N 
ATOM      4  H2  UNL     1      44.819  -3.144  21.195  1.00  0.00     0.197 HD
HETATM    5  C2  UNL     1      44.609  -1.609  19.648  1.00  0.00     0.689 C 
HETATM    6  N3  UNL     1      44.519  -2.200  18.568  1.00  0.00    -0.168 N 
ATOM      7  H3  UNL     1      44.859  -3.162  18.591  1.00  0.00     0.186 HD
HETATM    8  N5  UNL     1      44.215  -0.272  19.846  1.00  0.00    -0.225 N 
ATOM      9  H5  UNL     1      44.712   0.488  19.381  1.00  0.00     0.177 HD
ENDROOT
BRANCH   6  10
HETATM   10  C3  UNL     1      44.043  -1.802  17.337  1.00  0.00     0.199 C 
HETATM   11  N4  UNL     1      42.698  -1.311  17.206  1.00  0.00    -0.069 NA
HETATM   12  S1  UNL     1      44.979  -1.880  15.987  1.00  0.00    -0.044 SA
ENDBRANCH   6  10
BRANCH   8  13
HETATM   13  C4  UNL     1      43.101   0.005  20.714  1.00  0.00     0.138 C 
BRANCH  13  14
HETATM   14  C5  UNL     1      42.407   1.280  20.276  1.00  0.00     0.022 C 
BRANCH  14  15
HETATM   15  C6  UNL     1      41.444   1.646  21.405  1.00  0.00     0.021 C 
BRANCH  15  16
HETATM   16  C7  UNL     1      42.009   2.851  22.094  1.00  0.00     0.117 C 
BRANCH  16  17
HETATM   17  N6  UNL     1      42.634   2.553  23.333  1.00  0.00    -0.412 N 
HETATM   18  C8  UNL     1      44.055   2.759  23.242  1.00  0.00     0.117 C 
HETATM   19  C9  UNL     1      44.733   1.429  23.532  1.00  0.00     0.019 C 
HETATM   20  C10 UNL     1      44.467   1.176  25.014  1.00  0.00     0.003 C 
HETATM   21  C11 UNL     1      43.016   1.336  25.346  1.00  0.00     0.019 C 
HETATM   22  C12 UNL     1      42.213   1.406  24.041  1.00  0.00     0.117 C 
ENDBRANCH  16  17
ENDBRANCH  15  16
ENDBRANCH  14  15
ENDBRANCH  13  14
ENDBRANCH   8  13
TORSDOF 6
ENDMDL
MODEL 3
REMARK VINA RESULT: -6.213420579      3.065      4.104
REMARK  6 active torsions:
REMARK  status: ('A' for Active; 'I' for Inactive)
REMARK       I    between atoms: N2_3  and  C2_5 
REMARK       I    between atoms: C2_5  and  N5_11 
REMARK    1  A    between atoms: N3_6  and  C3_8 
REMARK    2  A    between atoms: N5_11  and  C4_13 
REMARK    3  A    between atoms: C4_13  and  C5_14 
REMARK    4  A    between atoms: C5_14  and  C6_15 
REMARK    5  A    between atoms: C6_15  and  C7_16 
REMARK    6  A    between atoms: C7_16  and  N6_17 
ROOT
HETATM    1  N1  UNL     1      44.967  -5.084  20.640  1.00  0.00    -0.171 NA
HETATM    2  C1  UNL     1      45.959  -4.629  21.020  1.00  0.00     0.196 C 
HETATM    3  N2  UNL     1      47.168  -4.090  21.463  1.00  0.00    -0.126 N 
ATOM      4  H2  UNL     1      48.051  -4.224  20.970  1.00  0.00     0.197 HD
HETATM    5  C2  UNL     1      47.050  -3.317  22.693  1.00  0.00     0.689 C 
HETATM    6  N3  UNL     1      47.761  -3.540  23.677  1.00  0.00    -0.168 N 
ATOM      7  H3  UNL     1      48.425  -4.304  23.547  1.00  0.00     0.186 HD
HETATM    8  N5  UNL     1      46.056  -2.321  22.652  1.00  0.00    -0.225 N 
ATOM      9  H5  UNL     1      45.227  -2.393  23.242  1.00  0.00     0.177 HD
ENDROOT
BRANCH   6  10
HETATM   10  C3  UNL     1      47.824  -2.948  24.920  1.00  0.00     0.199 C 
HETATM   11  N4  UNL     1      48.075  -1.536  25.037  1.00  0.00    -0.069 NA
HETATM   12  S1  UNL     1      47.627  -3.821  26.300  1.00  0.00    -0.044 SA
ENDBRANCH   6  10
BRANCH   8  13
HETATM   13  C4  UNL     1      46.227  -1.201  21.765  1.00  0.00     0.138 C 
BRANCH  13  14
HETATM   14  C5  UNL     1      45.158  -1.220  20.691  1.00  0.00     0.022 C 
BRANCH  14  15
HETATM   15  C6  UNL     1      43.820  -1.288  21.426  1.00  0.00     0.021 C 
BRANCH  15  16
HETATM   16  C7  UNL     1      43.130   0.024  21.208  1.00  0.00     0.117 C 
BRANCH  16  17
HETATM   17  N6  UNL     1      42.856   0.725  22.411  1.00  0.00    -0.412 N 
HETATM   18  C8  UNL     1      43.526   1.999  22.414  1.00  0.00     0.117 C 
HETATM   19  C9  UNL     1      44.476   2.017  23.600  1.00  0.00     0.019 C 
HETATM   20  C10 UNL     1      43.565   2.050  24.824  1.00  0.00     0.003 C 
HETATM   21  C11 UNL     1      42.514   0.985  24.755  1.00  0.00     0.019 C 
HETATM   22  C12 UNL     1      42.871   0.009  23.628  1.00  0.00     0.117 C 
ENDBRANCH  16  17
ENDBRANCH  15  16
ENDBRANCH  14  15
ENDBRANCH  13  14
ENDBRANCH   8  13
TORSDOF 6
ENDMDL
MODEL 4
REMARK VINA RESULT: -6.179096354      2.965      5.064
REMARK  6 active torsions:
REMARK  status: ('A' for Active; 'I' for Inactive)
REMARK       I    between atoms: N2_3  and  C2_5 
REMARK       I    between atoms: C2_5  and  N5_11 
REMARK    1  A    between atoms: N3_6  and  C3_8 
REMARK    2  A    between atoms: N5_11  and  C4_13 
REMARK    3  A    between atoms: C4_13  and  C5_14 
REMARK    4  A    between atoms: C5_14  and  C6_15 
REMARK    5  A    between atoms: C6_15  and  C7_16 
REMARK    6  A    between atoms: C7_16  and  N6_17 
ROOT
HETATM    1  N1  UNL     1      41.206   1.887  21.843  1.00  0.00    -0.171 NA
HETATM    2  C1  UNL     1      42.183   1.591  21.303  1.00  0.00     0.196 C 
HETATM    3  N2  UNL     1      43.373   1.252  20.659  1.00  0.00    -0.126 N 
ATOM      4  H2  UNL     1      44.239   1.779  20.773  1.00  0.00     0.197 HD
HETATM    5  C2  UNL     1      43.265   0.073  19.809  1.00  0.00     0.689 C 
HETATM    6  N3  UNL     1      43.614   0.084  18.625  1.00  0.00    -0.168 N 
ATOM      7  H3  UNL     1      43.979   0.982  18.307  1.00  0.00     0.186 HD
HETATM    8  N5  UNL     1      42.720  -1.053  20.456  1.00  0.00    -0.225 N 
ATOM      9  H5  UNL     1      41.810  -1.420  20.178  1.00  0.00     0.177 HD
ENDROOT
BRANCH   6  10
HETATM   10  C3  UNL     1      43.604  -0.893  17.653  1.00  0.00     0.199 C 
HETATM   11  N4  UNL     1      42.680  -1.992  17.741  1.00  0.00    -0.069 NA
HETATM   12  S1  UNL     1      44.639  -0.847  16.375  1.00  0.00    -0.044 SA
ENDBRANCH   6  10
BRANCH   8  13
HETATM   13  C4  UNL     1      43.467  -1.678  21.516  1.00  0.00     0.138 C 
BRANCH  13  14
HETATM   14  C5  UNL     1      43.009  -3.111  21.700  1.00  0.00     0.022 C 
BRANCH  14  15
HETATM   15  C6  UNL     1      44.250  -3.902  22.112  1.00  0.00     0.021 C 
BRANCH  15  16
HETATM   16  C7  UNL     1      45.443  -3.061  21.774  1.00  0.00     0.117 C 
BRANCH  16  17
HETATM   17  N6  UNL     1      46.446  -3.073  22.777  1.00  0.00    -0.412 N 
HETATM   18  C8  UNL     1      45.851  -3.184  24.082  1.00  0.00     0.117 C 
HETATM   19  C9  UNL     1      46.246  -1.949  24.876  1.00  0.00     0.019 C 
HETATM   20  C10 UNL     1      47.746  -2.108  25.114  1.00  0.00     0.003 C 
HETATM   21  C11 UNL     1      48.473  -2.414  23.842  1.00  0.00     0.019 C 
HETATM   22  C12 UNL     1      47.528  -2.172  22.659  1.00  0.00     0.117 C 
ENDBRANCH  16  17
ENDBRANCH  15  16
ENDBRANCH  14  15
ENDBRANCH  13  14
ENDBRANCH   8  13
TORSDOF 6
ENDMDL
MODEL 5
REMARK VINA RESULT: -6.167223179      2.299      3.759
REMARK  6 active torsions:
REMARK  status: ('A' for Active; 'I' for Inactive)
REMARK       I    between atoms: N2_3  and  C2_5 
REMARK       I    between atoms: C2_5  and  N5_11 
REMARK    1  A    between atoms: N3_6  and  C3_8 
REMARK    2  A    between atoms: N5_11  and  C4_13 
REMARK    3  A    between atoms: C4_13  and  C5_14 
REMARK    4  A    between atoms: C5_14  and  C6_15 
REMARK    5  A    between atoms: C6_15  and  C7_16 
REMARK    6  A    between atoms: C7_16  and  N6_17 
ROOT
HETATM    1  N1  UNL     1      40.862   1.738  21.547  1.00  0.00    -0.171 NA
HETATM    2  C1  UNL     1      41.856   1.530  20.996  1.00  0.00     0.196 C 
HETATM    3  N2  UNL     1      43.065   1.301  20.338  1.00  0.00    -0.126 N 
ATOM      4  H2  UNL     1      43.855   1.946  20.380  1.00  0.00     0.197 HD
HETATM    5  C2  UNL     1      43.095   0.054  19.584  1.00  0.00     0.689 C 
HETATM    6  N3  UNL     1      43.410   0.016  18.391  1.00  0.00    -0.168 N 
ATOM      7  H3  UNL     1      43.642   0.926  17.993  1.00  0.00     0.186 HD
HETATM    8  N5  UNL     1      42.724  -1.078  20.334  1.00  0.00    -0.225 N 
ATOM      9  H5  UNL     1      41.865  -1.583  20.118  1.00  0.00     0.177 HD
ENDROOT
BRANCH   6  10
HETATM   10  C3  UNL     1      43.507  -1.029  17.498  1.00  0.00     0.199 C 
HETATM   11  N4  UNL     1      42.677  -2.193  17.653  1.00  0.00    -0.069 NA
HETATM   12  S1  UNL     1      44.567  -0.990  16.240  1.00  0.00    -0.044 SA
ENDBRANCH   6  10
BRANCH   8  13
HETATM   13  C4  UNL     1      43.574  -1.511  21.412  1.00  0.00     0.138 C 
BRANCH  13  14
HETATM   14  C5  UNL     1      45.020  -1.534  20.956  1.00  0.00     0.022 C 
BRANCH  14  15
HETATM   15  C6  UNL     1      45.785  -0.639  21.930  1.00  0.00     0.021 C 
BRANCH  15  16
HETATM   16  C7  UNL     1      45.294  -0.966  23.308  1.00  0.00     0.117 C 
BRANCH  16  17
HETATM   17  N6  UNL     1      44.800   0.161  24.014  1.00  0.00    -0.412 N 
HETATM   18  C8  UNL     1      43.723  -0.226  24.887  1.00  0.00     0.117 C 
HETATM   19  C9  UNL     1      42.484   0.545  24.460  1.00  0.00     0.019 C 
HETATM   20  C10 UNL     1      42.786   1.996  24.828  1.00  0.00     0.003 C 
HETATM   21  C11 UNL     1      44.122   2.427  24.307  1.00  0.00     0.019 C 
HETATM   22  C12 UNL     1      44.630   1.375  23.313  1.00  0.00     0.117 C 
ENDBRANCH  16  17
ENDBRANCH  15  16
ENDBRANCH  14  15
ENDBRANCH  13  14
ENDBRANCH   8  13
TORSDOF 6
ENDMDL
