MODEL 1
REMARK VINA RESULT: -6.658144995      0.000      0.000
REMARK  7 active torsions:
REMARK  status: ('A' for Active; 'I' for Inactive)
REMARK       I    between atoms: C1_2  and  N3_10 
REMARK    1  A    between atoms: N2_3  and  C2_5 
REMARK    2  A    between atoms: C2_5  and  C3_6 
REMARK    3  A    between atoms: C3_6  and  C4_7 
REMARK    4  A    between atoms: C4_7  and  O1_8 
REMARK    5  A    between atoms: N3_10  and  C5_12 
REMARK    6  A    between atoms: C5_12  and  C6_13 
REMARK    7  A    between atoms: C6_13  and  N4_14 
ROOT
HETATM    1  C5  UNL     1      44.255  -0.831  20.122  1.00  0.00     0.166 C 
ENDROOT
BRANCH   1   2
HETATM    2  N3  UNL     1      44.548  -0.566  18.742  1.00  0.00    -0.360 N 
HETATM    3  C1  UNL     1      44.006  -1.381  17.712  1.00  0.00     0.184 C 
HETATM    4  N1  UNL     1      42.774  -2.071  17.842  1.00  0.00    -0.064 NA
HETATM    5  N2  UNL     1      44.619  -1.535  16.583  1.00  0.00    -0.365 N 
ATOM      6  H2  UNL     1      44.213  -2.124  15.854  1.00  0.00     0.162 HD
ATOM      7  H3  UNL     1      45.154   0.217  18.498  1.00  0.00     0.162 HD
BRANCH   5   8
HETATM    8  C2  UNL     1      45.868  -0.875  16.362  1.00  0.00     0.124 C 
BRANCH   8   9
HETATM    9  C3  UNL     1      45.772   0.198  15.291  1.00  0.00     0.046 C 
BRANCH   9  10
HETATM   10  C4  UNL     1      45.777   1.578  15.912  1.00  0.00     0.165 C 
BRANCH  10  11
HETATM   11  O1  UNL     1      44.633   1.726  16.732  1.00  0.00    -0.401 OA
ATOM     12  H1  UNL     1      43.851   1.653  16.197  1.00  0.00     0.209 HD
ENDBRANCH  10  11
ENDBRANCH   9  10
ENDBRANCH   8   9
ENDBRANCH   5   8
ENDBRANCH   1   2
BRANCH   1  13
HETATM   13  C6  UNL     1      43.500   0.308  20.778  1.00  0.00     0.078 C 
BRANCH  13  14
HETATM   14  N4  UNL     1      43.082   0.047  22.092  1.00  0.00    -0.382 N 
HETATM   15  C7  UNL     1      43.741  -0.984  22.811  1.00  0.00     0.123 C 
HETATM   16  C8  UNL     1      42.687  -1.796  23.518  1.00  0.00     0.020 C 
HETATM   17  C9  UNL     1      41.726  -0.863  24.172  1.00  0.00     0.004 C 
HETATM   18  C10 UNL     1      42.150   0.567  24.211  1.00  0.00     0.031 C 
HETATM   19  C11 UNL     1      42.587   1.112  22.872  1.00  0.00     0.032 C 
HETATM   20  C12 UNL     1      43.713   2.086  23.145  1.00  0.00     0.031 C 
HETATM   21  C15 UNL     1      41.519   1.939  22.262  1.00  0.00     0.031 C 
HETATM   22  C13 UNL     1      43.534   3.267  22.244  1.00  0.00     0.002 C 
HETATM   23  C14 UNL     1      42.031   3.349  22.114  1.00  0.00     0.002 C 
ENDBRANCH  13  14
ENDBRANCH   1  13
TORSDOF 7
ENDMDL
MODEL 2
REMARK VINA RESULT: -6.562626058      2.697      4.434
REMARK  7 active torsions:
REMARK  status: ('A' for Active; 'I' for Inactive)
REMARK       I    between atoms: C1_2  and  N3_10 
REMARK    1  A    between atoms: N2_3  and  C2_5 
REMARK    2  A    between atoms: C2_5  and  C3_6 
REMARK    3  A    between atoms: C3_6  and  C4_7 
REMARK    4  A    between atoms: C4_7  and  O1_8 
REMARK    5  A    between atoms: N3_10  and  C5_12 
REMARK    6  A    between atoms: C5_12  and  C6_13 
REMARK    7  A    between atoms: C6_13  and  N4_14 
ROOT
HETATM    1  C5  UNL     1      43.377   0.461  19.632  1.00  0.00     0.166 C 
ENDROOT
BRANCH   1   2
HETATM    2  N3  UNL     1      44.374  -0.572  19.613  1.00  0.00    -0.360 N 
HETATM    3  C1  UNL     1      44.061  -1.880  19.152  1.00  0.00     0.184 C 
HETATM    4  N1  UNL     1      43.048  -2.138  18.193  1.00  0.00    -0.064 NA
HETATM    5  N2  UNL     1      44.696  -2.918  19.591  1.00  0.00    -0.365 N 
ATOM      6  H2  UNL     1      44.457  -3.849  19.248  1.00  0.00     0.162 HD
ATOM      7  H3  UNL     1      45.319  -0.365  19.934  1.00  0.00     0.162 HD
BRANCH   5   8
HETATM    8  C2  UNL     1      45.734  -2.753  20.560  1.00  0.00     0.124 C 
BRANCH   8   9
HETATM    9  C3  UNL     1      45.909  -3.982  21.435  1.00  0.00     0.046 C 
BRANCH   9  10
HETATM   10  C4  UNL     1      44.624  -4.310  22.163  1.00  0.00     0.165 C 
BRANCH  10  11
HETATM   11  O1  UNL     1      43.866  -5.219  21.388  1.00  0.00    -0.401 OA
ATOM     12  H1  UNL     1      44.299  -6.064  21.382  1.00  0.00     0.209 HD
ENDBRANCH  10  11
ENDBRANCH   9  10
ENDBRANCH   8   9
ENDBRANCH   5   8
ENDBRANCH   1   2
BRANCH   1  13
HETATM   13  C6  UNL     1      42.559   0.446  20.908  1.00  0.00     0.078 C 
BRANCH  13  14
HETATM   14  N4  UNL     1      42.917   1.434  21.839  1.00  0.00    -0.382 N 
HETATM   15  C7  UNL     1      42.227   2.673  21.796  1.00  0.00     0.123 C 
HETATM   16  C8  UNL     1      43.248   3.772  21.936  1.00  0.00     0.020 C 
HETATM   17  C9  UNL     1      44.176   3.419  23.048  1.00  0.00     0.004 C 
HETATM   18  C10 UNL     1      43.749   2.270  23.898  1.00  0.00     0.031 C 
HETATM   19  C11 UNL     1      43.373   1.035  23.111  1.00  0.00     0.032 C 
HETATM   20  C12 UNL     1      42.236   0.374  23.858  1.00  0.00     0.031 C 
HETATM   21  C15 UNL     1      44.468   0.037  23.139  1.00  0.00     0.031 C 
HETATM   22  C13 UNL     1      42.454  -1.106  23.822  1.00  0.00     0.002 C 
HETATM   23  C14 UNL     1      43.962  -1.209  23.822  1.00  0.00     0.002 C 
ENDBRANCH  13  14
ENDBRANCH   1  13
TORSDOF 7
ENDMDL
MODEL 3
REMARK VINA RESULT: -6.484543983      2.708      4.797
REMARK  7 active torsions:
REMARK  status: ('A' for Active; 'I' for Inactive)
REMARK       I    between atoms: C1_2  and  N3_10 
REMARK    1  A    between atoms: N2_3  and  C2_5 
REMARK    2  A    between atoms: C2_5  and  C3_6 
REMARK    3  A    between atoms: C3_6  and  C4_7 
REMARK    4  A    between atoms: C4_7  and  O1_8 
REMARK    5  A    between atoms: N3_10  and  C5_12 
REMARK    6  A    between atoms: C5_12  and  C6_13 
REMARK    7  A    between atoms: C6_13  and  N4_14 
ROOT
HETATM    1  C5  UNL     1      43.499  -1.719  20.232  1.00  0.00     0.166 C 
ENDROOT
BRANCH   1   2
HETATM    2  N3  UNL     1      42.599  -0.612  20.396  1.00  0.00    -0.360 N 
HETATM    3  C1  UNL     1      42.797   0.601  19.682  1.00  0.00     0.184 C 
HETATM    4  N1  UNL     1      43.441   0.657  18.420  1.00  0.00    -0.064 NA
HETATM    5  N2  UNL     1      42.392   1.735  20.157  1.00  0.00    -0.365 N 
ATOM      6  H2  UNL     1      42.543   2.595  19.629  1.00  0.00     0.162 HD
ATOM      7  H3  UNL     1      41.808  -0.698  21.033  1.00  0.00     0.162 HD
BRANCH   5   8
HETATM    8  C2  UNL     1      41.731   1.774  21.424  1.00  0.00     0.124 C 
BRANCH   8   9
HETATM    9  C3  UNL     1      41.987   3.073  22.169  1.00  0.00     0.046 C 
BRANCH   9  10
HETATM   10  C4  UNL     1      43.418   3.527  21.980  1.00  0.00     0.165 C 
BRANCH  10  11
HETATM   11  O1  UNL     1      43.465   4.516  20.970  1.00  0.00    -0.401 OA
ATOM     12  H1  UNL     1      42.703   4.429  20.409  1.00  0.00     0.209 HD
ENDBRANCH  10  11
ENDBRANCH   9  10
ENDBRANCH   8   9
ENDBRANCH   5   8
ENDBRANCH   1   2
BRANCH   1  13
HETATM   13  C6  UNL     1      43.682  -2.505  21.515  1.00  0.00     0.078 C 
BRANCH  13  14
HETATM   14  N4  UNL     1      43.817  -1.715  22.666  1.00  0.00    -0.382 N 
HETATM   15  C7  UNL     1      42.759  -1.728  23.613  1.00  0.00     0.123 C 
HETATM   16  C8  UNL     1      42.507  -0.305  24.039  1.00  0.00     0.020 C 
HETATM   17  C9  UNL     1      43.818   0.345  24.323  1.00  0.00     0.004 C 
HETATM   18  C10 UNL     1      44.989  -0.577  24.387  1.00  0.00     0.031 C 
HETATM   19  C11 UNL     1      45.105  -1.500  23.196  1.00  0.00     0.032 C 
HETATM   20  C12 UNL     1      45.648  -2.813  23.716  1.00  0.00     0.031 C 
HETATM   21  C15 UNL     1      46.138  -1.017  22.250  1.00  0.00     0.031 C 
HETATM   22  C13 UNL     1      46.643  -3.330  22.724  1.00  0.00     0.002 C 
HETATM   23  C14 UNL     1      47.228  -2.056  22.161  1.00  0.00     0.002 C 
ENDBRANCH  13  14
ENDBRANCH   1  13
TORSDOF 7
ENDMDL
MODEL 4
REMARK VINA RESULT: -6.480817023      4.391      6.512
REMARK  7 active torsions:
REMARK  status: ('A' for Active; 'I' for Inactive)
REMARK       I    between atoms: C1_2  and  N3_10 
REMARK    1  A    between atoms: N2_3  and  C2_5 
REMARK    2  A    between atoms: C2_5  and  C3_6 
REMARK    3  A    between atoms: C3_6  and  C4_7 
REMARK    4  A    between atoms: C4_7  and  O1_8 
REMARK    5  A    between atoms: N3_10  and  C5_12 
REMARK    6  A    between atoms: C5_12  and  C6_13 
REMARK    7  A    between atoms: C6_13  and  N4_14 
ROOT
HETATM    1  C5  UNL     1      46.056  -1.513  21.964  1.00  0.00     0.166 C 
ENDROOT
BRANCH   1   2
HETATM    2  N3  UNL     1      46.723  -2.221  23.020  1.00  0.00    -0.360 N 
HETATM    3  C1  UNL     1      45.984  -2.832  24.069  1.00  0.00     0.184 C 
HETATM    4  N1  UNL     1      44.657  -3.305  23.905  1.00  0.00    -0.064 NA
HETATM    5  N2  UNL     1      46.494  -2.991  25.248  1.00  0.00    -0.365 N 
ATOM      6  H2  UNL     1      45.948  -3.432  25.989  1.00  0.00     0.162 HD
ATOM      7  H3  UNL     1      47.740  -2.287  23.017  1.00  0.00     0.162 HD
BRANCH   5   8
HETATM    8  C2  UNL     1      47.828  -2.545  25.506  1.00  0.00     0.124 C 
BRANCH   8   9
HETATM    9  C3  UNL     1      48.798  -3.699  25.689  1.00  0.00     0.046 C 
BRANCH   9  10
HETATM   10  C4  UNL     1      48.296  -4.659  26.745  1.00  0.00     0.165 C 
BRANCH  10  11
HETATM   11  O1  UNL     1      47.804  -3.925  27.849  1.00  0.00    -0.401 OA
ATOM     12  H1  UNL     1      48.246  -4.211  28.640  1.00  0.00     0.209 HD
ENDBRANCH  10  11
ENDBRANCH   9  10
ENDBRANCH   8   9
ENDBRANCH   5   8
ENDBRANCH   1   2
BRANCH   1  13
HETATM   13  C6  UNL     1      45.568  -0.148  22.406  1.00  0.00     0.078 C 
BRANCH  13  14
HETATM   14  N4  UNL     1      44.321   0.221  21.882  1.00  0.00    -0.382 N 
HETATM   15  C7  UNL     1      43.685  -0.670  20.978  1.00  0.00     0.123 C 
HETATM   16  C8  UNL     1      43.141   0.147  19.835  1.00  0.00     0.020 C 
HETATM   17  C9  UNL     1      42.444   1.340  20.393  1.00  0.00     0.004 C 
HETATM   18  C10 UNL     1      42.216   1.316  21.867  1.00  0.00     0.031 C 
HETATM   19  C11 UNL     1      43.456   1.004  22.672  1.00  0.00     0.032 C 
HETATM   20  C12 UNL     1      43.006   0.189  23.865  1.00  0.00     0.031 C 
HETATM   21  C15 UNL     1      44.030   2.238  23.259  1.00  0.00     0.031 C 
HETATM   22  C13 UNL     1      43.775   0.653  25.062  1.00  0.00     0.002 C 
HETATM   23  C14 UNL     1      43.985   2.119  24.762  1.00  0.00     0.002 C 
ENDBRANCH  13  14
ENDBRANCH   1  13
TORSDOF 7
ENDMDL
MODEL 5
REMARK VINA RESULT: -6.435393950      2.033      3.692
REMARK  7 active torsions:
REMARK  status: ('A' for Active; 'I' for Inactive)
REMARK       I    between atoms: C1_2  and  N3_10 
REMARK    1  A    between atoms: N2_3  and  C2_5 
REMARK    2  A    between atoms: C2_5  and  C3_6 
REMARK    3  A    between atoms: C3_6  and  C4_7 
REMARK    4  A    between atoms: C4_7  and  O1_8 
REMARK    5  A    between atoms: N3_10  and  C5_12 
REMARK    6  A    between atoms: C5_12  and  C6_13 
REMARK    7  A    between atoms: C6_13  and  N4_14 
ROOT
HETATM    1  C5  UNL     1      42.939   0.854  19.367  1.00  0.00     0.166 C 
ENDROOT
BRANCH   1   2
HETATM    2  N3  UNL     1      43.977   0.115  18.705  1.00  0.00    -0.360 N 
HETATM    3  C1  UNL     1      43.668  -0.823  17.684  1.00  0.00     0.184 C 
HETATM    4  N1  UNL     1      42.521  -0.713  16.857  1.00  0.00    -0.064 NA
HETATM    5  N2  UNL     1      44.430  -1.843  17.453  1.00  0.00    -0.365 N 
ATOM      6  H2  UNL     1      44.191  -2.506  16.715  1.00  0.00     0.162 HD
ATOM      7  H3  UNL     1      44.950   0.267  18.972  1.00  0.00     0.162 HD
BRANCH   5   8
HETATM    8  C2  UNL     1      45.609  -2.035  18.239  1.00  0.00     0.124 C 
BRANCH   8   9
HETATM    9  C3  UNL     1      45.534  -3.285  19.099  1.00  0.00     0.046 C 
BRANCH   9  10
HETATM   10  C4  UNL     1      44.892  -2.980  20.434  1.00  0.00     0.165 C 
BRANCH  10  11
HETATM   11  O1  UNL     1      43.494  -2.848  20.262  1.00  0.00    -0.401 OA
ATOM     12  H1  UNL     1      43.086  -2.698  21.107  1.00  0.00     0.209 HD
ENDBRANCH  10  11
ENDBRANCH   9  10
ENDBRANCH   8   9
ENDBRANCH   5   8
ENDBRANCH   1   2
BRANCH   1  13
HETATM   13  C6  UNL     1      42.731   0.395  20.797  1.00  0.00     0.078 C 
BRANCH  13  14
HETATM   14  N4  UNL     1      43.023   1.366  21.767  1.00  0.00    -0.382 N 
HETATM   15  C7  UNL     1      42.272   2.570  21.754  1.00  0.00     0.123 C 
HETATM   16  C8  UNL     1      43.234   3.714  21.951  1.00  0.00     0.020 C 
HETATM   17  C9  UNL     1      44.160   3.369  23.066  1.00  0.00     0.004 C 
HETATM   18  C10 UNL     1      43.778   2.170  23.868  1.00  0.00     0.031 C 
HETATM   19  C11 UNL     1      43.478   0.947  23.033  1.00  0.00     0.032 C 
HETATM   20  C12 UNL     1      42.363   0.204  23.736  1.00  0.00     0.031 C 
HETATM   21  C15 UNL     1      44.621   0.004  23.047  1.00  0.00     0.031 C 
HETATM   22  C13 UNL     1      42.657  -1.261  23.653  1.00  0.00     0.002 C 
HETATM   23  C14 UNL     1      44.167  -1.289  23.676  1.00  0.00     0.002 C 
ENDBRANCH  13  14
ENDBRANCH   1  13
TORSDOF 7
ENDMDL
