MODEL 1
REMARK VINA RESULT: -7.212354813      0.000      0.000
REMARK  8 active torsions:
REMARK  status: ('A' for Active; 'I' for Inactive)
REMARK    1  A    between atoms: C1_2  and  C2_7 
REMARK    2  A    between atoms: N2_3  and  O1_5 
REMARK    3  A    between atoms: N3_10  and  C5_11 
REMARK    4  A    between atoms: C5_11  and  C6_12 
REMARK    5  A    between atoms: C6_12  and  C7_13 
REMARK    6  A    between atoms: C7_13  and  C8_14 
REMARK    7  A    between atoms: C8_14  and  N4_15 
REMARK    8  A    between atoms: C13_20  and  O2_21 
ROOT
HETATM    1  C2  UNL     1      47.946  -3.680  25.222  1.00  0.00     0.009 A 
HETATM    2  C3  UNL     1      46.640  -3.277  25.255  1.00  0.00     0.032 A 
HETATM    3  C4  UNL     1      46.123  -2.423  24.267  1.00  0.00     0.091 A 
HETATM    4  N3  UNL     1      46.887  -1.981  23.267  1.00  0.00    -0.366 N 
HETATM    5  C14 UNL     1      48.176  -2.349  23.192  1.00  0.00     0.091 A 
HETATM    6  C15 UNL     1      48.688  -3.174  24.142  1.00  0.00     0.032 A 
ENDROOT
BRANCH   4   7
HETATM    7  C5  UNL     1      46.348  -1.104  22.255  1.00  0.00     0.128 C 
BRANCH   7   8
HETATM    8  C6  UNL     1      45.014  -1.626  21.728  1.00  0.00     0.022 C 
BRANCH   8   9
HETATM    9  C7  UNL     1      44.392  -0.506  20.938  1.00  0.00     0.022 C 
BRANCH   9  10
HETATM   10  C8  UNL     1      42.988  -0.189  21.401  1.00  0.00     0.130 C 
BRANCH  10  11
HETATM   11  N4  UNL     1      43.105   0.601  22.608  1.00  0.00    -0.338 N 
HETATM   12  C9  UNL     1      43.884   1.693  22.593  1.00  0.00     0.093 A 
HETATM   13  C10 UNL     1      44.048   2.503  23.714  1.00  0.00     0.017 A 
HETATM   14  C11 UNL     1      43.381   2.152  24.860  1.00  0.00     0.006 A 
HETATM   15  C12 UNL     1      42.582   1.020  24.851  1.00  0.00     0.056 A 
HETATM   16  C13 UNL     1      42.459   0.254  23.708  1.00  0.00     0.141 A 
BRANCH  16  17
HETATM   17  O2  UNL     1      41.631  -0.872  23.792  1.00  0.00    -0.346 OA
ATOM     18  H2  UNL     1      41.019  -1.018  24.504  1.00  0.00     0.219 HD
ENDBRANCH  16  17
ENDBRANCH  10  11
ENDBRANCH   9  10
ENDBRANCH   8   9
ENDBRANCH   7   8
ENDBRANCH   4   7
BRANCH   1  19
HETATM   19  C1  UNL     1      48.615  -4.546  26.157  1.00  0.00     0.146 C 
HETATM   20  N1  UNL     1      49.546  -5.505  25.638  1.00  0.00    -0.080 NA
HETATM   21  N2  UNL     1      48.467  -4.549  27.393  1.00  0.00    -0.255 N 
ATOM     22  H2  UNL     1      49.027  -5.236  27.898  1.00  0.00     0.195 HD
BRANCH  21  23
HETATM   23  O1  UNL     1      47.686  -3.788  28.147  1.00  0.00    -0.288 OA
ATOM     24  H1  UNL     1      47.871  -3.378  28.983  1.00  0.00     0.244 HD
ENDBRANCH  21  23
ENDBRANCH   1  19
TORSDOF 8
ENDMDL
MODEL 2
REMARK VINA RESULT: -7.144824298      3.613      6.536
REMARK  8 active torsions:
REMARK  status: ('A' for Active; 'I' for Inactive)
REMARK    1  A    between atoms: C1_2  and  C2_7 
REMARK    2  A    between atoms: N2_3  and  O1_5 
REMARK    3  A    between atoms: N3_10  and  C5_11 
REMARK    4  A    between atoms: C5_11  and  C6_12 
REMARK    5  A    between atoms: C6_12  and  C7_13 
REMARK    6  A    between atoms: C7_13  and  C8_14 
REMARK    7  A    between atoms: C8_14  and  N4_15 
REMARK    8  A    between atoms: C13_20  and  O2_21 
ROOT
HETATM    1  C2  UNL     1      42.806   0.745  22.409  1.00  0.00     0.009 A 
HETATM    2  C3  UNL     1      42.486  -0.180  23.362  1.00  0.00     0.032 A 
HETATM    3  C4  UNL     1      43.475  -0.992  23.942  1.00  0.00     0.091 A 
HETATM    4  N3  UNL     1      44.755  -0.884  23.581  1.00  0.00    -0.366 N 
HETATM    5  C14 UNL     1      45.118   0.010  22.648  1.00  0.00     0.091 A 
HETATM    6  C15 UNL     1      44.170   0.800  22.081  1.00  0.00     0.032 A 
ENDROOT
BRANCH   4   7
HETATM    7  C5  UNL     1      45.766  -1.722  24.181  1.00  0.00     0.128 C 
BRANCH   7   8
HETATM    8  C6  UNL     1      45.417  -3.200  24.030  1.00  0.00     0.022 C 
BRANCH   8   9
HETATM    9  C7  UNL     1      45.807  -3.597  22.631  1.00  0.00     0.022 C 
BRANCH   9  10
HETATM   10  C8  UNL     1      44.604  -3.849  21.751  1.00  0.00     0.130 C 
BRANCH  10  11
HETATM   11  N4  UNL     1      44.688  -2.926  20.639  1.00  0.00    -0.338 N 
HETATM   12  C9  UNL     1      45.869  -2.755  20.029  1.00  0.00     0.093 A 
HETATM   13  C10 UNL     1      46.031  -1.885  18.954  1.00  0.00     0.017 A 
HETATM   14  C11 UNL     1      44.930  -1.191  18.523  1.00  0.00     0.006 A 
HETATM   15  C12 UNL     1      43.719  -1.384  19.169  1.00  0.00     0.056 A 
HETATM   16  C13 UNL     1      43.620  -2.261  20.231  1.00  0.00     0.141 A 
BRANCH  16  17
HETATM   17  O2  UNL     1      42.358  -2.392  20.823  1.00  0.00    -0.346 OA
ATOM     18  H2  UNL     1      41.992  -1.749  21.418  1.00  0.00     0.219 HD
ENDBRANCH  16  17
ENDBRANCH  10  11
ENDBRANCH   9  10
ENDBRANCH   8   9
ENDBRANCH   7   8
ENDBRANCH   4   7
BRANCH   1  19
HETATM   19  C1  UNL     1      41.908   1.642  21.728  1.00  0.00     0.146 C 
HETATM   20  N1  UNL     1      41.493   1.299  20.400  1.00  0.00    -0.080 NA
HETATM   21  N2  UNL     1      41.446   2.704  22.183  1.00  0.00    -0.255 N 
ATOM     22  H2  UNL     1      40.822   3.212  21.556  1.00  0.00     0.195 HD
BRANCH  21  23
HETATM   23  O1  UNL     1      41.648   3.271  23.364  1.00  0.00    -0.288 OA
ATOM     24  H1  UNL     1      41.039   3.750  23.914  1.00  0.00     0.244 HD
ENDBRANCH  21  23
ENDBRANCH   1  19
TORSDOF 8
ENDMDL
MODEL 3
REMARK VINA RESULT: -7.076635299      1.460      2.071
REMARK  8 active torsions:
REMARK  status: ('A' for Active; 'I' for Inactive)
REMARK    1  A    between atoms: C1_2  and  C2_7 
REMARK    2  A    between atoms: N2_3  and  O1_5 
REMARK    3  A    between atoms: N3_10  and  C5_11 
REMARK    4  A    between atoms: C5_11  and  C6_12 
REMARK    5  A    between atoms: C6_12  and  C7_13 
REMARK    6  A    between atoms: C7_13  and  C8_14 
REMARK    7  A    between atoms: C8_14  and  N4_15 
REMARK    8  A    between atoms: C13_20  and  O2_21 
ROOT
HETATM    1  C2  UNL     1      46.736  -2.651  24.293  1.00  0.00     0.009 A 
HETATM    2  C3  UNL     1      46.623  -3.280  23.085  1.00  0.00     0.032 A 
HETATM    3  C4  UNL     1      45.452  -3.164  22.318  1.00  0.00     0.091 A 
HETATM    4  N3  UNL     1      44.417  -2.437  22.743  1.00  0.00    -0.366 N 
HETATM    5  C14 UNL     1      44.481  -1.800  23.923  1.00  0.00     0.091 A 
HETATM    6  C15 UNL     1      45.607  -1.905  24.674  1.00  0.00     0.032 A 
ENDROOT
BRANCH   4   7
HETATM    7  C5  UNL     1      43.217  -2.323  21.948  1.00  0.00     0.128 C 
BRANCH   7   8
HETATM    8  C6  UNL     1      43.526  -1.762  20.563  1.00  0.00     0.022 C 
BRANCH   8   9
HETATM    9  C7  UNL     1      43.791  -0.291  20.740  1.00  0.00     0.022 C 
BRANCH   9  10
HETATM   10  C8  UNL     1      42.579   0.453  21.252  1.00  0.00     0.130 C 
BRANCH  10  11
HETATM   11  N4  UNL     1      42.927   0.997  22.547  1.00  0.00    -0.338 N 
HETATM   12  C9  UNL     1      44.100   1.630  22.687  1.00  0.00     0.093 A 
HETATM   13  C10 UNL     1      44.508   2.179  23.901  1.00  0.00     0.017 A 
HETATM   14  C11 UNL     1      43.663   2.055  24.974  1.00  0.00     0.006 A 
HETATM   15  C12 UNL     1      42.455   1.396  24.805  1.00  0.00     0.056 A 
HETATM   16  C13 UNL     1      42.106   0.871  23.576  1.00  0.00     0.141 A 
BRANCH  16  17
HETATM   17  O2  UNL     1      40.868   0.222  23.499  1.00  0.00    -0.346 OA
ATOM     18  H2  UNL     1      40.093   0.520  23.959  1.00  0.00     0.219 HD
ENDBRANCH  16  17
ENDBRANCH  10  11
ENDBRANCH   9  10
ENDBRANCH   8   9
ENDBRANCH   7   8
ENDBRANCH   4   7
BRANCH   1  19
HETATM   19  C1  UNL     1      47.865  -2.676  25.187  1.00  0.00     0.146 C 
HETATM   20  N1  UNL     1      48.953  -1.782  24.920  1.00  0.00    -0.080 NA
HETATM   21  N2  UNL     1      47.995  -3.406  26.186  1.00  0.00    -0.255 N 
ATOM     22  H2  UNL     1      48.866  -3.285  26.703  1.00  0.00     0.195 HD
BRANCH  21  23
HETATM   23  O1  UNL     1      47.167  -4.318  26.674  1.00  0.00    -0.288 OA
ATOM     24  H1  UNL     1      46.469  -4.219  27.310  1.00  0.00     0.244 HD
ENDBRANCH  21  23
ENDBRANCH   1  19
TORSDOF 8
ENDMDL
MODEL 4
REMARK VINA RESULT: -6.999381184      1.502      1.797
REMARK  8 active torsions:
REMARK  status: ('A' for Active; 'I' for Inactive)
REMARK    1  A    between atoms: C1_2  and  C2_7 
REMARK    2  A    between atoms: N2_3  and  O1_5 
REMARK    3  A    between atoms: N3_10  and  C5_11 
REMARK    4  A    between atoms: C5_11  and  C6_12 
REMARK    5  A    between atoms: C6_12  and  C7_13 
REMARK    6  A    between atoms: C7_13  and  C8_14 
REMARK    7  A    between atoms: C8_14  and  N4_15 
REMARK    8  A    between atoms: C13_20  and  O2_21 
ROOT
HETATM    1  C2  UNL     1      46.938  -2.936  24.335  1.00  0.00     0.009 A 
HETATM    2  C3  UNL     1      45.606  -2.695  24.523  1.00  0.00     0.032 A 
HETATM    3  C4  UNL     1      44.704  -2.745  23.447  1.00  0.00     0.091 A 
HETATM    4  N3  UNL     1      45.119  -3.029  22.211  1.00  0.00    -0.366 N 
HETATM    5  C14 UNL     1      46.418  -3.273  21.976  1.00  0.00     0.091 A 
HETATM    6  C15 UNL     1      47.299  -3.227  23.009  1.00  0.00     0.032 A 
ENDROOT
BRANCH   4   7
HETATM    7  C5  UNL     1      44.186  -3.078  21.110  1.00  0.00     0.128 C 
BRANCH   7   8
HETATM    8  C6  UNL     1      43.178  -1.935  21.192  1.00  0.00     0.022 C 
BRANCH   8   9
HETATM    9  C7  UNL     1      43.897  -0.690  20.749  1.00  0.00     0.022 C 
BRANCH   9  10
HETATM   10  C8  UNL     1      43.126   0.567  21.084  1.00  0.00     0.130 C 
BRANCH  10  11
HETATM   11  N4  UNL     1      43.285   0.800  22.504  1.00  0.00    -0.338 N 
HETATM   12  C9  UNL     1      44.523   0.891  23.010  1.00  0.00     0.093 A 
HETATM   13  C10 UNL     1      44.758   1.112  24.365  1.00  0.00     0.017 A 
HETATM   14  C11 UNL     1      43.670   1.238  25.189  1.00  0.00     0.006 A 
HETATM   15  C12 UNL     1      42.399   1.140  24.644  1.00  0.00     0.056 A 
HETATM   16  C13 UNL     1      42.229   0.919  23.291  1.00  0.00     0.141 A 
BRANCH  16  17
HETATM   17  O2  UNL     1      40.911   0.834  22.829  1.00  0.00    -0.346 OA
ATOM     18  H2  UNL     1      40.685   0.714  21.914  1.00  0.00     0.219 HD
ENDBRANCH  16  17
ENDBRANCH  10  11
ENDBRANCH   9  10
ENDBRANCH   8   9
ENDBRANCH   7   8
ENDBRANCH   4   7
BRANCH   1  19
HETATM   19  C1  UNL     1      47.976  -2.922  25.333  1.00  0.00     0.146 C 
HETATM   20  N1  UNL     1      49.034  -1.964  25.188  1.00  0.00    -0.080 NA
HETATM   21  N2  UNL     1      48.051  -3.667  26.326  1.00  0.00    -0.255 N 
ATOM     22  H2  UNL     1      48.860  -3.512  26.927  1.00  0.00     0.195 HD
BRANCH  21  23
HETATM   23  O1  UNL     1      47.232  -4.634  26.715  1.00  0.00    -0.288 OA
ATOM     24  H1  UNL     1      46.996  -4.906  27.594  1.00  0.00     0.244 HD
ENDBRANCH  21  23
ENDBRANCH   1  19
TORSDOF 8
ENDMDL
MODEL 5
REMARK VINA RESULT: -6.946082613      2.144      7.990
REMARK  8 active torsions:
REMARK  status: ('A' for Active; 'I' for Inactive)
REMARK    1  A    between atoms: C1_2  and  C2_7 
REMARK    2  A    between atoms: N2_3  and  O1_5 
REMARK    3  A    between atoms: N3_10  and  C5_11 
REMARK    4  A    between atoms: C5_11  and  C6_12 
REMARK    5  A    between atoms: C6_12  and  C7_13 
REMARK    6  A    between atoms: C7_13  and  C8_14 
REMARK    7  A    between atoms: C8_14  and  N4_15 
REMARK    8  A    between atoms: C13_20  and  O2_21 
ROOT
HETATM    1  C2  UNL     1      43.111   1.843  22.807  1.00  0.00     0.009 A 
HETATM    2  C3  UNL     1      43.393   1.848  24.144  1.00  0.00     0.032 A 
HETATM    3  C4  UNL     1      44.260   0.895  24.703  1.00  0.00     0.091 A 
HETATM    4  N3  UNL     1      44.835  -0.042  23.947  1.00  0.00    -0.366 N 
HETATM    5  C14 UNL     1      44.590  -0.088  22.628  1.00  0.00     0.091 A 
HETATM    6  C15 UNL     1      43.752   0.828  22.077  1.00  0.00     0.032 A 
ENDROOT
BRANCH   4   7
HETATM    7  C5  UNL     1      45.726  -1.018  24.529  1.00  0.00     0.128 C 
BRANCH   7   8
HETATM    8  C6  UNL     1      45.426  -2.419  24.002  1.00  0.00     0.022 C 
BRANCH   8   9
HETATM    9  C7  UNL     1      46.259  -3.375  24.814  1.00  0.00     0.022 C 
BRANCH   9  10
HETATM   10  C8  UNL     1      47.412  -2.684  25.507  1.00  0.00     0.130 C 
BRANCH  10  11
HETATM   11  N4  UNL     1      48.486  -3.647  25.612  1.00  0.00    -0.338 N 
HETATM   12  C9  UNL     1      49.266  -3.864  24.543  1.00  0.00     0.093 A 
HETATM   13  C10 UNL     1      50.319  -4.775  24.565  1.00  0.00     0.017 A 
HETATM   14  C11 UNL     1      50.546  -5.462  25.730  1.00  0.00     0.006 A 
HETATM   15  C12 UNL     1      49.727  -5.221  26.822  1.00  0.00     0.056 A 
HETATM   16  C13 UNL     1      48.697  -4.305  26.740  1.00  0.00     0.141 A 
BRANCH  16  17
HETATM   17  O2  UNL     1      47.921  -4.127  27.891  1.00  0.00    -0.346 OA
ATOM     18  H2  UNL     1      48.292  -3.993  28.755  1.00  0.00     0.219 HD
ENDBRANCH  16  17
ENDBRANCH  10  11
ENDBRANCH   9  10
ENDBRANCH   8   9
ENDBRANCH   7   8
ENDBRANCH   4   7
BRANCH   1  19
HETATM   19  C1  UNL     1      42.248   2.749  22.094  1.00  0.00     0.146 C 
HETATM   20  N1  UNL     1      40.972   2.260  21.660  1.00  0.00    -0.080 NA
HETATM   21  N2  UNL     1      42.498   3.934  21.811  1.00  0.00    -0.255 N 
ATOM     22  H2  UNL     1      41.765   4.425  21.301  1.00  0.00     0.195 HD
BRANCH  21  23
HETATM   23  O1  UNL     1      43.582   4.651  22.078  1.00  0.00    -0.288 OA
ATOM     24  H1  UNL     1      44.168   4.602  22.823  1.00  0.00     0.244 HD
ENDBRANCH  21  23
ENDBRANCH   1  19
TORSDOF 8
ENDMDL
