MODEL 1
REMARK VINA RESULT: -6.545511159      0.000      0.000
REMARK  8 active torsions:
REMARK  status: ('A' for Active; 'I' for Inactive)
REMARK    1  A    between atoms: C2_5  and  C3_6 
REMARK    2  A    between atoms: C2_5  and  N5_14 
REMARK    3  A    between atoms: C3_6  and  C4_7 
REMARK    4  A    between atoms: N5_14  and  C7_16 
REMARK    5  A    between atoms: C7_16  and  C8_17 
REMARK    6  A    between atoms: C8_17  and  C9_18 
REMARK    7  A    between atoms: C9_18  and  N6_19 
REMARK    8  A    between atoms: N6_19  and  C10_21 
ROOT
HETATM    1  N1  UNL     1      43.213  -1.036  16.459  1.00  0.00    -0.172 NA
HETATM    2  C1  UNL     1      43.479  -0.477  17.460  1.00  0.00     0.183 C 
HETATM    3  N2  UNL     1      43.818   0.175  18.650  1.00  0.00    -0.283 N 
ATOM      4  H2  UNL     1      44.090   1.157  18.622  1.00  0.00     0.179 HD
HETATM    5  C2  UNL     1      43.793  -0.456  19.805  1.00  0.00     0.093 C 
ENDROOT
BRANCH   5   6
HETATM    6  C3  UNL     1      44.156   0.276  21.014  1.00  0.00     0.153 C 
BRANCH   6   7
HETATM    7  C4  UNL     1      43.065   1.222  21.362  1.00  0.00     0.087 A 
HETATM    8  N3  UNL     1      41.761   0.982  21.253  1.00  0.00    -0.354 N 
HETATM    9  C5  UNL     1      41.104   2.092  21.667  1.00  0.00     0.106 A 
ATOM     10  H3  UNL     1      41.333   0.118  20.918  1.00  0.00     0.166 HD
HETATM   11  C6  UNL     1      42.073   3.007  22.028  1.00  0.00     0.106 A 
HETATM   12  N4  UNL     1      43.304   2.466  21.839  1.00  0.00    -0.354 N 
ATOM     13  H4  UNL     1      44.210   2.901  22.017  1.00  0.00     0.166 HD
ENDBRANCH   6   7
ENDBRANCH   5   6
BRANCH   5  14
HETATM   14  N5  UNL     1      43.417  -1.812  19.805  1.00  0.00    -0.379 N 
ATOM     15  H5  UNL     1      43.418  -2.340  18.932  1.00  0.00     0.160 HD
BRANCH  14  16
HETATM   16  C7  UNL     1      43.032  -2.455  21.029  1.00  0.00     0.122 C 
BRANCH  16  17
HETATM   17  C8  UNL     1      44.002  -3.496  21.520  1.00  0.00     0.039 C 
BRANCH  17  18
HETATM   18  C9  UNL     1      44.546  -2.943  22.848  1.00  0.00     0.123 C 
BRANCH  18  19
HETATM   19  N6  UNL     1      43.482  -2.295  23.516  1.00  0.00    -0.376 N 
ATOM     20  H6  UNL     1      42.617  -2.833  23.577  1.00  0.00     0.161 HD
BRANCH  19  21
HETATM   21  C10 UNL     1      43.441  -1.145  24.050  1.00  0.00     0.100 A 
HETATM   22  C11 UNL     1      44.523  -0.391  24.410  1.00  0.00     0.048 A 
HETATM   23  C12 UNL     1      44.360   0.854  24.986  1.00  0.00     0.005 A 
HETATM   24  C13 UNL     1      43.104   1.384  25.221  1.00  0.00     0.017 A 
HETATM   25  C14 UNL     1      42.034   0.600  24.847  1.00  0.00     0.089 A 
HETATM   26  N7  UNL     1      42.210  -0.609  24.288  1.00  0.00    -0.353 N 
ATOM     27  H7  UNL     1      41.385  -1.151  24.030  1.00  0.00     0.166 HD
ENDBRANCH  19  21
ENDBRANCH  18  19
ENDBRANCH  17  18
ENDBRANCH  16  17
ENDBRANCH  14  16
ENDBRANCH   5  14
TORSDOF 8
ENDMDL
MODEL 2
REMARK VINA RESULT: -6.457047616      1.649      3.907
REMARK  8 active torsions:
REMARK  status: ('A' for Active; 'I' for Inactive)
REMARK    1  A    between atoms: C2_5  and  C3_6 
REMARK    2  A    between atoms: C2_5  and  N5_14 
REMARK    3  A    between atoms: C3_6  and  C4_7 
REMARK    4  A    between atoms: N5_14  and  C7_16 
REMARK    5  A    between atoms: C7_16  and  C8_17 
REMARK    6  A    between atoms: C8_17  and  C9_18 
REMARK    7  A    between atoms: C9_18  and  N6_19 
REMARK    8  A    between atoms: N6_19  and  C10_21 
ROOT
HETATM    1  N1  UNL     1      42.432   1.985  21.536  1.00  0.00    -0.172 NA
HETATM    2  C1  UNL     1      42.509   1.538  20.450  1.00  0.00     0.183 C 
HETATM    3  N2  UNL     1      42.591   0.984  19.169  1.00  0.00    -0.283 N 
ATOM      4  H2  UNL     1      41.909   1.256  18.461  1.00  0.00     0.179 HD
HETATM    5  C2  UNL     1      43.532   0.117  18.859  1.00  0.00     0.093 C 
ENDROOT
BRANCH   5   6
HETATM    6  C3  UNL     1      43.569  -0.427  17.505  1.00  0.00     0.153 C 
BRANCH   6   7
HETATM    7  C4  UNL     1      44.854  -0.054  16.860  1.00  0.00     0.087 A 
HETATM    8  N3  UNL     1      45.360   1.174  16.784  1.00  0.00    -0.354 N 
HETATM    9  C5  UNL     1      46.538   1.091  16.120  1.00  0.00     0.106 A 
ATOM     10  H3  UNL     1      44.937   2.025  17.159  1.00  0.00     0.166 HD
HETATM   11  C6  UNL     1      46.713  -0.241  15.802  1.00  0.00     0.106 A 
HETATM   12  N4  UNL     1      45.660  -0.963  16.264  1.00  0.00    -0.354 N 
ATOM     13  H4  UNL     1      45.510  -1.969  16.181  1.00  0.00     0.166 HD
ENDBRANCH   6   7
ENDBRANCH   5   6
BRANCH   5  14
HETATM   14  N5  UNL     1      44.454  -0.238  19.861  1.00  0.00    -0.379 N 
ATOM     15  H5  UNL     1      45.053   0.475  20.276  1.00  0.00     0.160 HD
BRANCH  14  16
HETATM   16  C7  UNL     1      44.553  -1.600  20.302  1.00  0.00     0.122 C 
BRANCH  16  17
HETATM   17  C8  UNL     1      43.232  -2.267  20.577  1.00  0.00     0.039 C 
BRANCH  17  18
HETATM   18  C9  UNL     1      43.356  -2.835  22.000  1.00  0.00     0.123 C 
BRANCH  18  19
HETATM   19  N6  UNL     1      42.547  -2.050  22.853  1.00  0.00    -0.376 N 
ATOM     20  H6  UNL     1      41.577  -2.354  22.930  1.00  0.00     0.161 HD
BRANCH  19  21
HETATM   21  C10 UNL     1      42.847  -1.024  23.536  1.00  0.00     0.100 A 
HETATM   22  C11 UNL     1      44.110  -0.640  23.891  1.00  0.00     0.048 A 
HETATM   23  C12 UNL     1      44.321   0.502  24.639  1.00  0.00     0.005 A 
HETATM   24  C13 UNL     1      43.269   1.297  25.057  1.00  0.00     0.017 A 
HETATM   25  C14 UNL     1      42.009   0.884  24.684  1.00  0.00     0.089 A 
HETATM   26  N7  UNL     1      41.822  -0.230  23.956  1.00  0.00    -0.353 N 
ATOM     27  H7  UNL     1      40.869  -0.493  23.706  1.00  0.00     0.166 HD
ENDBRANCH  19  21
ENDBRANCH  18  19
ENDBRANCH  17  18
ENDBRANCH  16  17
ENDBRANCH  14  16
ENDBRANCH   5  14
TORSDOF 8
ENDMDL
MODEL 3
REMARK VINA RESULT: -6.401037344      2.113      3.551
REMARK  8 active torsions:
REMARK  status: ('A' for Active; 'I' for Inactive)
REMARK    1  A    between atoms: C2_5  and  C3_6 
REMARK    2  A    between atoms: C2_5  and  N5_14 
REMARK    3  A    between atoms: C3_6  and  C4_7 
REMARK    4  A    between atoms: N5_14  and  C7_16 
REMARK    5  A    between atoms: C7_16  and  C8_17 
REMARK    6  A    between atoms: C8_17  and  C9_18 
REMARK    7  A    between atoms: C9_18  and  N6_19 
REMARK    8  A    between atoms: N6_19  and  C10_21 
ROOT
HETATM    1  N1  UNL     1      43.059  -0.193  17.871  1.00  0.00    -0.172 NA
HETATM    2  C1  UNL     1      42.880   0.667  18.655  1.00  0.00     0.183 C 
HETATM    3  N2  UNL     1      42.691   1.683  19.596  1.00  0.00    -0.283 N 
ATOM      4  H2  UNL     1      42.798   2.657  19.310  1.00  0.00     0.179 HD
HETATM    5  C2  UNL     1      42.378   1.408  20.844  1.00  0.00     0.093 C 
ENDROOT
BRANCH   5   6
HETATM    6  C3  UNL     1      42.192   2.510  21.783  1.00  0.00     0.153 C 
BRANCH   6   7
HETATM    7  C4  UNL     1      42.835   2.167  23.077  1.00  0.00     0.087 A 
HETATM    8  N3  UNL     1      44.140   2.209  23.335  1.00  0.00    -0.354 N 
HETATM    9  C5  UNL     1      44.315   1.822  24.621  1.00  0.00     0.106 A 
ATOM     10  H3  UNL     1      44.875   2.482  22.682  1.00  0.00     0.166 HD
HETATM   11  C6  UNL     1      43.058   1.547  25.122  1.00  0.00     0.106 A 
HETATM   12  N4  UNL     1      42.126   1.763  24.157  1.00  0.00    -0.354 N 
ATOM     13  H4  UNL     1      41.116   1.646  24.231  1.00  0.00     0.166 HD
ENDBRANCH   6   7
ENDBRANCH   5   6
BRANCH   5  14
HETATM   14  N5  UNL     1      42.243   0.054  21.204  1.00  0.00    -0.379 N 
ATOM     15  H5  UNL     1      41.324  -0.389  21.182  1.00  0.00     0.160 HD
BRANCH  14  16
HETATM   16  C7  UNL     1      43.393  -0.707  21.602  1.00  0.00     0.122 C 
BRANCH  16  17
HETATM   17  C8  UNL     1      43.163  -1.619  22.778  1.00  0.00     0.039 C 
BRANCH  17  18
HETATM   18  C9  UNL     1      43.770  -2.970  22.363  1.00  0.00     0.123 C 
BRANCH  18  19
HETATM   19  N6  UNL     1      44.570  -3.433  23.432  1.00  0.00    -0.376 N 
ATOM     20  H6  UNL     1      44.127  -4.124  24.038  1.00  0.00     0.161 HD
BRANCH  19  21
HETATM   21  C10 UNL     1      45.756  -3.118  23.751  1.00  0.00     0.100 A 
HETATM   22  C11 UNL     1      46.127  -2.418  24.865  1.00  0.00     0.048 A 
HETATM   23  C12 UNL     1      47.455  -2.132  25.114  1.00  0.00     0.005 A 
HETATM   24  C13 UNL     1      48.457  -2.539  24.252  1.00  0.00     0.017 A 
HETATM   25  C14 UNL     1      48.052  -3.242  23.138  1.00  0.00     0.089 A 
HETATM   26  N7  UNL     1      46.756  -3.512  22.911  1.00  0.00    -0.353 N 
ATOM     27  H7  UNL     1      46.507  -4.035  22.072  1.00  0.00     0.166 HD
ENDBRANCH  19  21
ENDBRANCH  18  19
ENDBRANCH  17  18
ENDBRANCH  16  17
ENDBRANCH  14  16
ENDBRANCH   5  14
TORSDOF 8
ENDMDL
MODEL 4
REMARK VINA RESULT: -6.373895733      3.427      5.033
REMARK  8 active torsions:
REMARK  status: ('A' for Active; 'I' for Inactive)
REMARK    1  A    between atoms: C2_5  and  C3_6 
REMARK    2  A    between atoms: C2_5  and  N5_14 
REMARK    3  A    between atoms: C3_6  and  C4_7 
REMARK    4  A    between atoms: N5_14  and  C7_16 
REMARK    5  A    between atoms: C7_16  and  C8_17 
REMARK    6  A    between atoms: C8_17  and  C9_18 
REMARK    7  A    between atoms: C9_18  and  N6_19 
REMARK    8  A    between atoms: N6_19  and  C10_21 
ROOT
HETATM    1  N1  UNL     1      43.826  -4.255  21.216  1.00  0.00    -0.172 NA
HETATM    2  C1  UNL     1      43.234  -3.375  21.726  1.00  0.00     0.183 C 
HETATM    3  N2  UNL     1      42.547  -2.313  22.321  1.00  0.00    -0.283 N 
ATOM      4  H2  UNL     1      41.666  -1.996  21.916  1.00  0.00     0.179 HD
HETATM    5  C2  UNL     1      43.015  -1.713  23.395  1.00  0.00     0.093 C 
ENDROOT
BRANCH   5   6
HETATM    6  C3  UNL     1      42.254  -0.611  23.974  1.00  0.00     0.153 C 
BRANCH   6   7
HETATM    7  C4  UNL     1      42.280   0.546  23.043  1.00  0.00     0.087 A 
HETATM    8  N3  UNL     1      43.371   1.163  22.597  1.00  0.00    -0.354 N 
HETATM    9  C5  UNL     1      42.969   2.163  21.776  1.00  0.00     0.106 A 
ATOM     10  H3  UNL     1      44.336   0.927  22.831  1.00  0.00     0.166 HD
HETATM   11  C6  UNL     1      41.589   2.117  21.750  1.00  0.00     0.106 A 
HETATM   12  N4  UNL     1      41.153   1.104  22.543  1.00  0.00    -0.354 N 
ATOM     13  H4  UNL     1      40.188   0.825  22.722  1.00  0.00     0.166 HD
ENDBRANCH   6   7
ENDBRANCH   5   6
BRANCH   5  14
HETATM   14  N5  UNL     1      44.235  -2.174  23.925  1.00  0.00    -0.379 N 
ATOM     15  H5  UNL     1      44.293  -3.110  24.327  1.00  0.00     0.160 HD
BRANCH  14  16
HETATM   16  C7  UNL     1      45.397  -1.332  23.902  1.00  0.00     0.122 C 
BRANCH  16  17
HETATM   17  C8  UNL     1      46.279  -1.516  22.696  1.00  0.00     0.039 C 
BRANCH  17  18
HETATM   18  C9  UNL     1      46.845  -2.940  22.825  1.00  0.00     0.123 C 
BRANCH  18  19
HETATM   19  N6  UNL     1      48.013  -2.872  23.618  1.00  0.00    -0.376 N 
ATOM     20  H6  UNL     1      48.720  -2.214  23.292  1.00  0.00     0.161 HD
BRANCH  19  21
HETATM   21  C10 UNL     1      48.313  -3.505  24.675  1.00  0.00     0.100 A 
HETATM   22  C11 UNL     1      47.633  -3.453  25.860  1.00  0.00     0.048 A 
HETATM   23  C12 UNL     1      48.050  -4.190  26.951  1.00  0.00     0.005 A 
HETATM   24  C13 UNL     1      49.166  -5.006  26.889  1.00  0.00     0.017 A 
HETATM   25  C14 UNL     1      49.830  -5.037  25.681  1.00  0.00     0.089 A 
HETATM   26  N7  UNL     1      49.410  -4.313  24.630  1.00  0.00    -0.353 N 
ATOM     27  H7  UNL     1      49.936  -4.371  23.759  1.00  0.00     0.166 HD
ENDBRANCH  19  21
ENDBRANCH  18  19
ENDBRANCH  17  18
ENDBRANCH  16  17
ENDBRANCH  14  16
ENDBRANCH   5  14
TORSDOF 8
ENDMDL
MODEL 5
REMARK VINA RESULT: -6.367825645      2.045      3.199
REMARK  8 active torsions:
REMARK  status: ('A' for Active; 'I' for Inactive)
REMARK    1  A    between atoms: C2_5  and  C3_6 
REMARK    2  A    between atoms: C2_5  and  N5_14 
REMARK    3  A    between atoms: C3_6  and  C4_7 
REMARK    4  A    between atoms: N5_14  and  C7_16 
REMARK    5  A    between atoms: C7_16  and  C8_17 
REMARK    6  A    between atoms: C8_17  and  C9_18 
REMARK    7  A    between atoms: C9_18  and  N6_19 
REMARK    8  A    between atoms: N6_19  and  C10_21 
ROOT
HETATM    1  N1  UNL     1      42.751  -0.376  17.528  1.00  0.00    -0.172 NA
HETATM    2  C1  UNL     1      43.396  -0.135  18.483  1.00  0.00     0.183 C 
HETATM    3  N2  UNL     1      44.173   0.128  19.615  1.00  0.00    -0.283 N 
ATOM      4  H2  UNL     1      44.974   0.755  19.538  1.00  0.00     0.179 HD
HETATM    5  C2  UNL     1      43.891  -0.418  20.779  1.00  0.00     0.093 C 
ENDROOT
BRANCH   5   6
HETATM    6  C3  UNL     1      44.737  -0.106  21.926  1.00  0.00     0.153 C 
BRANCH   6   7
HETATM    7  C4  UNL     1      43.930   0.601  22.953  1.00  0.00     0.087 A 
HETATM    8  N3  UNL     1      43.513   0.087  24.107  1.00  0.00    -0.354 N 
HETATM    9  C5  UNL     1      42.810   1.048  24.754  1.00  0.00     0.106 A 
ATOM     10  H3  UNL     1      43.692  -0.860  24.445  1.00  0.00     0.166 HD
HETATM   11  C6  UNL     1      42.824   2.159  23.935  1.00  0.00     0.106 A 
HETATM   12  N4  UNL     1      43.526   1.884  22.805  1.00  0.00    -0.354 N 
ATOM     13  H4  UNL     1      43.708   2.507  22.018  1.00  0.00     0.166 HD
ENDBRANCH   6   7
ENDBRANCH   5   6
BRANCH   5  14
HETATM   14  N5  UNL     1      42.781  -1.281  20.847  1.00  0.00    -0.379 N 
ATOM     15  H5  UNL     1      41.882  -0.984  20.469  1.00  0.00     0.160 HD
BRANCH  14  16
HETATM   16  C7  UNL     1      42.910  -2.579  21.447  1.00  0.00     0.122 C 
BRANCH  16  17
HETATM   17  C8  UNL     1      44.095  -3.374  20.967  1.00  0.00     0.039 C 
BRANCH  17  18
HETATM   18  C9  UNL     1      44.408  -4.356  22.108  1.00  0.00     0.123 C 
BRANCH  18  19
HETATM   19  N6  UNL     1      44.730  -3.598  23.257  1.00  0.00    -0.376 N 
ATOM     20  H6  UNL     1      43.938  -3.350  23.849  1.00  0.00     0.161 HD
BRANCH  19  21
HETATM   21  C10 UNL     1      45.857  -3.179  23.661  1.00  0.00     0.100 A 
HETATM   22  C11 UNL     1      46.073  -2.394  24.760  1.00  0.00     0.048 A 
HETATM   23  C12 UNL     1      47.349  -1.998  25.109  1.00  0.00     0.005 A 
HETATM   24  C13 UNL     1      48.453  -2.375  24.366  1.00  0.00     0.017 A 
HETATM   25  C14 UNL     1      48.203  -3.166  23.265  1.00  0.00     0.089 A 
HETATM   26  N7  UNL     1      46.955  -3.543  22.940  1.00  0.00    -0.353 N 
ATOM     27  H7  UNL     1      46.824  -4.127  22.114  1.00  0.00     0.166 HD
ENDBRANCH  19  21
ENDBRANCH  18  19
ENDBRANCH  17  18
ENDBRANCH  16  17
ENDBRANCH  14  16
ENDBRANCH   5  14
TORSDOF 8
ENDMDL
