MODEL 1
REMARK VINA RESULT: -6.783013926      0.000      0.000
REMARK  8 active torsions:
REMARK  status: ('A' for Active; 'I' for Inactive)
REMARK    1  A    between atoms: C3_7  and  C4_8 
REMARK    2  A    between atoms: C4_8  and  C5_9 
REMARK    3  A    between atoms: C5_9  and  C6_10 
REMARK    4  A    between atoms: C6_10  and  C7_11 
REMARK    5  A    between atoms: C7_11  and  C8_12 
REMARK    6  A    between atoms: C8_12  and  O3_13 
REMARK    7  A    between atoms: C9_15  and  C10_16 
REMARK    8  A    between atoms: C10_16  and  C11_17 
ROOT
HETATM    1  O1  UNL     1      42.364   1.267  18.283  1.00  0.00    -0.247 OA
HETATM    2  C1  UNL     1      43.079   0.322  18.772  1.00  0.00     0.327 A 
HETATM    3  N1  UNL     1      43.194  -0.832  18.102  1.00  0.00    -0.275 N 
ATOM      4  H1  UNL     1      42.719  -0.963  17.208  1.00  0.00     0.173 HD
HETATM    5  C2  UNL     1      43.943  -1.811  18.624  1.00  0.00     0.261 A 
HETATM    6  O2  UNL     1      44.026  -2.871  17.969  1.00  0.00    -0.267 OA
HETATM    7  C3  UNL     1      44.578  -1.616  19.833  1.00  0.00     0.055 A 
HETATM    8  C9  UNL     1      44.461  -0.434  20.524  1.00  0.00     0.052 A 
HETATM    9  N2  UNL     1      43.682   0.532  19.941  1.00  0.00    -0.308 N 
ATOM     10  H2  UNL     1      43.561   1.429  20.413  1.00  0.00     0.170 HD
ENDROOT
BRANCH   7  11
HETATM   11  C4  UNL     1      45.324  -2.587  20.361  1.00  0.00    -0.007 C 
BRANCH  11  12
HETATM   12  C5  UNL     1      44.845  -3.587  21.335  1.00  0.00     0.028 C 
BRANCH  12  13
HETATM   13  C6  UNL     1      45.804  -3.628  22.515  1.00  0.00     0.006 C 
BRANCH  13  14
HETATM   14  C7  UNL     1      45.097  -3.257  23.786  1.00  0.00     0.026 C 
BRANCH  14  15
HETATM   15  C8  UNL     1      46.026  -2.498  24.703  1.00  0.00     0.164 C 
BRANCH  15  16
HETATM   16  O3  UNL     1      46.401  -3.273  25.791  1.00  0.00    -0.401 OA
ATOM     17  H3  UNL     1      47.222  -3.721  25.626  1.00  0.00     0.209 HD
ENDBRANCH  15  16
ENDBRANCH  14  15
ENDBRANCH  13  14
ENDBRANCH  12  13
ENDBRANCH  11  12
ENDBRANCH   7  11
BRANCH   8  18
HETATM   18  C10 UNL     1      45.036  -0.162  21.691  1.00  0.00     0.042 C 
BRANCH  18  19
HETATM   19  C11 UNL     1      44.215   0.392  22.795  1.00  0.00    -0.034 A 
HETATM   20  C12 UNL     1      43.067  -0.234  23.221  1.00  0.00     0.011 A 
HETATM   21  C13 UNL     1      42.291   0.280  24.259  1.00  0.00     0.001 A 
HETATM   22  C14 UNL     1      42.685   1.450  24.875  1.00  0.00     0.000 A 
HETATM   23  C15 UNL     1      43.830   2.097  24.469  1.00  0.00     0.001 A 
HETATM   24  C16 UNL     1      44.580   1.555  23.430  1.00  0.00     0.011 A 
ENDBRANCH  18  19
ENDBRANCH   8  18
TORSDOF 8
ENDMDL
MODEL 2
REMARK VINA RESULT: -6.776307800      0.020      1.035
REMARK  8 active torsions:
REMARK  status: ('A' for Active; 'I' for Inactive)
REMARK    1  A    between atoms: C3_7  and  C4_8 
REMARK    2  A    between atoms: C4_8  and  C5_9 
REMARK    3  A    between atoms: C5_9  and  C6_10 
REMARK    4  A    between atoms: C6_10  and  C7_11 
REMARK    5  A    between atoms: C7_11  and  C8_12 
REMARK    6  A    between atoms: C8_12  and  O3_13 
REMARK    7  A    between atoms: C9_15  and  C10_16 
REMARK    8  A    between atoms: C10_16  and  C11_17 
ROOT
HETATM    1  O1  UNL     1      42.362   1.268  18.290  1.00  0.00    -0.247 OA
HETATM    2  C1  UNL     1      43.075   0.319  18.775  1.00  0.00     0.327 A 
HETATM    3  N1  UNL     1      43.183  -0.834  18.102  1.00  0.00    -0.275 N 
ATOM      4  H1  UNL     1      42.704  -0.962  17.211  1.00  0.00     0.173 HD
HETATM    5  C2  UNL     1      43.930  -1.817  18.620  1.00  0.00     0.261 A 
HETATM    6  O2  UNL     1      44.006  -2.877  17.963  1.00  0.00    -0.267 OA
HETATM    7  C3  UNL     1      44.571  -1.627  19.827  1.00  0.00     0.055 A 
HETATM    8  C9  UNL     1      44.461  -0.445  20.520  1.00  0.00     0.052 A 
HETATM    9  N2  UNL     1      43.684   0.525  19.942  1.00  0.00    -0.308 N 
ATOM     10  H2  UNL     1      43.569   1.421  20.415  1.00  0.00     0.170 HD
ENDROOT
BRANCH   7  11
HETATM   11  C4  UNL     1      45.315  -2.601  20.350  1.00  0.00    -0.007 C 
BRANCH  11  12
HETATM   12  C5  UNL     1      44.838  -3.598  21.328  1.00  0.00     0.028 C 
BRANCH  12  13
HETATM   13  C6  UNL     1      45.799  -3.637  22.506  1.00  0.00     0.006 C 
BRANCH  13  14
HETATM   14  C7  UNL     1      45.092  -3.274  23.779  1.00  0.00     0.026 C 
BRANCH  14  15
HETATM   15  C8  UNL     1      46.018  -2.513  24.698  1.00  0.00     0.164 C 
BRANCH  15  16
HETATM   16  O3  UNL     1      46.395  -3.289  25.784  1.00  0.00    -0.401 OA
ATOM     17  H3  UNL     1      45.745  -3.251  26.475  1.00  0.00     0.209 HD
ENDBRANCH  15  16
ENDBRANCH  14  15
ENDBRANCH  13  14
ENDBRANCH  12  13
ENDBRANCH  11  12
ENDBRANCH   7  11
BRANCH   8  18
HETATM   18  C10 UNL     1      45.043  -0.178  21.685  1.00  0.00     0.042 C 
BRANCH  18  19
HETATM   19  C11 UNL     1      44.234   0.398  22.787  1.00  0.00    -0.034 A 
HETATM   20  C12 UNL     1      44.597   1.570  23.407  1.00  0.00     0.011 A 
HETATM   21  C13 UNL     1      43.841   2.118  24.443  1.00  0.00     0.001 A 
HETATM   22  C14 UNL     1      42.698   1.466  24.858  1.00  0.00     0.000 A 
HETATM   23  C15 UNL     1      42.311   0.291  24.254  1.00  0.00     0.001 A 
HETATM   24  C16 UNL     1      43.090  -0.227  23.223  1.00  0.00     0.011 A 
ENDBRANCH  18  19
ENDBRANCH   8  18
TORSDOF 8
ENDMDL
MODEL 3
REMARK VINA RESULT: -6.760297373      2.322      4.837
REMARK  8 active torsions:
REMARK  status: ('A' for Active; 'I' for Inactive)
REMARK    1  A    between atoms: C3_7  and  C4_8 
REMARK    2  A    between atoms: C4_8  and  C5_9 
REMARK    3  A    between atoms: C5_9  and  C6_10 
REMARK    4  A    between atoms: C6_10  and  C7_11 
REMARK    5  A    between atoms: C7_11  and  C8_12 
REMARK    6  A    between atoms: C8_12  and  O3_13 
REMARK    7  A    between atoms: C9_15  and  C10_16 
REMARK    8  A    between atoms: C10_16  and  C11_17 
ROOT
HETATM    1  O1  UNL     1      42.798   0.601  18.476  1.00  0.00    -0.247 OA
HETATM    2  C1  UNL     1      43.139   0.927  19.668  1.00  0.00     0.327 A 
HETATM    3  N1  UNL     1      42.559   1.983  20.254  1.00  0.00    -0.275 N 
ATOM      4  H1  UNL     1      41.851   2.526  19.760  1.00  0.00     0.173 HD
HETATM    5  C2  UNL     1      42.925   2.313  21.498  1.00  0.00     0.261 A 
HETATM    6  O2  UNL     1      42.361   3.303  22.011  1.00  0.00    -0.267 OA
HETATM    7  C3  UNL     1      43.884   1.567  22.150  1.00  0.00     0.055 A 
HETATM    8  C9  UNL     1      44.482   0.484  21.552  1.00  0.00     0.052 A 
HETATM    9  N2  UNL     1      44.068   0.193  20.278  1.00  0.00    -0.308 N 
ATOM     10  H2  UNL     1      44.481  -0.601  19.787  1.00  0.00     0.170 HD
ENDROOT
BRANCH   7  11
HETATM   11  C4  UNL     1      44.255   1.890  23.389  1.00  0.00    -0.007 C 
BRANCH  11  12
HETATM   12  C5  UNL     1      43.877   1.147  24.607  1.00  0.00     0.028 C 
BRANCH  12  13
HETATM   13  C6  UNL     1      42.366   0.985  24.640  1.00  0.00     0.006 C 
BRANCH  13  14
HETATM   14  C7  UNL     1      41.973  -0.408  24.243  1.00  0.00     0.026 C 
BRANCH  14  15
HETATM   15  C8  UNL     1      40.575  -0.718  24.723  1.00  0.00     0.164 C 
BRANCH  15  16
HETATM   16  O3  UNL     1      40.109   0.269  25.580  1.00  0.00    -0.401 OA
ATOM     17  H3  UNL     1      39.998   1.094  25.123  1.00  0.00     0.209 HD
ENDBRANCH  15  16
ENDBRANCH  14  15
ENDBRANCH  13  14
ENDBRANCH  12  13
ENDBRANCH  11  12
ENDBRANCH   7  11
BRANCH   8  18
HETATM   18  C10 UNL     1      45.412  -0.288  22.105  1.00  0.00     0.042 C 
BRANCH  18  19
HETATM   19  C11 UNL     1      45.350  -1.757  21.909  1.00  0.00    -0.034 A 
HETATM   20  C12 UNL     1      44.315  -2.506  22.418  1.00  0.00     0.011 A 
HETATM   21  C13 UNL     1      44.250  -3.888  22.237  1.00  0.00     0.001 A 
HETATM   22  C14 UNL     1      45.252  -4.520  21.530  1.00  0.00     0.000 A 
HETATM   23  C15 UNL     1      46.300  -3.794  21.010  1.00  0.00     0.001 A 
HETATM   24  C16 UNL     1      46.333  -2.417  21.210  1.00  0.00     0.011 A 
ENDBRANCH  18  19
ENDBRANCH   8  18
TORSDOF 8
ENDMDL
MODEL 4
REMARK VINA RESULT: -6.642745223      2.241      3.109
REMARK  8 active torsions:
REMARK  status: ('A' for Active; 'I' for Inactive)
REMARK    1  A    between atoms: C3_7  and  C4_8 
REMARK    2  A    between atoms: C4_8  and  C5_9 
REMARK    3  A    between atoms: C5_9  and  C6_10 
REMARK    4  A    between atoms: C6_10  and  C7_11 
REMARK    5  A    between atoms: C7_11  and  C8_12 
REMARK    6  A    between atoms: C8_12  and  O3_13 
REMARK    7  A    between atoms: C9_15  and  C10_16 
REMARK    8  A    between atoms: C10_16  and  C11_17 
ROOT
HETATM    1  O1  UNL     1      43.194  -2.055  19.061  1.00  0.00    -0.247 OA
HETATM    2  C1  UNL     1      43.606  -2.385  20.229  1.00  0.00     0.327 A 
HETATM    3  N1  UNL     1      44.605  -3.270  20.350  1.00  0.00    -0.275 N 
ATOM      4  H1  UNL     1      45.037  -3.680  19.522  1.00  0.00     0.173 HD
HETATM    5  C2  UNL     1      45.026  -3.605  21.575  1.00  0.00     0.261 A 
HETATM    6  O2  UNL     1      45.960  -4.433  21.646  1.00  0.00    -0.267 OA
HETATM    7  C3  UNL     1      44.431  -3.040  22.683  1.00  0.00     0.055 A 
HETATM    8  C9  UNL     1      43.406  -2.132  22.563  1.00  0.00     0.052 A 
HETATM    9  N2  UNL     1      43.016  -1.827  21.285  1.00  0.00    -0.308 N 
ATOM     10  H2  UNL     1      42.258  -1.159  21.139  1.00  0.00     0.170 HD
ENDROOT
BRANCH   7  11
HETATM   11  C4  UNL     1      44.843  -3.370  23.907  1.00  0.00    -0.007 C 
BRANCH  11  12
HETATM   12  C5  UNL     1      46.045  -2.828  24.570  1.00  0.00     0.028 C 
BRANCH  12  13
HETATM   13  C6  UNL     1      46.598  -1.683  23.736  1.00  0.00     0.006 C 
BRANCH  13  14
HETATM   14  C7  UNL     1      47.970  -2.014  23.225  1.00  0.00     0.026 C 
BRANCH  14  15
HETATM   15  C8  UNL     1      48.140  -1.517  21.810  1.00  0.00     0.164 C 
BRANCH  15  16
HETATM   16  O3  UNL     1      47.187  -0.558  21.498  1.00  0.00    -0.401 OA
ATOM     17  H3  UNL     1      46.928  -0.616  20.586  1.00  0.00     0.209 HD
ENDBRANCH  15  16
ENDBRANCH  14  15
ENDBRANCH  13  14
ENDBRANCH  12  13
ENDBRANCH  11  12
ENDBRANCH   7  11
BRANCH   8  18
HETATM   18  C10 UNL     1      42.777  -1.541  23.573  1.00  0.00     0.042 C 
BRANCH  18  19
HETATM   19  C11 UNL     1      43.042  -0.109  23.857  1.00  0.00    -0.034 A 
HETATM   20  C12 UNL     1      42.428   0.891  23.141  1.00  0.00     0.011 A 
HETATM   21  C13 UNL     1      42.671   2.239  23.403  1.00  0.00     0.001 A 
HETATM   22  C14 UNL     1      43.554   2.579  24.407  1.00  0.00     0.000 A 
HETATM   23  C15 UNL     1      44.183   1.597  25.140  1.00  0.00     0.001 A 
HETATM   24  C16 UNL     1      43.916   0.262  24.852  1.00  0.00     0.011 A 
ENDBRANCH  18  19
ENDBRANCH   8  18
TORSDOF 8
ENDMDL
MODEL 5
REMARK VINA RESULT: -6.640522035      2.506      5.009
REMARK  8 active torsions:
REMARK  status: ('A' for Active; 'I' for Inactive)
REMARK    1  A    between atoms: C3_7  and  C4_8 
REMARK    2  A    between atoms: C4_8  and  C5_9 
REMARK    3  A    between atoms: C5_9  and  C6_10 
REMARK    4  A    between atoms: C6_10  and  C7_11 
REMARK    5  A    between atoms: C7_11  and  C8_12 
REMARK    6  A    between atoms: C8_12  and  O3_13 
REMARK    7  A    between atoms: C9_15  and  C10_16 
REMARK    8  A    between atoms: C10_16  and  C11_17 
ROOT
HETATM    1  O1  UNL     1      43.320   4.661  21.311  1.00  0.00    -0.247 OA
HETATM    2  C1  UNL     1      43.435   3.492  21.825  1.00  0.00     0.327 A 
HETATM    3  N1  UNL     1      43.861   3.367  23.090  1.00  0.00    -0.275 N 
ATOM      4  H1  UNL     1      44.091   4.192  23.643  1.00  0.00     0.173 HD
HETATM    5  C2  UNL     1      43.977   2.141  23.613  1.00  0.00     0.261 A 
HETATM    6  O2  UNL     1      44.376   2.066  24.795  1.00  0.00    -0.267 OA
HETATM    7  C3  UNL     1      43.660   1.037  22.850  1.00  0.00     0.055 A 
HETATM    8  C9  UNL     1      43.224   1.162  21.552  1.00  0.00     0.052 A 
HETATM    9  N2  UNL     1      43.125   2.441  21.069  1.00  0.00    -0.308 N 
ATOM     10  H2  UNL     1      42.807   2.590  20.111  1.00  0.00     0.170 HD
ENDROOT
BRANCH   7  11
HETATM   11  C4  UNL     1      43.775  -0.187  23.364  1.00  0.00    -0.007 C 
BRANCH  11  12
HETATM   12  C5  UNL     1      45.038  -0.941  23.480  1.00  0.00     0.028 C 
BRANCH  12  13
HETATM   13  C6  UNL     1      44.721  -2.402  23.757  1.00  0.00     0.006 C 
BRANCH  13  14
HETATM   14  C7  UNL     1      43.996  -3.016  22.595  1.00  0.00     0.026 C 
BRANCH  14  15
HETATM   15  C8  UNL     1      44.716  -4.256  22.121  1.00  0.00     0.164 C 
BRANCH  15  16
HETATM   16  O3  UNL     1      43.852  -5.111  21.451  1.00  0.00    -0.401 OA
ATOM     17  H3  UNL     1      43.575  -4.738  20.622  1.00  0.00     0.209 HD
ENDBRANCH  15  16
ENDBRANCH  14  15
ENDBRANCH  13  14
ENDBRANCH  12  13
ENDBRANCH  11  12
ENDBRANCH   7  11
BRANCH   8  18
HETATM   18  C10 UNL     1      42.898   0.156  20.748  1.00  0.00     0.042 C 
BRANCH  18  19
HETATM   19  C11 UNL     1      43.812  -0.216  19.640  1.00  0.00    -0.034 A 
HETATM   20  C12 UNL     1      43.624   0.261  18.364  1.00  0.00     0.011 A 
HETATM   21  C13 UNL     1      44.479  -0.083  17.318  1.00  0.00     0.001 A 
HETATM   22  C14 UNL     1      45.542  -0.927  17.569  1.00  0.00     0.000 A 
HETATM   23  C15 UNL     1      45.753  -1.419  18.837  1.00  0.00     0.001 A 
HETATM   24  C16 UNL     1      44.880  -1.054  19.858  1.00  0.00     0.011 A 
ENDBRANCH  18  19
ENDBRANCH   8  18
TORSDOF 8
ENDMDL
