MODEL 1
REMARK VINA RESULT: -7.096406440      0.000      0.000
REMARK  9 active torsions:
REMARK  status: ('A' for Active; 'I' for Inactive)
REMARK    1  A    between atoms: N1_1  and  C1_5 
REMARK    2  A    between atoms: C1_5  and  C2_6 
REMARK    3  A    between atoms: C4_8  and  N2_9 
REMARK    4  A    between atoms: N2_9  and  C5_11 
REMARK    5  A    between atoms: C6_15  and  N4_16 
REMARK    6  A    between atoms: N4_16  and  C7_18 
REMARK    7  A    between atoms: C7_18  and  C8_19 
REMARK    8  A    between atoms: C8_19  and  C9_20 
REMARK    9  A    between atoms: C9_20  and  C10_21 
ROOT
HETATM    1  C2  UNL     1      43.555  -1.663  20.446  1.00  0.00     0.055 A 
HETATM    2  C3  UNL     1      44.364  -1.406  19.370  1.00  0.00     0.076 A 
HETATM    3  C4  UNL     1      44.261  -0.237  18.655  1.00  0.00     0.124 A 
HETATM    4  N3  UNL     1      43.345   0.667  19.027  1.00  0.00    -0.177 N 
ATOM      5  H3  UNL     1      43.261   1.538  18.505  1.00  0.00     0.186 HD
HETATM    6  C6  UNL     1      42.524   0.441  20.094  1.00  0.00     0.679 A 
HETATM    7  N5  UNL     1      42.642  -0.699  20.772  1.00  0.00    -0.194 N 
ATOM      8  H5  UNL     1      42.025  -0.860  21.568  1.00  0.00     0.184 HD
ENDROOT
BRANCH   6   9
HETATM    9  N4  UNL     1      41.688   1.357  20.370  1.00  0.00    -0.226 N 
ATOM     10  H4  UNL     1      41.203   1.830  19.607  1.00  0.00     0.177 HD
BRANCH   9  11
HETATM   11  C7  UNL     1      41.407   1.747  21.719  1.00  0.00     0.138 C 
BRANCH  11  12
HETATM   12  C8  UNL     1      41.936   3.138  21.989  1.00  0.00     0.025 C 
BRANCH  12  13
HETATM   13  C9  UNL     1      43.425   3.067  22.172  1.00  0.00     0.040 C 
BRANCH  13  14
HETATM   14  C10 UNL     1      43.875   2.090  23.183  1.00  0.00    -0.058 A 
HETATM   15  C11 UNL     1      44.696   1.015  22.820  1.00  0.00     0.007 A 
HETATM   16  C12 UNL     1      45.123   0.072  23.728  1.00  0.00     0.001 A 
HETATM   17  C13 UNL     1      44.756   0.142  25.054  1.00  0.00     0.000 A 
HETATM   18  C14 UNL     1      43.948   1.197  25.426  1.00  0.00     0.001 A 
HETATM   19  C15 UNL     1      43.516   2.144  24.521  1.00  0.00     0.007 A 
ENDBRANCH  13  14
ENDBRANCH  12  13
ENDBRANCH  11  12
ENDBRANCH   9  11
ENDBRANCH   6   9
BRANCH   3  20
HETATM   20  N2  UNL     1      45.044  -0.048  17.656  1.00  0.00    -0.320 N 
ATOM     21  H2  UNL     1      45.964   0.367  17.798  1.00  0.00     0.169 HD
BRANCH  20  22
HETATM   22  C5  UNL     1      44.624  -0.418  16.365  1.00  0.00     0.354 C 
HETATM   23  O1  UNL     1      43.401  -0.456  16.109  1.00  0.00    -0.283 OA
ENDBRANCH  20  22
ENDBRANCH   3  20
BRANCH   1  24
HETATM   24  C1  UNL     1      43.622  -2.904  21.250  1.00  0.00     0.287 C 
BRANCH  24  25
HETATM   25  N1  UNL     1      42.389  -3.085  21.989  1.00  0.00    -0.074 N 
ATOM     26  H13 UNL     1      42.543  -3.561  22.879  1.00  0.00     0.274 HD
ATOM     27  H12 UNL     1      42.029  -2.203  22.353  1.00  0.00     0.274 HD
ATOM     28  H11 UNL     1      41.702  -3.569  21.411  1.00  0.00     0.274 HD
ENDBRANCH  24  25
ENDBRANCH   1  24
TORSDOF 9
ENDMDL
MODEL 2
REMARK VINA RESULT: -7.001070804      0.091      1.032
REMARK  9 active torsions:
REMARK  status: ('A' for Active; 'I' for Inactive)
REMARK    1  A    between atoms: N1_1  and  C1_5 
REMARK    2  A    between atoms: C1_5  and  C2_6 
REMARK    3  A    between atoms: C4_8  and  N2_9 
REMARK    4  A    between atoms: N2_9  and  C5_11 
REMARK    5  A    between atoms: C6_15  and  N4_16 
REMARK    6  A    between atoms: N4_16  and  C7_18 
REMARK    7  A    between atoms: C7_18  and  C8_19 
REMARK    8  A    between atoms: C8_19  and  C9_20 
REMARK    9  A    between atoms: C9_20  and  C10_21 
ROOT
HETATM    1  C2  UNL     1      43.581  -1.649  20.442  1.00  0.00     0.055 A 
HETATM    2  C3  UNL     1      44.408  -1.432  19.370  1.00  0.00     0.076 A 
HETATM    3  C4  UNL     1      44.353  -0.267  18.643  1.00  0.00     0.124 A 
HETATM    4  N3  UNL     1      43.469   0.673  19.000  1.00  0.00    -0.177 N 
ATOM      5  H3  UNL     1      43.420   1.542  18.469  1.00  0.00     0.186 HD
HETATM    6  C6  UNL     1      42.632   0.488  20.062  1.00  0.00     0.679 A 
HETATM    7  N5  UNL     1      42.702  -0.649  20.752  1.00  0.00    -0.194 N 
ATOM      8  H5  UNL     1      42.074  -0.779  21.544  1.00  0.00     0.184 HD
ENDROOT
BRANCH   6   9
HETATM    9  N4  UNL     1      41.828   1.437  20.322  1.00  0.00    -0.226 N 
ATOM     10  H4  UNL     1      41.422   1.968  19.550  1.00  0.00     0.177 HD
BRANCH   9  11
HETATM   11  C7  UNL     1      41.473   1.785  21.665  1.00  0.00     0.138 C 
BRANCH  11  12
HETATM   12  C8  UNL     1      41.970   3.174  22.001  1.00  0.00     0.025 C 
BRANCH  12  13
HETATM   13  C9  UNL     1      43.452   3.119  22.235  1.00  0.00     0.040 C 
BRANCH  13  14
HETATM   14  C10 UNL     1      43.884   2.093  23.205  1.00  0.00    -0.058 A 
HETATM   15  C11 UNL     1      43.503   2.178  24.550  1.00  0.00     0.007 A 
HETATM   16  C12 UNL     1      43.898   1.254  25.491  1.00  0.00     0.001 A 
HETATM   17  C13 UNL     1      44.700   0.186  25.147  1.00  0.00     0.000 A 
HETATM   18  C14 UNL     1      45.082   0.089  23.825  1.00  0.00     0.001 A 
HETATM   19  C15 UNL     1      44.690   1.013  22.879  1.00  0.00     0.007 A 
ENDBRANCH  13  14
ENDBRANCH  12  13
ENDBRANCH  11  12
ENDBRANCH   9  11
ENDBRANCH   6   9
BRANCH   3  20
HETATM   20  N2  UNL     1      45.150  -0.117  17.650  1.00  0.00    -0.320 N 
ATOM     21  H2  UNL     1      46.109   0.195  17.804  1.00  0.00     0.169 HD
BRANCH  20  22
HETATM   22  C5  UNL     1      44.693  -0.384  16.346  1.00  0.00     0.354 C 
HETATM   23  O1  UNL     1      43.463  -0.439  16.130  1.00  0.00    -0.283 OA
ENDBRANCH  20  22
ENDBRANCH   3  20
BRANCH   1  24
HETATM   24  C1  UNL     1      43.597  -2.884  21.259  1.00  0.00     0.287 C 
BRANCH  24  25
HETATM   25  N1  UNL     1      42.347  -3.019  21.979  1.00  0.00    -0.074 N 
ATOM     26  H13 UNL     1      42.355  -3.820  22.611  1.00  0.00     0.274 HD
ATOM     27  H12 UNL     1      42.226  -2.282  22.674  1.00  0.00     0.274 HD
ATOM     28  H11 UNL     1      41.567  -3.057  21.323  1.00  0.00     0.274 HD
ENDBRANCH  24  25
ENDBRANCH   1  24
TORSDOF 9
ENDMDL
MODEL 3
REMARK VINA RESULT: -6.780441540      1.581      3.076
REMARK  9 active torsions:
REMARK  status: ('A' for Active; 'I' for Inactive)
REMARK    1  A    between atoms: N1_1  and  C1_5 
REMARK    2  A    between atoms: C1_5  and  C2_6 
REMARK    3  A    between atoms: C4_8  and  N2_9 
REMARK    4  A    between atoms: N2_9  and  C5_11 
REMARK    5  A    between atoms: C6_15  and  N4_16 
REMARK    6  A    between atoms: N4_16  and  C7_18 
REMARK    7  A    between atoms: C7_18  and  C8_19 
REMARK    8  A    between atoms: C8_19  and  C9_20 
REMARK    9  A    between atoms: C9_20  and  C10_21 
ROOT
HETATM    1  C2  UNL     1      44.365  -0.560  18.499  1.00  0.00     0.055 A 
HETATM    2  C3  UNL     1      44.261  -1.641  19.335  1.00  0.00     0.076 A 
HETATM    3  C4  UNL     1      43.417  -1.633  20.420  1.00  0.00     0.124 A 
HETATM    4  N3  UNL     1      42.683  -0.538  20.656  1.00  0.00    -0.177 N 
ATOM      5  H3  UNL     1      42.052  -0.521  21.458  1.00  0.00     0.186 HD
HETATM    6  C6  UNL     1      42.764   0.555  19.843  1.00  0.00     0.679 A 
HETATM    7  N5  UNL     1      43.588   0.525  18.797  1.00  0.00    -0.194 N 
ATOM      8  H5  UNL     1      43.642   1.345  18.194  1.00  0.00     0.184 HD
ENDROOT
BRANCH   6   9
HETATM    9  N4  UNL     1      42.028   1.545  20.149  1.00  0.00    -0.226 N 
ATOM     10  H4  UNL     1      41.744   2.195  19.416  1.00  0.00     0.177 HD
BRANCH   9  11
HETATM   11  C7  UNL     1      41.585   1.775  21.491  1.00  0.00     0.138 C 
BRANCH  11  12
HETATM   12  C8  UNL     1      42.033   3.138  21.970  1.00  0.00     0.025 C 
BRANCH  12  13
HETATM   13  C9  UNL     1      43.510   3.099  22.240  1.00  0.00     0.040 C 
BRANCH  13  14
HETATM   14  C10 UNL     1      43.932   2.062  23.204  1.00  0.00    -0.058 A 
HETATM   15  C11 UNL     1      44.729   0.987  22.790  1.00  0.00     0.007 A 
HETATM   16  C12 UNL     1      45.129  -0.010  23.652  1.00  0.00     0.001 A 
HETATM   17  C13 UNL     1      44.759   0.004  24.979  1.00  0.00     0.000 A 
HETATM   18  C14 UNL     1      43.974   1.058  25.400  1.00  0.00     0.001 A 
HETATM   19  C15 UNL     1      43.569   2.059  24.542  1.00  0.00     0.007 A 
ENDBRANCH  13  14
ENDBRANCH  12  13
ENDBRANCH  11  12
ENDBRANCH   9  11
ENDBRANCH   6   9
BRANCH   3  20
HETATM   20  N2  UNL     1      43.359  -2.672  21.169  1.00  0.00    -0.320 N 
ATOM     21  H2  UNL     1      42.536  -2.842  21.748  1.00  0.00     0.169 HD
BRANCH  20  22
HETATM   22  C5  UNL     1      44.437  -3.576  21.189  1.00  0.00     0.354 C 
HETATM   23  O1  UNL     1      44.204  -4.803  21.229  1.00  0.00    -0.283 OA
ENDBRANCH  20  22
ENDBRANCH   3  20
BRANCH   1  24
HETATM   24  C1  UNL     1      45.257  -0.514  17.318  1.00  0.00     0.287 C 
BRANCH  24  25
HETATM   25  N1  UNL     1      45.440   0.857  16.887  1.00  0.00    -0.074 N 
ATOM     26  H13 UNL     1      45.221   1.524  17.628  1.00  0.00     0.274 HD
ATOM     27  H12 UNL     1      46.425   1.090  16.764  1.00  0.00     0.274 HD
ATOM     28  H11 UNL     1      44.897   1.034  16.041  1.00  0.00     0.274 HD
ENDBRANCH  24  25
ENDBRANCH   1  24
TORSDOF 9
ENDMDL
MODEL 4
REMARK VINA RESULT: -6.774595103      1.852      3.139
REMARK  9 active torsions:
REMARK  status: ('A' for Active; 'I' for Inactive)
REMARK    1  A    between atoms: N1_1  and  C1_5 
REMARK    2  A    between atoms: C1_5  and  C2_6 
REMARK    3  A    between atoms: C4_8  and  N2_9 
REMARK    4  A    between atoms: N2_9  and  C5_11 
REMARK    5  A    between atoms: C6_15  and  N4_16 
REMARK    6  A    between atoms: N4_16  and  C7_18 
REMARK    7  A    between atoms: C7_18  and  C8_19 
REMARK    8  A    between atoms: C8_19  and  C9_20 
REMARK    9  A    between atoms: C9_20  and  C10_21 
ROOT
HETATM    1  C2  UNL     1      44.984  -3.169  20.136  1.00  0.00     0.055 A 
HETATM    2  C3  UNL     1      44.698  -2.137  19.281  1.00  0.00     0.076 A 
HETATM    3  C4  UNL     1      43.688  -1.243  19.544  1.00  0.00     0.124 A 
HETATM    4  N3  UNL     1      42.973  -1.393  20.666  1.00  0.00    -0.177 N 
ATOM      5  H3  UNL     1      42.221  -0.735  20.873  1.00  0.00     0.186 HD
HETATM    6  C6  UNL     1      43.232  -2.411  21.537  1.00  0.00     0.679 A 
HETATM    7  N5  UNL     1      44.215  -3.265  21.262  1.00  0.00    -0.194 N 
ATOM      8  H5  UNL     1      44.403  -4.022  21.919  1.00  0.00     0.184 HD
ENDROOT
BRANCH   6   9
HETATM    9  N4  UNL     1      42.499  -2.470  22.574  1.00  0.00    -0.226 N 
ATOM     10  H4  UNL     1      41.651  -3.037  22.549  1.00  0.00     0.177 HD
BRANCH   9  11
HETATM   11  C7  UNL     1      42.827  -1.765  23.777  1.00  0.00     0.138 C 
BRANCH  11  12
HETATM   12  C8  UNL     1      41.710  -0.820  24.158  1.00  0.00     0.025 C 
BRANCH  12  13
HETATM   13  C9  UNL     1      42.304   0.422  24.759  1.00  0.00     0.040 C 
BRANCH  13  14
HETATM   14  C10 UNL     1      42.686   1.457  23.778  1.00  0.00    -0.058 A 
HETATM   15  C11 UNL     1      41.977   1.599  22.579  1.00  0.00     0.007 A 
HETATM   16  C12 UNL     1      42.311   2.540  21.630  1.00  0.00     0.001 A 
HETATM   17  C13 UNL     1      43.374   3.396  21.819  1.00  0.00     0.000 A 
HETATM   18  C14 UNL     1      44.081   3.268  22.997  1.00  0.00     0.001 A 
HETATM   19  C15 UNL     1      43.752   2.327  23.950  1.00  0.00     0.007 A 
ENDBRANCH  13  14
ENDBRANCH  12  13
ENDBRANCH  11  12
ENDBRANCH   9  11
ENDBRANCH   6   9
BRANCH   3  20
HETATM   20  N2  UNL     1      43.464  -0.295  18.710  1.00  0.00    -0.320 N 
ATOM     21  H2  UNL     1      43.234   0.640  19.046  1.00  0.00     0.169 HD
BRANCH  20  22
HETATM   22  C5  UNL     1      43.536  -0.554  17.329  1.00  0.00     0.354 C 
HETATM   23  O1  UNL     1      42.493  -0.854  16.709  1.00  0.00    -0.283 OA
ENDBRANCH  20  22
ENDBRANCH   3  20
BRANCH   1  24
HETATM   24  C1  UNL     1      46.059  -4.160  19.901  1.00  0.00     0.287 C 
BRANCH  24  25
HETATM   25  N1  UNL     1      46.473  -4.751  21.157  1.00  0.00    -0.074 N 
ATOM     26  H13 UNL     1      45.681  -4.918  21.780  1.00  0.00     0.274 HD
ATOM     27  H12 UNL     1      46.778  -5.718  21.042  1.00  0.00     0.274 HD
ATOM     28  H11 UNL     1      47.190  -4.174  21.597  1.00  0.00     0.274 HD
ENDBRANCH  24  25
ENDBRANCH   1  24
TORSDOF 9
ENDMDL
MODEL 5
REMARK VINA RESULT: -6.674116615      2.014      3.267
REMARK  9 active torsions:
REMARK  status: ('A' for Active; 'I' for Inactive)
REMARK    1  A    between atoms: N1_1  and  C1_5 
REMARK    2  A    between atoms: C1_5  and  C2_6 
REMARK    3  A    between atoms: C4_8  and  N2_9 
REMARK    4  A    between atoms: N2_9  and  C5_11 
REMARK    5  A    between atoms: C6_15  and  N4_16 
REMARK    6  A    between atoms: N4_16  and  C7_18 
REMARK    7  A    between atoms: C7_18  and  C8_19 
REMARK    8  A    between atoms: C8_19  and  C9_20 
REMARK    9  A    between atoms: C9_20  and  C10_21 
ROOT
HETATM    1  C2  UNL     1      45.585  -1.681  21.113  1.00  0.00     0.055 A 
HETATM    2  C3  UNL     1      45.158  -1.113  19.941  1.00  0.00     0.076 A 
HETATM    3  C4  UNL     1      43.824  -0.901  19.688  1.00  0.00     0.124 A 
HETATM    4  N3  UNL     1      42.928  -1.261  20.616  1.00  0.00    -0.177 N 
ATOM      5  H3  UNL     1      41.935  -1.108  20.439  1.00  0.00     0.186 HD
HETATM    6  C6  UNL     1      43.320  -1.830  21.792  1.00  0.00     0.679 A 
HETATM    7  N5  UNL     1      44.618  -2.026  22.016  1.00  0.00    -0.194 N 
ATOM      8  H5  UNL     1      44.903  -2.450  22.899  1.00  0.00     0.184 HD
ENDROOT
BRANCH   6   9
HETATM    9  N4  UNL     1      42.396  -2.137  22.609  1.00  0.00    -0.226 N 
ATOM     10  H4  UNL     1      41.586  -2.654  22.268  1.00  0.00     0.177 HD
BRANCH   9  11
HETATM   11  C7  UNL     1      42.459  -1.779  23.995  1.00  0.00     0.138 C 
BRANCH  11  12
HETATM   12  C8  UNL     1      41.550  -0.604  24.279  1.00  0.00     0.025 C 
BRANCH  12  13
HETATM   13  C9  UNL     1      42.376   0.540  24.793  1.00  0.00     0.040 C 
BRANCH  13  14
HETATM   14  C10 UNL     1      42.735   1.546  23.774  1.00  0.00    -0.058 A 
HETATM   15  C11 UNL     1      42.006   1.645  22.582  1.00  0.00     0.007 A 
HETATM   16  C12 UNL     1      42.317   2.557  21.599  1.00  0.00     0.001 A 
HETATM   17  C13 UNL     1      43.376   3.427  21.743  1.00  0.00     0.000 A 
HETATM   18  C14 UNL     1      44.102   3.342  22.914  1.00  0.00     0.001 A 
HETATM   19  C15 UNL     1      43.796   2.430  23.901  1.00  0.00     0.007 A 
ENDBRANCH  13  14
ENDBRANCH  12  13
ENDBRANCH  11  12
ENDBRANCH   9  11
ENDBRANCH   6   9
BRANCH   3  20
HETATM   20  N2  UNL     1      43.480  -0.365  18.574  1.00  0.00    -0.320 N 
ATOM     21  H2  UNL     1      43.334   0.642  18.514  1.00  0.00     0.169 HD
BRANCH  20  22
HETATM   22  C5  UNL     1      43.305  -1.176  17.438  1.00  0.00     0.354 C 
HETATM   23  O1  UNL     1      42.708  -2.268  17.554  1.00  0.00    -0.283 OA
ENDBRANCH  20  22
ENDBRANCH   3  20
BRANCH   1  24
HETATM   24  C1  UNL     1      47.007  -1.933  21.437  1.00  0.00     0.287 C 
BRANCH  24  25
HETATM   25  N1  UNL     1      47.842  -0.915  20.832  1.00  0.00    -0.074 N 
ATOM     26  H13 UNL     1      47.869  -0.998  19.815  1.00  0.00     0.274 HD
ATOM     27  H12 UNL     1      47.421   0.012  20.894  1.00  0.00     0.274 HD
ATOM     28  H11 UNL     1      48.776  -0.939  21.242  1.00  0.00     0.274 HD
ENDBRANCH  24  25
ENDBRANCH   1  24
TORSDOF 9
ENDMDL
