MODEL 1
REMARK VINA RESULT: -6.928614469      0.000      0.000
REMARK  7 active torsions:
REMARK  status: ('A' for Active; 'I' for Inactive)
REMARK    1  A    between atoms: N3_4  and  C2_6 
REMARK    2  A    between atoms: C2_6  and  C3_7 
REMARK    3  A    between atoms: C3_7  and  C4_8 
REMARK    4  A    between atoms: C4_8  and  N4_9 
REMARK    5  A    between atoms: C7_12  and  C8_13 
REMARK    6  A    between atoms: C8_13  and  N5_14 
REMARK    7  A    between atoms: N5_14  and  C9_16 
ROOT
HETATM    1  N4  UNL     1      45.396  -2.160  21.412  1.00  0.00    -0.370 N 
HETATM    2  C5  UNL     1      44.271  -2.975  21.219  1.00  0.00     0.090 C 
HETATM    3  C6  UNL     1      43.045  -2.462  21.942  1.00  0.00     0.021 C 
HETATM    4  C7  UNL     1      43.226  -1.997  23.166  1.00  0.00    -0.059 C 
HETATM    5  C14 UNL     1      44.612  -2.010  23.703  1.00  0.00     0.056 C 
HETATM    6  C15 UNL     1      45.487  -1.423  22.612  1.00  0.00     0.131 C 
ENDROOT
BRANCH   4   7
HETATM    7  C8  UNL     1      42.078  -1.467  23.964  1.00  0.00     0.155 C 
BRANCH   7   8
HETATM    8  N5  UNL     1      42.307  -0.103  24.307  1.00  0.00    -0.372 N 
ATOM      9  H5  UNL     1      42.367   0.108  25.303  1.00  0.00     0.161 HD
BRANCH   8  10
HETATM   10  C9  UNL     1      42.446   0.890  23.505  1.00  0.00     0.100 A 
HETATM   11  C10 UNL     1      43.580   1.691  23.643  1.00  0.00     0.048 A 
HETATM   12  C11 UNL     1      43.751   2.755  22.791  1.00  0.00     0.005 A 
HETATM   13  C12 UNL     1      42.781   2.979  21.830  1.00  0.00     0.017 A 
HETATM   14  C13 UNL     1      41.675   2.162  21.728  1.00  0.00     0.089 A 
HETATM   15  N6  UNL     1      41.523   1.122  22.573  1.00  0.00    -0.353 N 
ATOM     16  H6  UNL     1      40.705   0.516  22.499  1.00  0.00     0.166 HD
ENDBRANCH   8  10
ENDBRANCH   7   8
ENDBRANCH   4   7
BRANCH   1  17
HETATM   17  C4  UNL     1      46.169  -1.720  20.324  1.00  0.00     0.065 C 
BRANCH  17  18
HETATM   18  C3  UNL     1      45.859  -2.276  18.981  1.00  0.00     0.064 C 
BRANCH  18  19
HETATM   19  C2  UNL     1      45.625  -1.292  17.880  1.00  0.00     0.127 C 
BRANCH  19  20
HETATM   20  N3  UNL     1      44.715  -0.222  18.338  1.00  0.00    -0.367 N 
HETATM   21  C1  UNL     1      43.504  -0.163  17.967  1.00  0.00     0.196 C 
HETATM   22  N1  UNL     1      42.966  -1.135  17.088  1.00  0.00    -0.067 NA
HETATM   23  N2  UNL     1      42.657   0.877  18.426  1.00  0.00    -0.067 NA
ATOM     24  H3  UNL     1      45.072   0.492  18.972  1.00  0.00     0.161 HD
ENDBRANCH  19  20
ENDBRANCH  18  19
ENDBRANCH  17  18
ENDBRANCH   1  17
TORSDOF 7
ENDMDL
MODEL 2
REMARK VINA RESULT: -6.898270766      1.397      5.015
REMARK  7 active torsions:
REMARK  status: ('A' for Active; 'I' for Inactive)
REMARK    1  A    between atoms: N3_4  and  C2_6 
REMARK    2  A    between atoms: C2_6  and  C3_7 
REMARK    3  A    between atoms: C3_7  and  C4_8 
REMARK    4  A    between atoms: C4_8  and  N4_9 
REMARK    5  A    between atoms: C7_12  and  C8_13 
REMARK    6  A    between atoms: C8_13  and  N5_14 
REMARK    7  A    between atoms: N5_14  and  C9_16 
ROOT
HETATM    1  N4  UNL     1      43.571   0.506  24.557  1.00  0.00    -0.370 N 
HETATM    2  C5  UNL     1      44.669  -0.334  24.316  1.00  0.00     0.090 C 
HETATM    3  C6  UNL     1      44.463  -1.239  23.120  1.00  0.00     0.021 C 
HETATM    4  C7  UNL     1      43.268  -1.788  22.987  1.00  0.00    -0.059 C 
HETATM    5  C14 UNL     1      42.245  -1.452  24.012  1.00  0.00     0.056 C 
HETATM    6  C15 UNL     1      42.291   0.056  24.169  1.00  0.00     0.131 C 
ENDROOT
BRANCH   4   7
HETATM    7  C8  UNL     1      42.963  -2.696  21.840  1.00  0.00     0.155 C 
BRANCH   7   8
HETATM    8  N5  UNL     1      42.957  -1.961  20.620  1.00  0.00    -0.372 N 
ATOM      9  H5  UNL     1      42.271  -1.210  20.548  1.00  0.00     0.161 HD
BRANCH   8  10
HETATM   10  C9  UNL     1      43.717  -2.136  19.599  1.00  0.00     0.100 A 
HETATM   11  C10 UNL     1      44.953  -2.753  19.800  1.00  0.00     0.048 A 
HETATM   12  C11 UNL     1      45.779  -2.955  18.721  1.00  0.00     0.005 A 
HETATM   13  C12 UNL     1      45.338  -2.534  17.479  1.00  0.00     0.017 A 
HETATM   14  C13 UNL     1      44.108  -1.930  17.325  1.00  0.00     0.089 A 
HETATM   15  N6  UNL     1      43.310  -1.738  18.395  1.00  0.00    -0.353 N 
ATOM     16  H6  UNL     1      42.400  -1.291  18.283  1.00  0.00     0.166 HD
ENDBRANCH   8  10
ENDBRANCH   7   8
ENDBRANCH   4   7
BRANCH   1  17
HETATM   17  C4  UNL     1      43.742   1.887  24.743  1.00  0.00     0.065 C 
BRANCH  17  18
HETATM   18  C3  UNL     1      44.294   2.678  23.613  1.00  0.00     0.064 C 
BRANCH  18  19
HETATM   19  C2  UNL     1      43.320   3.163  22.588  1.00  0.00     0.127 C 
BRANCH  19  20
HETATM   20  N3  UNL     1      43.402   2.329  21.371  1.00  0.00    -0.367 N 
HETATM   21  C1  UNL     1      42.391   1.730  20.894  1.00  0.00     0.196 C 
HETATM   22  N1  UNL     1      41.123   1.839  21.516  1.00  0.00    -0.067 NA
HETATM   23  N2  UNL     1      42.505   0.938  19.723  1.00  0.00    -0.067 NA
ATOM     24  H3  UNL     1      44.301   2.231  20.900  1.00  0.00     0.161 HD
ENDBRANCH  19  20
ENDBRANCH  18  19
ENDBRANCH  17  18
ENDBRANCH   1  17
TORSDOF 7
ENDMDL
MODEL 3
REMARK VINA RESULT: -6.750141242      1.409      1.722
REMARK  7 active torsions:
REMARK  status: ('A' for Active; 'I' for Inactive)
REMARK    1  A    between atoms: N3_4  and  C2_6 
REMARK    2  A    between atoms: C2_6  and  C3_7 
REMARK    3  A    between atoms: C3_7  and  C4_8 
REMARK    4  A    between atoms: C4_8  and  N4_9 
REMARK    5  A    between atoms: C7_12  and  C8_13 
REMARK    6  A    between atoms: C8_13  and  N5_14 
REMARK    7  A    between atoms: N5_14  and  C9_16 
ROOT
HETATM    1  N4  UNL     1      46.273  -3.593  21.723  1.00  0.00    -0.370 N 
HETATM    2  C5  UNL     1      45.104  -4.346  21.542  1.00  0.00     0.090 C 
HETATM    3  C6  UNL     1      43.849  -3.575  21.891  1.00  0.00     0.021 C 
HETATM    4  C7  UNL     1      43.896  -2.821  22.976  1.00  0.00    -0.059 C 
HETATM    5  C14 UNL     1      45.174  -2.794  23.734  1.00  0.00     0.056 C 
HETATM    6  C15 UNL     1      46.266  -2.577  22.703  1.00  0.00     0.131 C 
ENDROOT
BRANCH   4   7
HETATM    7  C8  UNL     1      42.709  -2.019  23.406  1.00  0.00     0.155 C 
BRANCH   7   8
HETATM    8  N5  UNL     1      42.707  -0.755  22.750  1.00  0.00    -0.372 N 
ATOM      9  H5  UNL     1      42.308  -0.732  21.812  1.00  0.00     0.161 HD
BRANCH   8  10
HETATM   10  C9  UNL     1      43.151   0.361  23.206  1.00  0.00     0.100 A 
HETATM   11  C10 UNL     1      43.404   0.455  24.576  1.00  0.00     0.048 A 
HETATM   12  C11 UNL     1      43.886   1.638  25.083  1.00  0.00     0.005 A 
HETATM   13  C12 UNL     1      44.098   2.684  24.202  1.00  0.00     0.017 A 
HETATM   14  C13 UNL     1      43.835   2.547  22.855  1.00  0.00     0.089 A 
HETATM   15  N6  UNL     1      43.362   1.379  22.374  1.00  0.00    -0.353 N 
ATOM     16  H6  UNL     1      43.167   1.276  21.377  1.00  0.00     0.166 HD
ENDBRANCH   8  10
ENDBRANCH   7   8
ENDBRANCH   4   7
BRANCH   1  17
HETATM   17  C4  UNL     1      47.245  -3.509  20.713  1.00  0.00     0.065 C 
BRANCH  17  18
HETATM   18  C3  UNL     1      47.281  -2.277  19.883  1.00  0.00     0.064 C 
BRANCH  18  19
HETATM   19  C2  UNL     1      46.156  -2.080  18.918  1.00  0.00     0.127 C 
BRANCH  19  20
HETATM   20  N3  UNL     1      45.278  -0.984  19.375  1.00  0.00    -0.367 N 
HETATM   21  C1  UNL     1      44.019  -1.021  19.224  1.00  0.00     0.196 C 
HETATM   22  N1  UNL     1      43.395  -2.131  18.603  1.00  0.00    -0.067 NA
HETATM   23  N2  UNL     1      43.205   0.048  19.676  1.00  0.00    -0.067 NA
ATOM     24  H3  UNL     1      45.697  -0.171  19.827  1.00  0.00     0.161 HD
ENDBRANCH  19  20
ENDBRANCH  18  19
ENDBRANCH  17  18
ENDBRANCH   1  17
TORSDOF 7
ENDMDL
MODEL 4
REMARK VINA RESULT: -6.690811578      1.585      5.261
REMARK  7 active torsions:
REMARK  status: ('A' for Active; 'I' for Inactive)
REMARK    1  A    between atoms: N3_4  and  C2_6 
REMARK    2  A    between atoms: C2_6  and  C3_7 
REMARK    3  A    between atoms: C3_7  and  C4_8 
REMARK    4  A    between atoms: C4_8  and  N4_9 
REMARK    5  A    between atoms: C7_12  and  C8_13 
REMARK    6  A    between atoms: C8_13  and  N5_14 
REMARK    7  A    between atoms: N5_14  and  C9_16 
ROOT
HETATM    1  N4  UNL     1      43.132   0.697  24.504  1.00  0.00    -0.370 N 
HETATM    2  C5  UNL     1      44.288  -0.091  24.416  1.00  0.00     0.090 C 
HETATM    3  C6  UNL     1      44.210  -1.126  23.315  1.00  0.00     0.021 C 
HETATM    4  C7  UNL     1      43.059  -1.760  23.173  1.00  0.00    -0.059 C 
HETATM    5  C14 UNL     1      41.955  -1.386  24.097  1.00  0.00     0.056 C 
HETATM    6  C15 UNL     1      41.906   0.130  24.094  1.00  0.00     0.131 C 
ENDROOT
BRANCH   4   7
HETATM    7  C8  UNL     1      42.879  -2.799  22.114  1.00  0.00     0.155 C 
BRANCH   7   8
HETATM    8  N5  UNL     1      43.555  -2.408  20.922  1.00  0.00    -0.372 N 
ATOM      9  H5  UNL     1      43.172  -1.601  20.429  1.00  0.00     0.161 HD
BRANCH   8  10
HETATM   10  C9  UNL     1      44.592  -2.955  20.399  1.00  0.00     0.100 A 
HETATM   11  C10 UNL     1      45.162  -4.045  21.057  1.00  0.00     0.048 A 
HETATM   12  C11 UNL     1      46.268  -4.649  20.510  1.00  0.00     0.005 A 
HETATM   13  C12 UNL     1      46.764  -4.141  19.322  1.00  0.00     0.017 A 
HETATM   14  C13 UNL     1      46.169  -3.062  18.704  1.00  0.00     0.089 A 
HETATM   15  N6  UNL     1      45.084  -2.480  19.255  1.00  0.00    -0.353 N 
ATOM     16  H6  UNL     1      44.643  -1.682  18.799  1.00  0.00     0.166 HD
ENDBRANCH   8  10
ENDBRANCH   7   8
ENDBRANCH   4   7
BRANCH   1  17
HETATM   17  C4  UNL     1      43.212   2.099  24.551  1.00  0.00     0.065 C 
BRANCH  17  18
HETATM   18  C3  UNL     1      43.933   2.791  23.452  1.00  0.00     0.064 C 
BRANCH  18  19
HETATM   19  C2  UNL     1      43.194   2.965  22.164  1.00  0.00     0.127 C 
BRANCH  19  20
HETATM   20  N3  UNL     1      43.568   1.899  21.213  1.00  0.00    -0.367 N 
HETATM   21  C1  UNL     1      42.700   1.204  20.603  1.00  0.00     0.196 C 
HETATM   22  N1  UNL     1      41.317   1.426  20.809  1.00  0.00    -0.067 NA
HETATM   23  N2  UNL     1      43.095   0.189  19.695  1.00  0.00    -0.067 NA
ATOM     24  H3  UNL     1      44.557   1.715  21.042  1.00  0.00     0.161 HD
ENDBRANCH  19  20
ENDBRANCH  18  19
ENDBRANCH  17  18
ENDBRANCH   1  17
TORSDOF 7
ENDMDL
MODEL 5
REMARK VINA RESULT: -6.690578442      1.171      1.266
REMARK  7 active torsions:
REMARK  status: ('A' for Active; 'I' for Inactive)
REMARK    1  A    between atoms: N3_4  and  C2_6 
REMARK    2  A    between atoms: C2_6  and  C3_7 
REMARK    3  A    between atoms: C3_7  and  C4_8 
REMARK    4  A    between atoms: C4_8  and  N4_9 
REMARK    5  A    between atoms: C7_12  and  C8_13 
REMARK    6  A    between atoms: C8_13  and  N5_14 
REMARK    7  A    between atoms: N5_14  and  C9_16 
ROOT
HETATM    1  N4  UNL     1      46.338  -3.047  22.262  1.00  0.00    -0.370 N 
HETATM    2  C5  UNL     1      45.261  -3.945  22.236  1.00  0.00     0.090 C 
HETATM    3  C6  UNL     1      43.922  -3.262  22.411  1.00  0.00     0.021 C 
HETATM    4  C7  UNL     1      43.858  -2.301  23.316  1.00  0.00    -0.059 C 
HETATM    5  C14 UNL     1      45.105  -1.978  24.058  1.00  0.00     0.056 C 
HETATM    6  C15 UNL     1      46.195  -1.859  23.010  1.00  0.00     0.131 C 
ENDROOT
BRANCH   4   7
HETATM    7  C8  UNL     1      42.581  -1.563  23.564  1.00  0.00     0.155 C 
BRANCH   7   8
HETATM    8  N5  UNL     1      42.858  -0.246  24.030  1.00  0.00    -0.372 N 
ATOM      9  H5  UNL     1      43.137  -0.161  25.007  1.00  0.00     0.161 HD
BRANCH   8  10
HETATM   10  C9  UNL     1      42.796   0.848  23.359  1.00  0.00     0.100 A 
HETATM   11  C10 UNL     1      43.900   1.701  23.391  1.00  0.00     0.048 A 
HETATM   12  C11 UNL     1      43.856   2.872  22.675  1.00  0.00     0.005 A 
HETATM   13  C12 UNL     1      42.710   3.148  21.950  1.00  0.00     0.017 A 
HETATM   14  C13 UNL     1      41.642   2.276  21.945  1.00  0.00     0.089 A 
HETATM   15  N6  UNL     1      41.701   1.130  22.655  1.00  0.00    -0.353 N 
ATOM     16  H6  UNL     1      40.911   0.484  22.652  1.00  0.00     0.166 HD
ENDBRANCH   8  10
ENDBRANCH   7   8
ENDBRANCH   4   7
BRANCH   1  17
HETATM   17  C4  UNL     1      47.323  -3.066  21.262  1.00  0.00     0.065 C 
BRANCH  17  18
HETATM   18  C3  UNL     1      47.311  -1.974  20.254  1.00  0.00     0.064 C 
BRANCH  18  19
HETATM   19  C2  UNL     1      46.163  -1.952  19.296  1.00  0.00     0.127 C 
BRANCH  19  20
HETATM   20  N3  UNL     1      45.223  -0.870  19.652  1.00  0.00    -0.367 N 
HETATM   21  C1  UNL     1      43.972  -0.981  19.480  1.00  0.00     0.196 C 
HETATM   22  N1  UNL     1      43.415  -2.164  18.935  1.00  0.00    -0.067 NA
HETATM   23  N2  UNL     1      43.097   0.078  19.834  1.00  0.00    -0.067 NA
ATOM     24  H3  UNL     1      45.592  -0.006  20.048  1.00  0.00     0.161 HD
ENDBRANCH  19  20
ENDBRANCH  18  19
ENDBRANCH  17  18
ENDBRANCH   1  17
TORSDOF 7
ENDMDL
