MODEL 1
REMARK VINA RESULT: -6.373714928      0.000      0.000
REMARK  7 active torsions:
REMARK  status: ('A' for Active; 'I' for Inactive)
REMARK    1  A    between atoms: O1_2  and  C2_3 
REMARK    2  A    between atoms: C2_3  and  C3_4 
REMARK    3  A    between atoms: C3_4  and  O2_5 
REMARK    4  A    between atoms: O2_5  and  C4_6 
REMARK    5  A    between atoms: C4_6  and  C5_8 
REMARK    6  A    between atoms: C6_10  and  O5_11 
REMARK    7  A    between atoms: C8_13  and  O6_14 
ROOT
HETATM    1  C5  UNL     1      -3.910   0.828  12.407  1.00  0.00     0.256 C 
HETATM    2  O4  UNL     1      -2.645   1.282  12.205  1.00  0.00    -0.340 OA
HETATM    3  C6  UNL     1      -2.111   0.721  11.079  1.00  0.00     0.299 C 
HETATM    4  C8  UNL     1      -3.024  -0.321  10.556  1.00  0.00     0.157 C 
HETATM    5  C9  UNL     1      -2.961  -1.592  11.363  1.00  0.00     0.214 C 
HETATM    6  O7  UNL     1      -4.333  -1.452  11.633  1.00  0.00    -0.376 OA
HETATM    7  C10 UNL     1      -4.304  -0.097  11.318  1.00  0.00     0.201 C 
ENDROOT
BRANCH   1   8
HETATM    8  C4  UNL     1      -4.841   2.011  12.364  1.00  0.00     0.290 C 
HETATM    9  O3  UNL     1      -5.649   2.040  11.413  1.00  0.00    -0.262 OA
BRANCH   8  10
HETATM   10  O2  UNL     1      -4.824   3.004  13.295  1.00  0.00    -0.317 OA
BRANCH  10  11
HETATM   11  C3  UNL     1      -4.861   2.788  14.672  1.00  0.00     0.205 C 
BRANCH  11  12
HETATM   12  C2  UNL     1      -3.498   2.880  15.298  1.00  0.00     0.193 C 
BRANCH  12  13
HETATM   13  O1  UNL     1      -3.212   1.710  15.976  1.00  0.00    -0.394 OA
HETATM   14  C1  UNL     1      -4.247   0.809  15.975  1.00  0.00     0.201 C 
ENDBRANCH  12  13
ENDBRANCH  11  12
ENDBRANCH  10  11
ENDBRANCH   8  10
ENDBRANCH   1   8
BRANCH   3  15
HETATM   15  O5  UNL     1      -1.907   1.705  10.118  1.00  0.00    -0.363 OA
HETATM   16  C7  UNL     1      -0.864   2.557  10.439  1.00  0.00     0.204 C 
ENDBRANCH   3  15
BRANCH   4  17
HETATM   17  O6  UNL     1      -3.169  -0.453   9.204  1.00  0.00    -0.380 OA
ATOM     18  H6  UNL     1      -4.020  -0.688   8.855  1.00  0.00     0.211 HD
ENDBRANCH   4  17
TORSDOF 7
ENDMDL
MODEL 2
REMARK VINA RESULT: -6.322709445      1.949      3.747
REMARK  7 active torsions:
REMARK  status: ('A' for Active; 'I' for Inactive)
REMARK    1  A    between atoms: O1_2  and  C2_3 
REMARK    2  A    between atoms: C2_3  and  C3_4 
REMARK    3  A    between atoms: C3_4  and  O2_5 
REMARK    4  A    between atoms: O2_5  and  C4_6 
REMARK    5  A    between atoms: C4_6  and  C5_8 
REMARK    6  A    between atoms: C6_10  and  O5_11 
REMARK    7  A    between atoms: C8_13  and  O6_14 
ROOT
HETATM    1  C5  UNL     1      -3.659   1.620  13.517  1.00  0.00     0.256 C 
HETATM    2  O4  UNL     1      -4.170   2.870  13.672  1.00  0.00    -0.340 OA
HETATM    3  C6  UNL     1      -4.962   3.196  12.607  1.00  0.00     0.299 C 
HETATM    4  C8  UNL     1      -4.860   2.150  11.565  1.00  0.00     0.157 C 
HETATM    5  C9  UNL     1      -3.572   2.244  10.787  1.00  0.00     0.214 C 
HETATM    6  O7  UNL     1      -3.261   0.938  11.203  1.00  0.00    -0.376 OA
HETATM    7  C10 UNL     1      -4.160   1.012  12.261  1.00  0.00     0.201 C 
ENDROOT
BRANCH   1   8
HETATM    8  C4  UNL     1      -4.145   0.773  14.663  1.00  0.00     0.290 C 
HETATM    9  O3  UNL     1      -4.726  -0.288  14.355  1.00  0.00    -0.262 OA
BRANCH   8  10
HETATM   10  O2  UNL     1      -3.973   1.121  15.968  1.00  0.00    -0.317 OA
BRANCH  10  11
HETATM   11  C3  UNL     1      -5.002   1.547  16.808  1.00  0.00     0.205 C 
BRANCH  11  12
HETATM   12  C2  UNL     1      -5.728   0.395  17.445  1.00  0.00     0.193 C 
BRANCH  12  13
HETATM   13  O1  UNL     1      -6.944   0.201  16.816  1.00  0.00    -0.394 OA
HETATM   14  C1  UNL     1      -7.678   1.352  16.674  1.00  0.00     0.201 C 
ENDBRANCH  12  13
ENDBRANCH  11  12
ENDBRANCH  10  11
ENDBRANCH   8  10
ENDBRANCH   1   8
BRANCH   3  15
HETATM   15  O5  UNL     1      -6.281   3.325  13.029  1.00  0.00    -0.363 OA
HETATM   16  C7  UNL     1      -6.395   4.001  14.231  1.00  0.00     0.204 C 
ENDBRANCH   3  15
BRANCH   4  17
HETATM   17  O6  UNL     1      -5.981   1.802  10.866  1.00  0.00    -0.380 OA
ATOM     18  H6  UNL     1      -6.385   0.960  11.037  1.00  0.00     0.211 HD
ENDBRANCH   4  17
TORSDOF 7
ENDMDL
MODEL 3
REMARK VINA RESULT: -6.184152259      1.542      4.817
REMARK  7 active torsions:
REMARK  status: ('A' for Active; 'I' for Inactive)
REMARK    1  A    between atoms: O1_2  and  C2_3 
REMARK    2  A    between atoms: C2_3  and  C3_4 
REMARK    3  A    between atoms: C3_4  and  O2_5 
REMARK    4  A    between atoms: O2_5  and  C4_6 
REMARK    5  A    between atoms: C4_6  and  C5_8 
REMARK    6  A    between atoms: C6_10  and  O5_11 
REMARK    7  A    between atoms: C8_13  and  O6_14 
ROOT
HETATM    1  C5  UNL     1      -4.439   1.892  13.168  1.00  0.00     0.256 C 
HETATM    2  O4  UNL     1      -4.224   3.187  13.523  1.00  0.00    -0.340 OA
HETATM    3  C6  UNL     1      -3.805   3.262  14.821  1.00  0.00     0.299 C 
HETATM    4  C8  UNL     1      -3.891   1.928  15.456  1.00  0.00     0.157 C 
HETATM    5  C9  UNL     1      -5.308   1.556  15.810  1.00  0.00     0.214 C 
HETATM    6  O7  UNL     1      -5.188   0.429  14.978  1.00  0.00    -0.376 OA
HETATM    7  C10 UNL     1      -4.112   0.990  14.298  1.00  0.00     0.201 C 
ENDROOT
BRANCH   1   8
HETATM    8  C4  UNL     1      -3.510   1.561  12.031  1.00  0.00     0.290 C 
HETATM    9  O3  UNL     1      -2.334   1.959  12.149  1.00  0.00    -0.262 OA
BRANCH   8  10
HETATM   10  O2  UNL     1      -3.905   0.867  10.928  1.00  0.00    -0.317 OA
BRANCH  10  11
HETATM   11  C3  UNL     1      -3.358  -0.352  10.530  1.00  0.00     0.205 C 
BRANCH  11  12
HETATM   12  C2  UNL     1      -3.548  -1.424  11.568  1.00  0.00     0.193 C 
BRANCH  12  13
HETATM   13  O1  UNL     1      -2.519  -2.344  11.487  1.00  0.00    -0.394 OA
HETATM   14  C1  UNL     1      -2.941  -3.611  11.176  1.00  0.00     0.201 C 
ENDBRANCH  12  13
ENDBRANCH  11  12
ENDBRANCH  10  11
ENDBRANCH   8  10
ENDBRANCH   1   8
BRANCH   3  15
HETATM   15  O5  UNL     1      -2.495   3.729  14.863  1.00  0.00    -0.363 OA
HETATM   16  C7  UNL     1      -2.316   4.886  14.125  1.00  0.00     0.204 C 
ENDBRANCH   3  15
BRANCH   4  17
HETATM   17  O6  UNL     1      -2.914   1.549  16.332  1.00  0.00    -0.380 OA
ATOM     18  H6  UNL     1      -2.076   1.995  16.305  1.00  0.00     0.211 HD
ENDBRANCH   4  17
TORSDOF 7
ENDMDL
MODEL 4
REMARK VINA RESULT: -6.181692310      1.656      1.834
REMARK  7 active torsions:
REMARK  status: ('A' for Active; 'I' for Inactive)
REMARK    1  A    between atoms: O1_2  and  C2_3 
REMARK    2  A    between atoms: C2_3  and  C3_4 
REMARK    3  A    between atoms: C3_4  and  O2_5 
REMARK    4  A    between atoms: O2_5  and  C4_6 
REMARK    5  A    between atoms: C4_6  and  C5_8 
REMARK    6  A    between atoms: C6_10  and  O5_11 
REMARK    7  A    between atoms: C8_13  and  O6_14 
ROOT
HETATM    1  C5  UNL     1      -3.699   1.300  13.012  1.00  0.00     0.256 C 
HETATM    2  O4  UNL     1      -2.701   1.934  12.341  1.00  0.00    -0.340 OA
HETATM    3  C6  UNL     1      -2.739   1.610  11.014  1.00  0.00     0.299 C 
HETATM    4  C8  UNL     1      -3.742   0.546  10.784  1.00  0.00     0.157 C 
HETATM    5  C9  UNL     1      -3.247  -0.808  11.223  1.00  0.00     0.214 C 
HETATM    6  O7  UNL     1      -4.334  -0.883  12.112  1.00  0.00    -0.376 OA
HETATM    7  C10 UNL     1      -4.518   0.495  12.074  1.00  0.00     0.201 C 
ENDROOT
BRANCH   1   8
HETATM    8  C4  UNL     1      -4.592   2.349  13.618  1.00  0.00     0.290 C 
HETATM    9  O3  UNL     1      -5.385   2.913  12.838  1.00  0.00    -0.262 OA
BRANCH   8  10
HETATM   10  O2  UNL     1      -4.557   2.680  14.939  1.00  0.00    -0.317 OA
BRANCH  10  11
HETATM   11  C3  UNL     1      -5.482   2.236  15.884  1.00  0.00     0.205 C 
BRANCH  11  12
HETATM   12  C2  UNL     1      -5.221   0.817  16.308  1.00  0.00     0.193 C 
BRANCH  12  13
HETATM   13  O1  UNL     1      -6.416   0.188  16.602  1.00  0.00    -0.394 OA
HETATM   14  C1  UNL     1      -7.426   1.055  16.932  1.00  0.00     0.201 C 
ENDBRANCH  12  13
ENDBRANCH  11  12
ENDBRANCH  10  11
ENDBRANCH   8  10
ENDBRANCH   1   8
BRANCH   3  15
HETATM   15  O5  UNL     1      -3.058   2.739  10.266  1.00  0.00    -0.363 OA
HETATM   16  C7  UNL     1      -2.338   3.856  10.651  1.00  0.00     0.204 C 
ENDBRANCH   3  15
BRANCH   4  17
HETATM   17  O6  UNL     1      -4.503   0.589   9.651  1.00  0.00    -0.380 OA
ATOM     18  H6  UNL     1      -5.351   0.161   9.650  1.00  0.00     0.211 HD
ENDBRANCH   4  17
TORSDOF 7
ENDMDL
MODEL 5
REMARK VINA RESULT: -6.172458020      1.866      3.582
REMARK  7 active torsions:
REMARK  status: ('A' for Active; 'I' for Inactive)
REMARK    1  A    between atoms: O1_2  and  C2_3 
REMARK    2  A    between atoms: C2_3  and  C3_4 
REMARK    3  A    between atoms: C3_4  and  O2_5 
REMARK    4  A    between atoms: O2_5  and  C4_6 
REMARK    5  A    between atoms: C4_6  and  C5_8 
REMARK    6  A    between atoms: C6_10  and  O5_11 
REMARK    7  A    between atoms: C8_13  and  O6_14 
ROOT
HETATM    1  C5  UNL     1      -3.450   1.475  12.764  1.00  0.00     0.256 C 
HETATM    2  O4  UNL     1      -4.033   2.572  13.316  1.00  0.00    -0.340 OA
HETATM    3  C6  UNL     1      -4.484   3.414  12.339  1.00  0.00     0.299 C 
HETATM    4  C8  UNL     1      -4.034   2.933  11.013  1.00  0.00     0.157 C 
HETATM    5  C9  UNL     1      -2.578   3.231  10.762  1.00  0.00     0.214 C 
HETATM    6  O7  UNL     1      -2.354   1.851  10.611  1.00  0.00    -0.376 OA
HETATM    7  C10 UNL     1      -3.530   1.540  11.285  1.00  0.00     0.201 C 
ENDROOT
BRANCH   1   8
HETATM    8  C4  UNL     1      -4.221   0.263  13.213  1.00  0.00     0.290 C 
HETATM    9  O3  UNL     1      -4.308  -0.670  12.389  1.00  0.00    -0.262 OA
BRANCH   8  10
HETATM   10  O2  UNL     1      -4.801   0.165  14.442  1.00  0.00    -0.317 OA
BRANCH  10  11
HETATM   11  C3  UNL     1      -4.172   0.517  15.636  1.00  0.00     0.205 C 
BRANCH  11  12
HETATM   12  C2  UNL     1      -5.154   0.960  16.684  1.00  0.00     0.193 C 
BRANCH  12  13
HETATM   13  O1  UNL     1      -6.385   0.376  16.452  1.00  0.00    -0.394 OA
HETATM   14  C1  UNL     1      -7.440   1.116  16.921  1.00  0.00     0.201 C 
ENDBRANCH  12  13
ENDBRANCH  11  12
ENDBRANCH  10  11
ENDBRANCH   8  10
ENDBRANCH   1   8
BRANCH   3  15
HETATM   15  O5  UNL     1      -5.873   3.476  12.380  1.00  0.00    -0.363 OA
HETATM   16  C7  UNL     1      -6.361   3.680  13.659  1.00  0.00     0.204 C 
ENDBRANCH   3  15
BRANCH   4  17
HETATM   17  O6  UNL     1      -4.881   3.046   9.947  1.00  0.00    -0.380 OA
ATOM     18  H6  UNL     1      -4.892   2.356   9.295  1.00  0.00     0.211 HD
ENDBRANCH   4  17
TORSDOF 7
ENDMDL
