MODEL 1
REMARK VINA RESULT: -6.349459885      0.000      0.000
REMARK  6 active torsions:
REMARK  status: ('A' for Active; 'I' for Inactive)
REMARK    1  A    between atoms: C2_2  and  C3_3 
REMARK    2  A    between atoms: C3_3  and  O1_4 
REMARK    3  A    between atoms: O1_4  and  C4_5 
REMARK    4  A    between atoms: C4_5  and  C5_6 
REMARK    5  A    between atoms: C7_9  and  O3_10 
REMARK    6  A    between atoms: C8_12  and  N1_13 
ROOT
HETATM    1  C5  UNL     1      -4.315   1.084  13.829  1.00  0.00     0.172 C 
HETATM    2  C6  UNL     1      -4.201  -0.029  12.814  1.00  0.00     0.205 C 
HETATM    3  O2  UNL     1      -4.564   0.430  11.585  1.00  0.00    -0.354 OA
HETATM    4  C7  UNL     1      -4.090   1.639  11.203  1.00  0.00     0.307 C 
HETATM    5  C8  UNL     1      -3.866   2.630  12.301  1.00  0.00     0.300 C 
HETATM    6  O4  UNL     1      -3.348   2.030  13.465  1.00  0.00    -0.350 OA
ENDROOT
BRANCH   5   7
HETATM    7  N1  UNL     1      -3.022   3.710  11.916  1.00  0.00    -0.253 N 
HETATM    8  C9  UNL     1      -2.211   4.398  12.734  1.00  0.00     0.133 A 
HETATM    9  C10 UNL     1      -1.544   5.375  12.004  1.00  0.00     0.127 A 
HETATM   10  N2  UNL     1      -1.999   5.226  10.739  1.00  0.00    -0.296 N 
HETATM   11  N3  UNL     1      -2.882   4.224  10.710  1.00  0.00    -0.239 N 
ATOM     12  H2  UNL     1      -1.714   5.788   9.936  1.00  0.00     0.187 HD
ATOM     13  H3  UNL     1      -3.375   3.903   9.877  1.00  0.00     0.208 HD
ENDBRANCH   5   7
BRANCH   4  14
HETATM   14  O3  UNL     1      -5.059   2.204  10.339  1.00  0.00    -0.367 OA
ATOM     15  H3  UNL     1      -4.845   3.125  10.250  1.00  0.00     0.212 HD
ENDBRANCH   4  14
BRANCH   1  16
HETATM   16  C4  UNL     1      -4.106   0.594  15.240  1.00  0.00     0.202 C 
BRANCH  16  17
HETATM   17  O1  UNL     1      -5.252   0.010  15.722  1.00  0.00    -0.385 OA
BRANCH  17  18
HETATM   18  C3  UNL     1      -5.650   0.471  16.951  1.00  0.00     0.194 C 
BRANCH  18  19
HETATM   19  C2  UNL     1      -6.883   1.295  16.914  1.00  0.00    -0.011 C 
HETATM   20  C1  UNL     1      -6.882   2.589  16.707  1.00  0.00     0.009 C 
ENDBRANCH  18  19
ENDBRANCH  17  18
ENDBRANCH  16  17
ENDBRANCH   1  16
TORSDOF 6
ENDMDL
MODEL 2
REMARK VINA RESULT: -6.218132560      1.334      1.359
REMARK  6 active torsions:
REMARK  status: ('A' for Active; 'I' for Inactive)
REMARK    1  A    between atoms: C2_2  and  C3_3 
REMARK    2  A    between atoms: C3_3  and  O1_4 
REMARK    3  A    between atoms: O1_4  and  C4_5 
REMARK    4  A    between atoms: C4_5  and  C5_6 
REMARK    5  A    between atoms: C7_9  and  O3_10 
REMARK    6  A    between atoms: C8_12  and  N1_13 
ROOT
HETATM    1  C5  UNL     1      -4.611   1.019  14.262  1.00  0.00     0.172 C 
HETATM    2  C6  UNL     1      -4.104   0.098  13.179  1.00  0.00     0.205 C 
HETATM    3  O2  UNL     1      -4.681   0.424  11.990  1.00  0.00    -0.354 OA
HETATM    4  C7  UNL     1      -4.759   1.737  11.671  1.00  0.00     0.307 C 
HETATM    5  C8  UNL     1      -4.905   2.682  12.822  1.00  0.00     0.300 C 
HETATM    6  O4  UNL     1      -4.132   2.293  13.934  1.00  0.00    -0.350 OA
ENDROOT
BRANCH   5   7
HETATM    7  N1  UNL     1      -4.592   4.029  12.484  1.00  0.00    -0.253 N 
HETATM    8  C9  UNL     1      -4.867   5.107  13.234  1.00  0.00     0.133 A 
HETATM    9  C10 UNL     1      -4.413   6.248  12.581  1.00  0.00     0.127 A 
HETATM   10  N2  UNL     1      -3.869   5.789  11.430  1.00  0.00    -0.296 N 
HETATM   11  N3  UNL     1      -3.987   4.459  11.394  1.00  0.00    -0.239 N 
ATOM     12  H2  UNL     1      -3.437   6.366  10.708  1.00  0.00     0.187 HD
ATOM     13  H3  UNL     1      -3.658   3.864  10.634  1.00  0.00     0.208 HD
ENDBRANCH   5   7
BRANCH   4  14
HETATM   14  O3  UNL     1      -5.914   1.896  10.868  1.00  0.00    -0.367 OA
ATOM     15  H3  UNL     1      -5.671   2.464  10.147  1.00  0.00     0.212 HD
ENDBRANCH   4  14
BRANCH   1  16
HETATM   16  C4  UNL     1      -4.154   0.592  15.636  1.00  0.00     0.202 C 
BRANCH  16  17
HETATM   17  O1  UNL     1      -5.144  -0.112  16.276  1.00  0.00    -0.385 OA
BRANCH  17  18
HETATM   18  C3  UNL     1      -5.697   0.537  17.350  1.00  0.00     0.194 C 
BRANCH  18  19
HETATM   19  C2  UNL     1      -6.934   1.289  17.027  1.00  0.00    -0.011 C 
HETATM   20  C1  UNL     1      -6.953   2.575  16.775  1.00  0.00     0.009 C 
ENDBRANCH  18  19
ENDBRANCH  17  18
ENDBRANCH  16  17
ENDBRANCH   1  16
TORSDOF 6
ENDMDL
MODEL 3
REMARK VINA RESULT: -6.215056632      3.039      4.840
REMARK  6 active torsions:
REMARK  status: ('A' for Active; 'I' for Inactive)
REMARK    1  A    between atoms: C2_2  and  C3_3 
REMARK    2  A    between atoms: C3_3  and  O1_4 
REMARK    3  A    between atoms: O1_4  and  C4_5 
REMARK    4  A    between atoms: C4_5  and  C5_6 
REMARK    5  A    between atoms: C7_9  and  O3_10 
REMARK    6  A    between atoms: C8_12  and  N1_13 
ROOT
HETATM    1  C5  UNL     1      -5.995   3.187  13.693  1.00  0.00     0.172 C 
HETATM    2  C6  UNL     1      -5.655   2.960  15.147  1.00  0.00     0.205 C 
HETATM    3  O2  UNL     1      -5.251   1.674  15.331  1.00  0.00    -0.354 OA
HETATM    4  C7  UNL     1      -4.389   1.153  14.426  1.00  0.00     0.307 C 
HETATM    5  C8  UNL     1      -4.513   1.672  13.029  1.00  0.00     0.300 C 
HETATM    6  O4  UNL     1      -4.787   3.053  12.995  1.00  0.00    -0.350 OA
ENDROOT
BRANCH   5   7
HETATM    7  N1  UNL     1      -3.368   1.403  12.228  1.00  0.00    -0.253 N 
HETATM    8  C9  UNL     1      -3.226   0.364  11.391  1.00  0.00     0.133 A 
HETATM    9  C10 UNL     1      -1.979   0.433  10.781  1.00  0.00     0.127 A 
HETATM   10  N2  UNL     1      -1.408   1.547  11.295  1.00  0.00    -0.296 N 
HETATM   11  N3  UNL     1      -2.258   2.111  12.157  1.00  0.00    -0.239 N 
ATOM     12  H2  UNL     1      -0.480   1.899  11.061  1.00  0.00     0.187 HD
ATOM     13  H3  UNL     1      -2.074   2.965  12.685  1.00  0.00     0.208 HD
ENDBRANCH   5   7
BRANCH   4  14
HETATM   14  O3  UNL     1      -4.649  -0.238  14.366  1.00  0.00    -0.367 OA
ATOM     15  H3  UNL     1      -4.673  -0.473  13.447  1.00  0.00     0.212 HD
ENDBRANCH   4  14
BRANCH   1  16
HETATM   16  C4  UNL     1      -6.625   4.537  13.457  1.00  0.00     0.202 C 
BRANCH  16  17
HETATM   17  O1  UNL     1      -6.292   5.013  12.213  1.00  0.00    -0.385 OA
BRANCH  17  18
HETATM   18  C3  UNL     1      -5.914   6.331  12.192  1.00  0.00     0.194 C 
BRANCH  18  19
HETATM   19  C2  UNL     1      -6.975   7.255  11.722  1.00  0.00    -0.011 C 
HETATM   20  C1  UNL     1      -6.731   8.352  11.048  1.00  0.00     0.009 C 
ENDBRANCH  18  19
ENDBRANCH  17  18
ENDBRANCH  16  17
ENDBRANCH   1  16
TORSDOF 6
ENDMDL
MODEL 4
REMARK VINA RESULT: -6.199652903      1.343      1.388
REMARK  6 active torsions:
REMARK  status: ('A' for Active; 'I' for Inactive)
REMARK    1  A    between atoms: C2_2  and  C3_3 
REMARK    2  A    between atoms: C3_3  and  O1_4 
REMARK    3  A    between atoms: O1_4  and  C4_5 
REMARK    4  A    between atoms: C4_5  and  C5_6 
REMARK    5  A    between atoms: C7_9  and  O3_10 
REMARK    6  A    between atoms: C8_12  and  N1_13 
ROOT
HETATM    1  C5  UNL     1      -4.199   1.019  13.516  1.00  0.00     0.172 C 
HETATM    2  C6  UNL     1      -4.178  -0.399  12.997  1.00  0.00     0.205 C 
HETATM    3  O2  UNL     1      -4.389  -0.400  11.652  1.00  0.00    -0.354 OA
HETATM    4  C7  UNL     1      -3.723   0.519  10.914  1.00  0.00     0.307 C 
HETATM    5  C8  UNL     1      -3.433   1.819  11.593  1.00  0.00     0.300 C 
HETATM    6  O4  UNL     1      -3.086   1.649  12.947  1.00  0.00    -0.350 OA
ENDROOT
BRANCH   5   7
HETATM    7  N1  UNL     1      -2.420   2.578  10.942  1.00  0.00    -0.253 N 
HETATM    8  C9  UNL     1      -1.176   2.153  10.672  1.00  0.00     0.133 A 
HETATM    9  C10 UNL     1      -0.474   3.167  10.030  1.00  0.00     0.127 A 
HETATM   10  N2  UNL     1      -1.356   4.189   9.939  1.00  0.00    -0.296 N 
HETATM   11  N3  UNL     1      -2.513   3.814  10.491  1.00  0.00    -0.239 N 
ATOM     12  H2  UNL     1      -1.167   5.098   9.517  1.00  0.00     0.187 HD
ATOM     13  H3  UNL     1      -3.347   4.399  10.554  1.00  0.00     0.208 HD
ENDBRANCH   5   7
BRANCH   4  14
HETATM   14  O3  UNL     1      -4.541   0.818   9.797  1.00  0.00    -0.367 OA
ATOM     15  H3  UNL     1      -5.378   0.397   9.950  1.00  0.00     0.212 HD
ENDBRANCH   4  14
BRANCH   1  16
HETATM   16  C4  UNL     1      -4.158   1.077  15.023  1.00  0.00     0.202 C 
BRANCH  16  17
HETATM   17  O1  UNL     1      -5.015   0.150  15.565  1.00  0.00    -0.385 OA
BRANCH  17  18
HETATM   18  C3  UNL     1      -5.493   0.477  16.808  1.00  0.00     0.194 C 
BRANCH  18  19
HETATM   19  C2  UNL     1      -6.793   1.190  16.785  1.00  0.00    -0.011 C 
HETATM   20  C1  UNL     1      -6.917   2.474  17.014  1.00  0.00     0.009 C 
ENDBRANCH  18  19
ENDBRANCH  17  18
ENDBRANCH  16  17
ENDBRANCH   1  16
TORSDOF 6
ENDMDL
MODEL 5
REMARK VINA RESULT: -6.136253438      2.976      4.666
REMARK  6 active torsions:
REMARK  status: ('A' for Active; 'I' for Inactive)
REMARK    1  A    between atoms: C2_2  and  C3_3 
REMARK    2  A    between atoms: C3_3  and  O1_4 
REMARK    3  A    between atoms: O1_4  and  C4_5 
REMARK    4  A    between atoms: C4_5  and  C5_6 
REMARK    5  A    between atoms: C7_9  and  O3_10 
REMARK    6  A    between atoms: C8_12  and  N1_13 
ROOT
HETATM    1  C5  UNL     1      -3.846   3.175  14.732  1.00  0.00     0.172 C 
HETATM    2  C6  UNL     1      -3.179   2.547  15.933  1.00  0.00     0.205 C 
HETATM    3  O2  UNL     1      -3.657   1.287  16.119  1.00  0.00    -0.354 OA
HETATM    4  C7  UNL     1      -3.786   0.499  15.025  1.00  0.00     0.307 C 
HETATM    5  C8  UNL     1      -4.103   1.204  13.745  1.00  0.00     0.300 C 
HETATM    6  O4  UNL     1      -3.419   2.429  13.626  1.00  0.00    -0.350 OA
ENDROOT
BRANCH   5   7
HETATM    7  N1  UNL     1      -3.845   0.411  12.591  1.00  0.00    -0.253 N 
HETATM    8  C9  UNL     1      -3.241   0.835  11.470  1.00  0.00     0.133 A 
HETATM    9  C10 UNL     1      -3.165  -0.217  10.564  1.00  0.00     0.127 A 
HETATM   10  N2  UNL     1      -3.746  -1.259  11.201  1.00  0.00    -0.296 N 
HETATM   11  N3  UNL     1      -4.146  -0.860  12.411  1.00  0.00    -0.239 N 
ATOM     12  H2  UNL     1      -3.861  -2.198  10.818  1.00  0.00     0.187 HD
ATOM     13  H3  UNL     1      -4.615  -1.453  13.097  1.00  0.00     0.208 HD
ENDBRANCH   5   7
BRANCH   4  14
HETATM   14  O3  UNL     1      -4.865  -0.382  15.281  1.00  0.00    -0.367 OA
ATOM     15  H3  UNL     1      -4.722  -1.154  14.747  1.00  0.00     0.212 HD
ENDBRANCH   4  14
BRANCH   1  16
HETATM   16  C4  UNL     1      -3.499   4.636  14.583  1.00  0.00     0.202 C 
BRANCH  16  17
HETATM   17  O1  UNL     1      -4.507   5.308  13.937  1.00  0.00    -0.385 OA
BRANCH  17  18
HETATM   18  C3  UNL     1      -5.768   4.995  14.373  1.00  0.00     0.194 C 
BRANCH  18  19
HETATM   19  C2  UNL     1      -6.828   5.210  13.357  1.00  0.00    -0.011 C 
HETATM   20  C1  UNL     1      -6.855   6.242  12.550  1.00  0.00     0.009 C 
ENDBRANCH  18  19
ENDBRANCH  17  18
ENDBRANCH  16  17
ENDBRANCH   1  16
TORSDOF 6
ENDMDL
