MODEL 1
REMARK VINA RESULT: -6.897203768      0.000      0.000
REMARK  6 active torsions:
REMARK  status: ('A' for Active; 'I' for Inactive)
REMARK    1  A    between atoms: O1_1  and  C1_3 
REMARK    2  A    between atoms: C1_3  and  C2_4 
REMARK    3  A    between atoms: C2_4  and  N1_5 
REMARK    4  A    between atoms: N1_5  and  C3_7 
REMARK    5  A    between atoms: C10_14  and  N2_15 
REMARK    6  A    between atoms: N3_18  and  C13_19 
ROOT
HETATM    1  C1  UNL     1      91.420  91.934 -45.906  1.00  0.00     0.073 C 
HETATM    2  C8  UNL     1      92.640  91.360 -46.607  1.00  0.00     0.041 C 
HETATM    3  C9  UNL     1      92.127  90.147 -47.384  1.00  0.00     0.028 C 
HETATM    4  C10 UNL     1      91.186  90.707 -48.431  1.00  0.00     0.088 C 
HETATM    5  C21 UNL     1      90.031  91.442 -47.833  1.00  0.00     0.028 C 
HETATM    6  C22 UNL     1      90.576  92.578 -46.960  1.00  0.00     0.041 C 
ENDROOT
BRANCH   4   7
HETATM    7  N2  UNL     1      90.850  89.654 -49.322  1.00  0.00    -0.366 N 
HETATM    8  C11 UNL     1      91.340  88.383 -49.061  1.00  0.00     0.083 C 
HETATM    9  C12 UNL     1      90.479  87.210 -49.445  1.00  0.00     0.168 C 
HETATM   10  N3  UNL     1      89.191  87.600 -49.938  1.00  0.00    -0.371 N 
HETATM   11  C19 UNL     1      89.058  88.776 -50.791  1.00  0.00     0.168 C 
HETATM   12  C20 UNL     1      89.915  89.911 -50.320  1.00  0.00     0.083 C 
BRANCH  10  13
HETATM   13  C13 UNL     1      88.037  86.865 -49.602  1.00  0.00     0.030 A 
HETATM   14  C14 UNL     1      87.205  87.210 -48.572  1.00  0.00     0.031 A 
HETATM   15  C15 UNL     1      86.066  86.469 -48.228  1.00  0.00     0.026 A 
HETATM   16  C16 UNL     1      85.731  85.336 -48.932  1.00  0.00     0.034 A 
HETATM   17 CL1  UNL     1      84.304  84.389 -48.521  1.00  0.00    -0.084 Cl
HETATM   18  C17 UNL     1      86.560  84.980 -49.969  1.00  0.00     0.026 A 
HETATM   19  C18 UNL     1      87.678  85.707 -50.306  1.00  0.00     0.031 A 
ENDBRANCH  10  13
ENDBRANCH   4   7
BRANCH   1  20
HETATM   20  O1  UNL     1      90.704  90.869 -45.363  1.00  0.00    -0.388 OA
ATOM     21  H1  UNL     1      89.781  91.098 -45.357  1.00  0.00     0.210 HD
ENDBRANCH   1  20
BRANCH   1  22
HETATM   22  C2  UNL     1      91.826  92.864 -44.781  1.00  0.00     0.152 C 
BRANCH  22  23
HETATM   23  N1  UNL     1      91.511  92.345 -43.494  1.00  0.00    -0.414 N 
ATOM     24  H1  UNL     1      90.546  92.279 -43.169  1.00  0.00     0.153 HD
BRANCH  23  25
HETATM   25  C3  UNL     1      92.578  91.928 -42.694  1.00  0.00     0.076 C 
HETATM   26  C4  UNL     1      93.956  92.116 -43.296  1.00  0.00     0.024 C 
HETATM   27  C5  UNL     1      94.792  91.616 -42.108  1.00  0.00     0.002 C 
HETATM   28  C6  UNL     1      94.029  90.398 -41.674  1.00  0.00     0.002 C 
HETATM   29  C7  UNL     1      92.642  90.474 -42.326  1.00  0.00     0.024 C 
ENDBRANCH  23  25
ENDBRANCH  22  23
ENDBRANCH   1  22
TORSDOF 6
ENDMDL
MODEL 2
REMARK VINA RESULT: -6.837721336      8.340     12.822
REMARK  6 active torsions:
REMARK  status: ('A' for Active; 'I' for Inactive)
REMARK    1  A    between atoms: O1_1  and  C1_3 
REMARK    2  A    between atoms: C1_3  and  C2_4 
REMARK    3  A    between atoms: C2_4  and  N1_5 
REMARK    4  A    between atoms: N1_5  and  C3_7 
REMARK    5  A    between atoms: C10_14  and  N2_15 
REMARK    6  A    between atoms: N3_18  and  C13_19 
ROOT
HETATM    1  C1  UNL     1      91.291  95.958 -45.134  1.00  0.00     0.073 C 
HETATM    2  C8  UNL     1      91.230  96.155 -43.628  1.00  0.00     0.041 C 
HETATM    3  C9  UNL     1      91.364  97.663 -43.410  1.00  0.00     0.028 C 
HETATM    4  C10 UNL     1      90.121  98.270 -44.028  1.00  0.00     0.088 C 
HETATM    5  C21 UNL     1      90.006  97.986 -45.490  1.00  0.00     0.028 C 
HETATM    6  C22 UNL     1      89.998  96.466 -45.690  1.00  0.00     0.041 C 
ENDROOT
BRANCH   4   7
HETATM    7  N2  UNL     1      90.080  99.642 -43.664  1.00  0.00    -0.366 N 
HETATM    8  C11 UNL     1      89.108 100.062 -42.768  1.00  0.00     0.083 C 
HETATM    9  C12 UNL     1      89.460 101.184 -41.829  1.00  0.00     0.168 C 
HETATM   10  N3  UNL     1      90.831 101.587 -41.930  1.00  0.00    -0.371 N 
HETATM   11  C19 UNL     1      91.486 101.637 -43.232  1.00  0.00     0.168 C 
HETATM   12  C20 UNL     1      91.116 100.467 -44.092  1.00  0.00     0.083 C 
BRANCH  10  13
HETATM   13  C13 UNL     1      91.569 101.932 -40.780  1.00  0.00     0.030 A 
HETATM   14  C14 UNL     1      91.096 102.781 -39.816  1.00  0.00     0.031 A 
HETATM   15  C15 UNL     1      91.837 103.136 -38.680  1.00  0.00     0.026 A 
HETATM   16  C16 UNL     1      93.101 102.632 -38.486  1.00  0.00     0.034 A 
HETATM   17 CL1  UNL     1      94.052 103.061 -37.066  1.00  0.00    -0.084 Cl
HETATM   18  C17 UNL     1      93.586 101.777 -39.447  1.00  0.00     0.026 A 
HETATM   19  C18 UNL     1      92.859 101.429 -40.562  1.00  0.00     0.031 A 
ENDBRANCH  10  13
ENDBRANCH   4   7
BRANCH   1  20
HETATM   20  O1  UNL     1      92.321  96.760 -45.623  1.00  0.00    -0.388 OA
ATOM     21  H1  UNL     1      92.316  96.711 -46.572  1.00  0.00     0.210 HD
ENDBRANCH   1  20
BRANCH   1  22
HETATM   22  C2  UNL     1      91.595  94.516 -45.483  1.00  0.00     0.152 C 
BRANCH  22  23
HETATM   23  N1  UNL     1      91.403  93.630 -44.386  1.00  0.00    -0.414 N 
ATOM     24  H1  UNL     1      90.468  93.376 -44.065  1.00  0.00     0.153 HD
BRANCH  23  25
HETATM   25  C3  UNL     1      92.547  93.122 -43.767  1.00  0.00     0.076 C 
HETATM   26  C4  UNL     1      92.926  91.708 -44.158  1.00  0.00     0.024 C 
HETATM   27  C5  UNL     1      94.219  91.584 -43.335  1.00  0.00     0.002 C 
HETATM   28  C6  UNL     1      93.821  92.204 -42.027  1.00  0.00     0.002 C 
HETATM   29  C7  UNL     1      92.524  92.988 -42.271  1.00  0.00     0.024 C 
ENDBRANCH  23  25
ENDBRANCH  22  23
ENDBRANCH   1  22
TORSDOF 6
ENDMDL
MODEL 3
REMARK VINA RESULT: -6.629816143      7.610     12.039
REMARK  6 active torsions:
REMARK  status: ('A' for Active; 'I' for Inactive)
REMARK    1  A    between atoms: O1_1  and  C1_3 
REMARK    2  A    between atoms: C1_3  and  C2_4 
REMARK    3  A    between atoms: C2_4  and  N1_5 
REMARK    4  A    between atoms: N1_5  and  C3_7 
REMARK    5  A    between atoms: C10_14  and  N2_15 
REMARK    6  A    between atoms: N3_18  and  C13_19 
ROOT
HETATM    1  C1  UNL     1      91.355  94.507 -44.800  1.00  0.00     0.073 C 
HETATM    2  C8  UNL     1      91.090  95.119 -43.434  1.00  0.00     0.041 C 
HETATM    3  C9  UNL     1      91.501  96.586 -43.559  1.00  0.00     0.028 C 
HETATM    4  C10 UNL     1      90.535  97.191 -44.556  1.00  0.00     0.088 C 
HETATM    5  C21 UNL     1      90.606  96.537 -45.897  1.00  0.00     0.028 C 
HETATM    6  C22 UNL     1      90.309  95.043 -45.725  1.00  0.00     0.041 C 
ENDROOT
BRANCH   4   7
HETATM    7  N2  UNL     1      90.726  98.599 -44.547  1.00  0.00    -0.366 N 
HETATM    8  C11 UNL     1      89.677  99.407 -44.137  1.00  0.00     0.083 C 
HETATM    9  C12 UNL     1      90.018 100.684 -43.416  1.00  0.00     0.168 C 
HETATM   10  N3  UNL     1      91.421 100.819 -43.155  1.00  0.00    -0.371 N 
HETATM   11  C19 UNL     1      92.396 100.385 -44.148  1.00  0.00     0.168 C 
HETATM   12  C20 UNL     1      92.005  99.090 -44.791  1.00  0.00     0.083 C 
BRANCH  10  13
HETATM   13  C13 UNL     1      91.879 101.362 -41.938  1.00  0.00     0.030 A 
HETATM   14  C14 UNL     1      93.154 101.823 -41.759  1.00  0.00     0.031 A 
HETATM   15  C15 UNL     1      93.614 102.348 -40.543  1.00  0.00     0.026 A 
HETATM   16  C16 UNL     1      92.778 102.422 -39.454  1.00  0.00     0.034 A 
HETATM   17 CL1  UNL     1      93.330 103.080 -37.916  1.00  0.00    -0.084 Cl
HETATM   18  C17 UNL     1      91.493 101.962 -39.623  1.00  0.00     0.026 A 
HETATM   19  C18 UNL     1      91.042 101.446 -40.816  1.00  0.00     0.031 A 
ENDBRANCH  10  13
ENDBRANCH   4   7
BRANCH   1  20
HETATM   20  O1  UNL     1      92.598  94.966 -45.233  1.00  0.00    -0.388 OA
ATOM     21  H1  UNL     1      93.038  95.382 -44.502  1.00  0.00     0.210 HD
ENDBRANCH   1  20
BRANCH   1  22
HETATM   22  C2  UNL     1      91.400  92.995 -44.721  1.00  0.00     0.152 C 
BRANCH  22  23
HETATM   23  N1  UNL     1      91.329  92.509 -43.385  1.00  0.00    -0.414 N 
ATOM     24  H1  UNL     1      90.464  92.561 -42.846  1.00  0.00     0.153 HD
BRANCH  23  25
HETATM   25  C3  UNL     1      92.492  91.959 -42.842  1.00  0.00     0.076 C 
HETATM   26  C4  UNL     1      93.176  92.798 -41.782  1.00  0.00     0.024 C 
HETATM   27  C5  UNL     1      94.316  91.829 -41.427  1.00  0.00     0.002 C 
HETATM   28  C6  UNL     1      94.753  91.346 -42.779  1.00  0.00     0.002 C 
HETATM   29  C7  UNL     1      93.644  91.714 -43.774  1.00  0.00     0.024 C 
ENDBRANCH  23  25
ENDBRANCH  22  23
ENDBRANCH   1  22
TORSDOF 6
ENDMDL
MODEL 4
REMARK VINA RESULT: -6.560464790      1.489      2.039
REMARK  6 active torsions:
REMARK  status: ('A' for Active; 'I' for Inactive)
REMARK    1  A    between atoms: O1_1  and  C1_3 
REMARK    2  A    between atoms: C1_3  and  C2_4 
REMARK    3  A    between atoms: C2_4  and  N1_5 
REMARK    4  A    between atoms: N1_5  and  C3_7 
REMARK    5  A    between atoms: C10_14  and  N2_15 
REMARK    6  A    between atoms: N3_18  and  C13_19 
ROOT
HETATM    1  C1  UNL     1      91.801  91.567 -46.059  1.00  0.00     0.073 C 
HETATM    2  C8  UNL     1      92.494  90.823 -47.188  1.00  0.00     0.041 C 
HETATM    3  C9  UNL     1      91.367  90.275 -48.064  1.00  0.00     0.028 C 
HETATM    4  C10 UNL     1      90.676  91.493 -48.640  1.00  0.00     0.088 C 
HETATM    5  C21 UNL     1      90.101  92.382 -47.586  1.00  0.00     0.028 C 
HETATM    6  C22 UNL     1      91.233  92.819 -46.649  1.00  0.00     0.041 C 
ENDROOT
BRANCH   4   7
HETATM    7  N2  UNL     1      89.763  91.047 -49.633  1.00  0.00    -0.366 N 
HETATM    8  C11 UNL     1      90.174  90.058 -50.514  1.00  0.00     0.083 C 
HETATM    9  C12 UNL     1      89.136  89.084 -51.004  1.00  0.00     0.168 C 
HETATM   10  N3  UNL     1      87.861  89.264 -50.376  1.00  0.00    -0.371 N 
HETATM   11  C19 UNL     1      87.368  90.607 -50.090  1.00  0.00     0.168 C 
HETATM   12  C20 UNL     1      88.450  91.503 -49.571  1.00  0.00     0.083 C 
BRANCH  10  13
HETATM   13  C13 UNL     1      87.069  88.154 -50.019  1.00  0.00     0.030 A 
HETATM   14  C14 UNL     1      86.265  87.493 -50.906  1.00  0.00     0.031 A 
HETATM   15  C15 UNL     1      85.466  86.399 -50.546  1.00  0.00     0.026 A 
HETATM   16  C16 UNL     1      85.459  85.936 -49.251  1.00  0.00     0.034 A 
HETATM   17 CL1  UNL     1      84.466  84.562 -48.773  1.00  0.00    -0.084 Cl
HETATM   18  C17 UNL     1      86.264  86.593 -48.350  1.00  0.00     0.026 A 
HETATM   19  C18 UNL     1      87.048  87.667 -48.704  1.00  0.00     0.031 A 
ENDBRANCH  10  13
ENDBRANCH   4   7
BRANCH   1  20
HETATM   20  O1  UNL     1      90.744  90.775 -45.616  1.00  0.00    -0.388 OA
ATOM     21  H1  UNL     1      91.058  89.884 -45.512  1.00  0.00     0.210 HD
ENDBRANCH   1  20
BRANCH   1  22
HETATM   22  C2  UNL     1      92.747  91.801 -44.899  1.00  0.00     0.152 C 
BRANCH  22  23
HETATM   23  N1  UNL     1      92.207  91.378 -43.652  1.00  0.00    -0.414 N 
ATOM     24  H1  UNL     1      91.820  90.442 -43.531  1.00  0.00     0.153 HD
BRANCH  23  25
HETATM   25  C3  UNL     1      92.229  92.297 -42.601  1.00  0.00     0.076 C 
HETATM   26  C4  UNL     1      91.701  93.679 -42.932  1.00  0.00     0.024 C 
HETATM   27  C5  UNL     1      91.837  94.313 -41.538  1.00  0.00     0.002 C 
HETATM   28  C6  UNL     1      93.184  93.819 -41.097  1.00  0.00     0.002 C 
HETATM   29  C7  UNL     1      93.567  92.655 -42.020  1.00  0.00     0.024 C 
ENDBRANCH  23  25
ENDBRANCH  22  23
ENDBRANCH   1  22
TORSDOF 6
ENDMDL
MODEL 5
REMARK VINA RESULT: -6.232137880      2.414      3.109
REMARK  6 active torsions:
REMARK  status: ('A' for Active; 'I' for Inactive)
REMARK    1  A    between atoms: O1_1  and  C1_3 
REMARK    2  A    between atoms: C1_3  and  C2_4 
REMARK    3  A    between atoms: C2_4  and  N1_5 
REMARK    4  A    between atoms: N1_5  and  C3_7 
REMARK    5  A    between atoms: C10_14  and  N2_15 
REMARK    6  A    between atoms: N3_18  and  C13_19 
ROOT
HETATM    1  C1  UNL     1      91.714  91.566 -46.099  1.00  0.00     0.073 C 
HETATM    2  C8  UNL     1      92.398  91.000 -47.333  1.00  0.00     0.041 C 
HETATM    3  C9  UNL     1      91.268  90.683 -48.313  1.00  0.00     0.028 C 
HETATM    4  C10 UNL     1      90.658  92.022 -48.671  1.00  0.00     0.088 C 
HETATM    5  C21 UNL     1      90.102  92.737 -47.483  1.00  0.00     0.028 C 
HETATM    6  C22 UNL     1      91.229  92.934 -46.462  1.00  0.00     0.041 C 
ENDROOT
BRANCH   4   7
HETATM    7  N2  UNL     1      89.751  91.815 -49.744  1.00  0.00    -0.366 N 
HETATM    8  C11 UNL     1      90.230  91.903 -51.043  1.00  0.00     0.083 C 
HETATM    9  C12 UNL     1      89.603  91.012 -52.081  1.00  0.00     0.168 C 
HETATM   10  N3  UNL     1      88.651  90.095 -51.529  1.00  0.00    -0.371 N 
HETATM   11  C19 UNL     1      87.760  90.522 -50.455  1.00  0.00     0.168 C 
HETATM   12  C20 UNL     1      88.467  91.371 -49.443  1.00  0.00     0.083 C 
BRANCH  10  13
HETATM   13  C13 UNL     1      88.565  88.771 -52.003  1.00  0.00     0.030 A 
HETATM   14  C14 UNL     1      88.082  88.451 -53.242  1.00  0.00     0.031 A 
HETATM   15  C15 UNL     1      87.981  87.132 -53.708  1.00  0.00     0.026 A 
HETATM   16  C16 UNL     1      88.375  86.081 -52.914  1.00  0.00     0.034 A 
HETATM   17 CL1  UNL     1      88.261  84.415 -53.475  1.00  0.00    -0.084 Cl
HETATM   18  C17 UNL     1      88.861  86.390 -51.666  1.00  0.00     0.026 A 
HETATM   19  C18 UNL     1      88.960  87.685 -51.210  1.00  0.00     0.031 A 
ENDBRANCH  10  13
ENDBRANCH   4   7
BRANCH   1  20
HETATM   20  O1  UNL     1      90.605  90.767 -45.827  1.00  0.00    -0.388 OA
ATOM     21  H1  UNL     1      90.883  89.858 -45.817  1.00  0.00     0.210 HD
ENDBRANCH   1  20
BRANCH   1  22
HETATM   22  C2  UNL     1      92.638  91.533 -44.900  1.00  0.00     0.152 C 
BRANCH  22  23
HETATM   23  N1  UNL     1      91.954  91.255 -43.683  1.00  0.00    -0.414 N 
ATOM     24  H1  UNL     1      91.368  90.426 -43.580  1.00  0.00     0.153 HD
BRANCH  23  25
HETATM   25  C3  UNL     1      92.117  92.165 -42.635  1.00  0.00     0.076 C 
HETATM   26  C4  UNL     1      91.815  93.611 -42.975  1.00  0.00     0.024 C 
HETATM   27  C5  UNL     1      92.045  94.222 -41.584  1.00  0.00     0.002 C 
HETATM   28  C6  UNL     1      93.296  93.524 -41.135  1.00  0.00     0.002 C 
HETATM   29  C7  UNL     1      93.493  92.310 -42.052  1.00  0.00     0.024 C 
ENDBRANCH  23  25
ENDBRANCH  22  23
ENDBRANCH   1  22
TORSDOF 6
ENDMDL
