MODEL 1
REMARK VINA RESULT: -7.239756928      0.000      0.000
REMARK  7 active torsions:
REMARK  status: ('A' for Active; 'I' for Inactive)
REMARK    1  A    between atoms: C2_2  and  C3_3 
REMARK    2  A    between atoms: C4_4  and  C5_5 
REMARK    3  A    between atoms: C5_5  and  N1_6 
REMARK    4  A    between atoms: C8_9  and  C9_10 
REMARK    5  A    between atoms: C9_10  and  C10_11 
REMARK    6  A    between atoms: C10_11  and  C12_13 
REMARK    7  A    between atoms: C12_13  and  C13_14 
ROOT
HETATM    1  C12 UNL     1      90.849  98.261 -43.775  1.00  0.00     0.065 C 
ENDROOT
BRANCH   1   2
HETATM    2  C10 UNL     1      92.163  97.862 -44.497  1.00  0.00    -0.012 C 
HETATM    3  C11 UNL     1      92.669  99.036 -45.272  1.00  0.00     0.010 C 
BRANCH   2   4
HETATM    4  C9  UNL     1      91.899  96.696 -45.403  1.00  0.00     0.012 C 
BRANCH   4   5
HETATM    5  C8  UNL     1      90.967  95.676 -44.842  1.00  0.00     0.023 C 
HETATM    6  C7  UNL     1      90.296  94.915 -45.960  1.00  0.00     0.038 C 
HETATM    7  C6  UNL     1      91.082  93.671 -46.316  1.00  0.00     0.274 C 
HETATM    8  N1  UNL     1      91.074  92.730 -45.260  1.00  0.00     0.102 N 
HETATM    9  C22 UNL     1      91.130  93.346 -43.988  1.00  0.00     0.311 C 
HETATM   10  C21 UNL     1      91.761  94.717 -43.969  1.00  0.00     0.202 C 
HETATM   11  F1  UNL     1      91.768  95.155 -42.666  1.00  0.00    -0.247 F 
BRANCH   8  12
HETATM   12  C5  UNL     1      92.091  91.718 -45.360  1.00  0.00     0.365 C 
BRANCH  12  13
HETATM   13  C4  UNL     1      92.895  91.668 -44.165  1.00  0.00    -0.076 C 
HETATM   14  C3  UNL     1      93.540  91.654 -43.171  1.00  0.00    -0.105 C 
BRANCH  14  15
HETATM   15  C2  UNL     1      94.334  91.672 -41.911  1.00  0.00     0.089 C 
HETATM   16  C1  UNL     1      93.958  92.891 -41.097  1.00  0.00     0.018 C 
ENDBRANCH  14  15
ENDBRANCH  12  13
ENDBRANCH   8  12
ENDBRANCH   4   5
ENDBRANCH   2   4
ENDBRANCH   1   2
BRANCH   1  17
HETATM   17  C13 UNL     1      91.284  99.094 -42.659  1.00  0.00     0.053 A 
HETATM   18  N2  UNL     1      92.089  98.551 -41.678  1.00  0.00    -0.300 N 
HETATM   19  N3  UNL     1      92.626  99.245 -40.714  1.00  0.00    -0.266 N 
ATOM     20  H2  UNL     1      92.275  97.549 -41.710  1.00  0.00     0.186 HD
HETATM   21  C14 UNL     1      92.424 100.590 -40.605  1.00  0.00     0.268 A 
ATOM     22  H3  UNL     1      93.211  98.771 -40.025  1.00  0.00     0.190 HD
HETATM   23  O1  UNL     1      92.930 101.288 -39.686  1.00  0.00    -0.266 OA
HETATM   24  C15 UNL     1      91.644 101.188 -41.528  1.00  0.00     0.040 A 
HETATM   25  C16 UNL     1      91.066 100.432 -42.569  1.00  0.00     0.064 A 
HETATM   26  C20 UNL     1      91.440 102.656 -41.342  1.00  0.00     0.047 C 
HETATM   27  N4  UNL     1      90.148 100.925 -43.541  1.00  0.00    -0.388 N 
HETATM   28  C17 UNL     1      89.925 102.329 -43.834  1.00  0.00     0.120 C 
ATOM     29  H4  UNL     1      89.607 100.241 -44.071  1.00  0.00     0.159 HD
HETATM   30  C18 UNL     1      89.329 103.086 -42.678  1.00  0.00     0.020 C 
HETATM   31  C19 UNL     1      89.925 102.825 -41.352  1.00  0.00     0.006 C 
ENDBRANCH   1  17
TORSDOF 7
ENDMDL
MODEL 2
REMARK VINA RESULT: -7.168707606      3.885      6.041
REMARK  7 active torsions:
REMARK  status: ('A' for Active; 'I' for Inactive)
REMARK    1  A    between atoms: C2_2  and  C3_3 
REMARK    2  A    between atoms: C4_4  and  C5_5 
REMARK    3  A    between atoms: C5_5  and  N1_6 
REMARK    4  A    between atoms: C8_9  and  C9_10 
REMARK    5  A    between atoms: C9_10  and  C10_11 
REMARK    6  A    between atoms: C10_11  and  C12_13 
REMARK    7  A    between atoms: C12_13  and  C13_14 
ROOT
HETATM    1  C12 UNL     1      91.545  93.600 -45.051  1.00  0.00     0.065 C 
ENDROOT
BRANCH   1   2
HETATM    2  C10 UNL     1      91.620  92.114 -44.611  1.00  0.00    -0.012 C 
HETATM    3  C11 UNL     1      93.040  91.769 -44.300  1.00  0.00     0.010 C 
BRANCH   2   4
HETATM    4  C9  UNL     1      91.084  91.243 -45.709  1.00  0.00     0.012 C 
BRANCH   4   5
HETATM    5  C8  UNL     1      91.504  91.649 -47.081  1.00  0.00     0.023 C 
HETATM    6  C7  UNL     1      92.361  90.571 -47.701  1.00  0.00     0.038 C 
HETATM    7  C6  UNL     1      91.516  89.597 -48.493  1.00  0.00     0.274 C 
HETATM    8  N1  UNL     1      90.934  90.212 -49.626  1.00  0.00     0.102 N 
HETATM    9  C22 UNL     1      90.546  91.549 -49.373  1.00  0.00     0.311 C 
HETATM   10  C21 UNL     1      90.260  91.869 -47.926  1.00  0.00     0.202 C 
HETATM   11  F1  UNL     1      89.867  93.184 -47.860  1.00  0.00    -0.247 F 
BRANCH   8  12
HETATM   12  C5  UNL     1      89.835  89.482 -50.199  1.00  0.00     0.365 C 
BRANCH  12  13
HETATM   13  C4  UNL     1      89.901  88.085 -49.850  1.00  0.00    -0.076 C 
HETATM   14  C3  UNL     1      89.926  86.932 -49.579  1.00  0.00    -0.105 C 
BRANCH  14  15
HETATM   15  C2  UNL     1      89.921  85.478 -49.255  1.00  0.00     0.089 C 
HETATM   16  C1  UNL     1      91.130  85.150 -48.407  1.00  0.00     0.018 C 
ENDBRANCH  14  15
ENDBRANCH  12  13
ENDBRANCH   8  12
ENDBRANCH   4   5
ENDBRANCH   2   4
ENDBRANCH   1   2
BRANCH   1  17
HETATM   17  C13 UNL     1      91.538  94.352 -43.802  1.00  0.00     0.053 A 
HETATM   18  N2  UNL     1      91.710  93.684 -42.605  1.00  0.00    -0.300 N 
HETATM   19  N3  UNL     1      91.841  94.281 -41.454  1.00  0.00    -0.266 N 
ATOM     20  H2  UNL     1      91.735  92.665 -42.624  1.00  0.00     0.186 HD
HETATM   21  C14 UNL     1      91.818  95.641 -41.349  1.00  0.00     0.268 A 
ATOM     22  H3  UNL     1      91.964  93.717 -40.612  1.00  0.00     0.190 HD
HETATM   23  O1  UNL     1      91.944  96.247 -40.251  1.00  0.00    -0.266 OA
HETATM   24  C15 UNL     1      91.651  96.359 -42.478  1.00  0.00     0.040 A 
HETATM   25  C16 UNL     1      91.509  95.708 -43.721  1.00  0.00     0.064 A 
HETATM   26  C20 UNL     1      91.608  97.841 -42.295  1.00  0.00     0.047 C 
HETATM   27  N4  UNL     1      91.228  96.345 -44.964  1.00  0.00    -0.388 N 
HETATM   28  C17 UNL     1      91.380  97.765 -45.220  1.00  0.00     0.120 C 
ATOM     29  H4  UNL     1      90.895  95.760 -45.730  1.00  0.00     0.159 HD
HETATM   30  C18 UNL     1      90.441  98.616 -44.408  1.00  0.00     0.020 C 
HETATM   31  C19 UNL     1      90.314  98.263 -42.979  1.00  0.00     0.006 C 
ENDBRANCH   1  17
TORSDOF 7
ENDMDL
MODEL 3
REMARK VINA RESULT: -6.966085032      3.431      8.223
REMARK  7 active torsions:
REMARK  status: ('A' for Active; 'I' for Inactive)
REMARK    1  A    between atoms: C2_2  and  C3_3 
REMARK    2  A    between atoms: C4_4  and  C5_5 
REMARK    3  A    between atoms: C5_5  and  N1_6 
REMARK    4  A    between atoms: C8_9  and  C9_10 
REMARK    5  A    between atoms: C9_10  and  C10_11 
REMARK    6  A    between atoms: C10_11  and  C12_13 
REMARK    7  A    between atoms: C12_13  and  C13_14 
ROOT
HETATM    1  C12 UNL     1      91.456  94.914 -41.114  1.00  0.00     0.065 C 
ENDROOT
BRANCH   1   2
HETATM    2  C10 UNL     1      92.081  96.237 -41.632  1.00  0.00    -0.012 C 
HETATM    3  C11 UNL     1      92.486  97.075 -40.462  1.00  0.00     0.010 C 
BRANCH   2   4
HETATM    4  C9  UNL     1      91.082  96.958 -42.488  1.00  0.00     0.012 C 
BRANCH   4   5
HETATM    5  C8  UNL     1      91.610  98.180 -43.159  1.00  0.00     0.023 C 
HETATM    6  C7  UNL     1      91.679  97.963 -44.652  1.00  0.00     0.038 C 
HETATM    7  C6  UNL     1      90.403  98.420 -45.325  1.00  0.00     0.274 C 
HETATM    8  N1  UNL     1      90.235  99.821 -45.229  1.00  0.00     0.102 N 
HETATM    9  C22 UNL     1      90.686 100.334 -43.990  1.00  0.00     0.311 C 
HETATM   10  C21 UNL     1      90.684  99.345 -42.849  1.00  0.00     0.202 C 
HETATM   11  F1  UNL     1      91.112 100.006 -41.723  1.00  0.00    -0.247 F 
BRANCH   8  12
HETATM   12  C5  UNL     1      88.897 100.278 -45.491  1.00  0.00     0.365 C 
BRANCH  12  13
HETATM   13  C4  UNL     1      87.921  99.333 -45.010  1.00  0.00    -0.076 C 
HETATM   14  C3  UNL     1      87.097  98.568 -44.637  1.00  0.00    -0.105 C 
BRANCH  14  15
HETATM   15  C2  UNL     1      86.034  97.624 -44.191  1.00  0.00     0.089 C 
HETATM   16  C1  UNL     1      84.813  98.409 -43.764  1.00  0.00     0.018 C 
ENDBRANCH  14  15
ENDBRANCH  12  13
ENDBRANCH   8  12
ENDBRANCH   4   5
ENDBRANCH   2   4
ENDBRANCH   1   2
BRANCH   1  17
HETATM   17  C13 UNL     1      91.740  93.941 -42.162  1.00  0.00     0.053 A 
HETATM   18  N2  UNL     1      90.913  93.867 -43.264  1.00  0.00    -0.300 N 
HETATM   19  N3  UNL     1      91.154  93.118 -44.305  1.00  0.00    -0.266 N 
ATOM     20  H2  UNL     1      90.063  94.430 -43.265  1.00  0.00     0.186 HD
HETATM   21  C14 UNL     1      92.270  92.337 -44.377  1.00  0.00     0.268 A 
ATOM     22  H3  UNL     1      90.493  93.117 -45.082  1.00  0.00     0.190 HD
HETATM   23  O1  UNL     1      92.533  91.605 -45.369  1.00  0.00    -0.266 OA
HETATM   24  C15 UNL     1      93.124  92.357 -43.333  1.00  0.00     0.040 A 
HETATM   25  C16 UNL     1      92.857  93.169 -42.211  1.00  0.00     0.064 A 
HETATM   26  C20 UNL     1      94.314  91.463 -43.461  1.00  0.00     0.047 C 
HETATM   27  N4  UNL     1      93.624  93.201 -41.010  1.00  0.00    -0.388 N 
HETATM   28  C17 UNL     1      94.971  92.680 -40.872  1.00  0.00     0.120 C 
ATOM     29  H4  UNL     1      93.194  93.622 -40.186  1.00  0.00     0.159 HD
HETATM   30  C18 UNL     1      95.047  91.187 -41.050  1.00  0.00     0.020 C 
HETATM   31  C19 UNL     1      94.289  90.627 -42.187  1.00  0.00     0.006 C 
ENDBRANCH   1  17
TORSDOF 7
ENDMDL
MODEL 4
REMARK VINA RESULT: -6.884034882      1.752      2.509
REMARK  7 active torsions:
REMARK  status: ('A' for Active; 'I' for Inactive)
REMARK    1  A    between atoms: C2_2  and  C3_3 
REMARK    2  A    between atoms: C4_4  and  C5_5 
REMARK    3  A    between atoms: C5_5  and  N1_6 
REMARK    4  A    between atoms: C8_9  and  C9_10 
REMARK    5  A    between atoms: C9_10  and  C10_11 
REMARK    6  A    between atoms: C10_11  and  C12_13 
REMARK    7  A    between atoms: C12_13  and  C13_14 
ROOT
HETATM    1  C12 UNL     1      91.929  98.342 -43.512  1.00  0.00     0.065 C 
ENDROOT
BRANCH   1   2
HETATM    2  C10 UNL     1      91.234  97.975 -44.850  1.00  0.00    -0.012 C 
HETATM    3  C11 UNL     1      89.752  98.003 -44.653  1.00  0.00     0.010 C 
BRANCH   2   4
HETATM    4  C9  UNL     1      91.690  96.616 -45.292  1.00  0.00     0.012 C 
BRANCH   4   5
HETATM    5  C8  UNL     1      90.829  95.492 -44.824  1.00  0.00     0.023 C 
HETATM    6  C7  UNL     1      90.303  94.715 -46.008  1.00  0.00     0.038 C 
HETATM    7  C6  UNL     1      91.225  93.566 -46.353  1.00  0.00     0.274 C 
HETATM    8  N1  UNL     1      91.245  92.588 -45.331  1.00  0.00     0.102 N 
HETATM    9  C22 UNL     1      91.165  93.157 -44.039  1.00  0.00     0.311 C 
HETATM   10  C21 UNL     1      91.658  94.580 -43.935  1.00  0.00     0.202 C 
HETATM   11  F1  UNL     1      91.545  94.965 -42.621  1.00  0.00    -0.247 F 
BRANCH   8  12
HETATM   12  C5  UNL     1      92.358  91.680 -45.400  1.00  0.00     0.365 C 
BRANCH  12  13
HETATM   13  C4  UNL     1      93.071  91.636 -44.148  1.00  0.00    -0.076 C 
HETATM   14  C3  UNL     1      93.654  91.634 -43.116  1.00  0.00    -0.105 C 
BRANCH  14  15
HETATM   15  C2  UNL     1      94.387  91.670 -41.820  1.00  0.00     0.089 C 
HETATM   16  C1  UNL     1      93.989  92.911 -41.053  1.00  0.00     0.018 C 
ENDBRANCH  14  15
ENDBRANCH  12  13
ENDBRANCH   8  12
ENDBRANCH   4   5
ENDBRANCH   2   4
ENDBRANCH   1   2
BRANCH   1  17
HETATM   17  C13 UNL     1      92.382  99.715 -43.699  1.00  0.00     0.053 A 
HETATM   18  N2  UNL     1      92.674 100.168 -44.970  1.00  0.00    -0.300 N 
HETATM   19  N3  UNL     1      92.965 101.407 -45.251  1.00  0.00    -0.266 N 
ATOM     20  H2  UNL     1      92.661  99.493 -45.735  1.00  0.00     0.186 HD
HETATM   21  C14 UNL     1      93.002 102.367 -44.281  1.00  0.00     0.268 A 
ATOM     22  H3  UNL     1      93.170 101.665 -46.216  1.00  0.00     0.190 HD
HETATM   23  O1  UNL     1      93.277 103.574 -44.521  1.00  0.00    -0.266 OA
HETATM   24  C15 UNL     1      92.729 101.996 -43.014  1.00  0.00     0.040 A 
HETATM   25  C16 UNL     1      92.415 100.654 -42.717  1.00  0.00     0.064 A 
HETATM   26  C20 UNL     1      92.810 103.086 -41.995  1.00  0.00     0.047 C 
HETATM   27  N4  UNL     1      92.209 100.119 -41.413  1.00  0.00    -0.388 N 
HETATM   28  C17 UNL     1      91.949 100.910 -40.224  1.00  0.00     0.120 C 
ATOM     29  H4  UNL     1      92.247  99.105 -41.306  1.00  0.00     0.159 HD
HETATM   30  C18 UNL     1      93.105 101.791 -39.836  1.00  0.00     0.020 C 
HETATM   31  C19 UNL     1      93.755 102.535 -40.935  1.00  0.00     0.006 C 
ENDBRANCH   1  17
TORSDOF 7
ENDMDL
MODEL 5
REMARK VINA RESULT: -6.881040147      3.763      7.788
REMARK  7 active torsions:
REMARK  status: ('A' for Active; 'I' for Inactive)
REMARK    1  A    between atoms: C2_2  and  C3_3 
REMARK    2  A    between atoms: C4_4  and  C5_5 
REMARK    3  A    between atoms: C5_5  and  N1_6 
REMARK    4  A    between atoms: C8_9  and  C9_10 
REMARK    5  A    between atoms: C9_10  and  C10_11 
REMARK    6  A    between atoms: C10_11  and  C12_13 
REMARK    7  A    between atoms: C12_13  and  C13_14 
ROOT
HETATM    1  C12 UNL     1      91.413  94.881 -41.173  1.00  0.00     0.065 C 
ENDROOT
BRANCH   1   2
HETATM    2  C10 UNL     1      91.915  96.227 -41.761  1.00  0.00    -0.012 C 
HETATM    3  C11 UNL     1      92.538  97.034 -40.667  1.00  0.00     0.010 C 
BRANCH   2   4
HETATM    4  C9  UNL     1      90.763  96.960 -42.380  1.00  0.00     0.012 C 
BRANCH   4   5
HETATM    5  C8  UNL     1      91.113  97.749 -43.595  1.00  0.00     0.023 C 
HETATM    6  C7  UNL     1      91.533  96.822 -44.712  1.00  0.00     0.038 C 
HETATM    7  C6  UNL     1      90.349  96.444 -45.575  1.00  0.00     0.274 C 
HETATM    8  N1  UNL     1      89.840  97.560 -46.281  1.00  0.00     0.102 N 
HETATM    9  C22 UNL     1      89.896  98.750 -45.519  1.00  0.00     0.311 C 
HETATM   10  C21 UNL     1      89.896  98.553 -44.023  1.00  0.00     0.202 C 
HETATM   11  F1  UNL     1      89.918  99.797 -43.438  1.00  0.00    -0.247 F 
BRANCH   8  12
HETATM   12  C5  UNL     1      88.514  97.375 -46.806  1.00  0.00     0.365 C 
BRANCH  12  13
HETATM   13  C4  UNL     1      88.481  96.306 -47.773  1.00  0.00    -0.076 C 
HETATM   14  C3  UNL     1      88.455  95.451 -48.592  1.00  0.00    -0.105 C 
BRANCH  14  15
HETATM   15  C2  UNL     1      88.417  94.403 -49.649  1.00  0.00     0.089 C 
HETATM   16  C1  UNL     1      88.966  93.108 -49.092  1.00  0.00     0.018 C 
ENDBRANCH  14  15
ENDBRANCH  12  13
ENDBRANCH   8  12
ENDBRANCH   4   5
ENDBRANCH   2   4
ENDBRANCH   1   2
BRANCH   1  17
HETATM   17  C13 UNL     1      91.719  93.895 -42.202  1.00  0.00     0.053 A 
HETATM   18  N2  UNL     1      90.894  93.783 -43.303  1.00  0.00    -0.300 N 
HETATM   19  N3  UNL     1      91.152  93.021 -44.329  1.00  0.00    -0.266 N 
ATOM     20  H2  UNL     1      90.032  94.328 -43.315  1.00  0.00     0.186 HD
HETATM   21  C14 UNL     1      92.285  92.262 -44.386  1.00  0.00     0.268 A 
ATOM     22  H3  UNL     1      90.492  92.991 -45.107  1.00  0.00     0.190 HD
HETATM   23  O1  UNL     1      92.564  91.518 -45.364  1.00  0.00    -0.266 OA
HETATM   24  C15 UNL     1      93.137  92.320 -43.343  1.00  0.00     0.040 A 
HETATM   25  C16 UNL     1      92.852  93.146 -42.236  1.00  0.00     0.064 A 
HETATM   26  C20 UNL     1      94.346  91.449 -43.453  1.00  0.00     0.047 C 
HETATM   27  N4  UNL     1      93.617  93.217 -41.036  1.00  0.00    -0.388 N 
HETATM   28  C17 UNL     1      94.974  92.728 -40.887  1.00  0.00     0.120 C 
ATOM     29  H4  UNL     1      93.177  93.644 -40.220  1.00  0.00     0.159 HD
HETATM   30  C18 UNL     1      95.083  91.234 -41.037  1.00  0.00     0.020 C 
HETATM   31  C19 UNL     1      94.338  90.637 -42.164  1.00  0.00     0.006 C 
ENDBRANCH   1  17
TORSDOF 7
ENDMDL
