MODEL 1
REMARK VINA RESULT: -6.454806107      0.000      0.000
REMARK  5 active torsions:
REMARK  status: ('A' for Active; 'I' for Inactive)
REMARK    1  A    between atoms: N1_4  and  C4_5 
REMARK    2  A    between atoms: C4_5  and  C5_6 
REMARK    3  A    between atoms: C5_6  and  N2_7 
REMARK    4  A    between atoms: N2_7  and  C6_9 
REMARK    5  A    between atoms: N3_17  and  C14_18 
ROOT
HETATM    1  C1  UNL     1      92.853 100.325 -44.586  1.00  0.00     0.034 C 
HETATM    2  C2  UNL     1      92.359  98.953 -44.184  1.00  0.00     0.108 C 
HETATM    3  C3  UNL     1      91.506  98.304 -45.192  1.00  0.00     0.297 C 
HETATM    4  N1  UNL     1      91.047  97.012 -44.894  1.00  0.00     0.096 N 
HETATM    5  C12 UNL     1      90.654  96.783 -43.539  1.00  0.00     0.292 C 
HETATM    6  C13 UNL     1      91.341  97.580 -42.479  1.00  0.00     0.154 C 
HETATM    7  N3  UNL     1      91.731  98.921 -42.897  1.00  0.00    -0.373 N 
ENDROOT
BRANCH   4   8
HETATM    8  C4  UNL     1      91.864  95.905 -45.408  1.00  0.00     0.316 C 
BRANCH   8   9
HETATM    9  C5  UNL     1      91.229  94.587 -45.057  1.00  0.00     0.085 C 
BRANCH   9  10
HETATM   10  N2  UNL     1      91.980  93.473 -44.780  1.00  0.00    -0.396 N 
ATOM     11  H2  UNL     1      91.900  92.717 -45.460  1.00  0.00     0.159 HD
BRANCH  10  12
HETATM   12  C6  UNL     1      92.830  93.223 -43.716  1.00  0.00     0.080 C 
HETATM   13  C7  UNL     1      92.310  93.711 -42.399  1.00  0.00     0.025 C 
HETATM   14  C8  UNL     1      93.047  93.117 -41.206  1.00  0.00     0.002 C 
HETATM   15  C9  UNL     1      94.259  92.332 -41.580  1.00  0.00     0.000 C 
HETATM   16  C10 UNL     1      93.977  91.267 -42.599  1.00  0.00     0.002 C 
HETATM   17  C11 UNL     1      93.051  91.708 -43.674  1.00  0.00     0.025 C 
ENDBRANCH  10  12
ENDBRANCH   9  10
ENDBRANCH   8   9
ENDBRANCH   4   8
BRANCH   7  18
HETATM   18  C14 UNL     1      91.474 100.020 -42.046  1.00  0.00     0.030 A 
HETATM   19  C15 UNL     1      90.403 100.866 -42.167  1.00  0.00     0.030 A 
HETATM   20  C16 UNL     1      90.268 101.917 -41.282  1.00  0.00     0.021 A 
HETATM   21  C17 UNL     1      91.168 102.147 -40.275  1.00  0.00     0.011 A 
HETATM   22 BR1  UNL     1      90.973 103.601 -39.043  1.00  0.00    -0.051 Br
HETATM   23  C18 UNL     1      92.252 101.304 -40.137  1.00  0.00     0.021 A 
HETATM   24  C19 UNL     1      92.372 100.269 -41.026  1.00  0.00     0.030 A 
ENDBRANCH   7  18
TORSDOF 5
ENDMDL
MODEL 2
REMARK VINA RESULT: -6.372953802      7.109     10.912
REMARK  5 active torsions:
REMARK  status: ('A' for Active; 'I' for Inactive)
REMARK    1  A    between atoms: N1_4  and  C4_5 
REMARK    2  A    between atoms: C4_5  and  C5_6 
REMARK    3  A    between atoms: C5_6  and  N2_7 
REMARK    4  A    between atoms: N2_7  and  C6_9 
REMARK    5  A    between atoms: N3_17  and  C14_18 
ROOT
HETATM    1  C1  UNL     1      91.682  88.596 -48.601  1.00  0.00     0.034 C 
HETATM    2  C2  UNL     1      91.259  90.046 -48.512  1.00  0.00     0.108 C 
HETATM    3  C3  UNL     1      90.880  90.476 -47.157  1.00  0.00     0.297 C 
HETATM    4  N1  UNL     1      90.515  91.822 -47.001  1.00  0.00     0.096 N 
HETATM    5  C12 UNL     1      89.725  92.383 -48.051  1.00  0.00     0.292 C 
HETATM    6  C13 UNL     1      89.914  91.830 -49.425  1.00  0.00     0.154 C 
HETATM    7  N3  UNL     1      90.249  90.411 -49.457  1.00  0.00    -0.373 N 
ENDROOT
BRANCH   4   8
HETATM    8  C4  UNL     1      91.589  92.736 -46.591  1.00  0.00     0.316 C 
BRANCH   8   9
HETATM    9  C5  UNL     1      91.320  93.264 -45.208  1.00  0.00     0.085 C 
BRANCH   9  10
HETATM   10  N2  UNL     1      91.232  92.433 -44.122  1.00  0.00    -0.396 N 
ATOM     11  H2  UNL     1      90.312  92.019 -43.964  1.00  0.00     0.159 HD
BRANCH  10  12
HETATM   12  C6  UNL     1      92.205  92.069 -43.205  1.00  0.00     0.080 C 
HETATM   13  C7  UNL     1      93.455  91.535 -43.832  1.00  0.00     0.025 C 
HETATM   14  C8  UNL     1      94.636  91.491 -42.871  1.00  0.00     0.002 C 
HETATM   15  C9  UNL     1      94.271  91.795 -41.458  1.00  0.00     0.000 C 
HETATM   16  C10 UNL     1      93.528  93.090 -41.308  1.00  0.00     0.002 C 
HETATM   17  C11 UNL     1      92.517  93.317 -42.374  1.00  0.00     0.025 C 
ENDBRANCH  10  12
ENDBRANCH   9  10
ENDBRANCH   8   9
ENDBRANCH   4   8
BRANCH   7  18
HETATM   18  C14 UNL     1      89.586  89.558 -50.370  1.00  0.00     0.030 A 
HETATM   19  C15 UNL     1      89.421  88.209 -50.198  1.00  0.00     0.030 A 
HETATM   20  C16 UNL     1      88.767  87.478 -51.170  1.00  0.00     0.021 A 
HETATM   21  C17 UNL     1      88.269  88.054 -52.309  1.00  0.00     0.011 A 
HETATM   22 BR1  UNL     1      87.357  87.039 -53.653  1.00  0.00    -0.051 Br
HETATM   23  C18 UNL     1      88.426  89.412 -52.499  1.00  0.00     0.021 A 
HETATM   24  C19 UNL     1      89.078  90.121 -51.526  1.00  0.00     0.030 A 
ENDBRANCH   7  18
TORSDOF 5
ENDMDL
MODEL 3
REMARK VINA RESULT: -6.351092021      1.412      2.368
REMARK  5 active torsions:
REMARK  status: ('A' for Active; 'I' for Inactive)
REMARK    1  A    between atoms: N1_4  and  C4_5 
REMARK    2  A    between atoms: C4_5  and  C5_6 
REMARK    3  A    between atoms: C5_6  and  N2_7 
REMARK    4  A    between atoms: N2_7  and  C6_9 
REMARK    5  A    between atoms: N3_17  and  C14_18 
ROOT
HETATM    1  C1  UNL     1      91.746  96.934 -41.963  1.00  0.00     0.034 C 
HETATM    2  C2  UNL     1      90.976  96.754 -43.251  1.00  0.00     0.108 C 
HETATM    3  C3  UNL     1      91.741  96.093 -44.320  1.00  0.00     0.297 C 
HETATM    4  N1  UNL     1      91.068  95.862 -45.529  1.00  0.00     0.096 N 
HETATM    5  C12 UNL     1      90.199  96.907 -45.973  1.00  0.00     0.292 C 
HETATM    6  C13 UNL     1      89.557  97.758 -44.927  1.00  0.00     0.154 C 
HETATM    7  N3  UNL     1      90.373  97.959 -43.736  1.00  0.00    -0.373 N 
ENDROOT
BRANCH   4   8
HETATM    8  C4  UNL     1      90.436  94.544 -45.671  1.00  0.00     0.316 C 
BRANCH   8   9
HETATM    9  C5  UNL     1      91.395  93.462 -45.252  1.00  0.00     0.085 C 
BRANCH   9  10
HETATM   10  N2  UNL     1      91.230  92.762 -44.085  1.00  0.00    -0.396 N 
ATOM     11  H2  UNL     1      90.261  92.612 -43.802  1.00  0.00     0.159 HD
BRANCH  10  12
HETATM   12  C6  UNL     1      92.182  92.228 -43.233  1.00  0.00     0.080 C 
HETATM   13  C7  UNL     1      93.397  91.706 -43.936  1.00  0.00     0.025 C 
HETATM   14  C8  UNL     1      94.576  91.470 -43.000  1.00  0.00     0.002 C 
HETATM   15  C9  UNL     1      94.233  91.610 -41.556  1.00  0.00     0.000 C 
HETATM   16  C10 UNL     1      93.568  92.917 -41.234  1.00  0.00     0.002 C 
HETATM   17  C11 UNL     1      92.569  93.337 -42.251  1.00  0.00     0.025 C 
ENDBRANCH  10  12
ENDBRANCH   9  10
ENDBRANCH   8   9
ENDBRANCH   4   8
BRANCH   7  18
HETATM   18  C14 UNL     1      90.496  99.255 -43.185  1.00  0.00     0.030 A 
HETATM   19  C15 UNL     1      91.608 100.048 -43.296  1.00  0.00     0.030 A 
HETATM   20  C16 UNL     1      91.613 101.293 -42.700  1.00  0.00     0.021 A 
HETATM   21  C17 UNL     1      90.539 101.774 -41.998  1.00  0.00     0.011 A 
HETATM   22 BR1  UNL     1      90.547 103.505 -41.178  1.00  0.00    -0.051 Br
HETATM   23  C18 UNL     1      89.410 100.990 -41.877  1.00  0.00     0.021 A 
HETATM   24  C19 UNL     1      89.423  99.757 -42.472  1.00  0.00     0.030 A 
ENDBRANCH   7  18
TORSDOF 5
ENDMDL
MODEL 4
REMARK VINA RESULT: -6.265555948      2.274      2.950
REMARK  5 active torsions:
REMARK  status: ('A' for Active; 'I' for Inactive)
REMARK    1  A    between atoms: N1_4  and  C4_5 
REMARK    2  A    between atoms: C4_5  and  C5_6 
REMARK    3  A    between atoms: C5_6  and  N2_7 
REMARK    4  A    between atoms: N2_7  and  C6_9 
REMARK    5  A    between atoms: N3_17  and  C14_18 
ROOT
HETATM    1  C1  UNL     1      91.426  97.859 -42.756  1.00  0.00     0.034 C 
HETATM    2  C2  UNL     1      90.633  97.161 -43.839  1.00  0.00     0.108 C 
HETATM    3  C3  UNL     1      91.460  96.601 -44.919  1.00  0.00     0.297 C 
HETATM    4  N1  UNL     1      90.786  95.906 -45.935  1.00  0.00     0.096 N 
HETATM    5  C12 UNL     1      89.543  96.469 -46.361  1.00  0.00     0.292 C 
HETATM    6  C13 UNL     1      88.756  97.241 -45.354  1.00  0.00     0.154 C 
HETATM    7  N3  UNL     1      89.571  97.955 -44.378  1.00  0.00    -0.373 N 
ENDROOT
BRANCH   4   8
HETATM    8  C4  UNL     1      90.682  94.452 -45.760  1.00  0.00     0.316 C 
BRANCH   8   9
HETATM    9  C5  UNL     1      91.743  93.968 -44.809  1.00  0.00     0.085 C 
BRANCH   9  10
HETATM   10  N2  UNL     1      91.540  92.890 -43.986  1.00  0.00    -0.396 N 
ATOM     11  H2  UNL     1      90.598  92.501 -44.005  1.00  0.00     0.159 HD
BRANCH  10  12
HETATM   12  C6  UNL     1      92.425  92.250 -43.134  1.00  0.00     0.080 C 
HETATM   13  C7  UNL     1      93.593  91.626 -43.833  1.00  0.00     0.025 C 
HETATM   14  C8  UNL     1      94.730  91.259 -42.889  1.00  0.00     0.002 C 
HETATM   15  C9  UNL     1      94.384  91.405 -41.446  1.00  0.00     0.000 C 
HETATM   16  C10 UNL     1      93.844  92.764 -41.107  1.00  0.00     0.002 C 
HETATM   17  C11 UNL     1      92.905  93.298 -42.127  1.00  0.00     0.025 C 
ENDBRANCH  10  12
ENDBRANCH   9  10
ENDBRANCH   8   9
ENDBRANCH   4   8
BRANCH   7  18
HETATM   18  C14 UNL     1      89.263  99.297 -44.059  1.00  0.00     0.030 A 
HETATM   19  C15 UNL     1      89.850 100.391 -44.638  1.00  0.00     0.030 A 
HETATM   20  C16 UNL     1      89.474 101.656 -44.231  1.00  0.00     0.021 A 
HETATM   21  C17 UNL     1      88.527 101.863 -43.263  1.00  0.00     0.011 A 
HETATM   22 BR1  UNL     1      88.003 103.619 -42.705  1.00  0.00    -0.051 Br
HETATM   23  C18 UNL     1      87.924 100.773 -42.669  1.00  0.00     0.021 A 
HETATM   24  C19 UNL     1      88.310  99.526 -43.084  1.00  0.00     0.030 A 
ENDBRANCH   7  18
TORSDOF 5
ENDMDL
MODEL 5
REMARK VINA RESULT: -6.134767519      1.878      2.405
REMARK  5 active torsions:
REMARK  status: ('A' for Active; 'I' for Inactive)
REMARK    1  A    between atoms: N1_4  and  C4_5 
REMARK    2  A    between atoms: C4_5  and  C5_6 
REMARK    3  A    between atoms: C5_6  and  N2_7 
REMARK    4  A    between atoms: N2_7  and  C6_9 
REMARK    5  A    between atoms: N3_17  and  C14_18 
ROOT
HETATM    1  C1  UNL     1      91.559  97.286 -42.592  1.00  0.00     0.034 C 
HETATM    2  C2  UNL     1      90.705  96.918 -43.785  1.00  0.00     0.108 C 
HETATM    3  C3  UNL     1      91.457  96.316 -44.897  1.00  0.00     0.297 C 
HETATM    4  N1  UNL     1      90.714  95.917 -46.018  1.00  0.00     0.096 N 
HETATM    5  C12 UNL     1      89.655  96.793 -46.414  1.00  0.00     0.292 C 
HETATM    6  C13 UNL     1      88.993  97.598 -45.345  1.00  0.00     0.154 C 
HETATM    7  N3  UNL     1      89.880  97.989 -44.255  1.00  0.00    -0.373 N 
ENDROOT
BRANCH   4   8
HETATM    8  C4  UNL     1      90.282  94.513 -46.037  1.00  0.00     0.316 C 
BRANCH   8   9
HETATM    9  C5  UNL     1      91.423  93.616 -45.643  1.00  0.00     0.085 C 
BRANCH   9  10
HETATM   10  N2  UNL     1      91.433  92.938 -44.451  1.00  0.00    -0.396 N 
ATOM     11  H2  UNL     1      90.540  92.527 -44.179  1.00  0.00     0.159 HD
BRANCH  10  12
HETATM   12  C6  UNL     1      92.474  92.727 -43.563  1.00  0.00     0.080 C 
HETATM   13  C7  UNL     1      92.444  93.635 -42.372  1.00  0.00     0.025 C 
HETATM   14  C8  UNL     1      93.346  93.165 -41.238  1.00  0.00     0.002 C 
HETATM   15  C9  UNL     1      94.225  92.018 -41.606  1.00  0.00     0.000 C 
HETATM   16  C10 UNL     1      93.467  90.858 -42.181  1.00  0.00     0.002 C 
HETATM   17  C11 UNL     1      92.389  91.264 -43.120  1.00  0.00     0.025 C 
ENDBRANCH  10  12
ENDBRANCH   9  10
ENDBRANCH   8   9
ENDBRANCH   4   8
BRANCH   7  18
HETATM   18  C14 UNL     1      89.854  99.319 -43.778  1.00  0.00     0.030 A 
HETATM   19  C15 UNL     1      90.660 100.328 -44.234  1.00  0.00     0.030 A 
HETATM   20  C16 UNL     1      90.551 101.586 -43.676  1.00  0.00     0.021 A 
HETATM   21  C17 UNL     1      89.659 101.870 -42.676  1.00  0.00     0.011 A 
HETATM   22 BR1  UNL     1      89.506 103.618 -41.908  1.00  0.00    -0.051 Br
HETATM   23  C18 UNL     1      88.838 100.866 -42.204  1.00  0.00     0.021 A 
HETATM   24  C19 UNL     1      88.960  99.623 -42.767  1.00  0.00     0.030 A 
ENDBRANCH   7  18
TORSDOF 5
ENDMDL
