MODEL 1
REMARK VINA RESULT: -6.849370349      0.000      0.000
REMARK  6 active torsions:
REMARK  status: ('A' for Active; 'I' for Inactive)
REMARK    1  A    between atoms: C4_5  and  C5_6 
REMARK    2  A    between atoms: C5_6  and  N1_7 
REMARK    3  A    between atoms: N2_10  and  C8_11 
REMARK    4  A    between atoms: C8_11  and  C9_12 
REMARK    5  A    between atoms: C12_15  and  O1_16 
REMARK    6  A    between atoms: O1_16  and  C13_17 
ROOT
HETATM    1  C9  UNL     1      89.750  91.625 -47.707  1.00  0.00    -0.040 A 
HETATM    2  C10 UNL     1      90.488  90.642 -47.117  1.00  0.00     0.011 A 
HETATM    3  C11 UNL     1      91.239  90.904 -46.006  1.00  0.00     0.037 A 
HETATM    4  C12 UNL     1      91.296  92.170 -45.422  1.00  0.00     0.069 A 
HETATM    5  C18 UNL     1      90.533  93.132 -46.054  1.00  0.00     0.037 A 
HETATM    6  C19 UNL     1      89.774  92.879 -47.172  1.00  0.00     0.011 A 
ENDROOT
BRANCH   1   7
HETATM    7  C8  UNL     1      88.960  91.285 -48.892  1.00  0.00     0.166 C 
BRANCH   7   8
HETATM    8  N2  UNL     1      88.835  89.920 -49.222  1.00  0.00    -0.360 N 
HETATM    9  C7  UNL     1      87.795  89.165 -48.645  1.00  0.00     0.108 C 
HETATM   10  C6  UNL     1      86.722  88.935 -49.683  1.00  0.00     0.108 C 
HETATM   11  N1  UNL     1      87.264  88.217 -50.767  1.00  0.00    -0.360 N 
HETATM   12  C21 UNL     1      88.533  88.560 -51.259  1.00  0.00     0.108 C 
HETATM   13  C20 UNL     1      89.371  89.467 -50.442  1.00  0.00     0.108 C 
BRANCH  11  14
HETATM   14  C5  UNL     1      86.861  86.854 -50.873  1.00  0.00     0.166 C 
BRANCH  14  15
HETATM   15  C4  UNL     1      87.908  85.927 -50.385  1.00  0.00    -0.040 A 
HETATM   16  C3  UNL     1      88.120  85.667 -49.051  1.00  0.00     0.010 A 
HETATM   17  C2  UNL     1      89.100  84.804 -48.613  1.00  0.00     0.024 A 
HETATM   18  C1  UNL     1      89.905  84.168 -49.520  1.00  0.00     0.034 A 
HETATM   19 CL1  UNL     1      91.174  83.053 -49.003  1.00  0.00    -0.084 Cl
HETATM   20  C23 UNL     1      89.712  84.413 -50.866  1.00  0.00     0.024 A 
HETATM   21  C22 UNL     1      88.734  85.272 -51.275  1.00  0.00     0.010 A 
ENDBRANCH  14  15
ENDBRANCH  11  14
ENDBRANCH   7   8
ENDBRANCH   1   7
BRANCH   4  22
HETATM   22  O1  UNL     1      92.068  92.347 -44.320  1.00  0.00    -0.346 OA
BRANCH  22  23
HETATM   23  C13 UNL     1      91.739  92.193 -42.979  1.00  0.00     0.132 C 
HETATM   24  C14 UNL     1      92.207  90.839 -42.488  1.00  0.00     0.060 C 
HETATM   25  C15 UNL     1      93.664  90.774 -42.165  1.00  0.00     0.235 C 
HETATM   26  N3  UNL     1      94.202  91.943 -41.549  1.00  0.00    -0.075 N 
HETATM   27  C16 UNL     1      93.081  92.708 -41.006  1.00  0.00     0.235 C 
ATOM     28  H32 UNL     1      94.914  91.732 -40.850  1.00  0.00     0.277 HD
ATOM     29  H31 UNL     1      94.789  92.490 -42.178  1.00  0.00     0.277 HD
HETATM   30  C17 UNL     1      92.382  93.318 -42.202  1.00  0.00     0.060 C 
ENDBRANCH  22  23
ENDBRANCH   4  22
TORSDOF 6
ENDMDL
MODEL 2
REMARK VINA RESULT: -6.651523493      4.253      6.097
REMARK  6 active torsions:
REMARK  status: ('A' for Active; 'I' for Inactive)
REMARK    1  A    between atoms: C4_5  and  C5_6 
REMARK    2  A    between atoms: C5_6  and  N1_7 
REMARK    3  A    between atoms: N2_10  and  C8_11 
REMARK    4  A    between atoms: C8_11  and  C9_12 
REMARK    5  A    between atoms: C12_15  and  O1_16 
REMARK    6  A    between atoms: O1_16  and  C13_17 
ROOT
HETATM    1  C9  UNL     1      91.398  92.693 -44.849  1.00  0.00    -0.040 A 
HETATM    2  C10 UNL     1      91.201  93.798 -45.621  1.00  0.00     0.011 A 
HETATM    3  C11 UNL     1      91.046  95.030 -45.051  1.00  0.00     0.037 A 
HETATM    4  C12 UNL     1      91.077  95.224 -43.670  1.00  0.00     0.069 A 
HETATM    5  C18 UNL     1      91.278  94.077 -42.929  1.00  0.00     0.037 A 
HETATM    6  C19 UNL     1      91.436  92.833 -43.493  1.00  0.00     0.011 A 
ENDROOT
BRANCH   1   7
HETATM    7  C8  UNL     1      91.564  91.399 -45.515  1.00  0.00     0.166 C 
BRANCH   7   8
HETATM    8  N2  UNL     1      91.155  91.302 -46.861  1.00  0.00    -0.360 N 
HETATM    9  C7  UNL     1      91.960  90.596 -47.775  1.00  0.00     0.108 C 
HETATM   10  C6  UNL     1      91.314  89.262 -48.071  1.00  0.00     0.108 C 
HETATM   11  N1  UNL     1      90.045  89.474 -48.644  1.00  0.00    -0.360 N 
HETATM   12  C21 UNL     1      89.202  90.463 -48.114  1.00  0.00     0.108 C 
HETATM   13  C20 UNL     1      89.787  91.436 -47.164  1.00  0.00     0.108 C 
BRANCH  11  14
HETATM   14  C5  UNL     1      89.938  89.192 -50.037  1.00  0.00     0.166 C 
BRANCH  14  15
HETATM   15  C4  UNL     1      89.706  90.419 -50.834  1.00  0.00    -0.040 A 
HETATM   16  C3  UNL     1      90.645  91.412 -50.977  1.00  0.00     0.010 A 
HETATM   17  C2  UNL     1      90.413  92.548 -51.720  1.00  0.00     0.024 A 
HETATM   18  C1  UNL     1      89.209  92.717 -52.351  1.00  0.00     0.034 A 
HETATM   19 CL1  UNL     1      88.868  94.158 -53.314  1.00  0.00    -0.084 Cl
HETATM   20  C23 UNL     1      88.248  91.733 -52.223  1.00  0.00     0.024 A 
HETATM   21  C22 UNL     1      88.503  90.616 -51.481  1.00  0.00     0.010 A 
ENDBRANCH  14  15
ENDBRANCH  11  14
ENDBRANCH   7   8
ENDBRANCH   1   7
BRANCH   4  22
HETATM   22  O1  UNL     1      90.913  96.481 -43.183  1.00  0.00    -0.346 OA
BRANCH  22  23
HETATM   23  C13 UNL     1      90.804  97.684 -43.868  1.00  0.00     0.132 C 
HETATM   24  C14 UNL     1      89.356  98.123 -43.909  1.00  0.00     0.060 C 
HETATM   25  C15 UNL     1      88.873  98.766 -42.650  1.00  0.00     0.235 C 
HETATM   26  N3  UNL     1      89.821  99.612 -42.000  1.00  0.00    -0.075 N 
HETATM   27  C16 UNL     1      90.847  99.959 -42.981  1.00  0.00     0.235 C 
ATOM     28  H32 UNL     1      89.392 100.430 -41.567  1.00  0.00     0.277 HD
ATOM     29  H31 UNL     1      90.206  99.198 -41.151  1.00  0.00     0.277 HD
HETATM   30  C17 UNL     1      91.674  98.705 -43.172  1.00  0.00     0.060 C 
ENDBRANCH  22  23
ENDBRANCH   4  22
TORSDOF 6
ENDMDL
MODEL 3
REMARK VINA RESULT: -6.565165715      4.457      6.146
REMARK  6 active torsions:
REMARK  status: ('A' for Active; 'I' for Inactive)
REMARK    1  A    between atoms: C4_5  and  C5_6 
REMARK    2  A    between atoms: C5_6  and  N1_7 
REMARK    3  A    between atoms: N2_10  and  C8_11 
REMARK    4  A    between atoms: C8_11  and  C9_12 
REMARK    5  A    between atoms: C12_15  and  O1_16 
REMARK    6  A    between atoms: O1_16  and  C13_17 
ROOT
HETATM    1  C9  UNL     1      89.163  91.368 -48.164  1.00  0.00    -0.040 A 
HETATM    2  C10 UNL     1      89.384  92.641 -47.729  1.00  0.00     0.011 A 
HETATM    3  C11 UNL     1      90.198  92.881 -46.658  1.00  0.00     0.037 A 
HETATM    4  C12 UNL     1      90.838  91.857 -45.960  1.00  0.00     0.069 A 
HETATM    5  C18 UNL     1      90.585  90.586 -46.437  1.00  0.00     0.037 A 
HETATM    6  C19 UNL     1      89.767  90.334 -47.514  1.00  0.00     0.011 A 
ENDROOT
BRANCH   1   7
HETATM    7  C8  UNL     1      88.285  91.171 -49.320  1.00  0.00     0.166 C 
BRANCH   7   8
HETATM    8  N2  UNL     1      88.816  91.447 -50.596  1.00  0.00    -0.360 N 
HETATM    9  C7  UNL     1      88.261  92.492 -51.361  1.00  0.00     0.108 C 
HETATM   10  C6  UNL     1      89.203  93.674 -51.333  1.00  0.00     0.108 C 
HETATM   11  N1  UNL     1      90.439  93.301 -51.894  1.00  0.00    -0.360 N 
HETATM   12  C21 UNL     1      91.002  92.058 -51.565  1.00  0.00     0.108 C 
HETATM   13  C20 UNL     1      90.143  91.070 -50.873  1.00  0.00     0.108 C 
BRANCH  11  14
HETATM   14  C5  UNL     1      90.721  93.832 -53.186  1.00  0.00     0.166 C 
BRANCH  14  15
HETATM   15  C4  UNL     1      92.165  93.772 -53.508  1.00  0.00    -0.040 A 
HETATM   16  C3  UNL     1      93.143  94.248 -52.667  1.00  0.00     0.010 A 
HETATM   17  C2  UNL     1      94.483  94.188 -52.982  1.00  0.00     0.024 A 
HETATM   18  C1  UNL     1      94.880  93.637 -54.172  1.00  0.00     0.034 A 
HETATM   19 CL1  UNL     1      96.586  93.539 -54.616  1.00  0.00    -0.084 Cl
HETATM   20  C23 UNL     1      93.916  93.152 -55.034  1.00  0.00     0.024 A 
HETATM   21  C22 UNL     1      92.595  93.224 -54.699  1.00  0.00     0.010 A 
ENDBRANCH  14  15
ENDBRANCH  11  14
ENDBRANCH   7   8
ENDBRANCH   1   7
BRANCH   4  22
HETATM   22  O1  UNL     1      91.630  92.180 -44.906  1.00  0.00    -0.346 OA
BRANCH  22  23
HETATM   23  C13 UNL     1      91.320  92.231 -43.553  1.00  0.00     0.132 C 
HETATM   24  C14 UNL     1      91.827  90.983 -42.863  1.00  0.00     0.060 C 
HETATM   25  C15 UNL     1      93.288  91.002 -42.555  1.00  0.00     0.235 C 
HETATM   26  N3  UNL     1      93.804  92.266 -42.137  1.00  0.00    -0.075 N 
HETATM   27  C16 UNL     1      92.670  93.081 -41.705  1.00  0.00     0.235 C 
ATOM     28  H32 UNL     1      94.529  92.184 -41.425  1.00  0.00     0.277 HD
ATOM     29  H31 UNL     1      94.370  92.720 -42.853  1.00  0.00     0.277 HD
HETATM   30  C17 UNL     1      91.943  93.479 -42.971  1.00  0.00     0.060 C 
ENDBRANCH  22  23
ENDBRANCH   4  22
TORSDOF 6
ENDMDL
MODEL 4
REMARK VINA RESULT: -6.559982995      4.490      6.329
REMARK  6 active torsions:
REMARK  status: ('A' for Active; 'I' for Inactive)
REMARK    1  A    between atoms: C4_5  and  C5_6 
REMARK    2  A    between atoms: C5_6  and  N1_7 
REMARK    3  A    between atoms: N2_10  and  C8_11 
REMARK    4  A    between atoms: C8_11  and  C9_12 
REMARK    5  A    between atoms: C12_15  and  O1_16 
REMARK    6  A    between atoms: O1_16  and  C13_17 
ROOT
HETATM    1  C9  UNL     1      89.657  91.838 -47.524  1.00  0.00    -0.040 A 
HETATM    2  C10 UNL     1      90.040  92.952 -46.840  1.00  0.00     0.011 A 
HETATM    3  C11 UNL     1      90.880  92.858 -45.766  1.00  0.00     0.037 A 
HETATM    4  C12 UNL     1      91.384  91.637 -45.315  1.00  0.00     0.069 A 
HETATM    5  C18 UNL     1      90.968  90.538 -46.039  1.00  0.00     0.037 A 
HETATM    6  C19 UNL     1      90.124  90.622 -47.121  1.00  0.00     0.011 A 
ENDROOT
BRANCH   1   7
HETATM    7  C8  UNL     1      88.759  91.999 -48.670  1.00  0.00     0.166 C 
BRANCH   7   8
HETATM    8  N2  UNL     1      89.271  92.650 -49.812  1.00  0.00    -0.360 N 
HETATM    9  C7  UNL     1      90.270  92.016 -50.575  1.00  0.00     0.108 C 
HETATM   10  C6  UNL     1      89.653  91.485 -51.848  1.00  0.00     0.108 C 
HETATM   11  N1  UNL     1      89.117  92.556 -52.590  1.00  0.00    -0.360 N 
HETATM   12  C21 UNL     1      88.398  93.564 -51.930  1.00  0.00     0.108 C 
HETATM   13  C20 UNL     1      88.475  93.617 -50.453  1.00  0.00     0.108 C 
BRANCH  11  14
HETATM   14  C5  UNL     1      89.839  92.920 -53.764  1.00  0.00     0.166 C 
BRANCH  14  15
HETATM   15  C4  UNL     1      90.927  93.880 -53.471  1.00  0.00    -0.040 A 
HETATM   16  C3  UNL     1      92.194  93.493 -53.106  1.00  0.00     0.010 A 
HETATM   17  C2  UNL     1      93.195  94.399 -52.834  1.00  0.00     0.024 A 
HETATM   18  C1  UNL     1      92.942  95.743 -52.925  1.00  0.00     0.034 A 
HETATM   19 CL1  UNL     1      94.196  96.940 -52.586  1.00  0.00    -0.084 Cl
HETATM   20  C23 UNL     1      91.676  96.158 -53.291  1.00  0.00     0.024 A 
HETATM   21  C22 UNL     1      90.702  95.239 -53.555  1.00  0.00     0.010 A 
ENDBRANCH  14  15
ENDBRANCH  11  14
ENDBRANCH   7   8
ENDBRANCH   1   7
BRANCH   4  22
HETATM   22  O1  UNL     1      92.213  91.630 -44.240  1.00  0.00    -0.346 OA
BRANCH  22  23
HETATM   23  C13 UNL     1      91.906  91.743 -42.890  1.00  0.00     0.132 C 
HETATM   24  C14 UNL     1      92.399  90.520 -42.147  1.00  0.00     0.060 C 
HETATM   25  C15 UNL     1      93.862  90.534 -41.843  1.00  0.00     0.235 C 
HETATM   26  N3  UNL     1      94.394  91.808 -41.481  1.00  0.00    -0.075 N 
HETATM   27  C16 UNL     1      93.272  92.655 -41.083  1.00  0.00     0.235 C 
ATOM     28  H32 UNL     1      95.119  91.748 -40.768  1.00  0.00     0.277 HD
ATOM     29  H31 UNL     1      94.964  92.224 -42.217  1.00  0.00     0.277 HD
HETATM   30  C17 UNL     1      92.547  93.007 -42.364  1.00  0.00     0.060 C 
ENDBRANCH  22  23
ENDBRANCH   4  22
TORSDOF 6
ENDMDL
MODEL 5
REMARK VINA RESULT: -6.536230158      3.450      9.286
REMARK  6 active torsions:
REMARK  status: ('A' for Active; 'I' for Inactive)
REMARK    1  A    between atoms: C4_5  and  C5_6 
REMARK    2  A    between atoms: C5_6  and  N1_7 
REMARK    3  A    between atoms: N2_10  and  C8_11 
REMARK    4  A    between atoms: C8_11  and  C9_12 
REMARK    5  A    between atoms: C12_15  and  O1_16 
REMARK    6  A    between atoms: O1_16  and  C13_17 
ROOT
HETATM    1  C9  UNL     1      89.815  89.394 -49.703  1.00  0.00    -0.040 A 
HETATM    2  C10 UNL     1      90.280  88.212 -49.209  1.00  0.00     0.011 A 
HETATM    3  C11 UNL     1      89.761  87.023 -49.638  1.00  0.00     0.037 A 
HETATM    4  C12 UNL     1      88.742  86.951 -50.589  1.00  0.00     0.069 A 
HETATM    5  C18 UNL     1      88.304  88.173 -51.059  1.00  0.00     0.037 A 
HETATM    6  C19 UNL     1      88.819  89.374 -50.634  1.00  0.00     0.011 A 
ENDROOT
BRANCH   1   7
HETATM    7  C8  UNL     1      90.412  90.637 -49.210  1.00  0.00     0.166 C 
BRANCH   7   8
HETATM    8  N2  UNL     1      89.991  91.107 -47.949  1.00  0.00    -0.360 N 
HETATM    9  C7  UNL     1      90.477  90.482 -46.785  1.00  0.00     0.108 C 
HETATM   10  C6  UNL     1      91.514  91.376 -46.144  1.00  0.00     0.108 C 
HETATM   11  N1  UNL     1      90.920  92.604 -45.792  1.00  0.00    -0.360 N 
HETATM   12  C21 UNL     1      90.037  93.227 -46.688  1.00  0.00     0.108 C 
HETATM   13  C20 UNL     1      89.542  92.437 -47.838  1.00  0.00     0.108 C 
BRANCH  11  14
HETATM   14  C5  UNL     1      90.704  92.813 -44.399  1.00  0.00     0.166 C 
BRANCH  14  15
HETATM   15  C4  UNL     1      91.744  92.160 -43.573  1.00  0.00    -0.040 A 
HETATM   16  C3  UNL     1      91.546  90.968 -42.918  1.00  0.00     0.010 A 
HETATM   17  C2  UNL     1      92.523  90.374 -42.150  1.00  0.00     0.024 A 
HETATM   18  C1  UNL     1      93.748  90.974 -42.020  1.00  0.00     0.034 A 
HETATM   19 CL1  UNL     1      95.030  90.248 -41.046  1.00  0.00    -0.084 Cl
HETATM   20  C23 UNL     1      93.972  92.174 -42.668  1.00  0.00     0.024 A 
HETATM   21  C22 UNL     1      92.987  92.741 -43.423  1.00  0.00     0.010 A 
ENDBRANCH  14  15
ENDBRANCH  11  14
ENDBRANCH   7   8
ENDBRANCH   1   7
BRANCH   4  22
HETATM   22  O1  UNL     1      88.281  85.729 -50.960  1.00  0.00    -0.346 OA
BRANCH  22  23
HETATM   23  C13 UNL     1      87.692  84.737 -50.188  1.00  0.00     0.132 C 
HETATM   24  C14 UNL     1      86.565  85.328 -49.367  1.00  0.00     0.060 C 
HETATM   25  C15 UNL     1      85.294  85.530 -50.124  1.00  0.00     0.235 C 
HETATM   26  N3  UNL     1      84.981  84.507 -51.069  1.00  0.00    -0.075 N 
HETATM   27  C16 UNL     1      85.769  83.327 -50.716  1.00  0.00     0.235 C 
ATOM     28  H32 UNL     1      83.982  84.313 -51.130  1.00  0.00     0.277 HD
ATOM     29  H31 UNL     1      85.119  84.802 -52.035  1.00  0.00     0.277 HD
HETATM   30  C17 UNL     1      87.194  83.651 -51.113  1.00  0.00     0.060 C 
ENDBRANCH  22  23
ENDBRANCH   4  22
TORSDOF 6
ENDMDL
