MODEL 1
REMARK VINA RESULT: -6.442538822      0.000      0.000
REMARK  6 active torsions:
REMARK  status: ('A' for Active; 'I' for Inactive)
REMARK    1  A    between atoms: C2_2  and  O1_3 
REMARK    2  A    between atoms: O1_3  and  C3_4 
REMARK    3  A    between atoms: C3_4  and  C4_6 
REMARK    4  A    between atoms: C4_6  and  C5_7 
REMARK    5  A    between atoms: C5_7  and  C6_8 
REMARK    6  A    between atoms: C6_8  and  C7_9 
ROOT
HETATM    1  C6  UNL     1      90.610  97.248 -44.012  1.00  0.00     0.039 C 
HETATM    2  C8  UNL     1      89.915  96.665 -45.183  1.00  0.00     0.019 C 
HETATM    3  C9  UNL     1      88.678  97.385 -45.649  1.00  0.00     0.001 C 
HETATM    4  C10 UNL     1      87.946  96.453 -46.585  1.00  0.00     0.000 C 
HETATM    5  C11 UNL     1      86.481  96.712 -46.679  1.00  0.00     0.000 C 
HETATM    6  C12 UNL     1      86.094  98.120 -46.925  1.00  0.00     0.000 C 
HETATM    7  C13 UNL     1      84.729  98.358 -46.303  1.00  0.00     0.000 C 
HETATM    8  C14 UNL     1      84.873  98.853 -44.901  1.00  0.00     0.000 C 
HETATM    9  C15 UNL     1      83.997 100.048 -44.609  1.00  0.00     0.009 C 
HETATM   10  C16 UNL     1      84.838 101.304 -44.380  1.00  0.00     0.103 C 
HETATM   11  C17 UNL     1      85.243 101.308 -42.966  1.00  0.00     0.217 C 
HETATM   12  O4  UNL     1      84.331 101.061 -42.110  1.00  0.00    -0.274 OA
HETATM   13  N2  UNL     1      86.531 101.554 -42.478  1.00  0.00    -0.361 N 
ATOM     14  H2  UNL     1      86.607 102.054 -41.592  1.00  0.00     0.162 HD
HETATM   15  C18 UNL     1      87.762 101.162 -43.120  1.00  0.00     0.122 C 
HETATM   16  C19 UNL     1      88.302  99.874 -42.527  1.00  0.00     0.020 C 
HETATM   17  C20 UNL     1      89.549  99.424 -43.296  1.00  0.00     0.003 C 
HETATM   18  C21 UNL     1      89.736  97.947 -43.022  1.00  0.00     0.019 C 
ENDROOT
BRANCH   1  19
HETATM   19  C5  UNL     1      91.375  96.175 -43.261  1.00  0.00     0.028 C 
BRANCH  19  20
HETATM   20  C4  UNL     1      91.172  96.237 -41.778  1.00  0.00     0.112 C 
BRANCH  20  21
HETATM   21  C3  UNL     1      91.542  94.948 -41.139  1.00  0.00     0.258 C 
HETATM   22  O2  UNL     1      90.689  94.174 -40.636  1.00  0.00    -0.265 OA
BRANCH  21  23
HETATM   23  O1  UNL     1      92.870  94.518 -41.059  1.00  0.00    -0.322 OA
BRANCH  23  24
HETATM   24  C2  UNL     1      93.190  93.132 -41.163  1.00  0.00     0.174 C 
HETATM   25  C1  UNL     1      93.058  92.696 -42.590  1.00  0.00     0.034 C 
ENDBRANCH  23  24
ENDBRANCH  21  23
ENDBRANCH  20  21
ENDBRANCH  19  20
ENDBRANCH   1  19
BRANCH   1  26
HETATM   26  C7  UNL     1      91.666  98.199 -44.514  1.00  0.00     0.239 C 
HETATM   27  N1  UNL     1      91.941  98.328 -45.894  1.00  0.00    -0.061 NA
HETATM   28  O3  UNL     1      92.316  98.891 -43.699  1.00  0.00    -0.276 OA
ENDBRANCH   1  26
TORSDOF 6
ENDMDL
MODEL 2
REMARK VINA RESULT: -6.353260770      3.111      7.764
REMARK  6 active torsions:
REMARK  status: ('A' for Active; 'I' for Inactive)
REMARK    1  A    between atoms: C2_2  and  O1_3 
REMARK    2  A    between atoms: O1_3  and  C3_4 
REMARK    3  A    between atoms: C3_4  and  C4_6 
REMARK    4  A    between atoms: C4_6  and  C5_7 
REMARK    5  A    between atoms: C5_7  and  C6_8 
REMARK    6  A    between atoms: C6_8  and  C7_9 
ROOT
HETATM    1  C6  UNL     1      89.824  98.024 -44.011  1.00  0.00     0.039 C 
HETATM    2  C8  UNL     1      90.441  97.840 -42.677  1.00  0.00     0.019 C 
HETATM    3  C9  UNL     1      91.239  96.578 -42.481  1.00  0.00     0.001 C 
HETATM    4  C10 UNL     1      91.462  96.418 -40.997  1.00  0.00     0.000 C 
HETATM    5  C11 UNL     1      91.689  95.009 -40.564  1.00  0.00     0.000 C 
HETATM    6  C12 UNL     1      92.706  94.259 -41.337  1.00  0.00     0.000 C 
HETATM    7  C13 UNL     1      92.338  92.786 -41.308  1.00  0.00     0.000 C 
HETATM    8  C14 UNL     1      91.482  92.439 -42.483  1.00  0.00     0.000 C 
HETATM    9  C15 UNL     1      91.937  91.184 -43.189  1.00  0.00     0.009 C 
HETATM   10  C16 UNL     1      92.478  91.503 -44.584  1.00  0.00     0.103 C 
HETATM   11  C17 UNL     1      91.328  91.551 -45.498  1.00  0.00     0.217 C 
HETATM   12  O4  UNL     1      90.488  90.595 -45.411  1.00  0.00    -0.274 OA
HETATM   13  N2  UNL     1      91.072  92.545 -46.450  1.00  0.00    -0.361 N 
ATOM     14  H2  UNL     1      90.640  92.251 -47.326  1.00  0.00     0.162 HD
HETATM   15  C18 UNL     1      91.368  93.949 -46.299  1.00  0.00     0.122 C 
HETATM   16  C19 UNL     1      90.137  94.723 -45.862  1.00  0.00     0.020 C 
HETATM   17  C20 UNL     1      90.503  96.188 -45.606  1.00  0.00     0.003 C 
HETATM   18  C21 UNL     1      89.423  96.770 -44.719  1.00  0.00     0.019 C 
ENDROOT
BRANCH   1  19
HETATM   19  C5  UNL     1      88.590  98.900 -43.909  1.00  0.00     0.028 C 
BRANCH  19  20
HETATM   20  C4  UNL     1      88.288  99.328 -42.506  1.00  0.00     0.112 C 
BRANCH  20  21
HETATM   21  C3  UNL     1      88.677 100.745 -42.290  1.00  0.00     0.258 C 
HETATM   22  O2  UNL     1      88.149 101.695 -42.924  1.00  0.00    -0.265 OA
BRANCH  21  23
HETATM   23  O1  UNL     1      89.657 101.109 -41.363  1.00  0.00    -0.322 OA
BRANCH  23  24
HETATM   24  C2  UNL     1      90.997 101.354 -41.784  1.00  0.00     0.174 C 
HETATM   25  C1  UNL     1      91.948 100.702 -40.826  1.00  0.00     0.034 C 
ENDBRANCH  23  24
ENDBRANCH  21  23
ENDBRANCH  20  21
ENDBRANCH  19  20
ENDBRANCH   1  19
BRANCH   1  26
HETATM   26  C7  UNL     1      90.784  98.806 -44.872  1.00  0.00     0.239 C 
HETATM   27  N1  UNL     1      90.431  99.217 -46.177  1.00  0.00    -0.061 NA
HETATM   28  O3  UNL     1      91.916  99.101 -44.428  1.00  0.00    -0.276 OA
ENDBRANCH   1  26
TORSDOF 6
ENDMDL
MODEL 3
REMARK VINA RESULT: -6.217454296      2.675      7.871
REMARK  6 active torsions:
REMARK  status: ('A' for Active; 'I' for Inactive)
REMARK    1  A    between atoms: C2_2  and  O1_3 
REMARK    2  A    between atoms: O1_3  and  C3_4 
REMARK    3  A    between atoms: C3_4  and  C4_6 
REMARK    4  A    between atoms: C4_6  and  C5_7 
REMARK    5  A    between atoms: C5_7  and  C6_8 
REMARK    6  A    between atoms: C6_8  and  C7_9 
ROOT
HETATM    1  C6  UNL     1      89.875  98.096 -44.253  1.00  0.00     0.039 C 
HETATM    2  C8  UNL     1      90.442  97.971 -42.890  1.00  0.00     0.019 C 
HETATM    3  C9  UNL     1      91.221  96.714 -42.606  1.00  0.00     0.001 C 
HETATM    4  C10 UNL     1      91.388  96.623 -41.108  1.00  0.00     0.000 C 
HETATM    5  C11 UNL     1      91.587  95.235 -40.601  1.00  0.00     0.000 C 
HETATM    6  C12 UNL     1      92.624  94.440 -41.300  1.00  0.00     0.000 C 
HETATM    7  C13 UNL     1      92.241  92.974 -41.216  1.00  0.00     0.000 C 
HETATM    8  C14 UNL     1      91.425  92.578 -42.404  1.00  0.00     0.000 C 
HETATM    9  C15 UNL     1      91.893  91.287 -43.032  1.00  0.00     0.009 C 
HETATM   10  C16 UNL     1      92.487  91.535 -44.419  1.00  0.00     0.103 C 
HETATM   11  C17 UNL     1      91.371  91.548 -45.377  1.00  0.00     0.217 C 
HETATM   12  O4  UNL     1      90.520  90.605 -45.275  1.00  0.00    -0.274 OA
HETATM   13  N2  UNL     1      91.159  92.498 -46.383  1.00  0.00    -0.361 N 
ATOM     14  H2  UNL     1      90.756  92.166 -47.259  1.00  0.00     0.162 HD
HETATM   15  C18 UNL     1      91.462  93.905 -46.288  1.00  0.00     0.122 C 
HETATM   16  C19 UNL     1      90.224  94.708 -45.933  1.00  0.00     0.020 C 
HETATM   17  C20 UNL     1      90.594  96.181 -45.733  1.00  0.00     0.003 C 
HETATM   18  C21 UNL     1      89.489  96.813 -44.915  1.00  0.00     0.019 C 
ENDROOT
BRANCH   1  19
HETATM   19  C5  UNL     1      88.647  98.985 -44.237  1.00  0.00     0.028 C 
BRANCH  19  20
HETATM   20  C4  UNL     1      87.817  98.819 -43.002  1.00  0.00     0.112 C 
BRANCH  20  21
HETATM   21  C3  UNL     1      86.368  98.848 -43.329  1.00  0.00     0.258 C 
HETATM   22  O2  UNL     1      85.718  99.920 -43.420  1.00  0.00    -0.265 OA
BRANCH  21  23
HETATM   23  O1  UNL     1      85.639  97.677 -43.556  1.00  0.00    -0.322 OA
BRANCH  23  24
HETATM   24  C2  UNL     1      85.057  97.423 -44.832  1.00  0.00     0.174 C 
HETATM   25  C1  UNL     1      85.922  96.466 -45.594  1.00  0.00     0.034 C 
ENDBRANCH  23  24
ENDBRANCH  21  23
ENDBRANCH  20  21
ENDBRANCH  19  20
ENDBRANCH   1  19
BRANCH   1  26
HETATM   26  C7  UNL     1      90.873  98.829 -45.114  1.00  0.00     0.239 C 
HETATM   27  N1  UNL     1      92.178  99.107 -44.650  1.00  0.00    -0.061 NA
HETATM   28  O3  UNL     1      90.546  99.199 -46.264  1.00  0.00    -0.276 OA
ENDBRANCH   1  26
TORSDOF 6
ENDMDL
MODEL 4
REMARK VINA RESULT: -6.128342370      1.525      2.091
REMARK  6 active torsions:
REMARK  status: ('A' for Active; 'I' for Inactive)
REMARK    1  A    between atoms: C2_2  and  O1_3 
REMARK    2  A    between atoms: O1_3  and  C3_4 
REMARK    3  A    between atoms: C3_4  and  C4_6 
REMARK    4  A    between atoms: C4_6  and  C5_7 
REMARK    5  A    between atoms: C5_7  and  C6_8 
REMARK    6  A    between atoms: C6_8  and  C7_9 
ROOT
HETATM    1  C6  UNL     1      91.231  97.667 -42.766  1.00  0.00     0.039 C 
HETATM    2  C8  UNL     1      91.256  96.837 -43.993  1.00  0.00     0.019 C 
HETATM    3  C9  UNL     1      90.093  97.009 -44.935  1.00  0.00     0.001 C 
HETATM    4  C10 UNL     1      90.127  95.848 -45.900  1.00  0.00     0.000 C 
HETATM    5  C11 UNL     1      88.802  95.513 -46.495  1.00  0.00     0.000 C 
HETATM    6  C12 UNL     1      88.049  96.654 -47.066  1.00  0.00     0.000 C 
HETATM    7  C13 UNL     1      86.566  96.351 -46.957  1.00  0.00     0.000 C 
HETATM    8  C14 UNL     1      86.016  96.890 -45.676  1.00  0.00     0.000 C 
HETATM    9  C15 UNL     1      84.727  97.653 -45.866  1.00  0.00     0.009 C 
HETATM   10  C16 UNL     1      84.921  99.142 -45.577  1.00  0.00     0.103 C 
HETATM   11  C17 UNL     1      84.769  99.330 -44.127  1.00  0.00     0.217 C 
HETATM   12  O4  UNL     1      83.767  98.762 -43.579  1.00  0.00    -0.274 OA
HETATM   13  N2  UNL     1      85.620 100.068 -43.297  1.00  0.00    -0.361 N 
ATOM     14  H2  UNL     1      85.193 100.574 -42.522  1.00  0.00     0.162 HD
HETATM   15  C18 UNL     1      87.052 100.176 -43.444  1.00  0.00     0.122 C 
HETATM   16  C19 UNL     1      87.771  99.212 -42.519  1.00  0.00     0.020 C 
HETATM   17  C20 UNL     1      89.281  99.270 -42.771  1.00  0.00     0.003 C 
HETATM   18  C21 UNL     1      89.875  97.988 -42.227  1.00  0.00     0.019 C 
ENDROOT
BRANCH   1  19
HETATM   19  C5  UNL     1      92.012  96.992 -41.654  1.00  0.00     0.028 C 
BRANCH  19  20
HETATM   20  C4  UNL     1      91.242  95.903 -40.973  1.00  0.00     0.112 C 
BRANCH  20  21
HETATM   21  C3  UNL     1      91.833  94.573 -41.266  1.00  0.00     0.258 C 
HETATM   22  O2  UNL     1      93.029  94.291 -40.997  1.00  0.00    -0.265 OA
BRANCH  21  23
HETATM   23  O1  UNL     1      91.091  93.550 -41.863  1.00  0.00    -0.322 OA
BRANCH  23  24
HETATM   24  C2  UNL     1      91.732  92.572 -42.679  1.00  0.00     0.174 C 
HETATM   25  C1  UNL     1      91.914  93.117 -44.062  1.00  0.00     0.034 C 
ENDBRANCH  23  24
ENDBRANCH  21  23
ENDBRANCH  20  21
ENDBRANCH  19  20
ENDBRANCH   1  19
BRANCH   1  26
HETATM   26  C7  UNL     1      91.980  98.945 -43.045  1.00  0.00     0.239 C 
HETATM   27  N1  UNL     1      92.038  99.985 -42.090  1.00  0.00    -0.061 NA
HETATM   28  O3  UNL     1      92.566  99.094 -44.140  1.00  0.00    -0.276 OA
ENDBRANCH   1  26
TORSDOF 6
ENDMDL
MODEL 5
REMARK VINA RESULT: -6.008834574      1.171      1.318
REMARK  6 active torsions:
REMARK  status: ('A' for Active; 'I' for Inactive)
REMARK    1  A    between atoms: C2_2  and  O1_3 
REMARK    2  A    between atoms: O1_3  and  C3_4 
REMARK    3  A    between atoms: C3_4  and  C4_6 
REMARK    4  A    between atoms: C4_6  and  C5_7 
REMARK    5  A    between atoms: C5_7  and  C6_8 
REMARK    6  A    between atoms: C6_8  and  C7_9 
ROOT
HETATM    1  C6  UNL     1      90.470  97.098 -44.205  1.00  0.00     0.039 C 
HETATM    2  C8  UNL     1      89.881  96.666 -45.494  1.00  0.00     0.019 C 
HETATM    3  C9  UNL     1      88.667  97.427 -45.959  1.00  0.00     0.001 C 
HETATM    4  C10 UNL     1      88.030  96.617 -47.063  1.00  0.00     0.000 C 
HETATM    5  C11 UNL     1      86.571  96.869 -47.238  1.00  0.00     0.000 C 
HETATM    6  C12 UNL     1      86.175  98.294 -47.330  1.00  0.00     0.000 C 
HETATM    7  C13 UNL     1      84.762  98.432 -46.793  1.00  0.00     0.000 C 
HETATM    8  C14 UNL     1      84.786  98.742 -45.331  1.00  0.00     0.000 C 
HETATM    9  C15 UNL     1      83.864  99.878 -44.958  1.00  0.00     0.009 C 
HETATM   10  C16 UNL     1      84.659 101.104 -44.502  1.00  0.00     0.103 C 
HETATM   11  C17 UNL     1      84.953 100.927 -43.073  1.00  0.00     0.217 C 
HETATM   12  O4  UNL     1      83.983 100.561 -42.330  1.00  0.00    -0.274 OA
HETATM   13  N2  UNL     1      86.194 101.122 -42.456  1.00  0.00    -0.361 N 
ATOM     14  H2  UNL     1      86.190 101.503 -41.510  1.00  0.00     0.162 HD
HETATM   15  C18 UNL     1      87.479 100.831 -43.043  1.00  0.00     0.122 C 
HETATM   16  C19 UNL     1      87.999  99.482 -42.581  1.00  0.00     0.020 C 
HETATM   17  C20 UNL     1      89.310  99.151 -43.300  1.00  0.00     0.003 C 
HETATM   18  C21 UNL     1      89.507  97.653 -43.205  1.00  0.00     0.019 C 
ENDROOT
BRANCH   1  19
HETATM   19  C5  UNL     1      91.198  95.946 -43.541  1.00  0.00     0.028 C 
BRANCH  19  20
HETATM   20  C4  UNL     1      91.178  94.690 -44.356  1.00  0.00     0.112 C 
BRANCH  20  21
HETATM   21  C3  UNL     1      91.596  93.521 -43.540  1.00  0.00     0.258 C 
HETATM   22  O2  UNL     1      90.858  93.019 -42.653  1.00  0.00    -0.265 OA
BRANCH  21  23
HETATM   23  O1  UNL     1      92.840  92.908 -43.710  1.00  0.00    -0.322 OA
BRANCH  23  24
HETATM   24  C2  UNL     1      93.006  91.518 -43.441  1.00  0.00     0.174 C 
HETATM   25  C1  UNL     1      94.274  91.306 -42.673  1.00  0.00     0.034 C 
ENDBRANCH  23  24
ENDBRANCH  21  23
ENDBRANCH  20  21
ENDBRANCH  19  20
ENDBRANCH   1  19
BRANCH   1  26
HETATM   26  C7  UNL     1      91.542  98.118 -44.494  1.00  0.00     0.239 C 
HETATM   27  N1  UNL     1      91.942  98.406 -45.818  1.00  0.00    -0.061 NA
HETATM   28  O3  UNL     1      92.090  98.727 -43.549  1.00  0.00    -0.276 OA
ENDBRANCH   1  26
TORSDOF 6
ENDMDL
