MODEL 1
REMARK VINA RESULT: -6.580347473      0.000      0.000
REMARK  7 active torsions:
REMARK  status: ('A' for Active; 'I' for Inactive)
REMARK    1  A    between atoms: C2_2  and  C3_3 
REMARK    2  A    between atoms: C2_2  and  C17_20 
REMARK    3  A    between atoms: C3_3  and  C4_4 
REMARK    4  A    between atoms: C9_10  and  C11_12 
REMARK    5  A    between atoms: C17_20  and  O4_22 
REMARK    6  A    between atoms: O4_22  and  C18_23 
REMARK    7  A    between atoms: C18_23  and  C21_26 
ROOT
HETATM    1  C4  UNL     1      90.873  91.794 -47.709  1.00  0.00    -0.005 C 
HETATM    2  C5  UNL     1      91.893  90.894 -47.117  1.00  0.00     0.008 C 
HETATM    3  C6  UNL     1      92.369  89.801 -48.040  1.00  0.00     0.038 C 
HETATM    4  C7  UNL     1      91.254  89.018 -48.660  1.00  0.00     0.176 C 
HETATM    5  F1  UNL     1      91.141  87.787 -48.012  1.00  0.00    -0.249 F 
HETATM    6  C8  UNL     1      89.905  89.658 -48.648  1.00  0.00     0.047 C 
HETATM    7  C9  UNL     1      89.064  89.036 -49.702  1.00  0.00     0.052 C 
HETATM    8  C10 UNL     1      89.438  87.543 -49.914  1.00  0.00     0.027 C 
HETATM    9  C12 UNL     1      89.100  89.633 -51.056  1.00  0.00     0.020 C 
HETATM   10  C13 UNL     1      89.566  91.027 -51.201  1.00  0.00     0.002 C 
HETATM   11  C14 UNL     1      90.511  91.526 -50.145  1.00  0.00     0.010 C 
HETATM   12  C15 UNL     1      89.990  91.155 -48.738  1.00  0.00    -0.033 C 
HETATM   13  C16 UNL     1      88.651  91.830 -48.691  1.00  0.00     0.016 C 
ENDROOT
BRANCH   1  14
HETATM   14  C3  UNL     1      90.158  92.549 -46.656  1.00  0.00     0.019 C 
BRANCH  14  15
HETATM   15  C2  UNL     1      90.891  93.446 -45.751  1.00  0.00     0.082 C 
HETATM   16  C1  UNL     1      90.953  93.185 -44.305  1.00  0.00     0.020 C 
BRANCH  15  17
HETATM   17  C17 UNL     1      90.311  94.837 -45.935  1.00  0.00     0.263 C 
HETATM   18  O3  UNL     1      89.098  95.000 -46.196  1.00  0.00    -0.265 OA
BRANCH  17  19
HETATM   19  O4  UNL     1      91.108  95.942 -45.820  1.00  0.00    -0.301 OA
BRANCH  19  20
HETATM   20  C18 UNL     1      90.877  97.044 -45.002  1.00  0.00     0.141 C 
HETATM   21  C19 UNL     1      90.763  96.707 -43.543  1.00  0.00     0.056 C 
HETATM   22  C20 UNL     1      92.095  97.966 -45.140  1.00  0.00     0.056 C 
BRANCH  20  23
HETATM   23  C21 UNL     1      89.663  97.806 -45.404  1.00  0.00     0.265 C 
HETATM   24  N1  UNL     1      89.625  98.408 -46.690  1.00  0.00    -0.059 NA
HETATM   25  O5  UNL     1      88.665  97.937 -44.642  1.00  0.00    -0.273 OA
ENDBRANCH  20  23
ENDBRANCH  19  20
ENDBRANCH  17  19
ENDBRANCH  15  17
ENDBRANCH  14  15
ENDBRANCH   1  14
BRANCH   7  26
HETATM   26  C11 UNL     1      87.628  88.863 -49.263  1.00  0.00     0.182 C 
HETATM   27  O1  UNL     1      87.427  88.174 -48.247  1.00  0.00    -0.647 OA
HETATM   28  O2  UNL     1      86.571  89.420 -49.933  1.00  0.00    -0.647 OA
ENDBRANCH   7  26
TORSDOF 7
ENDMDL
MODEL 2
REMARK VINA RESULT: -6.538596332      0.980      1.278
REMARK  7 active torsions:
REMARK  status: ('A' for Active; 'I' for Inactive)
REMARK    1  A    between atoms: C2_2  and  C3_3 
REMARK    2  A    between atoms: C2_2  and  C17_20 
REMARK    3  A    between atoms: C3_3  and  C4_4 
REMARK    4  A    between atoms: C9_10  and  C11_12 
REMARK    5  A    between atoms: C17_20  and  O4_22 
REMARK    6  A    between atoms: O4_22  and  C18_23 
REMARK    7  A    between atoms: C18_23  and  C21_26 
ROOT
HETATM    1  C4  UNL     1      90.880  91.770 -47.737  1.00  0.00    -0.005 C 
HETATM    2  C5  UNL     1      91.903  90.872 -47.148  1.00  0.00     0.008 C 
HETATM    3  C6  UNL     1      92.376  89.778 -48.070  1.00  0.00     0.038 C 
HETATM    4  C7  UNL     1      91.260  88.993 -48.685  1.00  0.00     0.176 C 
HETATM    5  F1  UNL     1      91.151  87.763 -48.034  1.00  0.00    -0.249 F 
HETATM    6  C8  UNL     1      89.910  89.631 -48.669  1.00  0.00     0.047 C 
HETATM    7  C9  UNL     1      89.065  89.007 -49.718  1.00  0.00     0.052 C 
HETATM    8  C10 UNL     1      89.440  87.514 -49.929  1.00  0.00     0.027 C 
HETATM    9  C12 UNL     1      89.096  89.602 -51.073  1.00  0.00     0.020 C 
HETATM   10  C13 UNL     1      89.559  90.996 -51.223  1.00  0.00     0.002 C 
HETATM   11  C14 UNL     1      90.509  91.498 -50.171  1.00  0.00     0.010 C 
HETATM   12  C15 UNL     1      89.994  91.129 -48.762  1.00  0.00    -0.033 C 
HETATM   13  C16 UNL     1      88.654  91.803 -48.710  1.00  0.00     0.016 C 
ENDROOT
BRANCH   1  14
HETATM   14  C3  UNL     1      90.169  92.527 -46.682  1.00  0.00     0.019 C 
BRANCH  14  15
HETATM   15  C2  UNL     1      90.910  93.393 -45.755  1.00  0.00     0.082 C 
HETATM   16  C1  UNL     1      90.908  93.136 -44.307  1.00  0.00     0.020 C 
BRANCH  15  17
HETATM   17  C17 UNL     1      90.403  94.808 -45.964  1.00  0.00     0.263 C 
HETATM   18  O3  UNL     1      89.264  95.021 -46.437  1.00  0.00    -0.265 OA
BRANCH  17  19
HETATM   19  O4  UNL     1      91.185  95.881 -45.637  1.00  0.00    -0.301 OA
BRANCH  19  20
HETATM   20  C18 UNL     1      90.826  96.943 -44.812  1.00  0.00     0.141 C 
HETATM   21  C19 UNL     1      89.415  97.418 -45.010  1.00  0.00     0.056 C 
HETATM   22  C20 UNL     1      90.914  96.434 -43.367  1.00  0.00     0.056 C 
BRANCH  20  23
HETATM   23  C21 UNL     1      91.739  98.109 -44.956  1.00  0.00     0.265 C 
HETATM   24  N1  UNL     1      92.052  98.882 -43.806  1.00  0.00    -0.059 NA
HETATM   25  O5  UNL     1      92.248  98.436 -46.064  1.00  0.00    -0.273 OA
ENDBRANCH  20  23
ENDBRANCH  19  20
ENDBRANCH  17  19
ENDBRANCH  15  17
ENDBRANCH  14  15
ENDBRANCH   1  14
BRANCH   7  26
HETATM   26  C11 UNL     1      87.632  88.833 -49.273  1.00  0.00     0.182 C 
HETATM   27  O1  UNL     1      87.437  88.157 -48.248  1.00  0.00    -0.647 OA
HETATM   28  O2  UNL     1      86.570  89.378 -49.948  1.00  0.00    -0.647 OA
ENDBRANCH   7  26
TORSDOF 7
ENDMDL
MODEL 3
REMARK VINA RESULT: -6.428052191      5.388      9.009
REMARK  7 active torsions:
REMARK  status: ('A' for Active; 'I' for Inactive)
REMARK    1  A    between atoms: C2_2  and  C3_3 
REMARK    2  A    between atoms: C2_2  and  C17_20 
REMARK    3  A    between atoms: C3_3  and  C4_4 
REMARK    4  A    between atoms: C9_10  and  C11_12 
REMARK    5  A    between atoms: C17_20  and  O4_22 
REMARK    6  A    between atoms: O4_22  and  C18_23 
REMARK    7  A    between atoms: C18_23  and  C21_26 
ROOT
HETATM    1  C4  UNL     1      90.624  96.120 -44.973  1.00  0.00    -0.005 C 
HETATM    2  C5  UNL     1      89.563  95.736 -45.936  1.00  0.00     0.008 C 
HETATM    3  C6  UNL     1      89.030  96.879 -46.762  1.00  0.00     0.038 C 
HETATM    4  C7  UNL     1      88.613  98.061 -45.945  1.00  0.00     0.176 C 
HETATM    5  F1  UNL     1      87.221  98.086 -45.851  1.00  0.00    -0.249 F 
HETATM    6  C8  UNL     1      89.158  98.136 -44.557  1.00  0.00     0.047 C 
HETATM    7  C9  UNL     1      89.089  99.541 -44.083  1.00  0.00     0.052 C 
HETATM    8  C10 UNL     1      87.870 100.283 -44.698  1.00  0.00     0.027 C 
HETATM    9  C12 UNL     1      90.247 100.420 -44.358  1.00  0.00     0.020 C 
HETATM   10  C13 UNL     1      91.554  99.798 -44.649  1.00  0.00     0.002 C 
HETATM   11  C14 UNL     1      91.515  98.416 -45.240  1.00  0.00     0.010 C 
HETATM   12  C15 UNL     1      90.527  97.524 -44.456  1.00  0.00    -0.033 C 
HETATM   13  C16 UNL     1      91.088  97.549 -43.064  1.00  0.00     0.016 C 
ENDROOT
BRANCH   1  14
HETATM   14  C3  UNL     1      90.795  95.082 -43.932  1.00  0.00     0.019 C 
BRANCH  14  15
HETATM   15  C2  UNL     1      91.494  93.826 -44.237  1.00  0.00     0.082 C 
HETATM   16  C1  UNL     1      91.184  93.058 -45.453  1.00  0.00     0.020 C 
BRANCH  15  17
HETATM   17  C17 UNL     1      91.285  92.900 -43.053  1.00  0.00     0.263 C 
HETATM   18  O3  UNL     1      90.426  93.154 -42.179  1.00  0.00    -0.265 OA
BRANCH  17  19
HETATM   19  O4  UNL     1      92.035  91.764 -42.919  1.00  0.00    -0.301 OA
BRANCH  19  20
HETATM   20  C18 UNL     1      93.298  91.674 -42.341  1.00  0.00     0.141 C 
HETATM   21  C19 UNL     1      94.427  91.909 -43.304  1.00  0.00     0.056 C 
HETATM   22  C20 UNL     1      93.388  92.787 -41.289  1.00  0.00     0.056 C 
BRANCH  20  23
HETATM   23  C21 UNL     1      93.522  90.368 -41.664  1.00  0.00     0.265 C 
HETATM   24  N1  UNL     1      92.466  89.419 -41.634  1.00  0.00    -0.059 NA
HETATM   25  O5  UNL     1      94.620  90.073 -41.114  1.00  0.00    -0.273 OA
ENDBRANCH  20  23
ENDBRANCH  19  20
ENDBRANCH  17  19
ENDBRANCH  15  17
ENDBRANCH  14  15
ENDBRANCH   1  14
BRANCH   7  26
HETATM   26  C11 UNL     1      88.715  99.637 -42.623  1.00  0.00     0.182 C 
HETATM   27  O1  UNL     1      87.835  98.860 -42.212  1.00  0.00    -0.647 OA
HETATM   28  O2  UNL     1      89.296 100.531 -41.761  1.00  0.00    -0.647 OA
ENDBRANCH   7  26
TORSDOF 7
ENDMDL
MODEL 4
REMARK VINA RESULT: -6.351781249      5.625      9.457
REMARK  7 active torsions:
REMARK  status: ('A' for Active; 'I' for Inactive)
REMARK    1  A    between atoms: C2_2  and  C3_3 
REMARK    2  A    between atoms: C2_2  and  C17_20 
REMARK    3  A    between atoms: C3_3  and  C4_4 
REMARK    4  A    between atoms: C9_10  and  C11_12 
REMARK    5  A    between atoms: C17_20  and  O4_22 
REMARK    6  A    between atoms: O4_22  and  C18_23 
REMARK    7  A    between atoms: C18_23  and  C21_26 
ROOT
HETATM    1  C4  UNL     1      91.414  97.865 -43.925  1.00  0.00    -0.005 C 
HETATM    2  C5  UNL     1      92.194  98.171 -45.150  1.00  0.00     0.008 C 
HETATM    3  C6  UNL     1      92.457  99.638 -45.368  1.00  0.00     0.038 C 
HETATM    4  C7  UNL     1      91.224 100.483 -45.289  1.00  0.00     0.176 C 
HETATM    5  F1  UNL     1      90.825 100.835 -46.579  1.00  0.00    -0.249 F 
HETATM    6  C8  UNL     1      90.045  99.876 -44.603  1.00  0.00     0.047 C 
HETATM    7  C9  UNL     1      89.130 100.959 -44.162  1.00  0.00     0.052 C 
HETATM    8  C10 UNL     1      89.182 102.171 -45.132  1.00  0.00     0.027 C 
HETATM    9  C12 UNL     1      89.345 101.539 -42.818  1.00  0.00     0.020 C 
HETATM   10  C13 UNL     1      90.105 100.756 -41.823  1.00  0.00     0.002 C 
HETATM   11  C14 UNL     1      91.095  99.767 -42.371  1.00  0.00     0.010 C 
HETATM   12  C15 UNL     1      90.454  98.936 -43.505  1.00  0.00    -0.033 C 
HETATM   13  C16 UNL     1      89.291  98.280 -42.820  1.00  0.00     0.016 C 
ENDROOT
BRANCH   1  14
HETATM   14  C3  UNL     1      90.840  96.502 -43.990  1.00  0.00     0.019 C 
BRANCH  14  15
HETATM   15  C2  UNL     1      90.760  95.785 -45.270  1.00  0.00     0.082 C 
HETATM   16  C1  UNL     1      89.469  95.563 -45.939  1.00  0.00     0.020 C 
BRANCH  15  17
HETATM   17  C17 UNL     1      91.399  94.424 -45.059  1.00  0.00     0.263 C 
HETATM   18  O3  UNL     1      91.204  93.488 -45.867  1.00  0.00    -0.265 OA
BRANCH  17  19
HETATM   19  O4  UNL     1      92.204  94.195 -43.977  1.00  0.00    -0.301 OA
BRANCH  19  20
HETATM   20  C18 UNL     1      92.045  93.188 -43.030  1.00  0.00     0.141 C 
HETATM   21  C19 UNL     1      90.725  92.476 -43.113  1.00  0.00     0.056 C 
HETATM   22  C20 UNL     1      93.124  92.134 -43.313  1.00  0.00     0.056 C 
BRANCH  20  23
HETATM   23  C21 UNL     1      92.225  93.682 -41.638  1.00  0.00     0.265 C 
HETATM   24  N1  UNL     1      91.123  94.285 -40.975  1.00  0.00    -0.059 NA
HETATM   25  O5  UNL     1      93.324  93.584 -41.024  1.00  0.00    -0.273 OA
ENDBRANCH  20  23
ENDBRANCH  19  20
ENDBRANCH  17  19
ENDBRANCH  15  17
ENDBRANCH  14  15
ENDBRANCH   1  14
BRANCH   7  26
HETATM   26  C11 UNL     1      87.676 100.584 -44.325  1.00  0.00     0.182 C 
HETATM   27  O1  UNL     1      87.338 100.092 -45.416  1.00  0.00    -0.647 OA
HETATM   28  O2  UNL     1      86.742 100.769 -43.339  1.00  0.00    -0.647 OA
ENDBRANCH   7  26
TORSDOF 7
ENDMDL
MODEL 5
REMARK VINA RESULT: -6.319256244      5.889      9.590
REMARK  7 active torsions:
REMARK  status: ('A' for Active; 'I' for Inactive)
REMARK    1  A    between atoms: C2_2  and  C3_3 
REMARK    2  A    between atoms: C2_2  and  C17_20 
REMARK    3  A    between atoms: C3_3  and  C4_4 
REMARK    4  A    between atoms: C9_10  and  C11_12 
REMARK    5  A    between atoms: C17_20  and  O4_22 
REMARK    6  A    between atoms: O4_22  and  C18_23 
REMARK    7  A    between atoms: C18_23  and  C21_26 
ROOT
HETATM    1  C4  UNL     1      90.861  96.711 -44.536  1.00  0.00    -0.005 C 
HETATM    2  C5  UNL     1      89.756  96.540 -45.511  1.00  0.00     0.008 C 
HETATM    3  C6  UNL     1      89.471  97.760 -46.348  1.00  0.00     0.038 C 
HETATM    4  C7  UNL     1      89.290  99.007 -45.541  1.00  0.00     0.176 C 
HETATM    5  F1  UNL     1      87.930  99.311 -45.464  1.00  0.00    -0.249 F 
HETATM    6  C8  UNL     1      89.824  98.981 -44.148  1.00  0.00     0.047 C 
HETATM    7  C9  UNL     1      90.032 100.376 -43.681  1.00  0.00     0.052 C 
HETATM    8  C10 UNL     1      88.993 101.342 -44.314  1.00  0.00     0.027 C 
HETATM    9  C12 UNL     1      91.345 101.004 -43.947  1.00  0.00     0.020 C 
HETATM   10  C13 UNL     1      92.504 100.130 -44.219  1.00  0.00     0.002 C 
HETATM   11  C14 UNL     1      92.197  98.780 -44.804  1.00  0.00     0.010 C 
HETATM   12  C15 UNL     1      91.042  98.109 -44.027  1.00  0.00    -0.033 C 
HETATM   13  C16 UNL     1      91.581  98.032 -42.629  1.00  0.00     0.016 C 
ENDROOT
BRANCH   1  14
HETATM   14  C3  UNL     1      90.810  95.666 -43.489  1.00  0.00     0.019 C 
BRANCH  14  15
HETATM   15  C2  UNL     1      91.369  94.330 -43.738  1.00  0.00     0.082 C 
HETATM   16  C1  UNL     1      90.795  93.444 -44.762  1.00  0.00     0.020 C 
BRANCH  15  17
HETATM   17  C17 UNL     1      91.334  93.579 -42.419  1.00  0.00     0.263 C 
HETATM   18  O3  UNL     1      90.861  94.109 -41.388  1.00  0.00    -0.265 OA
BRANCH  17  19
HETATM   19  O4  UNL     1      91.822  92.304 -42.333  1.00  0.00    -0.301 OA
BRANCH  19  20
HETATM   20  C18 UNL     1      93.155  91.941 -42.172  1.00  0.00     0.141 C 
HETATM   21  C19 UNL     1      93.997  92.153 -43.397  1.00  0.00     0.056 C 
HETATM   22  C20 UNL     1      93.737  92.851 -41.082  1.00  0.00     0.056 C 
BRANCH  20  23
HETATM   23  C21 UNL     1      93.311  90.527 -41.734  1.00  0.00     0.265 C 
HETATM   24  N1  UNL     1      94.575  90.091 -41.257  1.00  0.00    -0.059 NA
HETATM   25  O5  UNL     1      92.357  89.700 -41.771  1.00  0.00    -0.273 OA
ENDBRANCH  20  23
ENDBRANCH  19  20
ENDBRANCH  17  19
ENDBRANCH  15  17
ENDBRANCH  14  15
ENDBRANCH   1  14
BRANCH   7  26
HETATM   26  C11 UNL     1      89.669 100.554 -42.226  1.00  0.00     0.182 C 
HETATM   27  O1  UNL     1      88.533 100.188 -41.877  1.00  0.00    -0.647 OA
HETATM   28  O2  UNL     1      90.527 101.097 -41.304  1.00  0.00    -0.647 OA
ENDBRANCH   7  26
TORSDOF 7
ENDMDL
