MODEL 1
REMARK VINA RESULT: -6.657290554      0.000      0.000
REMARK  6 active torsions:
REMARK  status: ('A' for Active; 'I' for Inactive)
REMARK    1  A    between atoms: C1_2  and  C2_3 
REMARK       I    between atoms: C1_2  and  N1_5 
REMARK    2  A    between atoms: N1_5  and  C3_7 
REMARK    3  A    between atoms: C7_11  and  N2_12 
REMARK    4  A    between atoms: N2_12  and  C8_14 
REMARK    5  A    between atoms: C11_17  and  C12_18 
REMARK    6  A    between atoms: N3_21  and  C15_22 
ROOT
HETATM    1  C8  UNL     1      91.790  94.755 -41.539  1.00  0.00     0.028 A 
HETATM    2  C9  UNL     1      91.970  95.859 -40.753  1.00  0.00     0.029 A 
HETATM    3  C10 UNL     1      91.648  97.151 -41.188  1.00  0.00     0.010 A 
HETATM    4  C11 UNL     1      91.130  97.384 -42.433  1.00  0.00    -0.054 A 
HETATM    5  C20 UNL     1      90.940  96.291 -43.240  1.00  0.00     0.010 A 
HETATM    6  C21 UNL     1      91.253  95.033 -42.818  1.00  0.00     0.029 A 
ENDROOT
BRANCH   1   7
HETATM    7  N2  UNL     1      92.080  93.419 -41.198  1.00  0.00    -0.383 N 
ATOM      8  H2  UNL     1      91.464  92.979 -40.515  1.00  0.00     0.160 HD
BRANCH   7   9
HETATM    9  C7  UNL     1      93.129  92.624 -41.697  1.00  0.00     0.104 C 
HETATM   10  C3  UNL     1      92.721  91.266 -42.200  1.00  0.00     0.107 C 
HETATM   11  C4  UNL     1      93.844  90.308 -41.781  1.00  0.00     0.027 C 
HETATM   12  C5  UNL     1      94.994  91.245 -41.541  1.00  0.00     0.004 C 
HETATM   13  C6  UNL     1      94.310  92.397 -40.789  1.00  0.00     0.027 C 
BRANCH  10  14
HETATM   14  N1  UNL     1      92.707  91.284 -43.681  1.00  0.00    -0.354 N 
HETATM   15  C1  UNL     1      91.550  91.725 -44.363  1.00  0.00     0.231 C 
HETATM   16  O1  UNL     1      90.534  92.100 -43.717  1.00  0.00    -0.272 OA
ATOM     17  H1  UNL     1      93.527  90.981 -44.206  1.00  0.00     0.163 HD
BRANCH  15  18
HETATM   18  C2  UNL     1      91.546  91.740 -45.843  1.00  0.00     0.217 C 
HETATM   19 CL1  UNL     1      90.398  90.561 -46.506  1.00  0.00    -0.121 Cl
ENDBRANCH  15  18
ENDBRANCH  10  14
ENDBRANCH   7   9
ENDBRANCH   1   7
BRANCH   4  20
HETATM   20  C12 UNL     1      90.790  98.760 -42.887  1.00  0.00     0.022 C 
HETATM   21  C13 UNL     1      91.397  98.933 -44.275  1.00  0.00     0.039 C 
HETATM   22  C14 UNL     1      91.244 100.391 -44.732  1.00  0.00     0.273 C 
HETATM   23  N3  UNL     1      89.981 100.841 -44.247  1.00  0.00     0.094 N 
HETATM   24  C18 UNL     1      88.989  99.785 -44.173  1.00  0.00     0.273 C 
HETATM   25  C19 UNL     1      89.304  99.009 -42.888  1.00  0.00     0.039 C 
BRANCH  23  26
HETATM   26  C15 UNL     1      89.456 101.992 -44.894  1.00  0.00     0.241 C 
HETATM   27  C16 UNL     1      87.973 102.013 -45.163  1.00  0.00     0.110 C 
HETATM   28  S1  UNL     1      88.293 103.298 -46.432  1.00  0.00    -0.165 SA
HETATM   29  C17 UNL     1      89.727 102.159 -46.346  1.00  0.00     0.110 C 
ENDBRANCH  23  26
ENDBRANCH   4  20
TORSDOF 6
ENDMDL
MODEL 2
REMARK VINA RESULT: -6.556591355      4.481      8.514
REMARK  6 active torsions:
REMARK  status: ('A' for Active; 'I' for Inactive)
REMARK    1  A    between atoms: C1_2  and  C2_3 
REMARK       I    between atoms: C1_2  and  N1_5 
REMARK    2  A    between atoms: N1_5  and  C3_7 
REMARK    3  A    between atoms: C7_11  and  N2_12 
REMARK    4  A    between atoms: N2_12  and  C8_14 
REMARK    5  A    between atoms: C11_17  and  C12_18 
REMARK    6  A    between atoms: N3_21  and  C15_22 
ROOT
HETATM    1  C8  UNL     1      90.165  97.963 -42.900  1.00  0.00     0.028 A 
HETATM    2  C9  UNL     1      89.804  97.703 -44.192  1.00  0.00     0.029 A 
HETATM    3  C10 UNL     1      90.160  96.517 -44.847  1.00  0.00     0.010 A 
HETATM    4  C11 UNL     1      90.894  95.542 -44.226  1.00  0.00    -0.054 A 
HETATM    5  C20 UNL     1      91.268  95.782 -42.928  1.00  0.00     0.010 A 
HETATM    6  C21 UNL     1      90.922  96.935 -42.289  1.00  0.00     0.029 A 
ENDROOT
BRANCH   1   7
HETATM    7  N2  UNL     1      89.860  99.119 -42.154  1.00  0.00    -0.383 N 
ATOM      8  H2  UNL     1      89.160  99.015 -41.420  1.00  0.00     0.160 HD
BRANCH   7   9
HETATM    9  C7  UNL     1      90.415 100.403 -42.313  1.00  0.00     0.104 C 
HETATM   10  C3  UNL     1      91.841 100.428 -42.794  1.00  0.00     0.107 C 
HETATM   11  C4  UNL     1      92.519 101.577 -42.035  1.00  0.00     0.027 C 
HETATM   12  C5  UNL     1      91.347 102.405 -41.590  1.00  0.00     0.004 C 
HETATM   13  C6  UNL     1      90.358 101.327 -41.123  1.00  0.00     0.027 C 
BRANCH  10  14
HETATM   14  N1  UNL     1      91.858 100.797 -44.228  1.00  0.00    -0.354 N 
HETATM   15  C1  UNL     1      92.519  99.960 -45.157  1.00  0.00     0.231 C 
HETATM   16  O1  UNL     1      93.092  98.907 -44.768  1.00  0.00    -0.272 OA
ATOM     17  H1  UNL     1      91.396 101.650 -44.545  1.00  0.00     0.163 HD
BRANCH  15  18
HETATM   18  C2  UNL     1      92.531 100.337 -46.587  1.00  0.00     0.217 C 
HETATM   19 CL1  UNL     1      90.904 100.278 -47.293  1.00  0.00    -0.121 Cl
ENDBRANCH  15  18
ENDBRANCH  10  14
ENDBRANCH   7   9
ENDBRANCH   1   7
BRANCH   4  20
HETATM   20  C12 UNL     1      91.267  94.285 -44.928  1.00  0.00     0.022 C 
HETATM   21  C13 UNL     1      90.890  93.131 -44.005  1.00  0.00     0.039 C 
HETATM   22  C14 UNL     1      91.413  91.809 -44.583  1.00  0.00     0.273 C 
HETATM   23  N3  UNL     1      91.278  91.901 -46.000  1.00  0.00     0.094 N 
HETATM   24  C18 UNL     1      90.147  92.710 -46.415  1.00  0.00     0.273 C 
HETATM   25  C19 UNL     1      90.607  94.167 -46.276  1.00  0.00     0.039 C 
BRANCH  23  26
HETATM   26  C15 UNL     1      91.302  90.662 -46.696  1.00  0.00     0.241 C 
HETATM   27  C16 UNL     1      92.015  90.631 -48.023  1.00  0.00     0.110 C 
HETATM   28  S1  UNL     1      91.063  89.115 -48.421  1.00  0.00    -0.165 SA
HETATM   29  C17 UNL     1      90.048  90.207 -47.352  1.00  0.00     0.110 C 
ENDBRANCH  23  26
ENDBRANCH   4  20
TORSDOF 6
ENDMDL
MODEL 3
REMARK VINA RESULT: -6.467632029      4.897      7.303
REMARK  6 active torsions:
REMARK  status: ('A' for Active; 'I' for Inactive)
REMARK    1  A    between atoms: C1_2  and  C2_3 
REMARK       I    between atoms: C1_2  and  N1_5 
REMARK    2  A    between atoms: N1_5  and  C3_7 
REMARK    3  A    between atoms: C7_11  and  N2_12 
REMARK    4  A    between atoms: N2_12  and  C8_14 
REMARK    5  A    between atoms: C11_17  and  C12_18 
REMARK    6  A    between atoms: N3_21  and  C15_22 
ROOT
HETATM    1  C8  UNL     1      89.841  90.669 -47.379  1.00  0.00     0.028 A 
HETATM    2  C9  UNL     1      89.387  91.867 -47.855  1.00  0.00     0.029 A 
HETATM    3  C10 UNL     1      89.753  93.091 -47.281  1.00  0.00     0.010 A 
HETATM    4  C11 UNL     1      90.594  93.159 -46.202  1.00  0.00    -0.054 A 
HETATM    5  C20 UNL     1      91.063  91.968 -45.707  1.00  0.00     0.010 A 
HETATM    6  C21 UNL     1      90.707  90.776 -46.265  1.00  0.00     0.029 A 
ENDROOT
BRANCH   1   7
HETATM    7  N2  UNL     1      89.534  89.389 -47.882  1.00  0.00    -0.383 N 
ATOM      8  H2  UNL     1      89.884  88.594 -47.348  1.00  0.00     0.160 HD
BRANCH   7   9
HETATM    9  C7  UNL     1      88.795  89.088 -49.042  1.00  0.00     0.104 C 
HETATM   10  C3  UNL     1      88.331  87.661 -49.152  1.00  0.00     0.107 C 
HETATM   11  C4  UNL     1      88.467  87.289 -50.635  1.00  0.00     0.027 C 
HETATM   12  C5  UNL     1      88.504  88.635 -51.303  1.00  0.00     0.004 C 
HETATM   13  C6  UNL     1      89.430  89.426 -50.367  1.00  0.00     0.027 C 
BRANCH  10  14
HETATM   14  N1  UNL     1      86.887  87.598 -48.829  1.00  0.00    -0.354 N 
HETATM   15  C1  UNL     1      86.398  86.548 -48.019  1.00  0.00     0.231 C 
HETATM   16  O1  UNL     1      87.184  85.668 -47.574  1.00  0.00    -0.272 OA
ATOM     17  H1  UNL     1      86.249  88.308 -49.188  1.00  0.00     0.163 HD
BRANCH  15  18
HETATM   18  C2  UNL     1      84.954  86.494 -47.701  1.00  0.00     0.217 C 
HETATM   19 CL1  UNL     1      84.509  87.694 -46.472  1.00  0.00    -0.121 Cl
ENDBRANCH  15  18
ENDBRANCH  10  14
ENDBRANCH   7   9
ENDBRANCH   1   7
BRANCH   4  20
HETATM   20  C12 UNL     1      90.979  94.463 -45.599  1.00  0.00     0.022 C 
HETATM   21  C13 UNL     1      89.757  95.371 -45.682  1.00  0.00     0.039 C 
HETATM   22  C14 UNL     1      90.134  96.793 -45.245  1.00  0.00     0.273 C 
HETATM   23  N3  UNL     1      91.076  96.658 -44.183  1.00  0.00     0.094 N 
HETATM   24  C18 UNL     1      90.864  95.468 -43.380  1.00  0.00     0.273 C 
HETATM   25  C19 UNL     1      91.473  94.312 -44.183  1.00  0.00     0.039 C 
BRANCH  23  26
HETATM   26  C15 UNL     1      91.236  97.807 -43.361  1.00  0.00     0.241 C 
HETATM   27  C16 UNL     1      89.999  98.612 -43.057  1.00  0.00     0.110 C 
HETATM   28  S1  UNL     1      91.102 100.018 -42.641  1.00  0.00    -0.165 SA
HETATM   29  C17 UNL     1      91.877  99.007 -43.960  1.00  0.00     0.110 C 
ENDBRANCH  23  26
ENDBRANCH   4  20
TORSDOF 6
ENDMDL
MODEL 4
REMARK VINA RESULT: -6.457127369      5.163      9.347
REMARK  6 active torsions:
REMARK  status: ('A' for Active; 'I' for Inactive)
REMARK    1  A    between atoms: C1_2  and  C2_3 
REMARK       I    between atoms: C1_2  and  N1_5 
REMARK    2  A    between atoms: N1_5  and  C3_7 
REMARK    3  A    between atoms: C7_11  and  N2_12 
REMARK    4  A    between atoms: N2_12  and  C8_14 
REMARK    5  A    between atoms: C11_17  and  C12_18 
REMARK    6  A    between atoms: N3_21  and  C15_22 
ROOT
HETATM    1  C8  UNL     1      91.012  94.321 -44.818  1.00  0.00     0.028 A 
HETATM    2  C9  UNL     1      91.533  93.107 -44.467  1.00  0.00     0.029 A 
HETATM    3  C10 UNL     1      91.272  91.939 -45.195  1.00  0.00     0.010 A 
HETATM    4  C11 UNL     1      90.474  91.946 -46.307  1.00  0.00    -0.054 A 
HETATM    5  C20 UNL     1      89.940  93.153 -46.678  1.00  0.00     0.010 A 
HETATM    6  C21 UNL     1      90.193  94.291 -45.971  1.00  0.00     0.029 A 
ENDROOT
BRANCH   1   7
HETATM    7  N2  UNL     1      91.212  95.549 -44.156  1.00  0.00    -0.383 N 
ATOM      8  H2  UNL     1      91.522  96.331 -44.732  1.00  0.00     0.160 HD
BRANCH   7   9
HETATM    9  C7  UNL     1      91.031  95.814 -42.785  1.00  0.00     0.104 C 
HETATM   10  C3  UNL     1      91.301  97.234 -42.367  1.00  0.00     0.107 C 
HETATM   11  C4  UNL     1      91.985  97.144 -40.996  1.00  0.00     0.027 C 
HETATM   12  C5  UNL     1      91.597  95.768 -40.532  1.00  0.00     0.004 C 
HETATM   13  C6  UNL     1      91.780  94.940 -41.812  1.00  0.00     0.027 C 
BRANCH  10  14
HETATM   14  N1  UNL     1      90.010  97.927 -42.153  1.00  0.00    -0.354 N 
HETATM   15  C1  UNL     1      89.333  98.497 -43.256  1.00  0.00     0.231 C 
HETATM   16  O1  UNL     1      89.824  98.417 -44.414  1.00  0.00    -0.272 OA
ATOM     17  H1  UNL     1      89.612  97.994 -41.217  1.00  0.00     0.163 HD
BRANCH  15  18
HETATM   18  C2  UNL     1      88.044  99.188 -43.033  1.00  0.00     0.217 C 
HETATM   19 CL1  UNL     1      86.680  98.251 -43.674  1.00  0.00    -0.121 Cl
ENDBRANCH  15  18
ENDBRANCH  10  14
ENDBRANCH   7   9
ENDBRANCH   1   7
BRANCH   4  20
HETATM   20  C12 UNL     1      90.202  90.701 -47.076  1.00  0.00     0.022 C 
HETATM   21  C13 UNL     1      89.215  91.066 -48.179  1.00  0.00     0.039 C 
HETATM   22  C14 UNL     1      88.746  89.794 -48.900  1.00  0.00     0.273 C 
HETATM   23  N3  UNL     1      89.871  88.920 -48.960  1.00  0.00     0.094 N 
HETATM   24  C18 UNL     1      91.137  89.623 -49.054  1.00  0.00     0.273 C 
HETATM   25  C19 UNL     1      91.461  90.084 -47.627  1.00  0.00     0.039 C 
BRANCH  23  26
HETATM   26  C15 UNL     1      89.788  87.887 -49.933  1.00  0.00     0.241 C 
HETATM   27  C16 UNL     1      88.534  87.825 -50.765  1.00  0.00     0.110 C 
HETATM   28  S1  UNL     1      88.951  86.079 -51.138  1.00  0.00    -0.165 SA
HETATM   29  C17 UNL     1      89.547  86.500 -49.456  1.00  0.00     0.110 C 
ENDBRANCH  23  26
ENDBRANCH   4  20
TORSDOF 6
ENDMDL
MODEL 5
REMARK VINA RESULT: -6.389571190      5.146      8.970
REMARK  6 active torsions:
REMARK  status: ('A' for Active; 'I' for Inactive)
REMARK    1  A    between atoms: C1_2  and  C2_3 
REMARK       I    between atoms: C1_2  and  N1_5 
REMARK    2  A    between atoms: N1_5  and  C3_7 
REMARK    3  A    between atoms: C7_11  and  N2_12 
REMARK    4  A    between atoms: N2_12  and  C8_14 
REMARK    5  A    between atoms: C11_17  and  C12_18 
REMARK    6  A    between atoms: N3_21  and  C15_22 
ROOT
HETATM    1  C8  UNL     1      90.653  94.208 -45.384  1.00  0.00     0.028 A 
HETATM    2  C9  UNL     1      91.413  93.073 -45.445  1.00  0.00     0.029 A 
HETATM    3  C10 UNL     1      91.224  92.096 -46.431  1.00  0.00     0.010 A 
HETATM    4  C11 UNL     1      90.263  92.223 -47.398  1.00  0.00    -0.054 A 
HETATM    5  C20 UNL     1      89.488  93.354 -47.356  1.00  0.00     0.010 A 
HETATM    6  C21 UNL     1      89.670  94.306 -46.397  1.00  0.00     0.029 A 
ENDROOT
BRANCH   1   7
HETATM    7  N2  UNL     1      90.762  95.247 -44.438  1.00  0.00    -0.383 N 
ATOM      8  H2  UNL     1      90.302  96.126 -44.672  1.00  0.00     0.160 HD
BRANCH   7   9
HETATM    9  C7  UNL     1      91.436  95.202 -43.203  1.00  0.00     0.104 C 
HETATM   10  C3  UNL     1      91.402  93.871 -42.502  1.00  0.00     0.107 C 
HETATM   11  C4  UNL     1      91.253  94.187 -41.008  1.00  0.00     0.027 C 
HETATM   12  C5  UNL     1      91.716  95.615 -40.933  1.00  0.00     0.004 C 
HETATM   13  C6  UNL     1      91.046  96.229 -42.171  1.00  0.00     0.027 C 
BRANCH  10  14
HETATM   14  N1  UNL     1      92.715  93.206 -42.667  1.00  0.00    -0.354 N 
HETATM   15  C1  UNL     1      92.787  91.794 -42.667  1.00  0.00     0.231 C 
HETATM   16  O1  UNL     1      91.742  91.103 -42.526  1.00  0.00    -0.272 OA
ATOM     17  H1  UNL     1      93.562  93.763 -42.781  1.00  0.00     0.163 HD
BRANCH  15  18
HETATM   18  C2  UNL     1      94.104  91.139 -42.833  1.00  0.00     0.217 C 
HETATM   19 CL1  UNL     1      94.713  90.495 -41.296  1.00  0.00    -0.121 Cl
ENDBRANCH  15  18
ENDBRANCH  10  14
ENDBRANCH   7   9
ENDBRANCH   1   7
BRANCH   4  20
HETATM   20  C12 UNL     1      90.069  91.181 -48.442  1.00  0.00     0.022 C 
HETATM   21  C13 UNL     1      90.537  89.859 -47.844  1.00  0.00     0.039 C 
HETATM   22  C14 UNL     1      90.539  88.769 -48.925  1.00  0.00     0.273 C 
HETATM   23  N3  UNL     1      89.413  89.023 -49.763  1.00  0.00     0.094 N 
HETATM   24  C18 UNL     1      88.297  89.621 -49.054  1.00  0.00     0.273 C 
HETATM   25  C19 UNL     1      88.642  91.110 -48.919  1.00  0.00     0.039 C 
BRANCH  23  26
HETATM   26  C15 UNL     1      88.984  87.923 -50.555  1.00  0.00     0.241 C 
HETATM   27  C16 UNL     1      87.537  87.519 -50.445  1.00  0.00     0.110 C 
HETATM   28  S1  UNL     1      88.014  85.885 -51.127  1.00  0.00    -0.165 SA
HETATM   29  C17 UNL     1      89.403  86.559 -50.139  1.00  0.00     0.110 C 
ENDBRANCH  23  26
ENDBRANCH   4  20
TORSDOF 6
ENDMDL
