MODEL 1
REMARK VINA RESULT: -7.081906064      0.000      0.000
REMARK  6 active torsions:
REMARK  status: ('A' for Active; 'I' for Inactive)
REMARK       I    between atoms: C1_2  and  N1_3 
REMARK    1  A    between atoms: C1_2  and  C13_23 
REMARK    2  A    between atoms: N1_3  and  C2_5 
REMARK    3  A    between atoms: C5_8  and  C6_9 
REMARK    4  A    between atoms: C6_9  and  N2_10 
REMARK    5  A    between atoms: N2_10  and  S1_12 
REMARK    6  A    between atoms: S1_12  and  C7_15 
ROOT
HETATM    1  C2  UNL     1      90.847  91.215 -46.703  1.00  0.00     0.084 C 
HETATM    2  C3  UNL     1      91.824  90.479 -47.594  1.00  0.00     0.026 C 
HETATM    3  C4  UNL     1      91.072  89.287 -48.180  1.00  0.00     0.008 C 
HETATM    4  C5  UNL     1      89.853  89.752 -48.944  1.00  0.00     0.004 C 
HETATM    5  C11 UNL     1      89.025  90.769 -48.254  1.00  0.00     0.008 C 
HETATM    6  C12 UNL     1      89.845  91.894 -47.649  1.00  0.00     0.026 C 
ENDROOT
BRANCH   4   7
HETATM    7  C6  UNL     1      89.018  88.546 -49.282  1.00  0.00     0.136 C 
BRANCH   7   8
HETATM    8  N2  UNL     1      88.270  88.009 -48.177  1.00  0.00    -0.315 N 
ATOM      9  H2  UNL     1      88.302  88.331 -47.209  1.00  0.00     0.172 HD
BRANCH   8  10
HETATM   10  S1  UNL     1      87.299  86.700 -48.803  1.00  0.00     0.265 S 
HETATM   11  O2  UNL     1      86.450  87.212 -49.901  1.00  0.00    -0.200 OA
HETATM   12  O3  UNL     1      86.488  86.062 -47.732  1.00  0.00    -0.200 OA
BRANCH  10  13
HETATM   13  C7  UNL     1      88.435  85.532 -49.482  1.00  0.00     0.121 A 
HETATM   14  C8  UNL     1      89.284  84.693 -48.805  1.00  0.00     0.035 A 
HETATM   15  C9  UNL     1      90.065  83.882 -49.553  1.00  0.00     0.033 A 
HETATM   16  C10 UNL     1      89.940  83.970 -50.908  1.00  0.00     0.075 A 
HETATM   17 CL1  UNL     1      90.813  83.053 -52.137  1.00  0.00    -0.076 Cl
HETATM   18  S2  UNL     1      88.750  85.167 -51.114  1.00  0.00    -0.064 SA
ENDBRANCH  10  13
ENDBRANCH   8  10
ENDBRANCH   7   8
ENDBRANCH   4   7
BRANCH   1  19
HETATM   19  N1  UNL     1      91.457  92.152 -45.820  1.00  0.00    -0.356 N 
HETATM   20  C1  UNL     1      91.647  91.841 -44.456  1.00  0.00     0.222 C 
HETATM   21  O1  UNL     1      91.261  90.712 -44.039  1.00  0.00    -0.273 OA
ATOM     22  H1  UNL     1      91.761  93.058 -46.177  1.00  0.00     0.162 HD
BRANCH  20  23
HETATM   23  C13 UNL     1      92.284  92.800 -43.501  1.00  0.00     0.078 C 
HETATM   24  C14 UNL     1      93.237  91.998 -42.641  1.00  0.00     0.014 C 
HETATM   25  C15 UNL     1      93.315  92.792 -41.374  1.00  0.00     0.001 C 
HETATM   26  C16 UNL     1      92.199  93.792 -41.382  1.00  0.00     0.001 C 
HETATM   27  C17 UNL     1      91.251  93.238 -42.456  1.00  0.00     0.014 C 
ENDBRANCH  20  23
ENDBRANCH   1  19
TORSDOF 6
ENDMDL
MODEL 2
REMARK VINA RESULT: -7.047826333      2.427      2.851
REMARK  6 active torsions:
REMARK  status: ('A' for Active; 'I' for Inactive)
REMARK       I    between atoms: C1_2  and  N1_3 
REMARK    1  A    between atoms: C1_2  and  C13_23 
REMARK    2  A    between atoms: N1_3  and  C2_5 
REMARK    3  A    between atoms: C5_8  and  C6_9 
REMARK    4  A    between atoms: C6_9  and  N2_10 
REMARK    5  A    between atoms: N2_10  and  S1_12 
REMARK    6  A    between atoms: S1_12  and  C7_15 
ROOT
HETATM    1  C2  UNL     1      90.863  91.425 -46.623  1.00  0.00     0.084 C 
HETATM    2  C3  UNL     1      92.016  90.925 -47.466  1.00  0.00     0.026 C 
HETATM    3  C4  UNL     1      91.553  89.624 -48.116  1.00  0.00     0.008 C 
HETATM    4  C5  UNL     1      90.309  89.857 -48.943  1.00  0.00     0.004 C 
HETATM    5  C11 UNL     1      89.256  90.669 -48.288  1.00  0.00     0.008 C 
HETATM    6  C12 UNL     1      89.799  91.917 -47.616  1.00  0.00     0.026 C 
ENDROOT
BRANCH   4   7
HETATM    7  C6  UNL     1      89.753  88.518 -49.351  1.00  0.00     0.136 C 
BRANCH   7   8
HETATM    8  N2  UNL     1      90.471  87.389 -48.824  1.00  0.00    -0.315 N 
ATOM      9  H2  UNL     1      91.316  87.420 -48.253  1.00  0.00     0.172 HD
BRANCH   8  10
HETATM   10  S1  UNL     1      89.625  85.954 -49.348  1.00  0.00     0.265 S 
HETATM   11  O2  UNL     1      89.918  84.850 -48.407  1.00  0.00    -0.200 OA
HETATM   12  O3  UNL     1      89.978  85.592 -50.746  1.00  0.00    -0.200 OA
BRANCH  10  13
HETATM   13  C7  UNL     1      87.905  86.334 -49.233  1.00  0.00     0.121 A 
HETATM   14  C8  UNL     1      87.137  86.422 -48.098  1.00  0.00     0.035 A 
HETATM   15  C9  UNL     1      85.832  86.730 -48.269  1.00  0.00     0.033 A 
HETATM   16  C10 UNL     1      85.397  86.925 -49.545  1.00  0.00     0.075 A 
HETATM   17 CL1  UNL     1      83.767  87.334 -50.083  1.00  0.00    -0.076 Cl
HETATM   18  S2  UNL     1      86.797  86.678 -50.478  1.00  0.00    -0.064 SA
ENDBRANCH  10  13
ENDBRANCH   8  10
ENDBRANCH   7   8
ENDBRANCH   4   7
BRANCH   1  19
HETATM   19  N1  UNL     1      91.223  92.441 -45.690  1.00  0.00    -0.356 N 
HETATM   20  C1  UNL     1      91.595  92.107 -44.369  1.00  0.00     0.222 C 
HETATM   21  O1  UNL     1      91.600  90.888 -44.037  1.00  0.00    -0.273 OA
ATOM     22  H1  UNL     1      91.212  93.418 -45.979  1.00  0.00     0.162 HD
BRANCH  20  23
HETATM   23  C13 UNL     1      91.979  93.146 -43.364  1.00  0.00     0.078 C 
HETATM   24  C14 UNL     1      93.112  92.569 -42.543  1.00  0.00     0.014 C 
HETATM   25  C15 UNL     1      92.999  93.291 -41.236  1.00  0.00     0.001 C 
HETATM   26  C16 UNL     1      91.666  93.975 -41.197  1.00  0.00     0.001 C 
HETATM   27  C17 UNL     1      90.878  93.256 -42.302  1.00  0.00     0.014 C 
ENDBRANCH  20  23
ENDBRANCH   1  19
TORSDOF 6
ENDMDL
MODEL 3
REMARK VINA RESULT: -6.790641751      2.259      2.613
REMARK  6 active torsions:
REMARK  status: ('A' for Active; 'I' for Inactive)
REMARK       I    between atoms: C1_2  and  N1_3 
REMARK    1  A    between atoms: C1_2  and  C13_23 
REMARK    2  A    between atoms: N1_3  and  C2_5 
REMARK    3  A    between atoms: C5_8  and  C6_9 
REMARK    4  A    between atoms: C6_9  and  N2_10 
REMARK    5  A    between atoms: N2_10  and  S1_12 
REMARK    6  A    between atoms: S1_12  and  C7_15 
ROOT
HETATM    1  C2  UNL     1      90.709  91.786 -46.521  1.00  0.00     0.084 C 
HETATM    2  C3  UNL     1      91.689  90.948 -47.313  1.00  0.00     0.026 C 
HETATM    3  C4  UNL     1      90.881  89.831 -47.968  1.00  0.00     0.008 C 
HETATM    4  C5  UNL     1      89.793  90.407 -48.846  1.00  0.00     0.004 C 
HETATM    5  C11 UNL     1      89.008  91.508 -48.239  1.00  0.00     0.008 C 
HETATM    6  C12 UNL     1      89.875  92.551 -47.558  1.00  0.00     0.026 C 
ENDROOT
BRANCH   4   7
HETATM    7  C6  UNL     1      88.877  89.286 -49.262  1.00  0.00     0.136 C 
BRANCH   7   8
HETATM    8  N2  UNL     1      89.265  87.988 -48.780  1.00  0.00    -0.315 N 
ATOM      9  H2  UNL     1      89.683  87.777 -47.874  1.00  0.00     0.172 HD
BRANCH   8  10
HETATM   10  S1  UNL     1      88.888  86.839 -50.040  1.00  0.00     0.265 S 
HETATM   11  O2  UNL     1      89.936  85.795 -50.070  1.00  0.00    -0.200 OA
HETATM   12  O3  UNL     1      88.739  87.507 -51.360  1.00  0.00    -0.200 OA
BRANCH  10  13
HETATM   13  C7  UNL     1      87.366  86.080 -49.567  1.00  0.00     0.121 A 
HETATM   14  C8  UNL     1      86.501  86.476 -48.577  1.00  0.00     0.035 A 
HETATM   15  C9  UNL     1      85.390  85.726 -48.403  1.00  0.00     0.033 A 
HETATM   16  C10 UNL     1      85.229  84.648 -49.222  1.00  0.00     0.075 A 
HETATM   17 CL1  UNL     1      83.897  83.491 -49.237  1.00  0.00    -0.076 Cl
HETATM   18  S2  UNL     1      86.612  84.696 -50.209  1.00  0.00    -0.064 SA
ENDBRANCH  10  13
ENDBRANCH   8  10
ENDBRANCH   7   8
ENDBRANCH   4   7
BRANCH   1  19
HETATM   19  N1  UNL     1      91.323  92.667 -45.583  1.00  0.00    -0.356 N 
HETATM   20  C1  UNL     1      91.699  92.209 -44.302  1.00  0.00     0.222 C 
HETATM   21  O1  UNL     1      91.476  91.001 -44.008  1.00  0.00    -0.273 OA
ATOM     22  H1  UNL     1      91.494  93.639 -45.842  1.00  0.00     0.162 HD
BRANCH  20  23
HETATM   23  C13 UNL     1      92.345  93.105 -43.294  1.00  0.00     0.078 C 
HETATM   24  C14 UNL     1      93.226  92.231 -42.426  1.00  0.00     0.014 C 
HETATM   25  C15 UNL     1      93.294  92.981 -41.132  1.00  0.00     0.001 C 
HETATM   26  C16 UNL     1      92.228  94.034 -41.148  1.00  0.00     0.001 C 
HETATM   27  C17 UNL     1      91.296  93.562 -42.273  1.00  0.00     0.014 C 
ENDBRANCH  20  23
ENDBRANCH   1  19
TORSDOF 6
ENDMDL
MODEL 4
REMARK VINA RESULT: -6.783531124      1.917      2.129
REMARK  6 active torsions:
REMARK  status: ('A' for Active; 'I' for Inactive)
REMARK       I    between atoms: C1_2  and  N1_3 
REMARK    1  A    between atoms: C1_2  and  C13_23 
REMARK    2  A    between atoms: N1_3  and  C2_5 
REMARK    3  A    between atoms: C5_8  and  C6_9 
REMARK    4  A    between atoms: C6_9  and  N2_10 
REMARK    5  A    between atoms: N2_10  and  S1_12 
REMARK    6  A    between atoms: S1_12  and  C7_15 
ROOT
HETATM    1  C2  UNL     1      90.802  91.078 -47.043  1.00  0.00     0.084 C 
HETATM    2  C3  UNL     1      91.914  90.380 -47.796  1.00  0.00     0.026 C 
HETATM    3  C4  UNL     1      91.306  89.123 -48.411  1.00  0.00     0.008 C 
HETATM    4  C5  UNL     1      90.149  89.480 -49.316  1.00  0.00     0.004 C 
HETATM    5  C11 UNL     1      89.189  90.462 -48.759  1.00  0.00     0.008 C 
HETATM    6  C12 UNL     1      89.867  91.657 -48.115  1.00  0.00     0.026 C 
ENDROOT
BRANCH   4   7
HETATM    7  C6  UNL     1      89.432  88.211 -49.693  1.00  0.00     0.136 C 
BRANCH   7   8
HETATM    8  N2  UNL     1      88.988  87.422 -48.575  1.00  0.00    -0.315 N 
ATOM      9  H2  UNL     1      88.601  87.774 -47.699  1.00  0.00     0.172 HD
BRANCH   8  10
HETATM   10  S1  UNL     1      89.239  85.746 -48.997  1.00  0.00     0.265 S 
HETATM   11  O2  UNL     1      88.407  84.897 -48.117  1.00  0.00    -0.200 OA
HETATM   12  O3  UNL     1      90.676  85.374 -48.922  1.00  0.00    -0.200 OA
BRANCH  10  13
HETATM   13  C7  UNL     1      88.650  85.569 -50.652  1.00  0.00     0.121 A 
HETATM   14  C8  UNL     1      89.378  85.263 -51.775  1.00  0.00     0.035 A 
HETATM   15  C9  UNL     1      88.695  85.181 -52.939  1.00  0.00     0.033 A 
HETATM   16  C10 UNL     1      87.352  85.410 -52.894  1.00  0.00     0.075 A 
HETATM   17 CL1  UNL     1      86.204  85.376 -54.234  1.00  0.00    -0.076 Cl
HETATM   18  S2  UNL     1      87.065  85.731 -51.250  1.00  0.00    -0.064 SA
ENDBRANCH  10  13
ENDBRANCH   8  10
ENDBRANCH   7   8
ENDBRANCH   4   7
BRANCH   1  19
HETATM   19  N1  UNL     1      91.254  92.082 -46.138  1.00  0.00    -0.356 N 
HETATM   20  C1  UNL     1      91.468  91.782 -44.775  1.00  0.00     0.222 C 
HETATM   21  O1  UNL     1      91.249  90.602 -44.380  1.00  0.00    -0.273 OA
ATOM     22  H1  UNL     1      91.426  93.028 -46.479  1.00  0.00     0.162 HD
BRANCH  20  23
HETATM   23  C13 UNL     1      91.943  92.810 -43.799  1.00  0.00     0.078 C 
HETATM   24  C14 UNL     1      93.081  92.187 -43.019  1.00  0.00     0.014 C 
HETATM   25  C15 UNL     1      93.057  92.925 -41.717  1.00  0.00     0.001 C 
HETATM   26  C16 UNL     1      91.761  93.672 -41.629  1.00  0.00     0.001 C 
HETATM   27  C17 UNL     1      90.895  92.982 -42.692  1.00  0.00     0.014 C 
ENDBRANCH  20  23
ENDBRANCH   1  19
TORSDOF 6
ENDMDL
MODEL 5
REMARK VINA RESULT: -6.688748076      8.402     10.828
REMARK  6 active torsions:
REMARK  status: ('A' for Active; 'I' for Inactive)
REMARK       I    between atoms: C1_2  and  N1_3 
REMARK    1  A    between atoms: C1_2  and  C13_23 
REMARK    2  A    between atoms: N1_3  and  C2_5 
REMARK    3  A    between atoms: C5_8  and  C6_9 
REMARK    4  A    between atoms: C6_9  and  N2_10 
REMARK    5  A    between atoms: N2_10  and  S1_12 
REMARK    6  A    between atoms: S1_12  and  C7_15 
ROOT
HETATM    1  C2  UNL     1      90.668  94.883 -45.027  1.00  0.00     0.084 C 
HETATM    2  C3  UNL     1      89.916  94.664 -46.322  1.00  0.00     0.026 C 
HETATM    3  C4  UNL     1      88.711  95.599 -46.294  1.00  0.00     0.008 C 
HETATM    4  C5  UNL     1      89.157  97.035 -46.137  1.00  0.00     0.004 C 
HETATM    5  C11 UNL     1      90.186  97.268 -45.096  1.00  0.00     0.008 C 
HETATM    6  C12 UNL     1      91.325  96.265 -45.151  1.00  0.00     0.026 C 
ENDROOT
BRANCH   4   7
HETATM    7  C6  UNL     1      87.942  97.882 -45.863  1.00  0.00     0.136 C 
BRANCH   7   8
HETATM    8  N2  UNL     1      86.854  97.179 -45.238  1.00  0.00    -0.315 N 
ATOM      9  H2  UNL     1      86.673  96.176 -45.285  1.00  0.00     0.172 HD
BRANCH   8  10
HETATM   10  S1  UNL     1      85.899  98.366 -44.385  1.00  0.00     0.265 S 
HETATM   11  O2  UNL     1      85.095  97.683 -43.348  1.00  0.00    -0.200 OA
HETATM   12  O3  UNL     1      85.045  99.150 -45.316  1.00  0.00    -0.200 OA
BRANCH  10  13
HETATM   13  C7  UNL     1      87.054  99.429 -43.576  1.00  0.00     0.121 A 
HETATM   14  C8  UNL     1      87.973  99.094 -42.614  1.00  0.00     0.035 A 
HETATM   15  C9  UNL     1      88.753 100.093 -42.144  1.00  0.00     0.033 A 
HETATM   16  C10 UNL     1      88.557 101.338 -42.664  1.00  0.00     0.075 A 
HETATM   17 CL1  UNL     1      89.410 102.828 -42.256  1.00  0.00    -0.076 Cl
HETATM   18  S2  UNL     1      87.304 101.099 -43.788  1.00  0.00    -0.064 SA
ENDBRANCH  10  13
ENDBRANCH   8  10
ENDBRANCH   7   8
ENDBRANCH   4   7
BRANCH   1  19
HETATM   19  N1  UNL     1      91.624  93.868 -44.731  1.00  0.00    -0.356 N 
HETATM   20  C1  UNL     1      91.859  93.465 -43.399  1.00  0.00     0.222 C 
HETATM   21  O1  UNL     1      91.202  94.026 -42.478  1.00  0.00    -0.273 OA
ATOM     22  H1  UNL     1      92.144  93.429 -45.491  1.00  0.00     0.162 HD
BRANCH  20  23
HETATM   23  C13 UNL     1      92.855  92.404 -43.052  1.00  0.00     0.078 C 
HETATM   24  C14 UNL     1      92.083  91.113 -42.884  1.00  0.00     0.014 C 
HETATM   25  C15 UNL     1      92.937  90.316 -41.947  1.00  0.00     0.001 C 
HETATM   26  C16 UNL     1      93.951  91.239 -41.342  1.00  0.00     0.001 C 
HETATM   27  C17 UNL     1      93.360  92.628 -41.622  1.00  0.00     0.014 C 
ENDBRANCH  20  23
ENDBRANCH   1  19
TORSDOF 6
ENDMDL
