MODEL 1
REMARK VINA RESULT: -7.628804660      0.000      0.000
REMARK  7 active torsions:
REMARK  status: ('A' for Active; 'I' for Inactive)
REMARK       I    between atoms: C1_2  and  N1_3 
REMARK    1  A    between atoms: C1_2  and  C17_25 
REMARK    2  A    between atoms: N1_3  and  C2_4 
REMARK    3  A    between atoms: C2_4  and  C3_5 
REMARK    4  A    between atoms: C2_4  and  C10_15 
REMARK       I    between atoms: C3_5  and  N2_7 
REMARK    5  A    between atoms: N2_7  and  C4_9 
REMARK    6  A    between atoms: C10_15  and  O3_16 
REMARK    7  A    between atoms: C10_15  and  C11_18 
ROOT
HETATM    1  C2  UNL     1      91.187  94.167 -44.873  1.00  0.00     0.212 C 
ENDROOT
BRANCH   1   2
HETATM    2  N1  UNL     1      91.367  93.802 -43.492  1.00  0.00    -0.357 NA
HETATM    3  C1  UNL     1      91.530  93.470 -42.235  1.00  0.00     0.333 C 
HETATM    4  O1  UNL     1      90.880  93.866 -41.208  1.00  0.00    -0.250 OA
BRANCH   3   5
HETATM    5  C17 UNL     1      92.619  92.481 -41.898  1.00  0.00     0.087 A 
HETATM    6  C18 UNL     1      93.760  92.693 -41.193  1.00  0.00     0.026 A 
HETATM    7  C19 UNL     1      94.593  91.666 -41.022  1.00  0.00     0.009 A 
HETATM    8  C20 UNL     1      94.225  90.464 -41.577  1.00  0.00     0.051 A 
HETATM    9  S1  UNL     1      92.730  90.819 -42.313  1.00  0.00    -0.095 SA
ENDBRANCH   3   5
ENDBRANCH   1   2
BRANCH   1  10
HETATM   10  C3  UNL     1      90.688  93.052 -45.647  1.00  0.00     0.285 C 
HETATM   11  O2  UNL     1      90.764  91.893 -45.102  1.00  0.00    -0.265 OA
HETATM   12  N2  UNL     1      90.129  93.062 -46.950  1.00  0.00    -0.350 N 
ATOM     13  H2  UNL     1      90.059  93.970 -47.407  1.00  0.00     0.163 HD
BRANCH  12  14
HETATM   14  C4  UNL     1      89.659  91.947 -47.682  1.00  0.00     0.084 C 
HETATM   15  C5  UNL     1      90.770  91.116 -48.300  1.00  0.00     0.025 C 
HETATM   16  C6  UNL     1      90.115  89.851 -48.814  1.00  0.00     0.002 C 
HETATM   17  C7  UNL     1      89.364  90.183 -50.075  1.00  0.00     0.000 C 
HETATM   18  C8  UNL     1      89.088  91.641 -50.122  1.00  0.00     0.002 C 
HETATM   19  C9  UNL     1      88.673  92.231 -48.768  1.00  0.00     0.025 C 
ENDBRANCH  12  14
ENDBRANCH   1  10
BRANCH   1  20
HETATM   20  C10 UNL     1      90.642  95.519 -44.980  1.00  0.00     0.122 C 
BRANCH  20  21
HETATM   21  O3  UNL     1      89.529  95.549 -45.717  1.00  0.00    -0.357 OA
ATOM     22  H3  UNL     1      89.196  96.434 -45.819  1.00  0.00     0.218 HD
ENDBRANCH  20  21
BRANCH  20  23
HETATM   23  C11 UNL     1      91.002  96.801 -44.497  1.00  0.00     0.001 A 
HETATM   24  C12 UNL     1      91.853  97.649 -45.222  1.00  0.00     0.016 A 
HETATM   25  C13 UNL     1      92.298  98.869 -44.839  1.00  0.00     0.024 A 
HETATM   26  C14 UNL     1      91.877  99.357 -43.591  1.00  0.00     0.034 A 
HETATM   27 CL1  UNL     1      92.410 100.929 -43.031  1.00  0.00    -0.084 Cl
HETATM   28  C15 UNL     1      91.052  98.566 -42.859  1.00  0.00     0.024 A 
HETATM   29  C16 UNL     1      90.608  97.311 -43.275  1.00  0.00     0.016 A 
ENDBRANCH  20  23
ENDBRANCH   1  20
TORSDOF 7
ENDMDL
MODEL 2
REMARK VINA RESULT: -7.617288440      4.641      8.694
REMARK  7 active torsions:
REMARK  status: ('A' for Active; 'I' for Inactive)
REMARK       I    between atoms: C1_2  and  N1_3 
REMARK    1  A    between atoms: C1_2  and  C17_25 
REMARK    2  A    between atoms: N1_3  and  C2_4 
REMARK    3  A    between atoms: C2_4  and  C3_5 
REMARK    4  A    between atoms: C2_4  and  C10_15 
REMARK       I    between atoms: C3_5  and  N2_7 
REMARK    5  A    between atoms: N2_7  and  C4_9 
REMARK    6  A    between atoms: C10_15  and  O3_16 
REMARK    7  A    between atoms: C10_15  and  C11_18 
ROOT
HETATM    1  C2  UNL     1      90.153  90.530 -47.229  1.00  0.00     0.212 C 
ENDROOT
BRANCH   1   2
HETATM    2  N1  UNL     1      90.527  89.340 -47.948  1.00  0.00    -0.357 NA
HETATM    3  C1  UNL     1      90.867  88.257 -48.602  1.00  0.00     0.333 C 
HETATM    4  O1  UNL     1      91.998  87.661 -48.636  1.00  0.00    -0.250 OA
BRANCH   3   5
HETATM    5  C17 UNL     1      89.816  87.576 -49.442  1.00  0.00     0.087 A 
HETATM    6  C18 UNL     1      89.107  88.087 -50.482  1.00  0.00     0.026 A 
HETATM    7  C19 UNL     1      88.213  87.300 -51.081  1.00  0.00     0.009 A 
HETATM    8  C20 UNL     1      88.082  86.021 -50.594  1.00  0.00     0.051 A 
HETATM    9  S1  UNL     1      89.213  85.973 -49.320  1.00  0.00    -0.095 SA
ENDBRANCH   3   5
ENDBRANCH   1   2
BRANCH   1  10
HETATM   10  C3  UNL     1      91.171  90.903 -46.272  1.00  0.00     0.285 C 
HETATM   11  O2  UNL     1      92.390  90.799 -46.658  1.00  0.00    -0.265 OA
HETATM   12  N2  UNL     1      91.006  91.364 -44.941  1.00  0.00    -0.350 N 
ATOM     13  H2  UNL     1      90.047  91.455 -44.608  1.00  0.00     0.163 HD
BRANCH  12  14
HETATM   14  C4  UNL     1      92.028  91.712 -44.027  1.00  0.00     0.084 C 
HETATM   15  C5  UNL     1      92.000  90.894 -42.748  1.00  0.00     0.025 C 
HETATM   16  C6  UNL     1      93.288  91.211 -42.016  1.00  0.00     0.002 C 
HETATM   17  C7  UNL     1      93.162  92.579 -41.403  1.00  0.00     0.000 C 
HETATM   18  C8  UNL     1      92.097  93.342 -42.102  1.00  0.00     0.002 C 
HETATM   19  C9  UNL     1      92.100  93.149 -43.624  1.00  0.00     0.025 C 
ENDBRANCH  12  14
ENDBRANCH   1  10
BRANCH   1  20
HETATM   20  C10 UNL     1      89.511  91.491 -48.123  1.00  0.00     0.122 C 
BRANCH  20  21
HETATM   21  O3  UNL     1      89.448  92.710 -47.581  1.00  0.00    -0.357 OA
ATOM     22  H3  UNL     1      89.092  92.687 -46.700  1.00  0.00     0.218 HD
ENDBRANCH  20  21
BRANCH  20  23
HETATM   23  C11 UNL     1      88.940  91.449 -49.420  1.00  0.00     0.001 A 
HETATM   24  C12 UNL     1      89.721  91.617 -50.573  1.00  0.00     0.016 A 
HETATM   25  C13 UNL     1      89.280  91.642 -51.853  1.00  0.00     0.024 A 
HETATM   26  C14 UNL     1      87.902  91.482 -52.073  1.00  0.00     0.034 A 
HETATM   27 CL1  UNL     1      87.259  91.499 -53.702  1.00  0.00    -0.084 Cl
HETATM   28  C15 UNL     1      87.112  91.315 -50.981  1.00  0.00     0.024 A 
HETATM   29  C16 UNL     1      87.591  91.296 -49.671  1.00  0.00     0.016 A 
ENDBRANCH  20  23
ENDBRANCH   1  20
TORSDOF 7
ENDMDL
MODEL 3
REMARK VINA RESULT: -7.477998542      3.558      7.347
REMARK  7 active torsions:
REMARK  status: ('A' for Active; 'I' for Inactive)
REMARK       I    between atoms: C1_2  and  N1_3 
REMARK    1  A    between atoms: C1_2  and  C17_25 
REMARK    2  A    between atoms: N1_3  and  C2_4 
REMARK    3  A    between atoms: C2_4  and  C3_5 
REMARK    4  A    between atoms: C2_4  and  C10_15 
REMARK       I    between atoms: C3_5  and  N2_7 
REMARK    5  A    between atoms: N2_7  and  C4_9 
REMARK    6  A    between atoms: C10_15  and  O3_16 
REMARK    7  A    between atoms: C10_15  and  C11_18 
ROOT
HETATM    1  C2  UNL     1      91.314  94.526 -45.551  1.00  0.00     0.212 C 
ENDROOT
BRANCH   1   2
HETATM    2  N1  UNL     1      91.237  95.958 -45.430  1.00  0.00    -0.357 NA
HETATM    3  C1  UNL     1      91.167  97.262 -45.321  1.00  0.00     0.333 C 
HETATM    4  O1  UNL     1      91.929  98.154 -45.829  1.00  0.00    -0.250 OA
BRANCH   3   5
HETATM    5  C17 UNL     1      90.047  97.845 -44.495  1.00  0.00     0.087 A 
HETATM    6  C18 UNL     1      90.090  98.290 -43.213  1.00  0.00     0.026 A 
HETATM    7  C19 UNL     1      88.966  98.763 -42.673  1.00  0.00     0.009 A 
HETATM    8  C20 UNL     1      87.844  98.763 -43.467  1.00  0.00     0.051 A 
HETATM    9  S1  UNL     1      88.408  98.104 -44.934  1.00  0.00    -0.095 SA
ENDBRANCH   3   5
ENDBRANCH   1   2
BRANCH   1  10
HETATM   10  C3  UNL     1      91.767  93.921 -44.318  1.00  0.00     0.285 C 
HETATM   11  O2  UNL     1      91.359  94.462 -43.229  1.00  0.00    -0.265 OA
HETATM   12  N2  UNL     1      92.621  92.803 -44.145  1.00  0.00    -0.350 N 
ATOM     13  H2  UNL     1      92.962  92.355 -44.995  1.00  0.00     0.163 HD
BRANCH  12  14
HETATM   14  C4  UNL     1      93.052  92.243 -42.919  1.00  0.00     0.084 C 
HETATM   15  C5  UNL     1      94.424  91.596 -42.998  1.00  0.00     0.025 C 
HETATM   16  C6  UNL     1      94.828  91.288 -41.572  1.00  0.00     0.002 C 
HETATM   17  C7  UNL     1      94.048  90.088 -41.106  1.00  0.00     0.000 C 
HETATM   18  C8  UNL     1      92.837  89.923 -41.949  1.00  0.00     0.002 C 
HETATM   19  C9  UNL     1      92.137  91.246 -42.285  1.00  0.00     0.025 C 
ENDBRANCH  12  14
ENDBRANCH   1  10
BRANCH   1  20
HETATM   20  C10 UNL     1      90.183  94.013 -46.321  1.00  0.00     0.122 C 
BRANCH  20  21
HETATM   21  O3  UNL     1      89.193  94.905 -46.404  1.00  0.00    -0.357 OA
ATOM     22  H3  UNL     1      88.600  94.711 -47.121  1.00  0.00     0.218 HD
ENDBRANCH  20  21
BRANCH  20  23
HETATM   23  C11 UNL     1      89.878  92.807 -47.000  1.00  0.00     0.001 A 
HETATM   24  C12 UNL     1      90.354  91.568 -46.547  1.00  0.00     0.016 A 
HETATM   25  C13 UNL     1      90.166  90.364 -47.137  1.00  0.00     0.024 A 
HETATM   26  C14 UNL     1      89.418  90.328 -48.326  1.00  0.00     0.034 A 
HETATM   27 CL1  UNL     1      89.132  88.806 -49.144  1.00  0.00    -0.084 Cl
HETATM   28  C15 UNL     1      88.940  91.508 -48.798  1.00  0.00     0.024 A 
HETATM   29  C16 UNL     1      89.149  92.736 -48.171  1.00  0.00     0.016 A 
ENDBRANCH  20  23
ENDBRANCH   1  20
TORSDOF 7
ENDMDL
MODEL 4
REMARK VINA RESULT: -7.470377238      4.466      8.353
REMARK  7 active torsions:
REMARK  status: ('A' for Active; 'I' for Inactive)
REMARK       I    between atoms: C1_2  and  N1_3 
REMARK    1  A    between atoms: C1_2  and  C17_25 
REMARK    2  A    between atoms: N1_3  and  C2_4 
REMARK    3  A    between atoms: C2_4  and  C3_5 
REMARK    4  A    between atoms: C2_4  and  C10_15 
REMARK       I    between atoms: C3_5  and  N2_7 
REMARK    5  A    between atoms: N2_7  and  C4_9 
REMARK    6  A    between atoms: C10_15  and  O3_16 
REMARK    7  A    between atoms: C10_15  and  C11_18 
ROOT
HETATM    1  C2  UNL     1      90.277  90.461 -47.681  1.00  0.00     0.212 C 
ENDROOT
BRANCH   1   2
HETATM    2  N1  UNL     1      90.607  89.164 -48.212  1.00  0.00    -0.357 NA
HETATM    3  C1  UNL     1      90.908  87.983 -48.695  1.00  0.00     0.333 C 
HETATM    4  O1  UNL     1      91.991  87.316 -48.570  1.00  0.00    -0.250 OA
BRANCH   3   5
HETATM    5  C17 UNL     1      89.864  87.266 -49.515  1.00  0.00     0.087 A 
HETATM    6  C18 UNL     1      89.023  87.783 -50.447  1.00  0.00     0.026 A 
HETATM    7  C19 UNL     1      88.167  86.958 -51.050  1.00  0.00     0.009 A 
HETATM    8  C20 UNL     1      88.208  85.635 -50.676  1.00  0.00     0.051 A 
HETATM    9  S1  UNL     1      89.440  85.603 -49.500  1.00  0.00    -0.095 SA
ENDBRANCH   3   5
ENDBRANCH   1   2
BRANCH   1  10
HETATM   10  C3  UNL     1      91.234  90.874 -46.679  1.00  0.00     0.285 C 
HETATM   11  O2  UNL     1      92.473  90.820 -47.010  1.00  0.00    -0.265 OA
HETATM   12  N2  UNL     1      90.990  91.326 -45.358  1.00  0.00    -0.350 N 
ATOM     13  H2  UNL     1      90.014  91.376 -45.068  1.00  0.00     0.163 HD
BRANCH  12  14
HETATM   14  C4  UNL     1      91.955  91.714 -44.399  1.00  0.00     0.084 C 
HETATM   15  C5  UNL     1      91.857  90.941 -43.095  1.00  0.00     0.025 C 
HETATM   16  C6  UNL     1      93.097  91.294 -42.301  1.00  0.00     0.002 C 
HETATM   17  C7  UNL     1      92.927  92.682 -41.745  1.00  0.00     0.000 C 
HETATM   18  C8  UNL     1      91.900  93.411 -42.531  1.00  0.00     0.002 C 
HETATM   19  C9  UNL     1      91.994  93.164 -44.043  1.00  0.00     0.025 C 
ENDBRANCH  12  14
ENDBRANCH   1  10
BRANCH   1  20
HETATM   20  C10 UNL     1      89.804  91.346 -48.744  1.00  0.00     0.122 C 
BRANCH  20  21
HETATM   21  O3  UNL     1      90.770  91.631 -49.621  1.00  0.00    -0.357 OA
ATOM     22  H3  UNL     1      91.634  91.473 -49.258  1.00  0.00     0.218 HD
ENDBRANCH  20  21
BRANCH  20  23
HETATM   23  C11 UNL     1      88.577  91.975 -49.072  1.00  0.00     0.001 A 
HETATM   24  C12 UNL     1      87.495  91.250 -49.593  1.00  0.00     0.016 A 
HETATM   25  C13 UNL     1      86.299  91.749 -49.983  1.00  0.00     0.024 A 
HETATM   26  C14 UNL     1      86.097  93.134 -49.861  1.00  0.00     0.034 A 
HETATM   27 CL1  UNL     1      84.573  93.851 -50.343  1.00  0.00    -0.084 Cl
HETATM   28  C15 UNL     1      87.122  93.872 -49.360  1.00  0.00     0.024 A 
HETATM   29  C16 UNL     1      88.346  93.332 -48.967  1.00  0.00     0.016 A 
ENDBRANCH  20  23
ENDBRANCH   1  20
TORSDOF 7
ENDMDL
MODEL 5
REMARK VINA RESULT: -7.365790545      1.732      2.026
REMARK  7 active torsions:
REMARK  status: ('A' for Active; 'I' for Inactive)
REMARK       I    between atoms: C1_2  and  N1_3 
REMARK    1  A    between atoms: C1_2  and  C17_25 
REMARK    2  A    between atoms: N1_3  and  C2_4 
REMARK    3  A    between atoms: C2_4  and  C3_5 
REMARK    4  A    between atoms: C2_4  and  C10_15 
REMARK       I    between atoms: C3_5  and  N2_7 
REMARK    5  A    between atoms: N2_7  and  C4_9 
REMARK    6  A    between atoms: C10_15  and  O3_16 
REMARK    7  A    between atoms: C10_15  and  C11_18 
ROOT
HETATM    1  C2  UNL     1      91.288  94.948 -44.959  1.00  0.00     0.212 C 
ENDROOT
BRANCH   1   2
HETATM    2  N1  UNL     1      91.388  94.418 -43.624  1.00  0.00    -0.357 NA
HETATM    3  C1  UNL     1      91.479  93.936 -42.410  1.00  0.00     0.333 C 
HETATM    4  O1  UNL     1      90.925  94.354 -41.335  1.00  0.00    -0.250 OA
BRANCH   3   5
HETATM    5  C17 UNL     1      92.339  92.715 -42.193  1.00  0.00     0.087 A 
HETATM    6  C18 UNL     1      93.451  92.595 -41.424  1.00  0.00     0.026 A 
HETATM    7  C19 UNL     1      94.064  91.411 -41.386  1.00  0.00     0.009 A 
HETATM    8  C20 UNL     1      93.513  90.398 -42.135  1.00  0.00     0.051 A 
HETATM    9  S1  UNL     1      92.162  91.143 -42.859  1.00  0.00    -0.095 SA
ENDBRANCH   3   5
ENDBRANCH   1   2
BRANCH   1  10
HETATM   10  C3  UNL     1      90.535  94.061 -45.818  1.00  0.00     0.285 C 
HETATM   11  O2  UNL     1      89.452  94.531 -46.321  1.00  0.00    -0.265 OA
HETATM   12  N2  UNL     1      90.827  92.722 -46.178  1.00  0.00    -0.350 N 
ATOM     13  H2  UNL     1      91.681  92.323 -45.790  1.00  0.00     0.163 HD
BRANCH  12  14
HETATM   14  C4  UNL     1      90.060  91.879 -47.016  1.00  0.00     0.084 C 
HETATM   15  C5  UNL     1      90.495  90.424 -46.973  1.00  0.00     0.025 C 
HETATM   16  C6  UNL     1      89.428  89.642 -47.709  1.00  0.00     0.002 C 
HETATM   17  C7  UNL     1      89.599  89.878 -49.185  1.00  0.00     0.000 C 
HETATM   18  C8  UNL     1      90.372  91.126 -49.404  1.00  0.00     0.002 C 
HETATM   19  C9  UNL     1      89.979  92.267 -48.456  1.00  0.00     0.025 C 
ENDBRANCH  12  14
ENDBRANCH   1  10
BRANCH   1  20
HETATM   20  C10 UNL     1      91.075  96.394 -44.924  1.00  0.00     0.122 C 
BRANCH  20  21
HETATM   21  O3  UNL     1      91.996  97.050 -45.634  1.00  0.00    -0.357 OA
ATOM     22  H3  UNL     1      92.056  96.723 -46.524  1.00  0.00     0.218 HD
ENDBRANCH  20  21
BRANCH  20  23
HETATM   23  C11 UNL     1      90.135  97.268 -44.324  1.00  0.00     0.001 A 
HETATM   24  C12 UNL     1      88.927  97.595 -44.958  1.00  0.00     0.016 A 
HETATM   25  C13 UNL     1      87.980  98.450 -44.504  1.00  0.00     0.024 A 
HETATM   26  C14 UNL     1      88.209  99.085 -43.271  1.00  0.00     0.034 A 
HETATM   27 CL1  UNL     1      87.027 100.201 -42.619  1.00  0.00    -0.084 Cl
HETATM   28  C15 UNL     1      89.368  98.794 -42.627  1.00  0.00     0.024 A 
HETATM   29  C16 UNL     1      90.329  97.910 -43.118  1.00  0.00     0.016 A 
ENDBRANCH  20  23
ENDBRANCH   1  20
TORSDOF 7
ENDMDL
