MODEL 1
REMARK VINA RESULT: -8.325416795      0.000      0.000
REMARK  5 active torsions:
REMARK  status: ('A' for Active; 'I' for Inactive)
REMARK       I    between atoms: C1_2  and  N1_3 
REMARK    1  A    between atoms: C1_2  and  C13_19 
REMARK    2  A    between atoms: N1_3  and  C2_5 
REMARK    3  A    between atoms: C5_8  and  N2_9 
REMARK    4  A    between atoms: N2_9  and  C6_12 
REMARK    5  A    between atoms: N3_23  and  C17_24 
ROOT
HETATM    1  O1  UNL     1      90.213  96.798 -46.540  1.00  0.00    -0.273 OA
HETATM    2  C1  UNL     1      90.846  96.239 -45.632  1.00  0.00     0.223 C 
HETATM    3  N1  UNL     1      91.209  96.968 -44.479  1.00  0.00    -0.356 N 
ATOM      4  H1  UNL     1      91.732  96.511 -43.731  1.00  0.00     0.162 HD
ENDROOT
BRANCH   2   5
HETATM    5  C13 UNL     1      91.225  94.827 -45.740  1.00  0.00     0.096 C 
HETATM    6  C14 UNL     1      90.491  94.150 -46.891  1.00  0.00     0.017 C 
HETATM    7  C15 UNL     1      91.016  92.771 -47.049  1.00  0.00     0.021 C 
HETATM    8  C16 UNL     1      90.998  91.955 -45.784  1.00  0.00     0.124 C 
HETATM    9  N3  UNL     1      91.342  92.740 -44.615  1.00  0.00    -0.366 N 
HETATM   10  C22 UNL     1      90.784  94.056 -44.482  1.00  0.00     0.138 C 
BRANCH   9  11
HETATM   11  C17 UNL     1      92.209  92.218 -43.617  1.00  0.00     0.104 A 
HETATM   12  C18 UNL     1      93.379  92.812 -43.208  1.00  0.00     0.048 A 
HETATM   13  C19 UNL     1      94.193  92.259 -42.212  1.00  0.00     0.007 A 
HETATM   14  C20 UNL     1      93.827  91.075 -41.606  1.00  0.00     0.042 A 
HETATM   15  C21 UNL     1      92.649  90.503 -42.037  1.00  0.00     0.104 A 
HETATM   16 CL1  UNL     1      92.194  88.992 -41.252  1.00  0.00    -0.065 Cl
HETATM   17  N4  UNL     1      91.883  91.046 -42.991  1.00  0.00    -0.333 N 
ATOM     18  H4  UNL     1      91.023  90.568 -43.261  1.00  0.00     0.168 HD
ENDBRANCH   9  11
ENDBRANCH   2   5
BRANCH   3  19
HETATM   19  C2  UNL     1      90.840  98.375 -44.355  1.00  0.00     0.084 C 
HETATM   20  C3  UNL     1      89.703  98.403 -43.363  1.00  0.00     0.027 C 
HETATM   21  C4  UNL     1      89.490  99.705 -42.682  1.00  0.00     0.035 C 
HETATM   22  C5  UNL     1      90.759 100.458 -42.356  1.00  0.00     0.186 C 
HETATM   23  C11 UNL     1      91.880  99.426 -42.413  1.00  0.00     0.035 C 
HETATM   24  C12 UNL     1      92.065  99.100 -43.885  1.00  0.00     0.027 C 
BRANCH  22  25
HETATM   25  N2  UNL     1      90.689 101.068 -41.065  1.00  0.00    -0.067 N 
ATOM     26  H22 UNL     1      89.810 100.851 -40.597  1.00  0.00     0.278 HD
ATOM     27  H21 UNL     1      91.332 100.624 -40.409  1.00  0.00     0.278 HD
BRANCH  25  28
HETATM   28  C6  UNL     1      90.908 102.485 -41.137  1.00  0.00     0.186 C 
HETATM   29  C7  UNL     1      92.329 102.811 -41.526  1.00  0.00     0.033 C 
HETATM   30  C8  UNL     1      93.074 102.334 -40.291  1.00  0.00     0.002 C 
HETATM   31  C9  UNL     1      92.141 102.710 -39.133  1.00  0.00     0.002 C 
HETATM   32  C10 UNL     1      90.832 103.133 -39.767  1.00  0.00     0.033 C 
ENDBRANCH  25  28
ENDBRANCH  22  25
ENDBRANCH   3  19
TORSDOF 5
ENDMDL
MODEL 2
REMARK VINA RESULT: -8.213380068      0.839      1.066
REMARK  5 active torsions:
REMARK  status: ('A' for Active; 'I' for Inactive)
REMARK       I    between atoms: C1_2  and  N1_3 
REMARK    1  A    between atoms: C1_2  and  C13_19 
REMARK    2  A    between atoms: N1_3  and  C2_5 
REMARK    3  A    between atoms: C5_8  and  N2_9 
REMARK    4  A    between atoms: N2_9  and  C6_12 
REMARK    5  A    between atoms: N3_23  and  C17_24 
ROOT
HETATM    1  O1  UNL     1      90.172  96.573 -46.558  1.00  0.00    -0.273 OA
HETATM    2  C1  UNL     1      90.864  96.037 -45.678  1.00  0.00     0.223 C 
HETATM    3  N1  UNL     1      91.288  96.793 -44.563  1.00  0.00    -0.356 N 
ATOM      4  H1  UNL     1      91.858  96.356 -43.839  1.00  0.00     0.162 HD
ENDROOT
BRANCH   2   5
HETATM    5  C13 UNL     1      91.250  94.627 -45.781  1.00  0.00     0.096 C 
HETATM    6  C14 UNL     1      90.524  93.943 -46.931  1.00  0.00     0.017 C 
HETATM    7  C15 UNL     1      91.056  92.566 -47.084  1.00  0.00     0.021 C 
HETATM    8  C16 UNL     1      91.038  91.754 -45.816  1.00  0.00     0.124 C 
HETATM    9  N3  UNL     1      91.374  92.545 -44.649  1.00  0.00    -0.366 N 
HETATM   10  C22 UNL     1      90.809  93.857 -44.522  1.00  0.00     0.138 C 
BRANCH   9  11
HETATM   11  C17 UNL     1      92.240  92.030 -43.646  1.00  0.00     0.104 A 
HETATM   12  C18 UNL     1      93.438  92.595 -43.282  1.00  0.00     0.048 A 
HETATM   13  C19 UNL     1      94.251  92.051 -42.279  1.00  0.00     0.007 A 
HETATM   14  C20 UNL     1      93.854  90.906 -41.620  1.00  0.00     0.042 A 
HETATM   15  C21 UNL     1      92.647  90.362 -42.007  1.00  0.00     0.104 A 
HETATM   16 CL1  UNL     1      92.152  88.901 -41.155  1.00  0.00    -0.065 Cl
HETATM   17  N4  UNL     1      91.883  90.896 -42.968  1.00  0.00    -0.333 N 
ATOM     18  H4  UNL     1      91.002  90.440 -43.204  1.00  0.00     0.168 HD
ENDBRANCH   9  11
ENDBRANCH   2   5
BRANCH   3  19
HETATM   19  C2  UNL     1      90.912  98.199 -44.445  1.00  0.00     0.084 C 
HETATM   20  C3  UNL     1      90.743  98.445 -42.966  1.00  0.00     0.027 C 
HETATM   21  C4  UNL     1      90.869  99.862 -42.541  1.00  0.00     0.035 C 
HETATM   22  C5  UNL     1      91.912 100.653 -43.297  1.00  0.00     0.186 C 
HETATM   23  C11 UNL     1      92.830  99.620 -43.940  1.00  0.00     0.035 C 
HETATM   24  C12 UNL     1      92.023  98.994 -45.064  1.00  0.00     0.027 C 
BRANCH  22  25
HETATM   25  N2  UNL     1      92.645 101.518 -42.426  1.00  0.00    -0.067 N 
ATOM     26  H22 UNL     1      93.592 101.175 -42.269  1.00  0.00     0.278 HD
ATOM     27  H21 UNL     1      92.870 102.402 -42.883  1.00  0.00     0.278 HD
BRANCH  25  28
HETATM   28  C6  UNL     1      91.952 101.731 -41.186  1.00  0.00     0.186 C 
HETATM   29  C7  UNL     1      91.613 103.186 -40.978  1.00  0.00     0.033 C 
HETATM   30  C8  UNL     1      93.002 103.773 -40.789  1.00  0.00     0.002 C 
HETATM   31  C9  UNL     1      93.748 102.697 -39.991  1.00  0.00     0.002 C 
HETATM   32  C10 UNL     1      92.853 101.474 -39.992  1.00  0.00     0.033 C 
ENDBRANCH  25  28
ENDBRANCH  22  25
ENDBRANCH   3  19
TORSDOF 5
ENDMDL
MODEL 3
REMARK VINA RESULT: -7.858174276      2.446      3.468
REMARK  5 active torsions:
REMARK  status: ('A' for Active; 'I' for Inactive)
REMARK       I    between atoms: C1_2  and  N1_3 
REMARK    1  A    between atoms: C1_2  and  C13_19 
REMARK    2  A    between atoms: N1_3  and  C2_5 
REMARK    3  A    between atoms: C5_8  and  N2_9 
REMARK    4  A    between atoms: N2_9  and  C6_12 
REMARK    5  A    between atoms: N3_23  and  C17_24 
ROOT
HETATM    1  O1  UNL     1      92.350  97.529 -45.456  1.00  0.00    -0.273 OA
HETATM    2  C1  UNL     1      91.443  96.745 -45.138  1.00  0.00     0.223 C 
HETATM    3  N1  UNL     1      90.257  97.244 -44.556  1.00  0.00    -0.356 N 
ATOM      4  H1  UNL     1      89.509  96.601 -44.293  1.00  0.00     0.162 HD
ENDROOT
BRANCH   2   5
HETATM    5  C13 UNL     1      91.584  95.302 -45.361  1.00  0.00     0.096 C 
HETATM    6  C14 UNL     1      90.652  94.825 -46.467  1.00  0.00     0.017 C 
HETATM    7  C15 UNL     1      90.938  93.397 -46.752  1.00  0.00     0.021 C 
HETATM    8  C16 UNL     1      90.908  92.507 -45.538  1.00  0.00     0.124 C 
HETATM    9  N3  UNL     1      91.476  93.149 -44.369  1.00  0.00    -0.366 N 
HETATM   10  C22 UNL     1      91.144  94.521 -44.109  1.00  0.00     0.138 C 
BRANCH   9  11
HETATM   11  C17 UNL     1      92.337  92.434 -43.493  1.00  0.00     0.104 A 
HETATM   12  C18 UNL     1      93.610  92.827 -43.155  1.00  0.00     0.048 A 
HETATM   13  C19 UNL     1      94.415  92.089 -42.279  1.00  0.00     0.007 A 
HETATM   14  C20 UNL     1      93.934  90.922 -41.723  1.00  0.00     0.042 A 
HETATM   15  C21 UNL     1      92.654  90.554 -42.080  1.00  0.00     0.104 A 
HETATM   16 CL1  UNL     1      92.052  89.062 -41.360  1.00  0.00    -0.065 Cl
HETATM   17  N4  UNL     1      91.898  91.272 -42.920  1.00  0.00    -0.333 N 
ATOM     18  H4  UNL     1      90.959  90.940 -43.141  1.00  0.00     0.168 HD
ENDBRANCH   9  11
ENDBRANCH   2   5
BRANCH   3  19
HETATM   19  C2  UNL     1      90.099  98.677 -44.328  1.00  0.00     0.084 C 
HETATM   20  C3  UNL     1      88.829  99.059 -45.049  1.00  0.00     0.027 C 
HETATM   21  C4  UNL     1      88.178 100.302 -44.566  1.00  0.00     0.035 C 
HETATM   22  C5  UNL     1      88.259 100.513 -43.072  1.00  0.00     0.186 C 
HETATM   23  C11 UNL     1      88.581  99.147 -42.476  1.00  0.00     0.035 C 
HETATM   24  C12 UNL     1      90.029  98.870 -42.843  1.00  0.00     0.027 C 
BRANCH  22  25
HETATM   25  N2  UNL     1      87.030 101.024 -42.548  1.00  0.00    -0.067 N 
ATOM     26  H22 UNL     1      86.637 100.399 -41.844  1.00  0.00     0.278 HD
ATOM     27  H21 UNL     1      87.187 101.843 -41.961  1.00  0.00     0.278 HD
BRANCH  25  28
HETATM   28  C6  UNL     1      86.084 101.299 -43.591  1.00  0.00     0.186 C 
HETATM   29  C7  UNL     1      85.774 102.772 -43.689  1.00  0.00     0.033 C 
HETATM   30  C8  UNL     1      85.030 102.990 -42.382  1.00  0.00     0.002 C 
HETATM   31  C9  UNL     1      84.209 101.706 -42.211  1.00  0.00     0.002 C 
HETATM   32  C10 UNL     1      84.711 100.740 -43.264  1.00  0.00     0.033 C 
ENDBRANCH  25  28
ENDBRANCH  22  25
ENDBRANCH   3  19
TORSDOF 5
ENDMDL
MODEL 4
REMARK VINA RESULT: -7.760970593      1.439      1.728
REMARK  5 active torsions:
REMARK  status: ('A' for Active; 'I' for Inactive)
REMARK       I    between atoms: C1_2  and  N1_3 
REMARK    1  A    between atoms: C1_2  and  C13_19 
REMARK    2  A    between atoms: N1_3  and  C2_5 
REMARK    3  A    between atoms: C5_8  and  N2_9 
REMARK    4  A    between atoms: N2_9  and  C6_12 
REMARK    5  A    between atoms: N3_23  and  C17_24 
ROOT
HETATM    1  O1  UNL     1      90.148  96.289 -46.604  1.00  0.00    -0.273 OA
HETATM    2  C1  UNL     1      90.842  95.776 -45.713  1.00  0.00     0.223 C 
HETATM    3  N1  UNL     1      91.241  96.551 -44.602  1.00  0.00    -0.356 N 
ATOM      4  H1  UNL     1      91.812  96.132 -43.868  1.00  0.00     0.162 HD
ENDROOT
BRANCH   2   5
HETATM    5  C13 UNL     1      91.252  94.371 -45.795  1.00  0.00     0.096 C 
HETATM    6  C14 UNL     1      90.499  93.645 -46.902  1.00  0.00     0.017 C 
HETATM    7  C15 UNL     1      91.054  92.275 -47.041  1.00  0.00     0.021 C 
HETATM    8  C16 UNL     1      91.099  91.494 -45.754  1.00  0.00     0.124 C 
HETATM    9  N3  UNL     1      91.461  92.320 -44.620  1.00  0.00    -0.366 N 
HETATM   10  C22 UNL     1      90.874  93.624 -44.503  1.00  0.00     0.138 C 
BRANCH   9  11
HETATM   11  C17 UNL     1      92.374  91.847 -43.637  1.00  0.00     0.104 A 
HETATM   12  C18 UNL     1      92.048  90.986 -42.618  1.00  0.00     0.048 A 
HETATM   13  C19 UNL     1      92.990  90.543 -41.680  1.00  0.00     0.007 A 
HETATM   14  C20 UNL     1      94.297  90.976 -41.764  1.00  0.00     0.042 A 
HETATM   15  C21 UNL     1      94.593  91.839 -42.797  1.00  0.00     0.104 A 
HETATM   16 CL1  UNL     1      96.268  92.381 -42.892  1.00  0.00    -0.065 Cl
HETATM   17  N4  UNL     1      93.680  92.252 -43.685  1.00  0.00    -0.333 N 
ATOM     18  H4  UNL     1      93.969  92.892 -44.424  1.00  0.00     0.168 HD
ENDBRANCH   9  11
ENDBRANCH   2   5
BRANCH   3  19
HETATM   19  C2  UNL     1      90.840  97.951 -44.503  1.00  0.00     0.084 C 
HETATM   20  C3  UNL     1      90.636  98.206 -43.030  1.00  0.00     0.027 C 
HETATM   21  C4  UNL     1      90.730  99.628 -42.615  1.00  0.00     0.035 C 
HETATM   22  C5  UNL     1      91.775 100.430 -43.354  1.00  0.00     0.186 C 
HETATM   23  C11 UNL     1      92.724  99.407 -43.970  1.00  0.00     0.035 C 
HETATM   24  C12 UNL     1      91.951  98.759 -45.105  1.00  0.00     0.027 C 
BRANCH  22  25
HETATM   25  N2  UNL     1      92.475 101.315 -42.475  1.00  0.00    -0.067 N 
ATOM     26  H22 UNL     1      93.424 100.987 -42.295  1.00  0.00     0.278 HD
ATOM     27  H21 UNL     1      92.696 102.198 -42.935  1.00  0.00     0.278 HD
BRANCH  25  28
HETATM   28  C6  UNL     1      91.754 101.526 -41.253  1.00  0.00     0.186 C 
HETATM   29  C7  UNL     1      91.362 102.972 -41.078  1.00  0.00     0.033 C 
HETATM   30  C8  UNL     1      92.726 103.609 -40.875  1.00  0.00     0.002 C 
HETATM   31  C9  UNL     1      93.493 102.574 -40.043  1.00  0.00     0.002 C 
HETATM   32  C10 UNL     1      92.639 101.321 -40.037  1.00  0.00     0.033 C 
ENDBRANCH  25  28
ENDBRANCH  22  25
ENDBRANCH   3  19
TORSDOF 5
ENDMDL
MODEL 5
REMARK VINA RESULT: -7.522442534      2.536      3.834
REMARK  5 active torsions:
REMARK  status: ('A' for Active; 'I' for Inactive)
REMARK       I    between atoms: C1_2  and  N1_3 
REMARK    1  A    between atoms: C1_2  and  C13_19 
REMARK    2  A    between atoms: N1_3  and  C2_5 
REMARK    3  A    between atoms: C5_8  and  N2_9 
REMARK    4  A    between atoms: N2_9  and  C6_12 
REMARK    5  A    between atoms: N3_23  and  C17_24 
ROOT
HETATM    1  O1  UNL     1      92.413  97.552 -45.547  1.00  0.00    -0.273 OA
HETATM    2  C1  UNL     1      91.536  96.794 -45.106  1.00  0.00     0.223 C 
HETATM    3  N1  UNL     1      90.444  97.328 -44.388  1.00  0.00    -0.356 N 
ATOM      4  H1  UNL     1      89.721  96.707 -44.024  1.00  0.00     0.162 HD
ENDROOT
BRANCH   2   5
HETATM    5  C13 UNL     1      91.617  95.346 -45.321  1.00  0.00     0.096 C 
HETATM    6  C14 UNL     1      90.632  94.896 -46.392  1.00  0.00     0.017 C 
HETATM    7  C15 UNL     1      90.856  93.456 -46.675  1.00  0.00     0.021 C 
HETATM    8  C16 UNL     1      90.834  92.576 -45.453  1.00  0.00     0.124 C 
HETATM    9  N3  UNL     1      91.463  93.205 -44.309  1.00  0.00    -0.366 N 
HETATM   10  C22 UNL     1      91.191  94.590 -44.049  1.00  0.00     0.138 C 
BRANCH   9  11
HETATM   11  C17 UNL     1      92.327  92.464 -43.456  1.00  0.00     0.104 A 
HETATM   12  C18 UNL     1      93.609  92.835 -43.131  1.00  0.00     0.048 A 
HETATM   13  C19 UNL     1      94.417  92.072 -42.277  1.00  0.00     0.007 A 
HETATM   14  C20 UNL     1      93.927  90.903 -41.733  1.00  0.00     0.042 A 
HETATM   15  C21 UNL     1      92.637  90.558 -42.078  1.00  0.00     0.104 A 
HETATM   16 CL1  UNL     1      92.025  89.063 -41.372  1.00  0.00    -0.065 Cl
HETATM   17  N4  UNL     1      91.880  91.299 -42.895  1.00  0.00    -0.333 N 
ATOM     18  H4  UNL     1      90.934  90.984 -43.108  1.00  0.00     0.168 HD
ENDBRANCH   9  11
ENDBRANCH   2   5
BRANCH   3  19
HETATM   19  C2  UNL     1      90.347  98.767 -44.165  1.00  0.00     0.084 C 
HETATM   20  C3  UNL     1      89.581  99.305 -45.349  1.00  0.00     0.027 C 
HETATM   21  C4  UNL     1      88.912 100.612 -45.130  1.00  0.00     0.035 C 
HETATM   22  C5  UNL     1      88.335 100.796 -43.745  1.00  0.00     0.186 C 
HETATM   23  C11 UNL     1      88.217  99.396 -43.155  1.00  0.00     0.035 C 
HETATM   24  C12 UNL     1      89.638  98.953 -42.857  1.00  0.00     0.027 C 
BRANCH  22  25
HETATM   25  N2  UNL     1      87.061 101.443 -43.791  1.00  0.00    -0.067 N 
ATOM     26  H22 UNL     1      86.958 102.117 -43.032  1.00  0.00     0.278 HD
ATOM     27  H21 UNL     1      86.997 102.084 -44.581  1.00  0.00     0.278 HD
BRANCH  25  28
HETATM   28  C6  UNL     1      85.986 100.493 -43.797  1.00  0.00     0.186 C 
HETATM   29  C7  UNL     1      85.414 100.306 -45.181  1.00  0.00     0.033 C 
HETATM   30  C8  UNL     1      84.773 101.666 -45.405  1.00  0.00     0.002 C 
HETATM   31  C9  UNL     1      84.210 102.035 -44.027  1.00  0.00     0.002 C 
HETATM   32  C10 UNL     1      84.770 101.017 -43.055  1.00  0.00     0.033 C 
ENDBRANCH  25  28
ENDBRANCH  22  25
ENDBRANCH   3  19
TORSDOF 5
ENDMDL
