MODEL 1
REMARK VINA RESULT: -7.595844755      0.000      0.000
REMARK  6 active torsions:
REMARK  status: ('A' for Active; 'I' for Inactive)
REMARK    1  A    between atoms: N1_1  and  C1_5 
REMARK    2  A    between atoms: C3_7  and  N2_8 
REMARK       I    between atoms: N2_8  and  C4_10 
REMARK    3  A    between atoms: C4_10  and  C5_12 
REMARK    4  A    between atoms: C8_15  and  O2_16 
REMARK    5  A    between atoms: O2_16  and  C9_17 
REMARK    6  A    between atoms: C14_22  and  C15_23 
ROOT
HETATM    1  N2  UNL     1      91.770  99.606 -43.194  1.00  0.00    -0.346 N 
ATOM      2  H2  UNL     1      92.753  99.335 -43.217  1.00  0.00     0.163 HD
HETATM    3  C4  UNL     1      90.810  98.586 -42.896  1.00  0.00     0.252 C 
HETATM    4  O1  UNL     1      89.576  98.779 -42.852  1.00  0.00    -0.268 OA
ENDROOT
BRANCH   1   5
HETATM    5  C3  UNL     1      91.460 100.961 -43.458  1.00  0.00     0.048 C 
HETATM    6  C2  UNL     1      90.676 101.562 -42.306  1.00  0.00     0.068 C 
HETATM    7  C1  UNL     1      91.483 101.864 -41.091  1.00  0.00     0.219 C 
HETATM    8  C22 UNL     1      92.769 102.572 -41.407  1.00  0.00     0.201 C 
HETATM    9  C21 UNL     1      93.470 101.956 -42.566  1.00  0.00     0.047 C 
HETATM   10  F1  UNL     1      93.628 102.420 -40.301  1.00  0.00    -0.247 F 
HETATM   11  C20 UNL     1      92.592 101.851 -43.794  1.00  0.00     0.026 C 
HETATM   12  C19 UNL     1      92.058 103.188 -44.162  1.00  0.00     0.081 C 
HETATM   13  S1  UNL     1      90.552 102.731 -45.104  1.00  0.00    -0.166 SA
HETATM   14  C18 UNL     1      90.498 100.956 -44.649  1.00  0.00     0.105 C 
BRANCH   7  15
HETATM   15  N1  UNL     1      91.802 100.742 -40.263  1.00  0.00    -0.072 N 
ATOM     16  H13 UNL     1      91.492 100.916 -39.307  1.00  0.00     0.274 HD
ATOM     17  H12 UNL     1      91.206  99.950 -40.506  1.00  0.00     0.274 HD
ATOM     18  H11 UNL     1      92.780 100.455 -40.265  1.00  0.00     0.274 HD
ENDBRANCH   7  15
ENDBRANCH   1   5
BRANCH   3  19
HETATM   19  C5  UNL     1      91.227  97.218 -42.623  1.00  0.00     0.038 A 
HETATM   20  C6  UNL     1      91.514  96.844 -41.337  1.00  0.00     0.020 A 
HETATM   21  C7  UNL     1      91.848  95.554 -40.996  1.00  0.00     0.038 A 
HETATM   22  C8  UNL     1      91.909  94.551 -41.978  1.00  0.00     0.069 A 
HETATM   23  C13 UNL     1      91.623  94.919 -43.270  1.00  0.00     0.045 A 
HETATM   24  C14 UNL     1      91.285  96.242 -43.584  1.00  0.00    -0.036 A 
BRANCH  22  25
HETATM   25  O2  UNL     1      92.237  93.276 -41.647  1.00  0.00    -0.346 OA
BRANCH  25  26
HETATM   26  C9  UNL     1      93.278  92.565 -42.240  1.00  0.00     0.129 C 
HETATM   27  C10 UNL     1      94.454  92.481 -41.271  1.00  0.00     0.032 C 
HETATM   28  C11 UNL     1      94.526  91.007 -41.591  1.00  0.00     0.005 C 
HETATM   29  C12 UNL     1      93.097  91.040 -42.050  1.00  0.00     0.032 C 
ENDBRANCH  25  26
ENDBRANCH  22  25
BRANCH  24  30
HETATM   30  C15 UNL     1      91.024  96.613 -44.983  1.00  0.00     0.020 A 
HETATM   31  C16 UNL     1      89.685  96.420 -45.576  1.00  0.00     0.010 A 
HETATM   32  C17 UNL     1      90.860  95.559 -46.023  1.00  0.00     0.010 A 
ENDBRANCH  24  30
ENDBRANCH   3  19
TORSDOF 6
ENDMDL
MODEL 2
REMARK VINA RESULT: -7.543463065      1.844      2.705
REMARK  6 active torsions:
REMARK  status: ('A' for Active; 'I' for Inactive)
REMARK    1  A    between atoms: N1_1  and  C1_5 
REMARK    2  A    between atoms: C3_7  and  N2_8 
REMARK       I    between atoms: N2_8  and  C4_10 
REMARK    3  A    between atoms: C4_10  and  C5_12 
REMARK    4  A    between atoms: C8_15  and  O2_16 
REMARK    5  A    between atoms: O2_16  and  C9_17 
REMARK    6  A    between atoms: C14_22  and  C15_23 
ROOT
HETATM    1  N2  UNL     1      91.924  99.442 -43.161  1.00  0.00    -0.346 N 
ATOM      2  H2  UNL     1      92.835  99.081 -43.444  1.00  0.00     0.163 HD
HETATM    3  C4  UNL     1      90.962  98.500 -42.673  1.00  0.00     0.252 C 
HETATM    4  O1  UNL     1      89.806  98.808 -42.310  1.00  0.00    -0.268 OA
ENDROOT
BRANCH   1   5
HETATM    5  C3  UNL     1      91.708 100.836 -43.281  1.00  0.00     0.048 C 
HETATM    6  C2  UNL     1      92.655 101.435 -44.304  1.00  0.00     0.068 C 
HETATM    7  C1  UNL     1      92.308 101.143 -45.723  1.00  0.00     0.219 C 
HETATM    8  C22 UNL     1      90.852 101.354 -46.022  1.00  0.00     0.201 C 
HETATM    9  C21 UNL     1      89.980 100.775 -44.964  1.00  0.00     0.047 C 
HETATM   10  F1  UNL     1      90.550 100.657 -47.208  1.00  0.00    -0.247 F 
HETATM   11  C20 UNL     1      90.328 101.274 -43.579  1.00  0.00     0.026 C 
HETATM   12  C19 UNL     1      90.277 102.758 -43.537  1.00  0.00     0.081 C 
HETATM   13  S1  UNL     1      91.386 103.121 -42.123  1.00  0.00    -0.166 SA
HETATM   14  C18 UNL     1      92.115 101.449 -41.938  1.00  0.00     0.105 C 
BRANCH   7  15
HETATM   15  N1  UNL     1      92.658  99.837 -46.192  1.00  0.00    -0.072 N 
ATOM     16  H13 UNL     1      92.483  99.147 -45.461  1.00  0.00     0.274 HD
ATOM     17  H12 UNL     1      91.989  99.530 -46.898  1.00  0.00     0.274 HD
ATOM     18  H11 UNL     1      93.609  99.735 -46.546  1.00  0.00     0.274 HD
ENDBRANCH   7  15
ENDBRANCH   1   5
BRANCH   3  19
HETATM   19  C5  UNL     1      91.281  97.083 -42.572  1.00  0.00     0.038 A 
HETATM   20  C6  UNL     1      91.578  96.544 -41.348  1.00  0.00     0.020 A 
HETATM   21  C7  UNL     1      91.822  95.203 -41.168  1.00  0.00     0.038 A 
HETATM   22  C8  UNL     1      91.776  94.317 -42.258  1.00  0.00     0.069 A 
HETATM   23  C13 UNL     1      91.480  94.852 -43.488  1.00  0.00     0.045 A 
HETATM   24  C14 UNL     1      91.235  96.223 -43.638  1.00  0.00    -0.036 A 
BRANCH  22  25
HETATM   25  O2  UNL     1      92.016  92.993 -42.086  1.00  0.00    -0.346 OA
BRANCH  25  26
HETATM   26  C9  UNL     1      93.188  92.358 -42.489  1.00  0.00     0.129 C 
HETATM   27  C10 UNL     1      94.266  92.557 -41.426  1.00  0.00     0.032 C 
HETATM   28  C11 UNL     1      94.549  91.078 -41.532  1.00  0.00     0.005 C 
HETATM   29  C12 UNL     1      93.178  90.860 -42.104  1.00  0.00     0.032 C 
ENDBRANCH  25  26
ENDBRANCH  22  25
BRANCH  24  30
HETATM   30  C15 UNL     1      90.961  96.771 -44.976  1.00  0.00     0.020 A 
HETATM   31  C16 UNL     1      89.573  96.999 -45.426  1.00  0.00     0.010 A 
HETATM   32  C17 UNL     1      90.417  95.895 -46.050  1.00  0.00     0.010 A 
ENDBRANCH  24  30
ENDBRANCH   3  19
TORSDOF 6
ENDMDL
MODEL 3
REMARK VINA RESULT: -7.395756191      2.162      3.126
REMARK  6 active torsions:
REMARK  status: ('A' for Active; 'I' for Inactive)
REMARK    1  A    between atoms: N1_1  and  C1_5 
REMARK    2  A    between atoms: C3_7  and  N2_8 
REMARK       I    between atoms: N2_8  and  C4_10 
REMARK    3  A    between atoms: C4_10  and  C5_12 
REMARK    4  A    between atoms: C8_15  and  O2_16 
REMARK    5  A    between atoms: O2_16  and  C9_17 
REMARK    6  A    between atoms: C14_22  and  C15_23 
ROOT
HETATM    1  N2  UNL     1      89.794  98.149 -44.598  1.00  0.00    -0.346 N 
ATOM      2  H2  UNL     1      89.070  97.702 -44.036  1.00  0.00     0.163 HD
HETATM    3  C4  UNL     1      90.992  97.405 -44.846  1.00  0.00     0.252 C 
HETATM    4  O1  UNL     1      91.961  97.840 -45.505  1.00  0.00    -0.268 OA
ENDROOT
BRANCH   1   5
HETATM    5  C3  UNL     1      89.538  99.458 -45.073  1.00  0.00     0.048 C 
HETATM    6  C2  UNL     1      88.212  99.966 -44.540  1.00  0.00     0.068 C 
HETATM    7  C1  UNL     1      88.226 100.367 -43.105  1.00  0.00     0.219 C 
HETATM    8  C22 UNL     1      89.410 101.220 -42.750  1.00  0.00     0.201 C 
HETATM    9  C21 UNL     1      90.672 100.686 -43.332  1.00  0.00     0.047 C 
HETATM   10  F1  UNL     1      89.570 101.174 -41.352  1.00  0.00    -0.247 F 
HETATM   11  C20 UNL     1      90.584 100.473 -44.827  1.00  0.00     0.026 C 
HETATM   12  C19 UNL     1      90.194 101.737 -45.506  1.00  0.00     0.081 C 
HETATM   13  S1  UNL     1      89.461 101.101 -47.062  1.00  0.00    -0.166 SA
HETATM   14  C18 UNL     1      89.351  99.335 -46.588  1.00  0.00     0.105 C 
BRANCH   7  15
HETATM   15  N1  UNL     1      88.171  99.293 -42.161  1.00  0.00    -0.072 N 
ATOM     16  H13 UNL     1      87.200  99.078 -41.935  1.00  0.00     0.274 HD
ATOM     17  H12 UNL     1      88.452  98.420 -42.610  1.00  0.00     0.274 HD
ATOM     18  H11 UNL     1      88.706  99.431 -41.304  1.00  0.00     0.274 HD
ENDBRANCH   7  15
ENDBRANCH   1   5
BRANCH   3  19
HETATM   19  C5  UNL     1      91.160  96.055 -44.327  1.00  0.00     0.038 A 
HETATM   20  C6  UNL     1      91.252  95.002 -45.199  1.00  0.00     0.020 A 
HETATM   21  C7  UNL     1      91.478  93.711 -44.782  1.00  0.00     0.038 A 
HETATM   22  C8  UNL     1      91.625  93.419 -43.416  1.00  0.00     0.069 A 
HETATM   23  C13 UNL     1      91.533  94.470 -42.536  1.00  0.00     0.045 A 
HETATM   24  C14 UNL     1      91.303  95.774 -42.993  1.00  0.00    -0.036 A 
BRANCH  22  25
HETATM   25  O2  UNL     1      91.849  92.147 -42.999  1.00  0.00    -0.346 OA
BRANCH  25  26
HETATM   26  C9  UNL     1      93.092  91.521 -43.052  1.00  0.00     0.129 C 
HETATM   27  C10 UNL     1      94.170  92.486 -42.566  1.00  0.00     0.032 C 
HETATM   28  C11 UNL     1      94.697  91.361 -41.709  1.00  0.00     0.005 C 
HETATM   29  C12 UNL     1      93.358  90.687 -41.777  1.00  0.00     0.032 C 
ENDBRANCH  25  26
ENDBRANCH  22  25
BRANCH  24  30
HETATM   30  C15 UNL     1      91.169  96.871 -42.022  1.00  0.00     0.020 A 
HETATM   31  C16 UNL     1      92.276  97.824 -41.804  1.00  0.00     0.010 A 
HETATM   32  C17 UNL     1      91.895  96.820 -40.723  1.00  0.00     0.010 A 
ENDBRANCH  24  30
ENDBRANCH   3  19
TORSDOF 6
ENDMDL
MODEL 4
REMARK VINA RESULT: -7.174347006      2.539      3.369
REMARK  6 active torsions:
REMARK  status: ('A' for Active; 'I' for Inactive)
REMARK    1  A    between atoms: N1_1  and  C1_5 
REMARK    2  A    between atoms: C3_7  and  N2_8 
REMARK       I    between atoms: N2_8  and  C4_10 
REMARK    3  A    between atoms: C4_10  and  C5_12 
REMARK    4  A    between atoms: C8_15  and  O2_16 
REMARK    5  A    between atoms: O2_16  and  C9_17 
REMARK    6  A    between atoms: C14_22  and  C15_23 
ROOT
HETATM    1  N2  UNL     1      89.993  98.494 -43.644  1.00  0.00    -0.346 N 
ATOM      2  H2  UNL     1      89.421  97.773 -44.084  1.00  0.00     0.163 HD
HETATM    3  C4  UNL     1      91.082  98.061 -42.822  1.00  0.00     0.252 C 
HETATM    4  O1  UNL     1      91.850  98.838 -42.213  1.00  0.00    -0.268 OA
ENDROOT
BRANCH   1   5
HETATM    5  C3  UNL     1      89.649  99.844 -43.893  1.00  0.00     0.048 C 
HETATM    6  C2  UNL     1      88.744  99.947 -45.107  1.00  0.00     0.068 C 
HETATM    7  C1  UNL     1      87.338  99.512 -44.877  1.00  0.00     0.219 C 
HETATM    8  C22 UNL     1      86.753 100.073 -43.613  1.00  0.00     0.201 C 
HETATM    9  C21 UNL     1      87.703  99.974 -42.471  1.00  0.00     0.047 C 
HETATM   10  F1  UNL     1      85.638  99.287 -43.267  1.00  0.00    -0.247 F 
HETATM   11  C20 UNL     1      89.048 100.597 -42.772  1.00  0.00     0.026 C 
HETATM   12  C19 UNL     1      88.879 102.015 -43.182  1.00  0.00     0.081 C 
HETATM   13  S1  UNL     1      90.410 102.297 -44.152  1.00  0.00    -0.166 SA
HETATM   14  C18 UNL     1      90.948 100.551 -44.290  1.00  0.00     0.105 C 
BRANCH   7  15
HETATM   15  N1  UNL     1      87.121  98.098 -44.860  1.00  0.00    -0.072 N 
ATOM     16  H13 UNL     1      87.347  97.700 -45.771  1.00  0.00     0.274 HD
ATOM     17  H12 UNL     1      87.830  97.644 -44.282  1.00  0.00     0.274 HD
ATOM     18  H11 UNL     1      86.191  97.797 -44.570  1.00  0.00     0.274 HD
ENDBRANCH   7  15
ENDBRANCH   1   5
BRANCH   3  19
HETATM   19  C5  UNL     1      91.369  96.646 -42.636  1.00  0.00     0.038 A 
HETATM   20  C6  UNL     1      91.571  96.158 -41.372  1.00  0.00     0.020 A 
HETATM   21  C7  UNL     1      91.779  94.823 -41.115  1.00  0.00     0.038 A 
HETATM   22  C8  UNL     1      91.792  93.890 -42.166  1.00  0.00     0.069 A 
HETATM   23  C13 UNL     1      91.591  94.373 -43.436  1.00  0.00     0.045 A 
HETATM   24  C14 UNL     1      91.381  95.738 -43.663  1.00  0.00    -0.036 A 
BRANCH  22  25
HETATM   25  O2  UNL     1      91.996  92.571 -41.919  1.00  0.00    -0.346 OA
BRANCH  25  26
HETATM   26  C9  UNL     1      93.075  91.847 -42.419  1.00  0.00     0.129 C 
HETATM   27  C10 UNL     1      94.360  92.311 -41.738  1.00  0.00     0.032 C 
HETATM   28  C11 UNL     1      94.696  90.855 -41.527  1.00  0.00     0.005 C 
HETATM   29  C12 UNL     1      93.244  90.502 -41.672  1.00  0.00     0.032 C 
ENDBRANCH  25  26
ENDBRANCH  22  25
BRANCH  24  30
HETATM   30  C15 UNL     1      91.210  96.228 -45.040  1.00  0.00     0.020 A 
HETATM   31  C16 UNL     1      89.938  96.020 -45.761  1.00  0.00     0.010 A 
HETATM   32  C17 UNL     1      91.197  95.274 -46.182  1.00  0.00     0.010 A 
ENDBRANCH  24  30
ENDBRANCH   3  19
TORSDOF 6
ENDMDL
MODEL 5
REMARK VINA RESULT: -7.110014062      3.929      5.582
REMARK  6 active torsions:
REMARK  status: ('A' for Active; 'I' for Inactive)
REMARK    1  A    between atoms: N1_1  and  C1_5 
REMARK    2  A    between atoms: C3_7  and  N2_8 
REMARK       I    between atoms: N2_8  and  C4_10 
REMARK    3  A    between atoms: C4_10  and  C5_12 
REMARK    4  A    between atoms: C8_15  and  O2_16 
REMARK    5  A    between atoms: O2_16  and  C9_17 
REMARK    6  A    between atoms: C14_22  and  C15_23 
ROOT
HETATM    1  N2  UNL     1      90.314  96.942 -44.358  1.00  0.00    -0.346 N 
ATOM      2  H2  UNL     1      89.518  96.398 -44.026  1.00  0.00     0.163 HD
HETATM    3  C4  UNL     1      91.268  96.275 -45.191  1.00  0.00     0.252 C 
HETATM    4  O1  UNL     1      92.295  96.821 -45.651  1.00  0.00    -0.268 OA
ENDROOT
BRANCH   1   5
HETATM    5  C3  UNL     1      90.389  98.298 -43.960  1.00  0.00     0.048 C 
HETATM    6  C2  UNL     1      90.704  99.185 -45.149  1.00  0.00     0.068 C 
HETATM    7  C1  UNL     1      89.565  99.404 -46.085  1.00  0.00     0.219 C 
HETATM    8  C22 UNL     1      88.285  99.742 -45.376  1.00  0.00     0.201 C 
HETATM    9  C21 UNL     1      88.054  98.859 -44.200  1.00  0.00     0.047 C 
HETATM   10  F1  UNL     1      87.222  99.499 -46.266  1.00  0.00    -0.247 F 
HETATM   11  C20 UNL     1      89.222  98.847 -43.237  1.00  0.00     0.026 C 
HETATM   12  C19 UNL     1      89.539 100.229 -42.793  1.00  0.00     0.081 C 
HETATM   13  S1  UNL     1      91.298 100.059 -42.304  1.00  0.00    -0.166 SA
HETATM   14  C18 UNL     1      91.605  98.406 -43.035  1.00  0.00     0.105 C 
BRANCH   7  15
HETATM   15  N1  UNL     1      89.287  98.328 -46.985  1.00  0.00    -0.072 N 
ATOM     16  H13 UNL     1      88.328  98.005 -46.856  1.00  0.00     0.274 HD
ATOM     17  H12 UNL     1      89.232  98.680 -47.942  1.00  0.00     0.274 HD
ATOM     18  H11 UNL     1      89.929  97.537 -46.942  1.00  0.00     0.274 HD
ENDBRANCH   7  15
ENDBRANCH   1   5
BRANCH   3  19
HETATM   19  C5  UNL     1      91.098  94.877 -45.561  1.00  0.00     0.038 A 
HETATM   20  C6  UNL     1      90.479  94.562 -46.741  1.00  0.00     0.020 A 
HETATM   21  C7  UNL     1      90.343  93.267 -47.185  1.00  0.00     0.038 A 
HETATM   22  C8  UNL     1      90.847  92.197 -46.426  1.00  0.00     0.069 A 
HETATM   23  C13 UNL     1      91.468  92.507 -45.240  1.00  0.00     0.045 A 
HETATM   24  C14 UNL     1      91.590  93.836 -44.817  1.00  0.00    -0.036 A 
BRANCH  22  25
HETATM   25  O2  UNL     1      90.717  90.918 -46.859  1.00  0.00    -0.346 OA
BRANCH  25  26
HETATM   26  C9  UNL     1      90.706  90.552 -48.203  1.00  0.00     0.129 C 
HETATM   27  C10 UNL     1      91.544  89.291 -48.394  1.00  0.00     0.032 C 
HETATM   28  C11 UNL     1      90.403  88.736 -49.211  1.00  0.00     0.005 C 
HETATM   29  C12 UNL     1      89.463  89.697 -48.544  1.00  0.00     0.032 C 
ENDBRANCH  25  26
ENDBRANCH  22  25
BRANCH  24  30
HETATM   30  C15 UNL     1      92.225  94.132 -43.523  1.00  0.00     0.020 A 
HETATM   31  C16 UNL     1      92.749  93.042 -42.675  1.00  0.00     0.010 A 
HETATM   32  C17 UNL     1      91.515  93.828 -42.250  1.00  0.00     0.010 A 
ENDBRANCH  24  30
ENDBRANCH   3  19
TORSDOF 6
ENDMDL
