MODEL 1
REMARK VINA RESULT: -6.281973948      0.000      0.000
REMARK  7 active torsions:
REMARK  status: ('A' for Active; 'I' for Inactive)
REMARK    1  A    between atoms: C3_3  and  C4_4 
REMARK    2  A    between atoms: C4_4  and  O1_5 
REMARK    3  A    between atoms: C4_4  and  C5_7 
REMARK    4  A    between atoms: C4_4  and  C11_13 
REMARK    5  A    between atoms: N1_14  and  C12_15 
REMARK    6  A    between atoms: C12_15  and  C13_16 
REMARK    7  A    between atoms: C20_27  and  C22_29 
ROOT
HETATM    1  C1  UNL     1      90.997 102.241 -40.493  1.00  0.00     0.112 C 
HETATM    2  C2  UNL     1      90.126 101.550 -41.417  1.00  0.00    -0.107 C 
HETATM    3  C3  UNL     1      89.378 100.947 -42.188  1.00  0.00    -0.062 C 
ENDROOT
BRANCH   3   4
HETATM    4  C4  UNL     1      88.461 100.173 -43.108  1.00  0.00     0.166 C 
BRANCH   4   5
HETATM    5  O1  UNL     1      88.051  99.107 -42.318  1.00  0.00    -0.371 OA
ATOM      6  H1  UNL     1      87.201  98.885 -42.681  1.00  0.00     0.212 HD
ENDBRANCH   4   5
BRANCH   4   7
HETATM    7  C5  UNL     1      87.309 101.085 -43.171  1.00  0.00     0.039 C 
HETATM    8  C6  UNL     1      87.537 102.445 -43.790  1.00  0.00     0.009 C 
HETATM    9  C7  UNL     1      86.628 103.462 -43.076  1.00  0.00     0.001 C 
HETATM   10  C8  UNL     1      85.204 103.043 -43.181  1.00  0.00     0.000 C 
HETATM   11  C9  UNL     1      84.941 101.613 -42.797  1.00  0.00     0.001 C 
HETATM   12  C10 UNL     1      85.946 100.663 -43.472  1.00  0.00     0.009 C 
ENDBRANCH   4   7
BRANCH   4  13
HETATM   13  C11 UNL     1      89.245  99.730 -44.226  1.00  0.00     0.071 C 
HETATM   14  N1  UNL     1      90.486  99.031 -43.945  1.00  0.00    -0.297 N 
HETATM   15  C19 UNL     1      91.058  99.021 -45.299  1.00  0.00     0.195 C 
HETATM   16  N2  UNL     1      92.452  98.934 -45.643  1.00  0.00    -0.063 NA
HETATM   17  N3  UNL     1      90.132  99.087 -46.165  1.00  0.00    -0.349 N 
HETATM   18  C20 UNL     1      88.816  99.143 -45.461  1.00  0.00     0.075 C 
ATOM     19  H3  UNL     1      90.265  99.101 -47.176  1.00  0.00     0.163 HD
HETATM   20  C21 UNL     1      88.108 100.078 -46.469  1.00  0.00     0.046 C 
BRANCH  14  21
HETATM   21  C12 UNL     1      91.211  98.449 -42.898  1.00  0.00     0.111 C 
BRANCH  21  22
HETATM   22  C13 UNL     1      91.323  96.993 -42.764  1.00  0.00    -0.020 A 
HETATM   23  C14 UNL     1      91.538  96.471 -41.490  1.00  0.00     0.016 A 
HETATM   24  C15 UNL     1      91.680  95.136 -41.237  1.00  0.00     0.043 A 
HETATM   25  C16 UNL     1      91.610  94.253 -42.267  1.00  0.00     0.116 A 
HETATM   26  F1  UNL     1      91.750  92.931 -42.013  1.00  0.00    -0.206 F 
HETATM   27  C17 UNL     1      91.397  94.755 -43.541  1.00  0.00     0.043 A 
HETATM   28  C18 UNL     1      91.258  96.089 -43.773  1.00  0.00     0.016 A 
ENDBRANCH  21  22
ENDBRANCH  14  21
BRANCH  18  29
HETATM   29  C22 UNL     1      88.305  97.792 -45.684  1.00  0.00     0.011 C 
HETATM   30  C23 UNL     1      88.465  97.456 -47.191  1.00  0.00     0.012 C 
HETATM   31  C24 UNL     1      86.949  97.384 -45.307  1.00  0.00     0.012 C 
ENDBRANCH  18  29
ENDBRANCH   4  13
ENDBRANCH   3   4
TORSDOF 7
ENDMDL
MODEL 2
REMARK VINA RESULT: -5.960639503      2.212      4.462
REMARK  7 active torsions:
REMARK  status: ('A' for Active; 'I' for Inactive)
REMARK    1  A    between atoms: C3_3  and  C4_4 
REMARK    2  A    between atoms: C4_4  and  O1_5 
REMARK    3  A    between atoms: C4_4  and  C5_7 
REMARK    4  A    between atoms: C4_4  and  C11_13 
REMARK    5  A    between atoms: N1_14  and  C12_15 
REMARK    6  A    between atoms: C12_15  and  C13_16 
REMARK    7  A    between atoms: C20_27  and  C22_29 
ROOT
HETATM    1  C1  UNL     1      84.414  98.407 -43.683  1.00  0.00     0.112 C 
HETATM    2  C2  UNL     1      85.759  98.292 -44.199  1.00  0.00    -0.107 C 
HETATM    3  C3  UNL     1      86.912  98.208 -44.624  1.00  0.00    -0.062 C 
ENDROOT
BRANCH   3   4
HETATM    4  C4  UNL     1      88.338  98.143 -45.126  1.00  0.00     0.166 C 
BRANCH   4   5
HETATM    5  O1  UNL     1      88.453  96.832 -45.569  1.00  0.00    -0.371 OA
ATOM      6  H1  UNL     1      89.273  96.840 -46.050  1.00  0.00     0.212 HD
ENDBRANCH   4   5
BRANCH   4   7
HETATM    7  C5  UNL     1      88.234  98.965 -46.340  1.00  0.00     0.039 C 
HETATM    8  C6  UNL     1      88.117  98.237 -47.660  1.00  0.00     0.009 C 
HETATM    9  C7  UNL     1      88.822  99.077 -48.742  1.00  0.00     0.001 C 
HETATM   10  C8  UNL     1      88.222 100.437 -48.810  1.00  0.00     0.000 C 
HETATM   11  C9  UNL     1      88.093 101.133 -47.484  1.00  0.00     0.001 C 
HETATM   12  C10 UNL     1      87.469 100.204 -46.427  1.00  0.00     0.009 C 
ENDBRANCH   4   7
BRANCH   4  13
HETATM   13  C11 UNL     1      89.200  98.399 -44.007  1.00  0.00     0.071 C 
HETATM   14  N1  UNL     1      90.498  97.747 -43.992  1.00  0.00    -0.297 N 
HETATM   15  C19 UNL     1      90.895  98.055 -42.611  1.00  0.00     0.195 C 
HETATM   16  N2  UNL     1      91.818  97.312 -41.796  1.00  0.00    -0.063 NA
HETATM   17  N3  UNL     1      90.311  99.110 -42.213  1.00  0.00    -0.349 N 
HETATM   18  C20 UNL     1      89.449  99.630 -43.317  1.00  0.00     0.075 C 
ATOM     19  H3  UNL     1      90.414  99.533 -41.291  1.00  0.00     0.163 HD
HETATM   20  C21 UNL     1      88.310 100.170 -42.420  1.00  0.00     0.046 C 
BRANCH  14  21
HETATM   21  C12 UNL     1      91.365  96.999 -44.797  1.00  0.00     0.111 C 
BRANCH  21  22
HETATM   22  C13 UNL     1      91.335  95.532 -44.793  1.00  0.00    -0.020 A 
HETATM   23  C14 UNL     1      91.087  94.883 -46.000  1.00  0.00     0.016 A 
HETATM   24  C15 UNL     1      91.014  93.524 -46.124  1.00  0.00     0.043 A 
HETATM   25  C16 UNL     1      91.189  92.746 -45.024  1.00  0.00     0.116 A 
HETATM   26  F1  UNL     1      91.117  91.401 -45.149  1.00  0.00    -0.206 F 
HETATM   27  C17 UNL     1      91.437  93.376 -43.814  1.00  0.00     0.043 A 
HETATM   28  C18 UNL     1      91.506  94.732 -43.711  1.00  0.00     0.016 A 
ENDBRANCH  21  22
ENDBRANCH  14  21
BRANCH  18  29
HETATM   29  C22 UNL     1      90.224 100.780 -43.778  1.00  0.00     0.011 C 
HETATM   30  C23 UNL     1      89.301 102.028 -43.753  1.00  0.00     0.012 C 
HETATM   31  C24 UNL     1      90.920 100.802 -45.067  1.00  0.00     0.012 C 
ENDBRANCH  18  29
ENDBRANCH   4  13
ENDBRANCH   3   4
TORSDOF 7
ENDMDL
MODEL 3
REMARK VINA RESULT: -5.896358307      2.508      4.710
REMARK  7 active torsions:
REMARK  status: ('A' for Active; 'I' for Inactive)
REMARK    1  A    between atoms: C3_3  and  C4_4 
REMARK    2  A    between atoms: C4_4  and  O1_5 
REMARK    3  A    between atoms: C4_4  and  C5_7 
REMARK    4  A    between atoms: C4_4  and  C11_13 
REMARK    5  A    between atoms: N1_14  and  C12_15 
REMARK    6  A    between atoms: C12_15  and  C13_16 
REMARK    7  A    between atoms: C20_27  and  C22_29 
ROOT
HETATM    1  C1  UNL     1      85.600  96.925 -45.493  1.00  0.00     0.112 C 
HETATM    2  C2  UNL     1      86.968  97.392 -45.485  1.00  0.00    -0.107 C 
HETATM    3  C3  UNL     1      88.126  97.810 -45.475  1.00  0.00    -0.062 C 
ENDROOT
BRANCH   3   4
HETATM    4  C4  UNL     1      89.535  98.364 -45.471  1.00  0.00     0.166 C 
BRANCH   4   5
HETATM    5  O1  UNL     1      90.182  97.578 -46.415  1.00  0.00    -0.371 OA
ATOM      6  H1  UNL     1      91.080  97.565 -46.105  1.00  0.00     0.212 HD
ENDBRANCH   4   5
BRANCH   4   7
HETATM    7  C5  UNL     1      89.315  99.664 -46.122  1.00  0.00     0.039 C 
HETATM    8  C6  UNL     1      89.334  99.693 -47.633  1.00  0.00     0.009 C 
HETATM    9  C7  UNL     1      89.908 101.050 -48.085  1.00  0.00     0.001 C 
HETATM   10  C8  UNL     1      89.098 102.164 -47.524  1.00  0.00     0.000 C 
HETATM   11  C9  UNL     1      88.840 102.072 -46.046  1.00  0.00     0.001 C 
HETATM   12  C10 UNL     1      88.361 100.663 -45.652  1.00  0.00     0.009 C 
ENDBRANCH   4   7
BRANCH   4  13
HETATM   13  C11 UNL     1      90.073  98.161 -44.156  1.00  0.00     0.071 C 
HETATM   14  N1  UNL     1      91.135  97.182 -44.006  1.00  0.00    -0.297 N 
HETATM   15  C19 UNL     1      91.176  97.109 -42.539  1.00  0.00     0.195 C 
HETATM   16  N2  UNL     1      91.639  96.002 -41.745  1.00  0.00    -0.063 NA
HETATM   17  N3  UNL     1      90.749  98.194 -42.035  1.00  0.00    -0.349 N 
HETATM   18  C20 UNL     1      90.377  99.125 -43.141  1.00  0.00     0.075 C 
ATOM     19  H3  UNL     1      90.672  98.395 -41.038  1.00  0.00     0.163 HD
HETATM   20  C21 UNL     1      89.176  99.787 -42.426  1.00  0.00     0.046 C 
BRANCH  14  21
HETATM   21  C12 UNL     1      92.011  96.382 -44.750  1.00  0.00     0.111 C 
BRANCH  21  22
HETATM   22  C13 UNL     1      91.749  94.954 -44.960  1.00  0.00    -0.020 A 
HETATM   23  C14 UNL     1      91.022  94.585 -46.090  1.00  0.00     0.016 A 
HETATM   24  C15 UNL     1      90.695  93.292 -46.386  1.00  0.00     0.043 A 
HETATM   25  C16 UNL     1      91.090  92.298 -45.548  1.00  0.00     0.116 A 
HETATM   26  F1  UNL     1      90.766  91.018 -45.844  1.00  0.00    -0.206 F 
HETATM   27  C17 UNL     1      91.814  92.648 -44.419  1.00  0.00     0.043 A 
HETATM   28  C18 UNL     1      92.130  93.942 -44.141  1.00  0.00     0.016 A 
ENDBRANCH  21  22
ENDBRANCH  14  21
BRANCH  18  29
HETATM   29  C22 UNL     1      91.484 100.079 -43.108  1.00  0.00     0.011 C 
HETATM   30  C23 UNL     1      90.912 101.475 -42.746  1.00  0.00     0.012 C 
HETATM   31  C24 UNL     1      92.392 100.280 -44.241  1.00  0.00     0.012 C 
ENDBRANCH  18  29
ENDBRANCH   4  13
ENDBRANCH   3   4
TORSDOF 7
ENDMDL
MODEL 4
REMARK VINA RESULT: -5.876714015      2.052      3.740
REMARK  7 active torsions:
REMARK  status: ('A' for Active; 'I' for Inactive)
REMARK    1  A    between atoms: C3_3  and  C4_4 
REMARK    2  A    between atoms: C4_4  and  O1_5 
REMARK    3  A    between atoms: C4_4  and  C5_7 
REMARK    4  A    between atoms: C4_4  and  C11_13 
REMARK    5  A    between atoms: N1_14  and  C12_15 
REMARK    6  A    between atoms: C12_15  and  C13_16 
REMARK    7  A    between atoms: C20_27  and  C22_29 
ROOT
HETATM    1  C1  UNL     1      90.651 103.651 -47.514  1.00  0.00     0.112 C 
HETATM    2  C2  UNL     1      90.670 102.506 -46.632  1.00  0.00    -0.107 C 
HETATM    3  C3  UNL     1      90.701 101.521 -45.893  1.00  0.00    -0.062 C 
ENDROOT
BRANCH   3   4
HETATM    4  C4  UNL     1      90.753 100.287 -45.019  1.00  0.00     0.166 C 
BRANCH   4   5
HETATM    5  O1  UNL     1      92.019  99.776 -45.274  1.00  0.00    -0.371 OA
ATOM      6  H1  UNL     1      91.844  98.869 -45.494  1.00  0.00     0.212 HD
ENDBRANCH   4   5
BRANCH   4   7
HETATM    7  C5  UNL     1      90.836 100.904 -43.687  1.00  0.00     0.039 C 
HETATM    8  C6  UNL     1      92.103 100.673 -42.895  1.00  0.00     0.009 C 
HETATM    9  C7  UNL     1      91.738 100.623 -41.400  1.00  0.00     0.001 C 
HETATM   10  C8  UNL     1      91.059 101.882 -40.993  1.00  0.00     0.000 C 
HETATM   11  C9  UNL     1      89.922 102.299 -41.885  1.00  0.00     0.001 C 
HETATM   12  C10 UNL     1      90.328 102.234 -43.368  1.00  0.00     0.009 C 
ENDBRANCH   4   7
BRANCH   4  13
HETATM   13  C11 UNL     1      89.723  99.395 -45.471  1.00  0.00     0.071 C 
HETATM   14  N1  UNL     1      90.079  98.002 -45.675  1.00  0.00    -0.297 N 
HETATM   15  C19 UNL     1      88.863  97.553 -46.367  1.00  0.00     0.195 C 
HETATM   16  N2  UNL     1      88.750  96.440 -47.273  1.00  0.00    -0.063 NA
HETATM   17  N3  UNL     1      87.879  98.287 -46.044  1.00  0.00    -0.349 N 
HETATM   18  C20 UNL     1      88.348  99.323 -45.076  1.00  0.00     0.075 C 
ATOM     19  H3  UNL     1      86.925  98.187 -46.390  1.00  0.00     0.163 HD
HETATM   20  C21 UNL     1      87.421 100.461 -45.562  1.00  0.00     0.046 C 
BRANCH  14  21
HETATM   21  C12 UNL     1      91.110  97.083 -45.448  1.00  0.00     0.111 C 
BRANCH  21  22
HETATM   22  C13 UNL     1      91.288  96.443 -44.141  1.00  0.00    -0.020 A 
HETATM   23  C14 UNL     1      91.490  95.064 -44.113  1.00  0.00     0.016 A 
HETATM   24  C15 UNL     1      91.648  94.349 -42.959  1.00  0.00     0.043 A 
HETATM   25  C16 UNL     1      91.609  94.997 -41.765  1.00  0.00     0.116 A 
HETATM   26  F1  UNL     1      91.767  94.287 -40.624  1.00  0.00    -0.206 F 
HETATM   27  C17 UNL     1      91.409  96.368 -41.775  1.00  0.00     0.043 A 
HETATM   28  C18 UNL     1      91.253  97.063 -42.935  1.00  0.00     0.016 A 
ENDBRANCH  21  22
ENDBRANCH  14  21
BRANCH  18  29
HETATM   29  C22 UNL     1      87.798  98.820 -43.818  1.00  0.00     0.011 C 
HETATM   30  C23 UNL     1      86.281  98.562 -44.020  1.00  0.00     0.012 C 
HETATM   31  C24 UNL     1      87.934  99.539 -42.549  1.00  0.00     0.012 C 
ENDBRANCH  18  29
ENDBRANCH   4  13
ENDBRANCH   3   4
TORSDOF 7
ENDMDL
MODEL 5
REMARK VINA RESULT: -5.821678790      3.057      6.000
REMARK  7 active torsions:
REMARK  status: ('A' for Active; 'I' for Inactive)
REMARK    1  A    between atoms: C3_3  and  C4_4 
REMARK    2  A    between atoms: C4_4  and  O1_5 
REMARK    3  A    between atoms: C4_4  and  C5_7 
REMARK    4  A    between atoms: C4_4  and  C11_13 
REMARK    5  A    between atoms: N1_14  and  C12_15 
REMARK    6  A    between atoms: C12_15  and  C13_16 
REMARK    7  A    between atoms: C20_27  and  C22_29 
ROOT
HETATM    1  C1  UNL     1      85.175  98.751 -43.751  1.00  0.00     0.112 C 
HETATM    2  C2  UNL     1      86.617  98.822 -43.804  1.00  0.00    -0.107 C 
HETATM    3  C3  UNL     1      87.846  98.900 -43.837  1.00  0.00    -0.062 C 
ENDROOT
BRANCH   3   4
HETATM    4  C4  UNL     1      89.353  99.038 -43.868  1.00  0.00     0.166 C 
BRANCH   4   5
HETATM    5  O1  UNL     1      89.719  98.772 -42.556  1.00  0.00    -0.371 OA
ATOM      6  H1  UNL     1      89.510  99.582 -42.106  1.00  0.00     0.212 HD
ENDBRANCH   4   5
BRANCH   4   7
HETATM    7  C5  UNL     1      89.717  97.837 -44.634  1.00  0.00     0.039 C 
HETATM    8  C6  UNL     1      90.702  96.884 -43.996  1.00  0.00     0.009 C 
HETATM    9  C7  UNL     1      91.551  96.244 -45.112  1.00  0.00     0.001 C 
HETATM   10  C8  UNL     1      90.673  95.552 -46.094  1.00  0.00     0.000 C 
HETATM   11  C9  UNL     1      89.522  96.377 -46.599  1.00  0.00     0.001 C 
HETATM   12  C10 UNL     1      88.778  97.062 -45.438  1.00  0.00     0.009 C 
ENDBRANCH   4   7
BRANCH   4  13
HETATM   13  C11 UNL     1      89.653 100.393 -44.235  1.00  0.00     0.071 C 
HETATM   14  N1  UNL     1      89.622 101.399 -43.188  1.00  0.00    -0.297 N 
HETATM   15  C19 UNL     1      89.707 102.605 -44.024  1.00  0.00     0.195 C 
HETATM   16  N2  UNL     1      89.236 103.921 -43.683  1.00  0.00    -0.063 NA
HETATM   17  N3  UNL     1      90.283 102.336 -45.123  1.00  0.00    -0.349 N 
HETATM   18  C20 UNL     1      90.656 100.890 -45.130  1.00  0.00     0.075 C 
ATOM     19  H3  UNL     1      90.461 102.999 -45.877  1.00  0.00     0.163 HD
HETATM   20  C21 UNL     1      90.425 100.650 -46.641  1.00  0.00     0.046 C 
BRANCH  14  21
HETATM   21  C12 UNL     1      89.534 101.540 -41.798  1.00  0.00     0.111 C 
BRANCH  21  22
HETATM   22  C13 UNL     1      90.725 101.789 -40.979  1.00  0.00    -0.020 A 
HETATM   23  C14 UNL     1      90.719 102.904 -40.143  1.00  0.00     0.016 A 
HETATM   24  C15 UNL     1      91.773 103.255 -39.348  1.00  0.00     0.043 A 
HETATM   25  C16 UNL     1      92.896 102.490 -39.357  1.00  0.00     0.116 A 
HETATM   26  F1  UNL     1      93.939 102.839 -38.568  1.00  0.00    -0.206 F 
HETATM   27  C17 UNL     1      92.920 101.377 -40.184  1.00  0.00     0.043 A 
HETATM   28  C18 UNL     1      91.859 101.044 -40.969  1.00  0.00     0.016 A 
ENDBRANCH  21  22
ENDBRANCH  14  21
BRANCH  18  29
HETATM   29  C22 UNL     1      92.100 100.958 -44.915  1.00  0.00     0.011 C 
HETATM   30  C23 UNL     1      92.775 101.323 -46.264  1.00  0.00     0.012 C 
HETATM   31  C24 UNL     1      92.871  99.847 -44.350  1.00  0.00     0.012 C 
ENDBRANCH  18  29
ENDBRANCH   4  13
ENDBRANCH   3   4
TORSDOF 7
ENDMDL
