MODEL 1
REMARK VINA RESULT: -7.918800158      0.000      0.000
REMARK  5 active torsions:
REMARK  status: ('A' for Active; 'I' for Inactive)
REMARK    1  A    between atoms: C2_2  and  N1_3 
REMARK    2  A    between atoms: C2_2  and  C14_20 
REMARK    3  A    between atoms: N1_3  and  C3_5 
REMARK    4  A    between atoms: C6_8  and  C7_9 
REMARK    5  A    between atoms: C17_23  and  C18_24 
ROOT
HETATM    1  N1  UNL     1      90.005  92.388 -49.079  1.00  0.00    -0.382 N 
ATOM      2  H1  UNL     1      90.663  92.636 -49.817  1.00  0.00     0.160 HD
ENDROOT
BRANCH   1   3
HETATM    3  C2  UNL     1      88.632  92.073 -49.424  1.00  0.00     0.111 C 
HETATM    4  C1  UNL     1      88.275  92.908 -50.607  1.00  0.00     0.037 C 
BRANCH   3   5
HETATM    5  C14 UNL     1      88.566  90.608 -49.659  1.00  0.00    -0.036 A 
HETATM    6  C15 UNL     1      89.594  89.868 -50.186  1.00  0.00     0.010 A 
HETATM    7  C16 UNL     1      89.449  88.488 -50.362  1.00  0.00     0.010 A 
HETATM    8  C17 UNL     1      88.294  87.822 -50.020  1.00  0.00    -0.023 A 
HETATM    9  C23 UNL     1      87.271  88.581 -49.492  1.00  0.00     0.010 A 
HETATM   10  C24 UNL     1      87.383  89.937 -49.308  1.00  0.00     0.010 A 
BRANCH   8  11
HETATM   11  C18 UNL     1      88.157  86.336 -50.222  1.00  0.00     0.279 C 
HETATM   12  C19 UNL     1      88.363  85.693 -48.877  1.00  0.00     0.208 C 
HETATM   13  O1  UNL     1      88.645  84.325 -49.001  1.00  0.00    -0.387 OA
HETATM   14  C20 UNL     1      89.942  84.289 -49.562  1.00  0.00     0.198 C 
HETATM   15  C21 UNL     1      89.862  84.767 -50.962  1.00  0.00     0.299 C 
HETATM   16  N3  UNL     1      89.026  85.873 -51.237  1.00  0.00     0.097 N 
HETATM   17  C22 UNL     1      88.305  85.591 -52.484  1.00  0.00     0.310 C 
ENDBRANCH   8  11
ENDBRANCH   3   5
ENDBRANCH   1   3
BRANCH   1  18
HETATM   18  C3  UNL     1      90.453  92.356 -47.712  1.00  0.00     0.028 A 
HETATM   19  C4  UNL     1      90.494  93.538 -46.997  1.00  0.00     0.029 A 
HETATM   20  C5  UNL     1      90.928  93.579 -45.675  1.00  0.00     0.011 A 
HETATM   21  C6  UNL     1      91.329  92.428 -45.051  1.00  0.00    -0.028 A 
HETATM   22  C12 UNL     1      91.293  91.249 -45.748  1.00  0.00     0.011 A 
HETATM   23  C13 UNL     1      90.855  91.220 -47.075  1.00  0.00     0.029 A 
BRANCH  21  24
HETATM   24  C7  UNL     1      91.795  92.438 -43.653  1.00  0.00     0.219 C 
HETATM   25  C8  UNL     1      93.099  93.145 -43.563  1.00  0.00     0.041 C 
HETATM   26  C9  UNL     1      94.156  92.553 -42.733  1.00  0.00     0.041 C 
HETATM   27  C10 UNL     1      93.969  91.160 -42.256  1.00  0.00     0.195 C 
HETATM   28  F1  UNL     1      94.693  90.959 -41.093  1.00  0.00    -0.248 F 
HETATM   29  C11 UNL     1      92.507  90.952 -41.913  1.00  0.00     0.270 C 
HETATM   30  N2  UNL     1      91.811  91.074 -43.190  1.00  0.00    -0.064 N 
ATOM     31  H22 UNL     1      90.870  90.685 -43.141  1.00  0.00     0.278 HD
ATOM     32  H21 UNL     1      92.206  90.447 -43.891  1.00  0.00     0.278 HD
ENDBRANCH  21  24
ENDBRANCH   1  18
TORSDOF 5
ENDMDL
MODEL 2
REMARK VINA RESULT: -7.712298187      1.352      1.821
REMARK  5 active torsions:
REMARK  status: ('A' for Active; 'I' for Inactive)
REMARK    1  A    between atoms: C2_2  and  N1_3 
REMARK    2  A    between atoms: C2_2  and  C14_20 
REMARK    3  A    between atoms: N1_3  and  C3_5 
REMARK    4  A    between atoms: C6_8  and  C7_9 
REMARK    5  A    between atoms: C17_23  and  C18_24 
ROOT
HETATM    1  N1  UNL     1      90.968  91.927 -49.510  1.00  0.00    -0.382 N 
ATOM      2  H1  UNL     1      91.784  92.052 -50.110  1.00  0.00     0.160 HD
ENDROOT
BRANCH   1   3
HETATM    3  C2  UNL     1      89.670  91.689 -50.113  1.00  0.00     0.111 C 
HETATM    4  C1  UNL     1      89.787  92.040 -51.558  1.00  0.00     0.037 C 
BRANCH   3   5
HETATM    5  C14 UNL     1      89.319  90.271 -49.847  1.00  0.00    -0.036 A 
HETATM    6  C15 UNL     1      90.156  89.213 -50.099  1.00  0.00     0.010 A 
HETATM    7  C16 UNL     1      89.747  87.908 -49.806  1.00  0.00     0.010 A 
HETATM    8  C17 UNL     1      88.514  87.630 -49.262  1.00  0.00    -0.023 A 
HETATM    9  C23 UNL     1      87.686  88.705 -49.015  1.00  0.00     0.010 A 
HETATM   10  C24 UNL     1      88.059  89.997 -49.292  1.00  0.00     0.010 A 
BRANCH   8  11
HETATM   11  C18 UNL     1      88.092  86.217 -48.958  1.00  0.00     0.279 C 
HETATM   12  C19 UNL     1      89.352  85.413 -48.788  1.00  0.00     0.208 C 
HETATM   13  O1  UNL     1      89.100  84.037 -48.891  1.00  0.00    -0.387 OA
HETATM   14  C20 UNL     1      88.791  83.843 -50.256  1.00  0.00     0.198 C 
HETATM   15  C21 UNL     1      87.479  84.470 -50.535  1.00  0.00     0.299 C 
HETATM   16  N3  UNL     1      87.204  85.723 -49.942  1.00  0.00     0.097 N 
HETATM   17  C22 UNL     1      85.817  85.697 -49.461  1.00  0.00     0.310 C 
ENDBRANCH   8  11
ENDBRANCH   3   5
ENDBRANCH   1   3
BRANCH   1  18
HETATM   18  C3  UNL     1      91.123  91.992 -48.081  1.00  0.00     0.028 A 
HETATM   19  C4  UNL     1      91.874  91.020 -47.448  1.00  0.00     0.029 A 
HETATM   20  C5  UNL     1      92.054  91.018 -46.068  1.00  0.00     0.011 A 
HETATM   21  C6  UNL     1      91.480  91.996 -45.302  1.00  0.00    -0.028 A 
HETATM   22  C12 UNL     1      90.733  92.967 -45.916  1.00  0.00     0.011 A 
HETATM   23  C13 UNL     1      90.559  92.959 -47.303  1.00  0.00     0.029 A 
BRANCH  21  24
HETATM   24  C7  UNL     1      91.650  92.021 -43.838  1.00  0.00     0.219 C 
HETATM   25  C8  UNL     1      91.158  93.315 -43.296  1.00  0.00     0.041 C 
HETATM   26  C9  UNL     1      91.967  93.995 -42.277  1.00  0.00     0.041 C 
HETATM   27  C10 UNL     1      93.349  93.506 -42.044  1.00  0.00     0.195 C 
HETATM   28  F1  UNL     1      93.749  93.820 -40.756  1.00  0.00    -0.248 F 
HETATM   29  C11 UNL     1      93.360  91.995 -42.160  1.00  0.00     0.270 C 
HETATM   30  N2  UNL     1      93.033  91.733 -43.557  1.00  0.00    -0.064 N 
ATOM     31  H22 UNL     1      93.279  90.780 -43.826  1.00  0.00     0.278 HD
ATOM     32  H21 UNL     1      93.655  92.239 -44.187  1.00  0.00     0.278 HD
ENDBRANCH  21  24
ENDBRANCH   1  18
TORSDOF 5
ENDMDL
MODEL 3
REMARK VINA RESULT: -7.672897070      7.426     11.564
REMARK  5 active torsions:
REMARK  status: ('A' for Active; 'I' for Inactive)
REMARK    1  A    between atoms: C2_2  and  N1_3 
REMARK    2  A    between atoms: C2_2  and  C14_20 
REMARK    3  A    between atoms: N1_3  and  C3_5 
REMARK    4  A    between atoms: C6_8  and  C7_9 
REMARK    5  A    between atoms: C17_23  and  C18_24 
ROOT
HETATM    1  N1  UNL     1      90.617  97.055 -46.149  1.00  0.00    -0.382 N 
ATOM      2  H1  UNL     1      91.217  97.191 -46.962  1.00  0.00     0.160 HD
ENDROOT
BRANCH   1   3
HETATM    3  C2  UNL     1      89.415  97.854 -46.007  1.00  0.00     0.111 C 
HETATM    4  C1  UNL     1      88.272  96.904 -45.875  1.00  0.00     0.037 C 
BRANCH   3   5
HETATM    5  C14 UNL     1      89.618  98.745 -44.837  1.00  0.00    -0.036 A 
HETATM    6  C15 UNL     1      88.809  98.753 -43.729  1.00  0.00     0.010 A 
HETATM    7  C16 UNL     1      89.082  99.620 -42.666  1.00  0.00     0.010 A 
HETATM    8  C17 UNL     1      90.152 100.485 -42.680  1.00  0.00    -0.023 A 
HETATM    9  C23 UNL     1      90.954 100.464 -43.801  1.00  0.00     0.010 A 
HETATM   10  C24 UNL     1      90.712  99.625 -44.862  1.00  0.00     0.010 A 
BRANCH   8  11
HETATM   11  C18 UNL     1      90.425 101.413 -41.526  1.00  0.00     0.279 C 
HETATM   12  C19 UNL     1      89.627 102.664 -41.775  1.00  0.00     0.208 C 
HETATM   13  O1  UNL     1      90.093 103.733 -40.994  1.00  0.00    -0.387 OA
HETATM   14  C20 UNL     1      91.350 104.051 -41.557  1.00  0.00     0.198 C 
HETATM   15  C21 UNL     1      92.292 102.949 -41.255  1.00  0.00     0.299 C 
HETATM   16  N3  UNL     1      91.813 101.622 -41.353  1.00  0.00     0.097 N 
HETATM   17  C22 UNL     1      92.338 100.871 -40.206  1.00  0.00     0.310 C 
ENDBRANCH   8  11
ENDBRANCH   3   5
ENDBRANCH   1   3
BRANCH   1  18
HETATM   18  C3  UNL     1      90.978  96.074 -45.160  1.00  0.00     0.028 A 
HETATM   19  C4  UNL     1      91.011  94.741 -45.524  1.00  0.00     0.029 A 
HETATM   20  C5  UNL     1      91.341  93.741 -44.614  1.00  0.00     0.011 A 
HETATM   21  C6  UNL     1      91.644  94.068 -43.319  1.00  0.00    -0.028 A 
HETATM   22  C12 UNL     1      91.616  95.385 -42.944  1.00  0.00     0.011 A 
HETATM   23  C13 UNL     1      91.283  96.382 -43.867  1.00  0.00     0.029 A 
BRANCH  21  24
HETATM   24  C7  UNL     1      91.996  93.033 -42.332  1.00  0.00     0.219 C 
HETATM   25  C8  UNL     1      92.995  93.572 -41.373  1.00  0.00     0.041 C 
HETATM   26  C9  UNL     1      94.134  92.722 -41.002  1.00  0.00     0.041 C 
HETATM   27  C10 UNL     1      94.377  91.495 -41.802  1.00  0.00     0.195 C 
HETATM   28  F1  UNL     1      95.055  90.562 -41.038  1.00  0.00    -0.248 F 
HETATM   29  C11 UNL     1      93.041  90.883 -42.176  1.00  0.00     0.270 C 
HETATM   30  N2  UNL     1      92.423  91.866 -43.059  1.00  0.00    -0.064 N 
ATOM     31  H22 UNL     1      91.656  91.457 -43.593  1.00  0.00     0.278 HD
ATOM     32  H21 UNL     1      93.040  92.113 -43.833  1.00  0.00     0.278 HD
ENDBRANCH  21  24
ENDBRANCH   1  18
TORSDOF 5
ENDMDL
MODEL 4
REMARK VINA RESULT: -7.600496132      1.053      1.468
REMARK  5 active torsions:
REMARK  status: ('A' for Active; 'I' for Inactive)
REMARK    1  A    between atoms: C2_2  and  N1_3 
REMARK    2  A    between atoms: C2_2  and  C14_20 
REMARK    3  A    between atoms: N1_3  and  C3_5 
REMARK    4  A    between atoms: C6_8  and  C7_9 
REMARK    5  A    between atoms: C17_23  and  C18_24 
ROOT
HETATM    1  N1  UNL     1      90.916  92.335 -49.349  1.00  0.00    -0.382 N 
ATOM      2  H1  UNL     1      91.721  92.382 -49.974  1.00  0.00     0.160 HD
ENDROOT
BRANCH   1   3
HETATM    3  C2  UNL     1      89.577  92.379 -49.905  1.00  0.00     0.111 C 
HETATM    4  C1  UNL     1      89.689  92.972 -51.269  1.00  0.00     0.037 C 
BRANCH   3   5
HETATM    5  C14 UNL     1      89.046  90.992 -49.875  1.00  0.00    -0.036 A 
HETATM    6  C15 UNL     1      87.741  90.677 -49.589  1.00  0.00     0.010 A 
HETATM    7  C16 UNL     1      87.323  89.342 -49.595  1.00  0.00     0.010 A 
HETATM    8  C17 UNL     1      88.182  88.306 -49.882  1.00  0.00    -0.023 A 
HETATM    9  C23 UNL     1      89.489  88.640 -50.167  1.00  0.00     0.010 A 
HETATM   10  C24 UNL     1      89.929  89.942 -50.169  1.00  0.00     0.010 A 
BRANCH   8  11
HETATM   11  C18 UNL     1      87.712  86.875 -49.879  1.00  0.00     0.279 C 
HETATM   12  C19 UNL     1      87.988  86.330 -48.504  1.00  0.00     0.208 C 
HETATM   13  O1  UNL     1      87.960  84.927 -48.494  1.00  0.00    -0.387 OA
HETATM   14  C20 UNL     1      89.118  84.553 -49.213  1.00  0.00     0.198 C 
HETATM   15  C21 UNL     1      88.920  84.905 -50.638  1.00  0.00     0.299 C 
HETATM   16  N3  UNL     1      88.298  86.139 -50.935  1.00  0.00     0.097 N 
HETATM   17  C22 UNL     1      87.349  85.910 -52.031  1.00  0.00     0.310 C 
ENDBRANCH   8  11
ENDBRANCH   3   5
ENDBRANCH   1   3
BRANCH   1  18
HETATM   18  C3  UNL     1      91.128  92.225 -47.930  1.00  0.00     0.028 A 
HETATM   19  C4  UNL     1      90.731  93.268 -47.114  1.00  0.00     0.029 A 
HETATM   20  C5  UNL     1      90.917  93.230 -45.735  1.00  0.00     0.011 A 
HETATM   21  C6  UNL     1      91.507  92.139 -45.155  1.00  0.00    -0.028 A 
HETATM   22  C12 UNL     1      91.904  91.098 -45.951  1.00  0.00     0.011 A 
HETATM   23  C13 UNL     1      91.712  91.146 -47.335  1.00  0.00     0.029 A 
BRANCH  21  24
HETATM   24  C7  UNL     1      91.719  92.070 -43.698  1.00  0.00     0.219 C 
HETATM   25  C8  UNL     1      91.328  93.360 -43.071  1.00  0.00     0.041 C 
HETATM   26  C9  UNL     1      92.207  93.928 -42.041  1.00  0.00     0.041 C 
HETATM   27  C10 UNL     1      93.560  93.339 -41.878  1.00  0.00     0.195 C 
HETATM   28  F1  UNL     1      94.015  93.553 -40.588  1.00  0.00    -0.248 F 
HETATM   29  C11 UNL     1      93.468  91.839 -42.077  1.00  0.00     0.270 C 
HETATM   30  N2  UNL     1      93.087  91.678 -43.476  1.00  0.00    -0.064 N 
ATOM     31  H22 UNL     1      93.262  90.728 -43.804  1.00  0.00     0.278 HD
ATOM     32  H21 UNL     1      93.724  92.179 -44.096  1.00  0.00     0.278 HD
ENDBRANCH  21  24
ENDBRANCH   1  18
TORSDOF 5
ENDMDL
MODEL 5
REMARK VINA RESULT: -7.549385996      7.360     11.551
REMARK  5 active torsions:
REMARK  status: ('A' for Active; 'I' for Inactive)
REMARK    1  A    between atoms: C2_2  and  N1_3 
REMARK    2  A    between atoms: C2_2  and  C14_20 
REMARK    3  A    between atoms: N1_3  and  C3_5 
REMARK    4  A    between atoms: C6_8  and  C7_9 
REMARK    5  A    between atoms: C17_23  and  C18_24 
ROOT
HETATM    1  N1  UNL     1      90.593  96.987 -46.203  1.00  0.00    -0.382 N 
ATOM      2  H1  UNL     1      91.122  97.029 -47.074  1.00  0.00     0.160 HD
ENDROOT
BRANCH   1   3
HETATM    3  C2  UNL     1      89.472  97.885 -46.005  1.00  0.00     0.111 C 
HETATM    4  C1  UNL     1      88.333  97.060 -45.507  1.00  0.00     0.037 C 
BRANCH   3   5
HETATM    5  C14 UNL     1      89.923  98.947 -45.069  1.00  0.00    -0.036 A 
HETATM    6  C15 UNL     1      89.335  99.200 -43.856  1.00  0.00     0.010 A 
HETATM    7  C16 UNL     1      89.834 100.214 -43.031  1.00  0.00     0.010 A 
HETATM    8  C17 UNL     1      90.915 100.986 -43.390  1.00  0.00    -0.023 A 
HETATM    9  C23 UNL     1      91.493 100.719 -44.613  1.00  0.00     0.010 A 
HETATM   10  C24 UNL     1      91.026  99.730 -45.444  1.00  0.00     0.010 A 
BRANCH   8  11
HETATM   11  C18 UNL     1      91.433 102.076 -42.489  1.00  0.00     0.279 C 
HETATM   12  C19 UNL     1      92.895 101.798 -42.266  1.00  0.00     0.208 C 
HETATM   13  O1  UNL     1      93.387 102.500 -41.155  1.00  0.00    -0.387 OA
HETATM   14  C20 UNL     1      92.779 101.864 -40.049  1.00  0.00     0.198 C 
HETATM   15  C21 UNL     1      91.332 102.179 -40.061  1.00  0.00     0.299 C 
HETATM   16  N3  UNL     1      90.664 102.174 -41.306  1.00  0.00     0.097 N 
HETATM   17  C22 UNL     1      89.764 103.333 -41.337  1.00  0.00     0.310 C 
ENDBRANCH   8  11
ENDBRANCH   3   5
ENDBRANCH   1   3
BRANCH   1  18
HETATM   18  C3  UNL     1      90.972  96.036 -45.191  1.00  0.00     0.028 A 
HETATM   19  C4  UNL     1      90.963  94.690 -45.505  1.00  0.00     0.029 A 
HETATM   20  C5  UNL     1      91.308  93.719 -44.569  1.00  0.00     0.011 A 
HETATM   21  C6  UNL     1      91.667  94.088 -43.301  1.00  0.00    -0.028 A 
HETATM   22  C12 UNL     1      91.680  95.419 -42.976  1.00  0.00     0.011 A 
HETATM   23  C13 UNL     1      91.333  96.386 -43.924  1.00  0.00     0.029 A 
BRANCH  21  24
HETATM   24  C7  UNL     1      92.035  93.083 -42.287  1.00  0.00     0.219 C 
HETATM   25  C8  UNL     1      93.077  93.639 -41.385  1.00  0.00     0.041 C 
HETATM   26  C9  UNL     1      94.213  92.782 -41.022  1.00  0.00     0.041 C 
HETATM   27  C10 UNL     1      94.406  91.522 -41.784  1.00  0.00     0.195 C 
HETATM   28  F1  UNL     1      95.095  90.604 -41.009  1.00  0.00    -0.248 F 
HETATM   29  C11 UNL     1      93.047  90.921 -42.087  1.00  0.00     0.270 C 
HETATM   30  N2  UNL     1      92.415  91.882 -42.985  1.00  0.00    -0.064 N 
ATOM     31  H22 UNL     1      91.623  91.468 -43.476  1.00  0.00     0.278 HD
ATOM     32  H21 UNL     1      93.009  92.089 -43.788  1.00  0.00     0.278 HD
ENDBRANCH  21  24
ENDBRANCH   1  18
TORSDOF 5
ENDMDL
