MODEL 1
REMARK VINA RESULT: -7.528413830      0.000      0.000
REMARK  5 active torsions:
REMARK  status: ('A' for Active; 'I' for Inactive)
REMARK    1  A    between atoms: C10_10  and  C11_11 
REMARK       I    between atoms: C11_11  and  N1_13 
REMARK    2  A    between atoms: N1_13  and  C12_15 
REMARK    3  A    between atoms: C12_15  and  C13_16 
REMARK       I    between atoms: C13_16  and  N2_18 
REMARK    4  A    between atoms: N2_18  and  C14_20 
REMARK    5  A    between atoms: C17_23  and  N3_24 
ROOT
HETATM    1  C11 UNL     1      89.562  89.008 -49.697  1.00  0.00     0.227 C 
HETATM    2  O1  UNL     1      89.474  89.726 -50.759  1.00  0.00    -0.273 OA
HETATM    3  N1  UNL     1      90.085  89.678 -48.551  1.00  0.00    -0.352 N 
ATOM      4  H1  UNL     1      90.154  89.130 -47.694  1.00  0.00     0.162 HD
ENDROOT
BRANCH   3   5
HETATM    5  C12 UNL     1      90.518  91.020 -48.480  1.00  0.00     0.225 C 
BRANCH   5   6
HETATM    6  C13 UNL     1      91.248  91.416 -47.220  1.00  0.00     0.239 C 
HETATM    7  O2  UNL     1      92.445  91.051 -47.185  1.00  0.00    -0.271 OA
HETATM    8  N2  UNL     1      90.655  92.126 -46.190  1.00  0.00    -0.324 N 
ATOM      9  H2  UNL     1      89.678  92.395 -46.307  1.00  0.00     0.169 HD
BRANCH   8  10
HETATM   10  C14 UNL     1      91.301  92.512 -44.978  1.00  0.00     0.056 A 
HETATM   11  C15 UNL     1      91.829  91.653 -44.078  1.00  0.00     0.034 A 
HETATM   12  C16 UNL     1      92.440  92.131 -42.915  1.00  0.00     0.038 A 
HETATM   13  C17 UNL     1      92.541  93.463 -42.617  1.00  0.00     0.104 A 
HETATM   14  C18 UNL     1      91.994  94.322 -43.551  1.00  0.00     0.062 A 
HETATM   15  C19 UNL     1      91.395  93.889 -44.688  1.00  0.00     0.063 A 
HETATM   16 CL1  UNL     1      90.720  95.046 -45.835  1.00  0.00    -0.082 Cl
BRANCH  13  17
HETATM   17  N3  UNL     1      93.156  93.958 -41.444  1.00  0.00    -0.116 N 
HETATM   18  O3  UNL     1      93.993  93.263 -40.862  1.00  0.00    -0.532 OA
HETATM   19  O4  UNL     1      92.829  95.187 -40.963  1.00  0.00    -0.532 OA
ENDBRANCH  13  17
ENDBRANCH   8  10
ENDBRANCH   5   6
ENDBRANCH   3   5
BRANCH   1  20
HETATM   20  C10 UNL     1      89.141  87.606 -49.718  1.00  0.00     0.045 C 
HETATM   21  C2  UNL     1      87.989  87.247 -48.855  1.00  0.00     0.003 C 
HETATM   22  C1  UNL     1      86.745  88.041 -49.018  1.00  0.00     0.011 C 
HETATM   23  C3  UNL     1      87.682  85.777 -49.045  1.00  0.00    -0.009 C 
HETATM   24  C4  UNL     1      88.829  84.963 -48.544  1.00  0.00     0.010 C 
HETATM   25  C8  UNL     1      87.412  85.409 -50.470  1.00  0.00     0.010 C 
HETATM   26  C5  UNL     1      90.031  85.281 -49.401  1.00  0.00    -0.013 C 
HETATM   27  C6  UNL     1      89.803  84.956 -50.853  1.00  0.00     0.009 C 
HETATM   28  C20 UNL     1      90.327  86.749 -49.262  1.00  0.00     0.024 C 
HETATM   29  C7  UNL     1      88.626  85.745 -51.327  1.00  0.00    -0.013 C 
HETATM   30  C9  UNL     1      88.870  87.227 -51.160  1.00  0.00     0.024 C 
ENDBRANCH   1  20
TORSDOF 5
ENDMDL
MODEL 2
REMARK VINA RESULT: -7.437184214      7.128     12.284
REMARK  5 active torsions:
REMARK  status: ('A' for Active; 'I' for Inactive)
REMARK    1  A    between atoms: C10_10  and  C11_11 
REMARK       I    between atoms: C11_11  and  N1_13 
REMARK    2  A    between atoms: N1_13  and  C12_15 
REMARK    3  A    between atoms: C12_15  and  C13_16 
REMARK       I    between atoms: C13_16  and  N2_18 
REMARK    4  A    between atoms: N2_18  and  C14_20 
REMARK    5  A    between atoms: C17_23  and  N3_24 
ROOT
HETATM    1  C11 UNL     1      90.456  99.577 -43.137  1.00  0.00     0.227 C 
HETATM    2  O1  UNL     1      89.520  98.890 -42.588  1.00  0.00    -0.273 OA
HETATM    3  N1  UNL     1      90.902  99.095 -44.404  1.00  0.00    -0.352 N 
ATOM      4  H1  UNL     1      91.637  99.632 -44.864  1.00  0.00     0.162 HD
ENDROOT
BRANCH   3   5
HETATM    5  C12 UNL     1      90.432  97.953 -45.087  1.00  0.00     0.225 C 
BRANCH   5   6
HETATM    6  C13 UNL     1      91.115  96.650 -44.751  1.00  0.00     0.239 C 
HETATM    7  O2  UNL     1      91.741  96.138 -45.708  1.00  0.00    -0.271 OA
HETATM    8  N2  UNL     1      91.064  96.067 -43.497  1.00  0.00    -0.324 N 
ATOM      9  H2  UNL     1      90.542  96.558 -42.772  1.00  0.00     0.169 HD
BRANCH   8  10
HETATM   10  C14 UNL     1      91.683  94.833 -43.137  1.00  0.00     0.056 A 
HETATM   11  C15 UNL     1      91.821  93.770 -43.961  1.00  0.00     0.034 A 
HETATM   12  C16 UNL     1      92.442  92.601 -43.511  1.00  0.00     0.038 A 
HETATM   13  C17 UNL     1      92.936  92.457 -42.243  1.00  0.00     0.104 A 
HETATM   14  C18 UNL     1      92.783  93.556 -41.420  1.00  0.00     0.062 A 
HETATM   15  C19 UNL     1      92.186  94.703 -41.826  1.00  0.00     0.063 A 
HETATM   16 CL1  UNL     1      92.028  96.066 -40.718  1.00  0.00    -0.082 Cl
BRANCH  13  17
HETATM   17  N3  UNL     1      93.565  91.278 -41.777  1.00  0.00    -0.116 N 
HETATM   18  O3  UNL     1      92.929  90.222 -41.759  1.00  0.00    -0.532 OA
HETATM   19  O4  UNL     1      94.856  91.312 -41.354  1.00  0.00    -0.532 OA
ENDBRANCH  13  17
ENDBRANCH   8  10
ENDBRANCH   5   6
ENDBRANCH   3   5
BRANCH   1  20
HETATM   20  C10 UNL     1      90.991 100.764 -42.467  1.00  0.00     0.045 C 
HETATM   21  C2  UNL     1      91.691 101.751 -43.324  1.00  0.00     0.003 C 
HETATM   22  C1  UNL     1      90.960 102.258 -44.512  1.00  0.00     0.011 C 
HETATM   23  C3  UNL     1      92.130 102.916 -42.463  1.00  0.00    -0.009 C 
HETATM   24  C4  UNL     1      93.149 102.446 -41.477  1.00  0.00     0.010 C 
HETATM   25  C8  UNL     1      91.002 103.562 -41.724  1.00  0.00     0.010 C 
HETATM   26  C5  UNL     1      92.481 101.443 -40.565  1.00  0.00    -0.013 C 
HETATM   27  C6  UNL     1      91.318 102.035 -39.816  1.00  0.00     0.009 C 
HETATM   28  C20 UNL     1      91.997 100.297 -41.408  1.00  0.00     0.024 C 
HETATM   29  C7  UNL     1      90.329 102.540 -40.816  1.00  0.00    -0.013 C 
HETATM   30  C9  UNL     1      89.852 101.420 -41.713  1.00  0.00     0.024 C 
ENDBRANCH   1  20
TORSDOF 5
ENDMDL
MODEL 3
REMARK VINA RESULT: -7.338717391      6.700     11.342
REMARK  5 active torsions:
REMARK  status: ('A' for Active; 'I' for Inactive)
REMARK    1  A    between atoms: C10_10  and  C11_11 
REMARK       I    between atoms: C11_11  and  N1_13 
REMARK    2  A    between atoms: N1_13  and  C12_15 
REMARK    3  A    between atoms: C12_15  and  C13_16 
REMARK       I    between atoms: C13_16  and  N2_18 
REMARK    4  A    between atoms: N2_18  and  C14_20 
REMARK    5  A    between atoms: C17_23  and  N3_24 
ROOT
HETATM    1  C11 UNL     1      91.235  98.942 -45.014  1.00  0.00     0.227 C 
HETATM    2  O1  UNL     1      92.200  98.725 -45.833  1.00  0.00    -0.273 OA
HETATM    3  N1  UNL     1      90.163  98.001 -45.074  1.00  0.00    -0.352 N 
ATOM      4  H1  UNL     1      89.391  98.148 -44.424  1.00  0.00     0.162 HD
ENDROOT
BRANCH   3   5
HETATM    5  C12 UNL     1      90.060  96.890 -45.938  1.00  0.00     0.225 C 
BRANCH   5   6
HETATM    6  C13 UNL     1      90.641  95.595 -45.427  1.00  0.00     0.239 C 
HETATM    7  O2  UNL     1      90.512  94.630 -46.214  1.00  0.00    -0.271 OA
HETATM    8  N2  UNL     1      91.267  95.475 -44.198  1.00  0.00    -0.324 N 
ATOM      9  H2  UNL     1      91.339  96.316 -43.624  1.00  0.00     0.169 HD
BRANCH   8  10
HETATM   10  C14 UNL     1      91.819  94.271 -43.668  1.00  0.00     0.056 A 
HETATM   11  C15 UNL     1      92.124  93.176 -44.399  1.00  0.00     0.034 A 
HETATM   12  C16 UNL     1      92.661  92.041 -43.785  1.00  0.00     0.038 A 
HETATM   13  C17 UNL     1      92.905  91.963 -42.441  1.00  0.00     0.104 A 
HETATM   14  C18 UNL     1      92.586  93.095 -41.715  1.00  0.00     0.062 A 
HETATM   15  C19 UNL     1      92.065  94.211 -42.281  1.00  0.00     0.063 A 
HETATM   16 CL1  UNL     1      91.683  95.618 -41.289  1.00  0.00    -0.082 Cl
BRANCH  13  17
HETATM   17  N3  UNL     1      93.448  90.820 -41.809  1.00  0.00    -0.116 N 
HETATM   18  O3  UNL     1      92.741  89.819 -41.663  1.00  0.00    -0.532 OA
HETATM   19  O4  UNL     1      94.733  90.825 -41.367  1.00  0.00    -0.532 OA
ENDBRANCH  13  17
ENDBRANCH   8  10
ENDBRANCH   5   6
ENDBRANCH   3   5
BRANCH   1  20
HETATM   20  C10 UNL     1      91.282 100.088 -44.105  1.00  0.00     0.045 C 
HETATM   21  C2  UNL     1      91.029  99.808 -42.670  1.00  0.00     0.003 C 
HETATM   22  C1  UNL     1      91.853  98.753 -42.029  1.00  0.00     0.011 C 
HETATM   23  C3  UNL     1      91.162 101.100 -41.894  1.00  0.00    -0.009 C 
HETATM   24  C4  UNL     1      90.084 102.045 -42.315  1.00  0.00     0.010 C 
HETATM   25  C8  UNL     1      92.489 101.765 -42.077  1.00  0.00     0.010 C 
HETATM   26  C5  UNL     1      90.304 102.376 -43.773  1.00  0.00    -0.013 C 
HETATM   27  C6  UNL     1      91.640 103.023 -44.019  1.00  0.00     0.009 C 
HETATM   28  C20 UNL     1      90.220 101.097 -44.559  1.00  0.00     0.024 C 
HETATM   29  C7  UNL     1      92.705 102.085 -43.551  1.00  0.00    -0.013 C 
HETATM   30  C9  UNL     1      92.624 100.768 -44.290  1.00  0.00     0.024 C 
ENDBRANCH   1  20
TORSDOF 5
ENDMDL
MODEL 4
REMARK VINA RESULT: -7.327950342      7.371     10.036
REMARK  5 active torsions:
REMARK  status: ('A' for Active; 'I' for Inactive)
REMARK    1  A    between atoms: C10_10  and  C11_11 
REMARK       I    between atoms: C11_11  and  N1_13 
REMARK    2  A    between atoms: N1_13  and  C12_15 
REMARK    3  A    between atoms: C12_15  and  C13_16 
REMARK       I    between atoms: C13_16  and  N2_18 
REMARK    4  A    between atoms: N2_18  and  C14_20 
REMARK    5  A    between atoms: C17_23  and  N3_24 
ROOT
HETATM    1  C11 UNL     1      88.361  99.111 -43.417  1.00  0.00     0.227 C 
HETATM    2  O1  UNL     1      88.104  99.709 -42.310  1.00  0.00    -0.273 OA
HETATM    3  N1  UNL     1      89.701  98.640 -43.558  1.00  0.00    -0.352 N 
ATOM      4  H1  UNL     1      89.924  98.152 -44.425  1.00  0.00     0.162 HD
ENDROOT
BRANCH   3   5
HETATM    5  C12 UNL     1      90.749  98.778 -42.622  1.00  0.00     0.225 C 
BRANCH   5   6
HETATM    6  C13 UNL     1      91.450  97.505 -42.217  1.00  0.00     0.239 C 
HETATM    7  O2  UNL     1      92.269  97.648 -41.280  1.00  0.00    -0.271 OA
HETATM    8  N2  UNL     1      91.211  96.282 -42.818  1.00  0.00    -0.324 N 
ATOM      9  H2  UNL     1      90.517  96.253 -43.566  1.00  0.00     0.169 HD
BRANCH   8  10
HETATM   10  C14 UNL     1      91.857  95.056 -42.477  1.00  0.00     0.056 A 
HETATM   11  C15 UNL     1      92.404  94.782 -41.272  1.00  0.00     0.034 A 
HETATM   12  C16 UNL     1      93.019  93.549 -41.036  1.00  0.00     0.038 A 
HETATM   13  C17 UNL     1      93.108  92.565 -41.983  1.00  0.00     0.104 A 
HETATM   14  C18 UNL     1      92.542  92.868 -43.206  1.00  0.00     0.062 A 
HETATM   15  C19 UNL     1      91.938  94.054 -43.466  1.00  0.00     0.063 A 
HETATM   16 CL1  UNL     1      91.236  94.368 -45.053  1.00  0.00    -0.082 Cl
BRANCH  13  17
HETATM   17  N3  UNL     1      93.728  91.314 -41.756  1.00  0.00    -0.116 N 
HETATM   18  O3  UNL     1      94.940  91.275 -41.529  1.00  0.00    -0.532 OA
HETATM   19  O4  UNL     1      92.996  90.170 -41.788  1.00  0.00    -0.532 OA
ENDBRANCH  13  17
ENDBRANCH   8  10
ENDBRANCH   5   6
ENDBRANCH   3   5
BRANCH   1  20
HETATM   20  C10 UNL     1      87.316  98.952 -44.430  1.00  0.00     0.045 C 
HETATM   21  C2  UNL     1      86.912 100.175 -45.165  1.00  0.00     0.003 C 
HETATM   22  C1  UNL     1      87.989 100.959 -45.821  1.00  0.00     0.011 C 
HETATM   23  C3  UNL     1      85.861  99.800 -46.188  1.00  0.00    -0.009 C 
HETATM   24  C4  UNL     1      84.631  99.330 -45.484  1.00  0.00     0.010 C 
HETATM   25  C8  UNL     1      86.314  98.736 -47.137  1.00  0.00     0.010 C 
HETATM   26  C5  UNL     1      84.984  98.071 -44.727  1.00  0.00    -0.013 C 
HETATM   27  C6  UNL     1      85.474  96.974 -45.634  1.00  0.00     0.009 C 
HETATM   28  C20 UNL     1      86.060  98.412 -43.734  1.00  0.00     0.024 C 
HETATM   29  C7  UNL     1      86.678  97.476 -46.363  1.00  0.00    -0.013 C 
HETATM   30  C9  UNL     1      87.768  97.871 -45.392  1.00  0.00     0.024 C 
ENDBRANCH   1  20
TORSDOF 5
ENDMDL
MODEL 5
REMARK VINA RESULT: -7.285426754      6.677     11.191
REMARK  5 active torsions:
REMARK  status: ('A' for Active; 'I' for Inactive)
REMARK    1  A    between atoms: C10_10  and  C11_11 
REMARK       I    between atoms: C11_11  and  N1_13 
REMARK    2  A    between atoms: N1_13  and  C12_15 
REMARK    3  A    between atoms: C12_15  and  C13_16 
REMARK       I    between atoms: C13_16  and  N2_18 
REMARK    4  A    between atoms: N2_18  and  C14_20 
REMARK    5  A    between atoms: C17_23  and  N3_24 
ROOT
HETATM    1  C11 UNL     1      91.305  98.702 -45.095  1.00  0.00     0.227 C 
HETATM    2  O1  UNL     1      92.357  98.254 -45.679  1.00  0.00    -0.273 OA
HETATM    3  N1  UNL     1      90.113  97.952 -45.326  1.00  0.00    -0.352 N 
ATOM      4  H1  UNL     1      89.268  98.284 -44.863  1.00  0.00     0.162 HD
ENDROOT
BRANCH   3   5
HETATM    5  C12 UNL     1      89.983  96.798 -46.129  1.00  0.00     0.225 C 
BRANCH   5   6
HETATM    6  C13 UNL     1      90.585  95.531 -45.573  1.00  0.00     0.239 C 
HETATM    7  O2  UNL     1      90.456  94.533 -46.318  1.00  0.00    -0.271 OA
HETATM    8  N2  UNL     1      91.229  95.469 -44.350  1.00  0.00    -0.324 N 
ATOM      9  H2  UNL     1      91.301  96.333 -43.812  1.00  0.00     0.169 HD
BRANCH   8  10
HETATM   10  C14 UNL     1      91.802  94.293 -43.779  1.00  0.00     0.056 A 
HETATM   11  C15 UNL     1      92.143  93.186 -44.475  1.00  0.00     0.034 A 
HETATM   12  C16 UNL     1      92.698  92.081 -43.822  1.00  0.00     0.038 A 
HETATM   13  C17 UNL     1      92.925  92.047 -42.473  1.00  0.00     0.104 A 
HETATM   14  C18 UNL     1      92.569  93.190 -41.783  1.00  0.00     0.062 A 
HETATM   15  C19 UNL     1      92.031  94.277 -42.387  1.00  0.00     0.063 A 
HETATM   16 CL1  UNL     1      91.602  95.702 -41.441  1.00  0.00    -0.082 Cl
BRANCH  13  17
HETATM   17  N3  UNL     1      93.485  90.934 -41.802  1.00  0.00    -0.116 N 
HETATM   18  O3  UNL     1      92.809  89.912 -41.662  1.00  0.00    -0.532 OA
HETATM   19  O4  UNL     1      94.753  90.993 -41.316  1.00  0.00    -0.532 OA
ENDBRANCH  13  17
ENDBRANCH   8  10
ENDBRANCH   5   6
ENDBRANCH   3   5
BRANCH   1  20
HETATM   20  C10 UNL     1      91.379  99.904 -44.263  1.00  0.00     0.045 C 
HETATM   21  C2  UNL     1      92.413 100.903 -44.629  1.00  0.00     0.003 C 
HETATM   22  C1  UNL     1      92.423 101.387 -46.032  1.00  0.00     0.011 C 
HETATM   23  C3  UNL     1      92.303 102.081 -43.685  1.00  0.00    -0.009 C 
HETATM   24  C4  UNL     1      92.643 101.640 -42.300  1.00  0.00     0.010 C 
HETATM   25  C8  UNL     1      90.944 102.706 -43.675  1.00  0.00     0.010 C 
HETATM   26  C5  UNL     1      91.608 100.627 -41.870  1.00  0.00    -0.013 C 
HETATM   27  C6  UNL     1      90.215 101.197 -41.869  1.00  0.00     0.009 C 
HETATM   28  C20 UNL     1      91.669  99.466 -42.822  1.00  0.00     0.024 C 
HETATM   29  C7  UNL     1      89.906 101.674 -43.252  1.00  0.00    -0.013 C 
HETATM   30  C9  UNL     1      90.002 100.539 -44.246  1.00  0.00     0.024 C 
ENDBRANCH   1  20
TORSDOF 5
ENDMDL
