MODEL 1
REMARK VINA RESULT: -7.630134883      0.000      0.000
REMARK  11 active torsions:
REMARK  status: ('A' for Active; 'I' for Inactive)
REMARK    1  A    between atoms: O1_1  and  C1_3 
REMARK    2  A    between atoms: C1_3  and  C2_4 
REMARK    3  A    between atoms: C2_4  and  N1_5 
REMARK    4  A    between atoms: N2_8  and  C5_9 
REMARK    5  A    between atoms: C12_20  and  N5_21 
REMARK    6  A    between atoms: N5_21  and  C13_23 
REMARK    7  A    between atoms: C16_26  and  O2_27 
REMARK    8  A    between atoms: O2_27  and  C17_28 
REMARK    9  A    between atoms: C17_28  and  C18_29 
REMARK   10  A    between atoms: C18_29  and  C19_30 
REMARK   11  A    between atoms: C19_30  and  C20_31 
ROOT
HETATM    1  C5  UNL     1     -56.973   4.752   0.553  1.00  0.00     0.149 A 
HETATM    2  N3  UNL     1     -58.111   4.041   0.381  1.00  0.00    -0.338 N 
ATOM      3  H3  UNL     1     -58.855   4.138   1.073  1.00  0.00     0.167 HD
HETATM    4  C6  UNL     1     -58.307   3.212  -0.660  1.00  0.00     0.060 A 
HETATM    5  C7  UNL     1     -59.485   2.491  -0.818  1.00  0.00     0.032 A 
HETATM    6  C8  UNL     1     -59.699   1.640  -1.879  1.00  0.00     0.002 A 
HETATM    7  C9  UNL     1     -58.711   1.491  -2.829  1.00  0.00     0.002 A 
HETATM    8  C10 UNL     1     -57.522   2.210  -2.684  1.00  0.00     0.032 A 
HETATM    9  C11 UNL     1     -57.330   3.056  -1.614  1.00  0.00     0.060 A 
HETATM   10  N4  UNL     1     -56.188   3.751  -1.466  1.00  0.00    -0.338 N 
ATOM     11  H4  UNL     1     -55.449   3.650  -2.162  1.00  0.00     0.167 HD
HETATM   12  C12 UNL     1     -55.998   4.587  -0.409  1.00  0.00     0.151 A 
ENDROOT
BRANCH  12  13
HETATM   13  N5  UNL     1     -54.896   5.231  -0.309  1.00  0.00    -0.339 N 
ATOM     14  H5  UNL     1     -54.354   5.151   0.552  1.00  0.00     0.167 HD
BRANCH  13  15
HETATM   15  C13 UNL     1     -54.406   6.053  -1.356  1.00  0.00     0.033 A 
HETATM   16  C14 UNL     1     -53.076   6.001  -1.720  1.00  0.00     0.032 A 
HETATM   17  C15 UNL     1     -52.570   6.798  -2.746  1.00  0.00     0.039 A 
HETATM   18  C16 UNL     1     -53.403   7.661  -3.423  1.00  0.00     0.075 A 
HETATM   19  C23 UNL     1     -54.734   7.727  -3.073  1.00  0.00     0.039 A 
HETATM   20  C24 UNL     1     -55.220   6.930  -2.053  1.00  0.00     0.032 A 
BRANCH  18  21
HETATM   21  O2  UNL     1     -52.920   8.453  -4.436  1.00  0.00    -0.323 OA
BRANCH  21  22
HETATM   22  C17 UNL     1     -52.705   9.803  -4.400  1.00  0.00     0.142 C 
BRANCH  22  23
HETATM   23  C18 UNL     1     -51.423  10.358  -4.753  1.00  0.00     0.025 C 
BRANCH  23  24
HETATM   24  C19 UNL     1     -50.286  10.580  -4.275  1.00  0.00     0.016 C 
BRANCH  24  25
HETATM   25  C20 UNL     1     -49.742  11.311  -3.164  1.00  0.00    -0.002 A 
HETATM   26  C21 UNL     1     -49.156  10.883  -2.038  1.00  0.00     0.119 A 
HETATM   27  N6  UNL     1     -48.805  11.954  -1.285  1.00  0.00    -0.311 N 
HETATM   28  N7  UNL     1     -49.152  13.042  -1.904  1.00  0.00    -0.311 N 
ATOM     29  H6  UNL     1     -48.342  11.912  -0.377  1.00  0.00     0.186 HD
HETATM   30  C22 UNL     1     -49.731  12.727  -3.061  1.00  0.00     0.119 A 
ATOM     31  H7  UNL     1     -49.004  13.990  -1.559  1.00  0.00     0.186 HD
ENDBRANCH  24  25
ENDBRANCH  23  24
ENDBRANCH  22  23
ENDBRANCH  21  22
ENDBRANCH  18  21
ENDBRANCH  13  15
ENDBRANCH  12  13
BRANCH   1  32
HETATM   32  N2  UNL     1     -56.803   5.621   1.676  1.00  0.00    -0.361 N 
HETATM   33  C4  UNL     1     -56.294   5.228   2.952  1.00  0.00     0.154 C 
HETATM   34  C3  UNL     1     -55.392   6.375   3.429  1.00  0.00     0.292 C 
HETATM   35  N1  UNL     1     -56.129   7.581   3.628  1.00  0.00     0.093 N 
HETATM   36  C26 UNL     1     -57.371   7.632   2.908  1.00  0.00     0.292 C 
HETATM   37  C25 UNL     1     -57.174   7.034   1.522  1.00  0.00     0.154 C 
BRANCH  35  38
HETATM   38  C2  UNL     1     -56.317   7.929   5.007  1.00  0.00     0.298 C 
BRANCH  38  39
HETATM   39  C1  UNL     1     -57.727   7.618   5.461  1.00  0.00     0.194 C 
BRANCH  39  40
HETATM   40  O1  UNL     1     -57.761   6.357   6.081  1.00  0.00    -0.399 OA
ATOM     41  H1  UNL     1     -58.656   6.042   6.123  1.00  0.00     0.209 HD
ENDBRANCH  39  40
ENDBRANCH  38  39
ENDBRANCH  35  38
ENDBRANCH   1  32
TORSDOF 11
ENDMDL
MODEL 2
REMARK VINA RESULT: -7.477529509      4.635      8.835
REMARK  11 active torsions:
REMARK  status: ('A' for Active; 'I' for Inactive)
REMARK    1  A    between atoms: O1_1  and  C1_3 
REMARK    2  A    between atoms: C1_3  and  C2_4 
REMARK    3  A    between atoms: C2_4  and  N1_5 
REMARK    4  A    between atoms: N2_8  and  C5_9 
REMARK    5  A    between atoms: C12_20  and  N5_21 
REMARK    6  A    between atoms: N5_21  and  C13_23 
REMARK    7  A    between atoms: C16_26  and  O2_27 
REMARK    8  A    between atoms: O2_27  and  C17_28 
REMARK    9  A    between atoms: C17_28  and  C18_29 
REMARK   10  A    between atoms: C18_29  and  C19_30 
REMARK   11  A    between atoms: C19_30  and  C20_31 
ROOT
HETATM    1  C5  UNL     1     -58.438  -0.705  -3.958  1.00  0.00     0.149 A 
HETATM    2  N3  UNL     1     -57.920  -1.951  -3.864  1.00  0.00    -0.338 N 
ATOM      3  H3  UNL     1     -57.182  -2.222  -4.513  1.00  0.00     0.167 HD
HETATM    4  C6  UNL     1     -58.335  -2.850  -2.951  1.00  0.00     0.060 A 
HETATM    5  C7  UNL     1     -57.788  -4.125  -2.872  1.00  0.00     0.032 A 
HETATM    6  C8  UNL     1     -58.202  -5.055  -1.943  1.00  0.00     0.002 A 
HETATM    7  C9  UNL     1     -59.198  -4.715  -1.053  1.00  0.00     0.002 A 
HETATM    8  C10 UNL     1     -59.757  -3.436  -1.121  1.00  0.00     0.032 A 
HETATM    9  C11 UNL     1     -59.326  -2.522  -2.058  1.00  0.00     0.060 A 
HETATM   10  N4  UNL     1     -59.859  -1.290  -2.131  1.00  0.00    -0.338 N 
ATOM     11  H4  UNL     1     -60.597  -1.025  -1.478  1.00  0.00     0.167 HD
HETATM   12  C12 UNL     1     -59.434  -0.387  -3.057  1.00  0.00     0.151 A 
ENDROOT
BRANCH  12  13
HETATM   13  N5  UNL     1     -59.967   0.776  -3.090  1.00  0.00    -0.339 N 
ATOM     14  H5  UNL     1     -60.688   0.970  -3.786  1.00  0.00     0.167 HD
BRANCH  13  15
HETATM   15  C13 UNL     1     -59.588   1.805  -2.190  1.00  0.00     0.033 A 
HETATM   16  C14 UNL     1     -59.983   1.758  -0.869  1.00  0.00     0.032 A 
HETATM   17  C15 UNL     1     -59.623   2.758   0.034  1.00  0.00     0.039 A 
HETATM   18  C16 UNL     1     -58.855   3.821  -0.384  1.00  0.00     0.075 A 
HETATM   19  C23 UNL     1     -58.450   3.885  -1.700  1.00  0.00     0.039 A 
HETATM   20  C24 UNL     1     -58.817   2.885  -2.583  1.00  0.00     0.032 A 
BRANCH  18  21
HETATM   21  O2  UNL     1     -58.491   4.813   0.494  1.00  0.00    -0.323 OA
BRANCH  21  22
HETATM   22  C17 UNL     1     -57.302   4.934   1.158  1.00  0.00     0.142 C 
BRANCH  22  23
HETATM   23  C18 UNL     1     -56.227   5.724   0.612  1.00  0.00     0.025 C 
BRANCH  23  24
HETATM   24  C19 UNL     1     -55.513   5.832  -0.412  1.00  0.00     0.016 C 
BRANCH  24  25
HETATM   25  C20 UNL     1     -54.253   5.314  -0.869  1.00  0.00    -0.002 A 
HETATM   26  C21 UNL     1     -53.973   4.316  -1.717  1.00  0.00     0.119 A 
HETATM   27  N6  UNL     1     -52.627   4.199  -1.836  1.00  0.00    -0.311 N 
HETATM   28  N7  UNL     1     -52.054   5.093  -1.089  1.00  0.00    -0.311 N 
ATOM     29  H6  UNL     1     -52.143   3.517  -2.419  1.00  0.00     0.186 HD
HETATM   30  C22 UNL     1     -52.985   5.813  -0.467  1.00  0.00     0.119 A 
ATOM     31  H7  UNL     1     -51.047   5.224  -0.993  1.00  0.00     0.186 HD
ENDBRANCH  24  25
ENDBRANCH  23  24
ENDBRANCH  22  23
ENDBRANCH  21  22
ENDBRANCH  18  21
ENDBRANCH  13  15
ENDBRANCH  12  13
BRANCH   1  32
HETATM   32  N2  UNL     1     -57.972   0.220  -4.944  1.00  0.00    -0.361 N 
HETATM   33  C4  UNL     1     -58.676   0.581  -6.134  1.00  0.00     0.154 C 
HETATM   34  C3  UNL     1     -58.456   2.088  -6.325  1.00  0.00     0.292 C 
HETATM   35  N1  UNL     1     -57.080   2.399  -6.545  1.00  0.00     0.093 N 
HETATM   36  C26 UNL     1     -56.171   1.395  -6.068  1.00  0.00     0.292 C 
HETATM   37  C25 UNL     1     -56.667   0.861  -4.731  1.00  0.00     0.154 C 
BRANCH  35  38
HETATM   38  C2  UNL     1     -56.775   2.772  -7.896  1.00  0.00     0.298 C 
BRANCH  38  39
HETATM   39  C1  UNL     1     -57.981   3.382  -8.579  1.00  0.00     0.194 C 
BRANCH  39  40
HETATM   40  O1  UNL     1     -58.212   2.735  -9.806  1.00  0.00    -0.399 OA
ATOM     41  H1  UNL     1     -59.027   2.248  -9.766  1.00  0.00     0.209 HD
ENDBRANCH  39  40
ENDBRANCH  38  39
ENDBRANCH  35  38
ENDBRANCH   1  32
TORSDOF 11
ENDMDL
MODEL 3
REMARK VINA RESULT: -7.375310125      0.588      1.425
REMARK  11 active torsions:
REMARK  status: ('A' for Active; 'I' for Inactive)
REMARK    1  A    between atoms: O1_1  and  C1_3 
REMARK    2  A    between atoms: C1_3  and  C2_4 
REMARK    3  A    between atoms: C2_4  and  N1_5 
REMARK    4  A    between atoms: N2_8  and  C5_9 
REMARK    5  A    between atoms: C12_20  and  N5_21 
REMARK    6  A    between atoms: N5_21  and  C13_23 
REMARK    7  A    between atoms: C16_26  and  O2_27 
REMARK    8  A    between atoms: O2_27  and  C17_28 
REMARK    9  A    between atoms: C17_28  and  C18_29 
REMARK   10  A    between atoms: C18_29  and  C19_30 
REMARK   11  A    between atoms: C19_30  and  C20_31 
ROOT
HETATM    1  C5  UNL     1     -56.943   5.048   0.855  1.00  0.00     0.149 A 
HETATM    2  N3  UNL     1     -58.069   4.311   0.719  1.00  0.00    -0.338 N 
ATOM      3  H3  UNL     1     -58.795   4.396   1.430  1.00  0.00     0.167 HD
HETATM    4  C6  UNL     1     -58.273   3.470  -0.312  1.00  0.00     0.060 A 
HETATM    5  C7  UNL     1     -59.438   2.721  -0.432  1.00  0.00     0.032 A 
HETATM    6  C8  UNL     1     -59.662   1.857  -1.481  1.00  0.00     0.002 A 
HETATM    7  C9  UNL     1     -58.697   1.724  -2.456  1.00  0.00     0.002 A 
HETATM    8  C10 UNL     1     -57.521   2.470  -2.349  1.00  0.00     0.032 A 
HETATM    9  C11 UNL     1     -57.319   3.329  -1.290  1.00  0.00     0.060 A 
HETATM   10  N4  UNL     1     -56.190   4.050  -1.179  1.00  0.00    -0.338 N 
ATOM     11  H4  UNL     1     -55.467   3.960  -1.893  1.00  0.00     0.167 HD
HETATM   12  C12 UNL     1     -55.990   4.898  -0.132  1.00  0.00     0.151 A 
ENDROOT
BRANCH  12  13
HETATM   13  N5  UNL     1     -54.901   5.568  -0.067  1.00  0.00    -0.339 N 
ATOM     14  H5  UNL     1     -54.385   5.586   0.813  1.00  0.00     0.167 HD
BRANCH  13  15
HETATM   15  C13 UNL     1     -54.389   6.285  -1.178  1.00  0.00     0.033 A 
HETATM   16  C14 UNL     1     -55.200   7.151  -1.885  1.00  0.00     0.032 A 
HETATM   17  C15 UNL     1     -54.719   7.866  -2.981  1.00  0.00     0.039 A 
HETATM   18  C16 UNL     1     -53.410   7.719  -3.380  1.00  0.00     0.075 A 
HETATM   19  C23 UNL     1     -52.585   6.859  -2.687  1.00  0.00     0.039 A 
HETATM   20  C24 UNL     1     -53.078   6.156  -1.603  1.00  0.00     0.032 A 
BRANCH  18  21
HETATM   21  O2  UNL     1     -52.922   8.418  -4.458  1.00  0.00    -0.323 OA
BRANCH  21  22
HETATM   22  C17 UNL     1     -52.776   9.773  -4.567  1.00  0.00     0.142 C 
BRANCH  22  23
HETATM   23  C18 UNL     1     -51.477  10.364  -4.764  1.00  0.00     0.025 C 
BRANCH  23  24
HETATM   24  C19 UNL     1     -50.362  10.490  -4.204  1.00  0.00     0.016 C 
BRANCH  24  25
HETATM   25  C20 UNL     1     -49.795  11.316  -3.174  1.00  0.00    -0.002 A 
HETATM   26  C21 UNL     1     -49.748  12.648  -3.049  1.00  0.00     0.119 A 
HETATM   27  N6  UNL     1     -49.104  12.963  -1.898  1.00  0.00    -0.311 N 
HETATM   28  N7  UNL     1     -48.747  11.869  -1.296  1.00  0.00    -0.311 N 
ATOM     29  H6  UNL     1     -48.929  13.909  -1.559  1.00  0.00     0.186 HD
HETATM   30  C22 UNL     1     -49.136  10.821  -2.018  1.00  0.00     0.119 A 
ATOM     31  H7  UNL     1     -48.246  11.820  -0.409  1.00  0.00     0.186 HD
ENDBRANCH  24  25
ENDBRANCH  23  24
ENDBRANCH  22  23
ENDBRANCH  21  22
ENDBRANCH  18  21
ENDBRANCH  13  15
ENDBRANCH  12  13
BRANCH   1  32
HETATM   32  N2  UNL     1     -56.762   5.929   1.967  1.00  0.00    -0.361 N 
HETATM   33  C4  UNL     1     -57.039   7.331   1.961  1.00  0.00     0.154 C 
HETATM   34  C3  UNL     1     -57.667   7.653   3.324  1.00  0.00     0.292 C 
HETATM   35  N1  UNL     1     -56.756   7.413   4.397  1.00  0.00     0.093 N 
HETATM   36  C26 UNL     1     -55.696   6.501   4.070  1.00  0.00     0.292 C 
HETATM   37  C25 UNL     1     -56.253   5.364   3.224  1.00  0.00     0.154 C 
BRANCH  35  38
HETATM   38  C2  UNL     1     -56.242   8.607   5.003  1.00  0.00     0.298 C 
BRANCH  38  39
HETATM   39  C1  UNL     1     -57.239   9.197   5.978  1.00  0.00     0.194 C 
BRANCH  39  40
HETATM   40  O1  UNL     1     -57.727   8.190   6.828  1.00  0.00    -0.399 OA
ATOM     41  H1  UNL     1     -58.642   8.021   6.636  1.00  0.00     0.209 HD
ENDBRANCH  39  40
ENDBRANCH  38  39
ENDBRANCH  35  38
ENDBRANCH   1  32
TORSDOF 11
ENDMDL
MODEL 4
REMARK VINA RESULT: -7.292965939      4.587      8.762
REMARK  11 active torsions:
REMARK  status: ('A' for Active; 'I' for Inactive)
REMARK    1  A    between atoms: O1_1  and  C1_3 
REMARK    2  A    between atoms: C1_3  and  C2_4 
REMARK    3  A    between atoms: C2_4  and  N1_5 
REMARK    4  A    between atoms: N2_8  and  C5_9 
REMARK    5  A    between atoms: C12_20  and  N5_21 
REMARK    6  A    between atoms: N5_21  and  C13_23 
REMARK    7  A    between atoms: C16_26  and  O2_27 
REMARK    8  A    between atoms: O2_27  and  C17_28 
REMARK    9  A    between atoms: C17_28  and  C18_29 
REMARK   10  A    between atoms: C18_29  and  C19_30 
REMARK   11  A    between atoms: C19_30  and  C20_31 
ROOT
HETATM    1  C5  UNL     1     -58.738   0.400  -5.184  1.00  0.00     0.149 A 
HETATM    2  N3  UNL     1     -58.289   0.599  -6.445  1.00  0.00    -0.338 N 
ATOM      3  H3  UNL     1     -57.842  -0.179  -6.930  1.00  0.00     0.167 HD
HETATM    4  C6  UNL     1     -58.406   1.775  -7.087  1.00  0.00     0.060 A 
HETATM    5  C7  UNL     1     -57.938   1.958  -8.383  1.00  0.00     0.032 A 
HETATM    6  C8  UNL     1     -58.051   3.156  -9.053  1.00  0.00     0.002 A 
HETATM    7  C9  UNL     1     -58.652   4.223  -8.420  1.00  0.00     0.002 A 
HETATM    8  C10 UNL     1     -59.128   4.054  -7.117  1.00  0.00     0.032 A 
HETATM    9  C11 UNL     1     -59.004   2.846  -6.467  1.00  0.00     0.060 A 
HETATM   10  N4  UNL     1     -59.458   2.675  -5.213  1.00  0.00    -0.338 N 
ATOM     11  H4  UNL     1     -59.905   3.457  -4.733  1.00  0.00     0.167 HD
HETATM   12  C12 UNL     1     -59.336   1.482  -4.570  1.00  0.00     0.151 A 
ENDROOT
BRANCH  12  13
HETATM   13  N5  UNL     1     -59.784   1.363  -3.377  1.00  0.00    -0.339 N 
ATOM     14  H5  UNL     1     -60.640   0.829  -3.222  1.00  0.00     0.167 HD
BRANCH  13  15
HETATM   15  C13 UNL     1     -59.129   1.949  -2.264  1.00  0.00     0.033 A 
HETATM   16  C14 UNL     1     -57.764   2.157  -2.286  1.00  0.00     0.032 A 
HETATM   17  C15 UNL     1     -57.098   2.732  -1.204  1.00  0.00     0.039 A 
HETATM   18  C16 UNL     1     -57.802   3.107  -0.082  1.00  0.00     0.075 A 
HETATM   19  C23 UNL     1     -59.164   2.907  -0.041  1.00  0.00     0.039 A 
HETATM   20  C24 UNL     1     -59.810   2.335  -1.122  1.00  0.00     0.032 A 
BRANCH  18  21
HETATM   21  O2  UNL     1     -57.159   3.675   0.992  1.00  0.00    -0.323 OA
BRANCH  21  22
HETATM   22  C17 UNL     1     -57.081   5.005   1.300  1.00  0.00     0.142 C 
BRANCH  22  23
HETATM   23  C18 UNL     1     -56.160   5.871   0.610  1.00  0.00     0.025 C 
BRANCH  23  24
HETATM   24  C19 UNL     1     -55.463   5.932  -0.431  1.00  0.00     0.016 C 
BRANCH  24  25
HETATM   25  C20 UNL     1     -54.222   5.373  -0.893  1.00  0.00    -0.002 A 
HETATM   26  C21 UNL     1     -53.978   4.357  -1.730  1.00  0.00     0.119 A 
HETATM   27  N6  UNL     1     -52.638   4.201  -1.861  1.00  0.00    -0.311 N 
HETATM   28  N7  UNL     1     -52.033   5.090  -1.133  1.00  0.00    -0.311 N 
ATOM     29  H6  UNL     1     -52.179   3.498  -2.440  1.00  0.00     0.186 HD
HETATM   30  C22 UNL     1     -52.938   5.843  -0.511  1.00  0.00     0.119 A 
ATOM     31  H7  UNL     1     -51.022   5.195  -1.049  1.00  0.00     0.186 HD
ENDBRANCH  24  25
ENDBRANCH  23  24
ENDBRANCH  22  23
ENDBRANCH  21  22
ENDBRANCH  18  21
ENDBRANCH  13  15
ENDBRANCH  12  13
BRANCH   1  32
HETATM   32  N2  UNL     1     -58.592  -0.866  -4.535  1.00  0.00    -0.361 N 
HETATM   33  C4  UNL     1     -57.511  -1.231  -3.674  1.00  0.00     0.154 C 
HETATM   34  C3  UNL     1     -58.128  -2.046  -2.529  1.00  0.00     0.292 C 
HETATM   35  N1  UNL     1     -58.715  -3.260  -2.999  1.00  0.00     0.093 N 
HETATM   36  C26 UNL     1     -59.051  -3.244  -4.395  1.00  0.00     0.292 C 
HETATM   37  C25 UNL     1     -59.628  -1.883  -4.759  1.00  0.00     0.154 C 
BRANCH  35  38
HETATM   38  C2  UNL     1     -57.969  -4.438  -2.660  1.00  0.00     0.298 C 
BRANCH  38  39
HETATM   39  C1  UNL     1     -57.864  -4.604  -1.159  1.00  0.00     0.194 C 
BRANCH  39  40
HETATM   40  O1  UNL     1     -56.512  -4.685  -0.782  1.00  0.00    -0.399 OA
ATOM     41  H1  UNL     1     -56.370  -4.192   0.018  1.00  0.00     0.209 HD
ENDBRANCH  39  40
ENDBRANCH  38  39
ENDBRANCH  35  38
ENDBRANCH   1  32
TORSDOF 11
ENDMDL
MODEL 5
REMARK VINA RESULT: -7.255272014      5.509      8.900
REMARK  11 active torsions:
REMARK  status: ('A' for Active; 'I' for Inactive)
REMARK    1  A    between atoms: O1_1  and  C1_3 
REMARK    2  A    between atoms: C1_3  and  C2_4 
REMARK    3  A    between atoms: C2_4  and  N1_5 
REMARK    4  A    between atoms: N2_8  and  C5_9 
REMARK    5  A    between atoms: C12_20  and  N5_21 
REMARK    6  A    between atoms: N5_21  and  C13_23 
REMARK    7  A    between atoms: C16_26  and  O2_27 
REMARK    8  A    between atoms: O2_27  and  C17_28 
REMARK    9  A    between atoms: C17_28  and  C18_29 
REMARK   10  A    between atoms: C18_29  and  C19_30 
REMARK   11  A    between atoms: C19_30  and  C20_31 
ROOT
HETATM    1  C5  UNL     1     -58.214  -0.002  -4.346  1.00  0.00     0.149 A 
HETATM    2  N3  UNL     1     -58.588   0.019  -5.646  1.00  0.00    -0.338 N 
ATOM      3  H3  UNL     1     -59.207  -0.716  -5.986  1.00  0.00     0.167 HD
HETATM    4  C6  UNL     1     -58.179   0.966  -6.510  1.00  0.00     0.060 A 
HETATM    5  C7  UNL     1     -58.575   0.969  -7.842  1.00  0.00     0.032 A 
HETATM    6  C8  UNL     1     -58.166   1.932  -8.738  1.00  0.00     0.002 A 
HETATM    7  C9  UNL     1     -57.329   2.938  -8.304  1.00  0.00     0.002 A 
HETATM    8  C10 UNL     1     -56.922   2.948  -6.967  1.00  0.00     0.032 A 
HETATM    9  C11 UNL     1     -57.345   1.974  -6.089  1.00  0.00     0.060 A 
HETATM   10  N4  UNL     1     -56.959   1.976  -4.802  1.00  0.00    -0.338 N 
ATOM     11  H4  UNL     1     -56.339   2.715  -4.468  1.00  0.00     0.167 HD
HETATM   12  C12 UNL     1     -57.376   1.014  -3.934  1.00  0.00     0.151 A 
ENDROOT
BRANCH  12  13
HETATM   13  N5  UNL     1     -56.985   1.055  -2.716  1.00  0.00    -0.339 N 
ATOM     14  H5  UNL     1     -56.428   0.283  -2.349  1.00  0.00     0.167 HD
BRANCH  13  15
HETATM   15  C13 UNL     1     -57.302   2.141  -1.859  1.00  0.00     0.033 A 
HETATM   16  C14 UNL     1     -58.618   2.456  -1.587  1.00  0.00     0.032 A 
HETATM   17  C15 UNL     1     -58.954   3.518  -0.749  1.00  0.00     0.039 A 
HETATM   18  C16 UNL     1     -57.963   4.279  -0.170  1.00  0.00     0.075 A 
HETATM   19  C23 UNL     1     -56.643   3.980  -0.429  1.00  0.00     0.039 A 
HETATM   20  C24 UNL     1     -56.327   2.923  -1.264  1.00  0.00     0.032 A 
BRANCH  18  21
HETATM   21  O2  UNL     1     -58.279   5.328   0.659  1.00  0.00    -0.323 OA
BRANCH  21  22
HETATM   22  C17 UNL     1     -57.854   6.624   0.552  1.00  0.00     0.142 C 
BRANCH  22  23
HETATM   23  C18 UNL     1     -56.807   7.132   1.400  1.00  0.00     0.025 C 
BRANCH  23  24
HETATM   24  C19 UNL     1     -55.765   6.770   1.996  1.00  0.00     0.016 C 
BRANCH  24  25
HETATM   25  C20 UNL     1     -55.442   5.993   3.161  1.00  0.00    -0.002 A 
HETATM   26  C21 UNL     1     -56.128   5.028   3.787  1.00  0.00     0.119 A 
HETATM   27  N6  UNL     1     -55.408   4.590   4.849  1.00  0.00    -0.311 N 
HETATM   28  N7  UNL     1     -54.291   5.250   4.909  1.00  0.00    -0.311 N 
ATOM     29  H6  UNL     1     -55.699   3.859   5.498  1.00  0.00     0.186 HD
HETATM   30  C22 UNL     1     -54.242   6.126   3.908  1.00  0.00     0.119 A 
ATOM     31  H7  UNL     1     -53.565   5.118   5.612  1.00  0.00     0.186 HD
ENDBRANCH  24  25
ENDBRANCH  23  24
ENDBRANCH  22  23
ENDBRANCH  21  22
ENDBRANCH  18  21
ENDBRANCH  13  15
ENDBRANCH  12  13
BRANCH   1  32
HETATM   32  N2  UNL     1     -58.668  -1.028  -3.459  1.00  0.00    -0.361 N 
HETATM   33  C4  UNL     1     -59.800  -0.926  -2.592  1.00  0.00     0.154 C 
HETATM   34  C3  UNL     1     -60.497  -2.292  -2.630  1.00  0.00     0.292 C 
HETATM   35  N1  UNL     1     -59.664  -3.328  -2.107  1.00  0.00     0.093 N 
HETATM   36  C26 UNL     1     -58.263  -3.014  -2.127  1.00  0.00     0.292 C 
HETATM   37  C25 UNL     1     -57.925  -2.295  -3.426  1.00  0.00     0.154 C 
BRANCH  35  38
HETATM   38  C2  UNL     1     -60.069  -3.806  -0.817  1.00  0.00     0.298 C 
BRANCH  38  39
HETATM   39  C1  UNL     1     -60.911  -5.058  -0.940  1.00  0.00     0.194 C 
BRANCH  39  40
HETATM   40  O1  UNL     1     -62.146  -4.867  -0.296  1.00  0.00    -0.399 OA
ATOM     41  H1  UNL     1     -62.854  -4.952  -0.924  1.00  0.00     0.209 HD
ENDBRANCH  39  40
ENDBRANCH  38  39
ENDBRANCH  35  38
ENDBRANCH   1  32
TORSDOF 11
ENDMDL
