MODEL 1
REMARK VINA RESULT: -8.541149187      0.000      0.000
REMARK  9 active torsions:
REMARK  status: ('A' for Active; 'I' for Inactive)
REMARK    1  A    between atoms: C2_2  and  C3_3 
REMARK    2  A    between atoms: N2_6  and  C4_7 
REMARK    3  A    between atoms: C4_7  and  C5_8 
REMARK    4  A    between atoms: C8_11  and  C9_12 
REMARK    5  A    between atoms: C13_18  and  C14_19 
REMARK    6  A    between atoms: C14_19  and  C15_20 
REMARK    7  A    between atoms: C18_27  and  N6_28 
REMARK    8  A    between atoms: N8_34  and  C20_35 
REMARK    9  A    between atoms: C20_35  and  C21_36 
ROOT
HETATM    1  C15 UNL     1     -55.001   6.527   1.167  1.00  0.00     0.091 A 
HETATM    2  N4  UNL     1     -53.663   6.473   1.162  1.00  0.00    -0.329 N 
ATOM      3  H4  UNL     1     -53.088   6.219   1.965  1.00  0.00     0.169 HD
HETATM    4  C16 UNL     1     -53.191   6.796  -0.035  1.00  0.00     0.152 A 
HETATM    5  N5  UNL     1     -51.920   6.896  -0.542  1.00  0.00    -0.346 N 
ATOM      6  H5  UNL     1     -51.116   6.692   0.053  1.00  0.00     0.167 HD
HETATM    7  C17 UNL     1     -51.737   7.261  -1.811  1.00  0.00     0.138 A 
HETATM    8  C18 UNL     1     -52.827   7.529  -2.590  1.00  0.00     0.116 A 
HETATM    9  N7  UNL     1     -54.059   7.430  -2.093  1.00  0.00    -0.325 N 
ATOM     10  H7  UNL     1     -54.859   7.636  -2.691  1.00  0.00     0.169 HD
HETATM   11  C19 UNL     1     -54.267   7.060  -0.804  1.00  0.00     0.155 A 
HETATM   12  N8  UNL     1     -55.400   6.891  -0.055  1.00  0.00    -0.315 N 
ENDROOT
BRANCH   1  13
HETATM   13  C14 UNL     1     -55.789   6.226   2.367  1.00  0.00     0.118 C 
BRANCH  13  14
HETATM   14  C13 UNL     1     -55.555   6.923   3.597  1.00  0.00    -0.010 A 
HETATM   15  C3  UNL     1     -54.716   6.707   4.643  1.00  0.00     0.033 A 
HETATM   16  N1  UNL     1     -54.929   7.654   5.617  1.00  0.00    -0.302 N 
HETATM   17  N2  UNL     1     -55.876   8.442   5.187  1.00  0.00    -0.298 N 
ATOM     18  H1  UNL     1     -54.438   7.728   6.508  1.00  0.00     0.186 HD
HETATM   19  C12 UNL     1     -56.292   8.060   3.988  1.00  0.00     0.120 A 
BRANCH  15  20
HETATM   20  C2  UNL     1     -53.686   5.670   4.798  1.00  0.00     0.055 C 
HETATM   21  C1  UNL     1     -52.300   6.144   4.454  1.00  0.00     0.011 C 
ENDBRANCH  15  20
BRANCH  17  22
HETATM   22  C4  UNL     1     -56.383   9.583   5.958  1.00  0.00     0.186 C 
BRANCH  22  23
HETATM   23  C5  UNL     1     -55.362  10.673   5.977  1.00  0.00    -0.038 A 
HETATM   24  C6  UNL     1     -55.513  11.757   5.140  1.00  0.00     0.010 A 
HETATM   25  C7  UNL     1     -54.575  12.772   5.150  1.00  0.00     0.017 A 
HETATM   26  C8  UNL     1     -53.481  12.741   5.979  1.00  0.00     0.029 A 
HETATM   27  C10 UNL     1     -53.329  11.663   6.812  1.00  0.00     0.017 A 
HETATM   28  C11 UNL     1     -54.261  10.643   6.809  1.00  0.00     0.010 A 
BRANCH  26  29
HETATM   29  C9  UNL     1     -52.516  13.809   5.973  1.00  0.00     0.264 C 
HETATM   30  N3  UNL     1     -52.401  14.715   7.067  1.00  0.00    -0.057 NA
HETATM   31  O1  UNL     1     -51.739  13.987   5.010  1.00  0.00    -0.271 OA
ENDBRANCH  26  29
ENDBRANCH  22  23
ENDBRANCH  17  22
ENDBRANCH  13  14
ENDBRANCH   1  13
BRANCH  12  32
HETATM   32  C20 UNL     1     -56.733   7.102  -0.586  1.00  0.00     0.170 C 
BRANCH  32  33
HETATM   33  C21 UNL     1     -57.361   5.921  -1.191  1.00  0.00    -0.040 A 
HETATM   34  C22 UNL     1     -57.996   5.002  -0.393  1.00  0.00     0.009 A 
HETATM   35  C23 UNL     1     -58.613   3.877  -0.884  1.00  0.00     0.001 A 
HETATM   36  C24 UNL     1     -58.607   3.639  -2.248  1.00  0.00     0.000 A 
HETATM   37  C25 UNL     1     -57.974   4.555  -3.046  1.00  0.00     0.001 A 
HETATM   38  C26 UNL     1     -57.346   5.700  -2.543  1.00  0.00     0.009 A 
ENDBRANCH  32  33
ENDBRANCH  12  32
BRANCH   8  39
HETATM   39  N6  UNL     1     -52.725   7.890  -3.834  1.00  0.00    -0.384 N 
ATOM     40  H62 UNL     1     -51.784   7.925  -4.226  1.00  0.00     0.157 HD
ATOM     41  H61 UNL     1     -53.536   8.128  -4.404  1.00  0.00     0.157 HD
ENDBRANCH   8  39
TORSDOF 9
ENDMDL
MODEL 2
REMARK VINA RESULT: -8.502600986      0.211      1.143
REMARK  9 active torsions:
REMARK  status: ('A' for Active; 'I' for Inactive)
REMARK    1  A    between atoms: C2_2  and  C3_3 
REMARK    2  A    between atoms: N2_6  and  C4_7 
REMARK    3  A    between atoms: C4_7  and  C5_8 
REMARK    4  A    between atoms: C8_11  and  C9_12 
REMARK    5  A    between atoms: C13_18  and  C14_19 
REMARK    6  A    between atoms: C14_19  and  C15_20 
REMARK    7  A    between atoms: C18_27  and  N6_28 
REMARK    8  A    between atoms: N8_34  and  C20_35 
REMARK    9  A    between atoms: C20_35  and  C21_36 
ROOT
HETATM    1  C15 UNL     1     -55.100   6.574   1.141  1.00  0.00     0.091 A 
HETATM    2  N4  UNL     1     -53.764   6.511   1.189  1.00  0.00    -0.329 N 
ATOM      3  H4  UNL     1     -53.222   6.268   2.018  1.00  0.00     0.169 HD
HETATM    4  C16 UNL     1     -53.243   6.810   0.006  1.00  0.00     0.152 A 
HETATM    5  N5  UNL     1     -51.953   6.893  -0.452  1.00  0.00    -0.346 N 
ATOM      6  H5  UNL     1     -51.174   6.694   0.176  1.00  0.00     0.167 HD
HETATM    7  C17 UNL     1     -51.718   7.234  -1.720  1.00  0.00     0.138 A 
HETATM    8  C18 UNL     1     -52.775   7.496  -2.545  1.00  0.00     0.116 A 
HETATM    9  N7  UNL     1     -54.027   7.413  -2.095  1.00  0.00    -0.325 N 
ATOM     10  H7  UNL     1     -54.801   7.614  -2.727  1.00  0.00     0.169 HD
HETATM   11  C19 UNL     1     -54.287   7.067  -0.809  1.00  0.00     0.155 A 
HETATM   12  N8  UNL     1     -55.449   6.919  -0.101  1.00  0.00    -0.315 N 
ENDROOT
BRANCH   1  13
HETATM   13  C14 UNL     1     -55.936   6.299   2.315  1.00  0.00     0.118 C 
BRANCH  13  14
HETATM   14  C13 UNL     1     -55.691   6.955   3.566  1.00  0.00    -0.010 A 
HETATM   15  C3  UNL     1     -54.851   6.696   4.602  1.00  0.00     0.033 A 
HETATM   16  N1  UNL     1     -55.050   7.615   5.605  1.00  0.00    -0.302 N 
HETATM   17  N2  UNL     1     -55.989   8.426   5.203  1.00  0.00    -0.298 N 
ATOM     18  H1  UNL     1     -54.556   7.654   6.497  1.00  0.00     0.186 HD
HETATM   19  C12 UNL     1     -56.413   8.087   3.995  1.00  0.00     0.120 A 
BRANCH  15  20
HETATM   20  C2  UNL     1     -53.833   5.642   4.721  1.00  0.00     0.055 C 
HETATM   21  C1  UNL     1     -52.435   6.125   4.443  1.00  0.00     0.011 C 
ENDBRANCH  15  20
BRANCH  17  22
HETATM   22  C4  UNL     1     -56.480   9.549   6.011  1.00  0.00     0.186 C 
BRANCH  22  23
HETATM   23  C5  UNL     1     -55.448  10.627   6.057  1.00  0.00    -0.038 A 
HETATM   24  C6  UNL     1     -54.458  10.578   7.013  1.00  0.00     0.010 A 
HETATM   25  C7  UNL     1     -53.497  11.570   7.064  1.00  0.00     0.017 A 
HETATM   26  C8  UNL     1     -53.492  12.621   6.180  1.00  0.00     0.029 A 
HETATM   27  C10 UNL     1     -54.477  12.672   5.228  1.00  0.00     0.017 A 
HETATM   28  C11 UNL     1     -55.443  11.685   5.170  1.00  0.00     0.010 A 
BRANCH  26  29
HETATM   29  C9  UNL     1     -52.482  13.644   6.251  1.00  0.00     0.264 C 
HETATM   30  N3  UNL     1     -52.197  14.326   7.469  1.00  0.00    -0.057 NA
HETATM   31  O1  UNL     1     -51.814  13.978   5.248  1.00  0.00    -0.271 OA
ENDBRANCH  26  29
ENDBRANCH  22  23
ENDBRANCH  17  22
ENDBRANCH  13  14
ENDBRANCH   1  13
BRANCH  12  32
HETATM   32  C20 UNL     1     -56.759   7.129  -0.687  1.00  0.00     0.170 C 
BRANCH  32  33
HETATM   33  C21 UNL     1     -57.364   5.946  -1.312  1.00  0.00    -0.040 A 
HETATM   34  C22 UNL     1     -57.291   5.781  -2.673  1.00  0.00     0.009 A 
HETATM   35  C23 UNL     1     -57.825   4.699  -3.330  1.00  0.00     0.001 A 
HETATM   36  C24 UNL     1     -58.472   3.714  -2.603  1.00  0.00     0.000 A 
HETATM   37  C25 UNL     1     -58.545   3.877  -1.246  1.00  0.00     0.001 A 
HETATM   38  C26 UNL     1     -58.001   4.980  -0.578  1.00  0.00     0.009 A 
ENDBRANCH  32  33
ENDBRANCH  12  32
BRANCH   8  39
HETATM   39  N6  UNL     1     -52.623   7.834  -3.790  1.00  0.00    -0.384 N 
ATOM     40  H62 UNL     1     -53.226   7.369  -4.469  1.00  0.00     0.157 HD
ATOM     41  H61 UNL     1     -51.939   8.528  -4.090  1.00  0.00     0.157 HD
ENDBRANCH   8  39
TORSDOF 9
ENDMDL
MODEL 3
REMARK VINA RESULT: -8.297558642      4.205      7.673
REMARK  9 active torsions:
REMARK  status: ('A' for Active; 'I' for Inactive)
REMARK    1  A    between atoms: C2_2  and  C3_3 
REMARK    2  A    between atoms: N2_6  and  C4_7 
REMARK    3  A    between atoms: C4_7  and  C5_8 
REMARK    4  A    between atoms: C8_11  and  C9_12 
REMARK    5  A    between atoms: C13_18  and  C14_19 
REMARK    6  A    between atoms: C14_19  and  C15_20 
REMARK    7  A    between atoms: C18_27  and  N6_28 
REMARK    8  A    between atoms: N8_34  and  C20_35 
REMARK    9  A    between atoms: C20_35  and  C21_36 
ROOT
HETATM    1  C15 UNL     1     -56.689   6.851   1.413  1.00  0.00     0.091 A 
HETATM    2  N4  UNL     1     -57.001   6.152   2.512  1.00  0.00    -0.329 N 
ATOM      3  H4  UNL     1     -57.943   5.857   2.766  1.00  0.00     0.169 HD
HETATM    4  C16 UNL     1     -55.910   5.895   3.223  1.00  0.00     0.152 A 
HETATM    5  N5  UNL     1     -55.702   5.234   4.406  1.00  0.00    -0.346 N 
ATOM      6  H5  UNL     1     -56.489   4.817   4.904  1.00  0.00     0.167 HD
HETATM    7  C17 UNL     1     -54.469   5.136   4.905  1.00  0.00     0.138 A 
HETATM    8  C18 UNL     1     -53.429   5.699   4.222  1.00  0.00     0.116 A 
HETATM    9  N7  UNL     1     -53.637   6.341   3.073  1.00  0.00    -0.325 N 
ATOM     10  H7  UNL     1     -52.846   6.756   2.580  1.00  0.00     0.169 HD
HETATM   11  C19 UNL     1     -54.883   6.452   2.548  1.00  0.00     0.155 A 
HETATM   12  N8  UNL     1     -55.368   7.049   1.416  1.00  0.00    -0.315 N 
ENDROOT
BRANCH   1  13
HETATM   13  C14 UNL     1     -57.706   7.281   0.448  1.00  0.00     0.118 C 
BRANCH  13  14
HETATM   14  C13 UNL     1     -57.513   7.094  -0.960  1.00  0.00    -0.010 A 
HETATM   15  C3  UNL     1     -57.473   5.994  -1.755  1.00  0.00     0.033 A 
HETATM   16  N1  UNL     1     -57.198   6.362  -3.050  1.00  0.00    -0.302 N 
HETATM   17  N2  UNL     1     -57.071   7.660  -3.062  1.00  0.00    -0.298 N 
ATOM     18  H1  UNL     1     -57.110   5.737  -3.852  1.00  0.00     0.186 HD
HETATM   19  C12 UNL     1     -57.247   8.157  -1.847  1.00  0.00     0.120 A 
BRANCH  15  20
HETATM   20  C2  UNL     1     -57.703   4.587  -1.392  1.00  0.00     0.055 C 
HETATM   21  C1  UNL     1     -58.453   3.812  -2.440  1.00  0.00     0.011 C 
ENDBRANCH  15  20
BRANCH  17  22
HETATM   22  C4  UNL     1     -56.772   8.426  -4.278  1.00  0.00     0.186 C 
BRANCH  22  23
HETATM   23  C5  UNL     1     -55.339   8.846  -4.272  1.00  0.00    -0.038 A 
HETATM   24  C6  UNL     1     -54.994  10.085  -4.765  1.00  0.00     0.010 A 
HETATM   25  C7  UNL     1     -53.670  10.484  -4.762  1.00  0.00     0.017 A 
HETATM   26  C8  UNL     1     -52.671   9.679  -4.276  1.00  0.00     0.029 A 
HETATM   27  C10 UNL     1     -53.012   8.446  -3.785  1.00  0.00     0.017 A 
HETATM   28  C11 UNL     1     -54.332   8.037  -3.784  1.00  0.00     0.010 A 
BRANCH  26  29
HETATM   29  C9  UNL     1     -51.298  10.115  -4.283  1.00  0.00     0.264 C 
HETATM   30  N3  UNL     1     -50.441   9.892  -3.167  1.00  0.00    -0.057 NA
HETATM   31  O1  UNL     1     -50.802  10.706  -5.266  1.00  0.00    -0.271 OA
ENDBRANCH  26  29
ENDBRANCH  22  23
ENDBRANCH  17  22
ENDBRANCH  13  14
ENDBRANCH   1  13
BRANCH  12  32
HETATM   32  C20 UNL     1     -54.518   7.745   0.469  1.00  0.00     0.170 C 
BRANCH  32  33
HETATM   33  C21 UNL     1     -53.613   6.889  -0.308  1.00  0.00    -0.040 A 
HETATM   34  C22 UNL     1     -54.101   5.768  -0.932  1.00  0.00     0.009 A 
HETATM   35  C23 UNL     1     -53.321   4.922  -1.682  1.00  0.00     0.001 A 
HETATM   36  C24 UNL     1     -51.972   5.196  -1.831  1.00  0.00     0.000 A 
HETATM   37  C25 UNL     1     -51.483   6.314  -1.210  1.00  0.00     0.001 A 
HETATM   38  C26 UNL     1     -52.279   7.174  -0.446  1.00  0.00     0.009 A 
ENDBRANCH  32  33
ENDBRANCH  12  32
BRANCH   8  39
HETATM   39  N6  UNL     1     -52.202   5.644   4.647  1.00  0.00    -0.384 N 
ATOM     40  H62 UNL     1     -51.954   6.267   5.415  1.00  0.00     0.157 HD
ATOM     41  H61 UNL     1     -51.510   5.012   4.244  1.00  0.00     0.157 HD
ENDBRANCH   8  39
TORSDOF 9
ENDMDL
MODEL 4
REMARK VINA RESULT: -8.234826806      4.067      7.408
REMARK  9 active torsions:
REMARK  status: ('A' for Active; 'I' for Inactive)
REMARK    1  A    between atoms: C2_2  and  C3_3 
REMARK    2  A    between atoms: N2_6  and  C4_7 
REMARK    3  A    between atoms: C4_7  and  C5_8 
REMARK    4  A    between atoms: C8_11  and  C9_12 
REMARK    5  A    between atoms: C13_18  and  C14_19 
REMARK    6  A    between atoms: C14_19  and  C15_20 
REMARK    7  A    between atoms: C18_27  and  N6_28 
REMARK    8  A    between atoms: N8_34  and  C20_35 
REMARK    9  A    between atoms: C20_35  and  C21_36 
ROOT
HETATM    1  C15 UNL     1     -56.761   6.657   1.467  1.00  0.00     0.091 A 
HETATM    2  N4  UNL     1     -57.007   5.880   2.530  1.00  0.00    -0.329 N 
ATOM      3  H4  UNL     1     -57.916   5.482   2.761  1.00  0.00     0.169 HD
HETATM    4  C16 UNL     1     -55.899   5.702   3.239  1.00  0.00     0.152 A 
HETATM    5  N5  UNL     1     -55.631   5.011   4.393  1.00  0.00    -0.346 N 
ATOM      6  H5  UNL     1     -56.375   4.495   4.864  1.00  0.00     0.167 HD
HETATM    7  C17 UNL     1     -54.397   5.014   4.898  1.00  0.00     0.138 A 
HETATM    8  C18 UNL     1     -53.415   5.710   4.251  1.00  0.00     0.116 A 
HETATM    9  N7  UNL     1     -53.681   6.380   3.131  1.00  0.00    -0.325 N 
ATOM     10  H7  UNL     1     -52.934   6.894   2.664  1.00  0.00     0.169 HD
HETATM   11  C19 UNL     1     -54.930   6.389   2.599  1.00  0.00     0.155 A 
HETATM   12  N8  UNL     1     -55.467   6.986   1.491  1.00  0.00    -0.315 N 
ENDROOT
BRANCH   1  13
HETATM   13  C14 UNL     1     -57.812   7.027   0.512  1.00  0.00     0.118 C 
BRANCH  13  14
HETATM   14  C13 UNL     1     -57.530   7.143  -0.888  1.00  0.00    -0.010 A 
HETATM   15  C3  UNL     1     -57.550   6.256  -1.917  1.00  0.00     0.033 A 
HETATM   16  N1  UNL     1     -57.133   6.872  -3.073  1.00  0.00    -0.302 N 
HETATM   17  N2  UNL     1     -56.861   8.112  -2.772  1.00  0.00    -0.298 N 
ATOM     18  H1  UNL     1     -57.052   6.440  -3.994  1.00  0.00     0.186 HD
HETATM   19  C12 UNL     1     -57.077   8.337  -1.485  1.00  0.00     0.120 A 
BRANCH  15  20
HETATM   20  C2  UNL     1     -57.962   4.845  -1.907  1.00  0.00     0.055 C 
HETATM   21  C1  UNL     1     -58.145   4.264  -3.283  1.00  0.00     0.011 C 
ENDBRANCH  15  20
BRANCH  17  22
HETATM   22  C4  UNL     1     -56.383   9.090  -3.756  1.00  0.00     0.186 C 
BRANCH  22  23
HETATM   23  C5  UNL     1     -54.921   9.325  -3.566  1.00  0.00    -0.038 A 
HETATM   24  C6  UNL     1     -54.016   8.438  -4.106  1.00  0.00     0.010 A 
HETATM   25  C7  UNL     1     -52.660   8.647  -3.937  1.00  0.00     0.017 A 
HETATM   26  C8  UNL     1     -52.174   9.726  -3.240  1.00  0.00     0.029 A 
HETATM   27  C10 UNL     1     -53.072  10.609  -2.702  1.00  0.00     0.017 A 
HETATM   28  C11 UNL     1     -54.430  10.408  -2.865  1.00  0.00     0.010 A 
BRANCH  26  29
HETATM   29  C9  UNL     1     -50.757   9.924  -3.076  1.00  0.00     0.264 C 
HETATM   30  N3  UNL     1     -49.914  10.224  -4.185  1.00  0.00    -0.057 NA
HETATM   31  O1  UNL     1     -50.208   9.842  -1.956  1.00  0.00    -0.271 OA
ENDBRANCH  26  29
ENDBRANCH  22  23
ENDBRANCH  17  22
ENDBRANCH  13  14
ENDBRANCH   1  13
BRANCH  12  32
HETATM   32  C20 UNL     1     -54.687   7.806   0.585  1.00  0.00     0.170 C 
BRANCH  32  33
HETATM   33  C21 UNL     1     -53.705   7.080  -0.231  1.00  0.00    -0.040 A 
HETATM   34  C22 UNL     1     -54.108   6.013  -0.995  1.00  0.00     0.009 A 
HETATM   35  C23 UNL     1     -53.251   5.289  -1.788  1.00  0.00     0.001 A 
HETATM   36  C24 UNL     1     -51.912   5.636  -1.837  1.00  0.00     0.000 A 
HETATM   37  C25 UNL     1     -51.509   6.701  -1.076  1.00  0.00     0.001 A 
HETATM   38  C26 UNL     1     -52.382   7.437  -0.267  1.00  0.00     0.009 A 
ENDBRANCH  32  33
ENDBRANCH  12  32
BRANCH   8  39
HETATM   39  N6  UNL     1     -52.191   5.758   4.685  1.00  0.00    -0.384 N 
ATOM     40  H62 UNL     1     -51.947   5.120   5.442  1.00  0.00     0.157 HD
ATOM     41  H61 UNL     1     -51.497   6.396   4.296  1.00  0.00     0.157 HD
ENDBRANCH   8  39
TORSDOF 9
ENDMDL
MODEL 5
REMARK VINA RESULT: -8.211260476      4.084      7.663
REMARK  9 active torsions:
REMARK  status: ('A' for Active; 'I' for Inactive)
REMARK    1  A    between atoms: C2_2  and  C3_3 
REMARK    2  A    between atoms: N2_6  and  C4_7 
REMARK    3  A    between atoms: C4_7  and  C5_8 
REMARK    4  A    between atoms: C8_11  and  C9_12 
REMARK    5  A    between atoms: C13_18  and  C14_19 
REMARK    6  A    between atoms: C14_19  and  C15_20 
REMARK    7  A    between atoms: C18_27  and  N6_28 
REMARK    8  A    between atoms: N8_34  and  C20_35 
REMARK    9  A    between atoms: C20_35  and  C21_36 
ROOT
HETATM    1  C15 UNL     1     -56.497   6.511   1.866  1.00  0.00     0.091 A 
HETATM    2  N4  UNL     1     -56.637   5.876   3.037  1.00  0.00    -0.329 N 
ATOM      3  H4  UNL     1     -57.520   5.525   3.407  1.00  0.00     0.169 HD
HETATM    4  C16 UNL     1     -55.464   5.767   3.648  1.00  0.00     0.152 A 
HETATM    5  N5  UNL     1     -55.084   5.220   4.847  1.00  0.00    -0.346 N 
ATOM      6  H5  UNL     1     -55.778   4.780   5.451  1.00  0.00     0.167 HD
HETATM    7  C17 UNL     1     -53.804   5.263   5.221  1.00  0.00     0.138 A 
HETATM    8  C18 UNL     1     -52.890   5.856   4.397  1.00  0.00     0.116 A 
HETATM    9  N7  UNL     1     -53.265   6.386   3.234  1.00  0.00    -0.325 N 
ATOM     10  H7  UNL     1     -52.567   6.825   2.635  1.00  0.00     0.169 HD
HETATM   11  C19 UNL     1     -54.561   6.352   2.834  1.00  0.00     0.155 A 
HETATM   12  N8  UNL     1     -55.205   6.816   1.719  1.00  0.00    -0.315 N 
ENDROOT
BRANCH   1  13
HETATM   13  C14 UNL     1     -57.637   6.778   0.983  1.00  0.00     0.118 C 
BRANCH  13  14
HETATM   14  C13 UNL     1     -57.716   6.187  -0.320  1.00  0.00    -0.010 A 
HETATM   15  C3  UNL     1     -57.950   4.921  -0.754  1.00  0.00     0.033 A 
HETATM   16  N1  UNL     1     -57.861   4.873  -2.125  1.00  0.00    -0.302 N 
HETATM   17  N2  UNL     1     -57.581   6.079  -2.534  1.00  0.00    -0.298 N 
ATOM     18  H1  UNL     1     -57.991   4.048  -2.711  1.00  0.00     0.186 HD
HETATM   19  C12 UNL     1     -57.481   6.909  -1.507  1.00  0.00     0.120 A 
BRANCH  15  20
HETATM   20  C2  UNL     1     -58.283   3.725   0.034  1.00  0.00     0.055 C 
HETATM   21  C1  UNL     1     -59.344   2.866  -0.598  1.00  0.00     0.011 C 
ENDBRANCH  15  20
BRANCH  17  22
HETATM   22  C4  UNL     1     -57.407   6.425  -3.950  1.00  0.00     0.186 C 
BRANCH  22  23
HETATM   23  C5  UNL     1     -56.355   7.476  -4.088  1.00  0.00    -0.038 A 
HETATM   24  C6  UNL     1     -56.639   8.631  -4.783  1.00  0.00     0.010 A 
HETATM   25  C7  UNL     1     -55.673   9.611  -4.915  1.00  0.00     0.017 A 
HETATM   26  C8  UNL     1     -54.422   9.475  -4.368  1.00  0.00     0.029 A 
HETATM   27  C10 UNL     1     -54.138   8.327  -3.677  1.00  0.00     0.017 A 
HETATM   28  C11 UNL     1     -55.096   7.341  -3.539  1.00  0.00     0.010 A 
BRANCH  26  29
HETATM   29  C9  UNL     1     -53.431  10.509  -4.519  1.00  0.00     0.264 C 
HETATM   30  N3  UNL     1     -52.609  10.590  -5.680  1.00  0.00    -0.057 NA
HETATM   31  O1  UNL     1     -53.249  11.378  -3.638  1.00  0.00    -0.271 OA
ENDBRANCH  26  29
ENDBRANCH  22  23
ENDBRANCH  17  22
ENDBRANCH  13  14
ENDBRANCH   1  13
BRANCH  12  32
HETATM   32  C20 UNL     1     -54.517   7.504   0.644  1.00  0.00     0.170 C 
BRANCH  32  33
HETATM   33  C21 UNL     1     -53.722   6.645  -0.243  1.00  0.00    -0.040 A 
HETATM   34  C22 UNL     1     -54.238   5.448  -0.676  1.00  0.00     0.009 A 
HETATM   35  C23 UNL     1     -53.560   4.594  -1.511  1.00  0.00     0.001 A 
HETATM   36  C24 UNL     1     -52.294   4.937  -1.952  1.00  0.00     0.000 A 
HETATM   37  C25 UNL     1     -51.777   6.130  -1.521  1.00  0.00     0.001 A 
HETATM   38  C26 UNL     1     -52.469   6.999  -0.670  1.00  0.00     0.009 A 
ENDBRANCH  32  33
ENDBRANCH  12  32
BRANCH   8  39
HETATM   39  N6  UNL     1     -51.628   5.935   4.697  1.00  0.00    -0.384 N 
ATOM     40  H62 UNL     1     -50.965   5.770   3.939  1.00  0.00     0.157 HD
ATOM     41  H61 UNL     1     -51.300   6.152   5.638  1.00  0.00     0.157 HD
ENDBRANCH   8  39
TORSDOF 9
ENDMDL
