MODEL 1
REMARK VINA RESULT: -7.288189389      0.000      0.000
REMARK  5 active torsions:
REMARK  status: ('A' for Active; 'I' for Inactive)
REMARK    1  A    between atoms: C3_3  and  C4_4 
REMARK    2  A    between atoms: C6_6  and  O1_7 
REMARK    3  A    between atoms: C8_10  and  N1_11 
REMARK    4  A    between atoms: C14_20  and  C15_21 
REMARK    5  A    between atoms: C15_21  and  C17_23 
ROOT
HETATM    1  C1  UNL     1      24.946 -15.351 -21.766  1.00  0.00     0.012 C 
HETATM    2  C2  UNL     1      24.571 -16.264 -21.074  1.00  0.00    -0.114 C 
HETATM    3  C3  UNL     1      24.143 -17.374 -20.234  1.00  0.00     0.120 C 
ENDROOT
BRANCH   3   4
HETATM    4  C4  UNL     1      23.886 -18.627 -21.016  1.00  0.00    -0.005 C 
HETATM    5  C5  UNL     1      22.905 -19.417 -20.738  1.00  0.00    -0.029 C 
HETATM    6  C6  UNL     1      22.014 -19.073 -19.601  1.00  0.00     0.153 C 
HETATM    7  C23 UNL     1      22.632 -20.662 -21.491  1.00  0.00    -0.060 C 
HETATM    8  C7  UNL     1      21.822 -20.320 -18.722  1.00  0.00     0.070 C 
HETATM    9  C8  UNL     1      21.088 -21.306 -19.534  1.00  0.00     0.194 C 
HETATM   10  C9  UNL     1      21.502 -21.473 -20.924  1.00  0.00     0.046 C 
HETATM   11  C10 UNL     1      20.229 -21.411 -21.754  1.00  0.00     0.012 C 
HETATM   12  C11 UNL     1      20.516 -21.889 -23.147  1.00  0.00     0.011 C 
HETATM   13  C12 UNL     1      21.395 -20.811 -23.758  1.00  0.00    -0.033 C 
HETATM   14  C13 UNL     1      20.706 -19.517 -23.646  1.00  0.00     0.016 C 
HETATM   15  C14 UNL     1      21.999 -21.224 -25.033  1.00  0.00    -0.002 C 
HETATM   16  C22 UNL     1      22.712 -20.739 -22.924  1.00  0.00     0.024 C 
HETATM   17  C20 UNL     1      23.078 -20.145 -25.185  1.00  0.00     0.006 C 
HETATM   18  C21 UNL     1      23.471 -19.805 -23.764  1.00  0.00     0.010 C 
BRANCH   6  19
HETATM   19  O1  UNL     1      20.803 -18.532 -19.934  1.00  0.00    -0.391 OA
ATOM     20  H1  UNL     1      20.328 -18.113 -19.227  1.00  0.00     0.210 HD
ENDBRANCH   6  19
BRANCH   9  21
HETATM   21  N1  UNL     1      21.037 -22.627 -18.882  1.00  0.00    -0.074 N 
ATOM     22  H13 UNL     1      21.902 -22.825 -18.379  1.00  0.00     0.274 HD
ATOM     23  H12 UNL     1      20.390 -22.626 -18.093  1.00  0.00     0.274 HD
ATOM     24  H11 UNL     1      20.815 -23.370 -19.545  1.00  0.00     0.274 HD
ENDBRANCH   9  21
BRANCH  15  25
HETATM   25  C15 UNL     1      21.371 -21.622 -26.248  1.00  0.00    -0.010 C 
HETATM   26  C16 UNL     1      20.064 -22.399 -25.765  1.00  0.00     0.011 C 
BRANCH  25  27
HETATM   27  C17 UNL     1      21.919 -22.441 -27.325  1.00  0.00    -0.019 C 
HETATM   28  C18 UNL     1      23.149 -23.258 -26.852  1.00  0.00     0.010 C 
HETATM   29  C19 UNL     1      21.022 -23.459 -27.948  1.00  0.00     0.010 C 
ENDBRANCH  25  27
ENDBRANCH  15  25
ENDBRANCH   3   4
TORSDOF 5
ENDMDL
MODEL 2
REMARK VINA RESULT: -6.928579509      2.257      4.143
REMARK  5 active torsions:
REMARK  status: ('A' for Active; 'I' for Inactive)
REMARK    1  A    between atoms: C3_3  and  C4_4 
REMARK    2  A    between atoms: C6_6  and  O1_7 
REMARK    3  A    between atoms: C8_10  and  N1_11 
REMARK    4  A    between atoms: C14_20  and  C15_21 
REMARK    5  A    between atoms: C15_21  and  C17_23 
ROOT
HETATM    1  C1  UNL     1      20.895 -22.573 -18.114  1.00  0.00     0.012 C 
HETATM    2  C2  UNL     1      21.363 -21.473 -18.266  1.00  0.00    -0.114 C 
HETATM    3  C3  UNL     1      21.906 -20.133 -18.442  1.00  0.00     0.120 C 
ENDROOT
BRANCH   3   4
HETATM    4  C4  UNL     1      21.653 -19.580 -19.811  1.00  0.00    -0.005 C 
HETATM    5  C5  UNL     1      22.568 -18.963 -20.479  1.00  0.00    -0.029 C 
HETATM    6  C6  UNL     1      23.906 -18.790 -19.860  1.00  0.00     0.153 C 
HETATM    7  C23 UNL     1      22.343 -18.402 -21.831  1.00  0.00    -0.060 C 
HETATM    8  C7  UNL     1      24.348 -17.326 -20.025  1.00  0.00     0.070 C 
HETATM    9  C8  UNL     1      24.532 -17.096 -21.469  1.00  0.00     0.194 C 
HETATM   10  C9  UNL     1      23.519 -17.637 -22.369  1.00  0.00     0.046 C 
HETATM   11  C10 UNL     1      24.277 -18.375 -23.462  1.00  0.00     0.012 C 
HETATM   12  C11 UNL     1      23.344 -18.688 -24.595  1.00  0.00     0.011 C 
HETATM   13  C12 UNL     1      22.398 -19.741 -24.044  1.00  0.00    -0.033 C 
HETATM   14  C13 UNL     1      23.190 -20.866 -23.527  1.00  0.00     0.016 C 
HETATM   15  C14 UNL     1      21.244 -19.984 -24.921  1.00  0.00    -0.002 C 
HETATM   16  C22 UNL     1      21.616 -19.104 -22.853  1.00  0.00     0.024 C 
HETATM   17  C20 UNL     1      20.328 -20.752 -23.960  1.00  0.00     0.006 C 
HETATM   18  C21 UNL     1      20.658 -20.185 -22.596  1.00  0.00     0.010 C 
BRANCH   6  19
HETATM   19  O1  UNL     1      24.883 -19.637 -20.305  1.00  0.00    -0.391 OA
ATOM     20  H1  UNL     1      25.688 -19.643 -19.801  1.00  0.00     0.210 HD
ENDBRANCH   6  19
BRANCH   9  21
HETATM   21  N1  UNL     1      24.738 -15.669 -21.775  1.00  0.00    -0.074 N 
ATOM     22  H13 UNL     1      24.264 -15.403 -22.639  1.00  0.00     0.274 HD
ATOM     23  H12 UNL     1      24.228 -15.072 -21.123  1.00  0.00     0.274 HD
ATOM     24  H11 UNL     1      25.728 -15.426 -21.805  1.00  0.00     0.274 HD
ENDBRANCH   9  21
BRANCH  15  25
HETATM   25  C15 UNL     1      21.211 -20.435 -26.272  1.00  0.00    -0.010 C 
HETATM   26  C16 UNL     1      20.069 -19.545 -26.943  1.00  0.00     0.011 C 
BRANCH  25  27
HETATM   27  C17 UNL     1      20.975 -21.787 -26.771  1.00  0.00    -0.019 C 
HETATM   28  C18 UNL     1      20.880 -21.816 -28.318  1.00  0.00     0.010 C 
HETATM   29  C19 UNL     1      21.990 -22.833 -26.448  1.00  0.00     0.010 C 
ENDBRANCH  25  27
ENDBRANCH  15  25
ENDBRANCH   3   4
TORSDOF 5
ENDMDL
MODEL 3
REMARK VINA RESULT: -6.597660017      2.158      3.981
REMARK  5 active torsions:
REMARK  status: ('A' for Active; 'I' for Inactive)
REMARK    1  A    between atoms: C3_3  and  C4_4 
REMARK    2  A    between atoms: C6_6  and  O1_7 
REMARK    3  A    between atoms: C8_10  and  N1_11 
REMARK    4  A    between atoms: C14_20  and  C15_21 
REMARK    5  A    between atoms: C15_21  and  C17_23 
ROOT
HETATM    1  C1  UNL     1      20.922 -22.592 -18.011  1.00  0.00     0.012 C 
HETATM    2  C2  UNL     1      21.269 -21.464 -18.254  1.00  0.00    -0.114 C 
HETATM    3  C3  UNL     1      21.663 -20.092 -18.545  1.00  0.00     0.120 C 
ENDROOT
BRANCH   3   4
HETATM    4  C4  UNL     1      21.495 -19.734 -19.990  1.00  0.00    -0.005 C 
HETATM    5  C5  UNL     1      22.430 -19.155 -20.664  1.00  0.00    -0.029 C 
HETATM    6  C6  UNL     1      23.705 -18.827 -19.976  1.00  0.00     0.153 C 
HETATM    7  C23 UNL     1      22.288 -18.785 -22.090  1.00  0.00    -0.060 C 
HETATM    8  C7  UNL     1      24.087 -17.373 -20.299  1.00  0.00     0.070 C 
HETATM    9  C8  UNL     1      24.375 -17.318 -21.743  1.00  0.00     0.194 C 
HETATM   10  C9  UNL     1      23.465 -18.028 -22.636  1.00  0.00     0.046 C 
HETATM   11  C10 UNL     1      24.344 -18.854 -23.564  1.00  0.00     0.012 C 
HETATM   12  C11 UNL     1      23.521 -19.362 -24.712  1.00  0.00     0.011 C 
HETATM   13  C12 UNL     1      22.586 -20.390 -24.098  1.00  0.00    -0.033 C 
HETATM   14  C13 UNL     1      23.387 -21.391 -23.380  1.00  0.00     0.016 C 
HETATM   15  C14 UNL     1      21.520 -20.809 -25.018  1.00  0.00    -0.002 C 
HETATM   16  C22 UNL     1      21.680 -19.653 -23.062  1.00  0.00     0.024 C 
HETATM   17  C20 UNL     1      20.567 -21.500 -24.035  1.00  0.00     0.006 C 
HETATM   18  C21 UNL     1      20.758 -20.746 -22.736  1.00  0.00     0.010 C 
BRANCH   6  19
HETATM   19  O1  UNL     1      24.754 -19.666 -20.232  1.00  0.00    -0.391 OA
ATOM     20  H1  UNL     1      24.773 -20.471 -19.730  1.00  0.00     0.210 HD
ENDBRANCH   6  19
BRANCH   9  21
HETATM   21  N1  UNL     1      24.536 -15.932 -22.219  1.00  0.00    -0.074 N 
ATOM     22  H13 UNL     1      24.177 -15.262 -21.538  1.00  0.00     0.274 HD
ATOM     23  H12 UNL     1      25.517 -15.651 -22.218  1.00  0.00     0.274 HD
ATOM     24  H11 UNL     1      24.111 -15.794 -23.136  1.00  0.00     0.274 HD
ENDBRANCH   9  21
BRANCH  15  25
HETATM   25  C15 UNL     1      21.617 -21.430 -26.297  1.00  0.00    -0.010 C 
HETATM   26  C16 UNL     1      20.293 -22.315 -26.393  1.00  0.00     0.011 C 
BRANCH  25  27
HETATM   27  C17 UNL     1      22.681 -22.289 -26.809  1.00  0.00    -0.019 C 
HETATM   28  C18 UNL     1      22.736 -23.642 -26.053  1.00  0.00     0.010 C 
HETATM   29  C19 UNL     1      22.627 -22.678 -28.249  1.00  0.00     0.010 C 
ENDBRANCH  25  27
ENDBRANCH  15  25
ENDBRANCH   3   4
TORSDOF 5
ENDMDL
MODEL 4
REMARK VINA RESULT: -6.378273673      2.670      4.366
REMARK  5 active torsions:
REMARK  status: ('A' for Active; 'I' for Inactive)
REMARK    1  A    between atoms: C3_3  and  C4_4 
REMARK    2  A    between atoms: C6_6  and  O1_7 
REMARK    3  A    between atoms: C8_10  and  N1_11 
REMARK    4  A    between atoms: C14_20  and  C15_21 
REMARK    5  A    between atoms: C15_21  and  C17_23 
ROOT
HETATM    1  C1  UNL     1      20.492 -22.476 -17.864  1.00  0.00     0.012 C 
HETATM    2  C2  UNL     1      21.006 -21.845 -18.753  1.00  0.00    -0.114 C 
HETATM    3  C3  UNL     1      21.607 -21.067 -19.828  1.00  0.00     0.120 C 
ENDROOT
BRANCH   3   4
HETATM    4  C4  UNL     1      21.223 -21.564 -21.188  1.00  0.00    -0.005 C 
HETATM    5  C5  UNL     1      21.078 -20.767 -22.192  1.00  0.00    -0.029 C 
HETATM    6  C6  UNL     1      21.290 -19.312 -21.982  1.00  0.00     0.153 C 
HETATM    7  C23 UNL     1      20.694 -21.231 -23.544  1.00  0.00    -0.060 C 
HETATM    8  C7  UNL     1      20.118 -18.541 -22.613  1.00  0.00     0.070 C 
HETATM    9  C8  UNL     1      20.197 -18.760 -24.067  1.00  0.00     0.194 C 
HETATM   10  C9  UNL     1      20.485 -20.115 -24.527  1.00  0.00     0.046 C 
HETATM   11  C10 UNL     1      21.603 -19.985 -25.550  1.00  0.00     0.012 C 
HETATM   12  C11 UNL     1      21.743 -21.274 -26.305  1.00  0.00     0.011 C 
HETATM   13  C12 UNL     1      22.298 -22.262 -25.293  1.00  0.00    -0.033 C 
HETATM   14  C13 UNL     1      23.533 -21.709 -24.718  1.00  0.00     0.016 C 
HETATM   15  C14 UNL     1      22.257 -23.651 -25.773  1.00  0.00    -0.002 C 
HETATM   16  C22 UNL     1      21.249 -22.413 -24.148  1.00  0.00     0.024 C 
HETATM   17  C20 UNL     1      22.494 -24.401 -24.456  1.00  0.00     0.006 C 
HETATM   18  C21 UNL     1      21.872 -23.511 -23.401  1.00  0.00     0.010 C 
BRANCH   6  19
HETATM   19  O1  UNL     1      22.484 -18.813 -22.423  1.00  0.00    -0.391 OA
ATOM     20  H1  UNL     1      22.499 -17.883 -22.616  1.00  0.00     0.210 HD
ENDBRANCH   6  19
BRANCH   9  21
HETATM   21  N1  UNL     1      19.000 -18.257 -24.764  1.00  0.00    -0.074 N 
ATOM     22  H13 UNL     1      19.183 -17.363 -25.220  1.00  0.00     0.274 HD
ATOM     23  H12 UNL     1      18.788 -18.817 -25.590  1.00  0.00     0.274 HD
ATOM     24  H11 UNL     1      18.194 -18.197 -24.140  1.00  0.00     0.274 HD
ENDBRANCH   9  21
BRANCH  15  25
HETATM   25  C15 UNL     1      22.874 -24.235 -26.916  1.00  0.00    -0.010 C 
HETATM   26  C16 UNL     1      24.251 -24.812 -26.354  1.00  0.00     0.011 C 
BRANCH  25  27
HETATM   27  C17 UNL     1      23.224 -23.596 -28.182  1.00  0.00    -0.019 C 
HETATM   28  C18 UNL     1      22.054 -22.737 -28.730  1.00  0.00     0.010 C 
HETATM   29  C19 UNL     1      24.394 -22.669 -28.193  1.00  0.00     0.010 C 
ENDBRANCH  25  27
ENDBRANCH  15  25
ENDBRANCH   3   4
TORSDOF 5
ENDMDL
MODEL 5
REMARK VINA RESULT: -6.149148542      0.799      1.209
REMARK  5 active torsions:
REMARK  status: ('A' for Active; 'I' for Inactive)
REMARK    1  A    between atoms: C3_3  and  C4_4 
REMARK    2  A    between atoms: C6_6  and  O1_7 
REMARK    3  A    between atoms: C8_10  and  N1_11 
REMARK    4  A    between atoms: C14_20  and  C15_21 
REMARK    5  A    between atoms: C15_21  and  C17_23 
ROOT
HETATM    1  C1  UNL     1      24.694 -15.761 -21.817  1.00  0.00     0.012 C 
HETATM    2  C2  UNL     1      24.495 -16.668 -21.049  1.00  0.00    -0.114 C 
HETATM    3  C3  UNL     1      24.280 -17.771 -20.123  1.00  0.00     0.120 C 
ENDROOT
BRANCH   3   4
HETATM    4  C4  UNL     1      23.908 -19.046 -20.816  1.00  0.00    -0.005 C 
HETATM    5  C5  UNL     1      22.902 -19.761 -20.440  1.00  0.00    -0.029 C 
HETATM    6  C6  UNL     1      22.100 -19.304 -19.277  1.00  0.00     0.153 C 
HETATM    7  C23 UNL     1      22.517 -21.027 -21.104  1.00  0.00    -0.060 C 
HETATM    8  C7  UNL     1      21.890 -20.489 -18.318  1.00  0.00     0.070 C 
HETATM    9  C8  UNL     1      21.055 -21.471 -19.032  1.00  0.00     0.194 C 
HETATM   10  C9  UNL     1      21.378 -21.738 -20.430  1.00  0.00     0.046 C 
HETATM   11  C10 UNL     1      20.064 -21.645 -21.191  1.00  0.00     0.012 C 
HETATM   12  C11 UNL     1      20.242 -22.213 -22.568  1.00  0.00     0.011 C 
HETATM   13  C12 UNL     1      21.143 -21.224 -23.288  1.00  0.00    -0.033 C 
HETATM   14  C13 UNL     1      20.535 -19.888 -23.211  1.00  0.00     0.016 C 
HETATM   15  C14 UNL     1      21.647 -21.740 -24.568  1.00  0.00    -0.002 C 
HETATM   16  C22 UNL     1      22.509 -21.185 -22.533  1.00  0.00     0.024 C 
HETATM   17  C20 UNL     1      22.775 -20.737 -24.841  1.00  0.00     0.006 C 
HETATM   18  C21 UNL     1      23.268 -20.345 -23.465  1.00  0.00     0.010 C 
BRANCH   6  19
HETATM   19  O1  UNL     1      20.904 -18.711 -19.573  1.00  0.00    -0.391 OA
ATOM     20  H1  UNL     1      20.954 -17.828 -19.918  1.00  0.00     0.210 HD
ENDBRANCH   6  19
BRANCH   9  21
HETATM   21  N1  UNL     1      20.970 -22.750 -18.303  1.00  0.00    -0.074 N 
ATOM     22  H13 UNL     1      20.016 -22.937 -17.993  1.00  0.00     0.274 HD
ATOM     23  H12 UNL     1      21.092 -23.544 -18.932  1.00  0.00     0.274 HD
ATOM     24  H11 UNL     1      21.627 -22.788 -17.524  1.00  0.00     0.274 HD
ENDBRANCH   9  21
BRANCH  15  25
HETATM   25  C15 UNL     1      20.928 -22.165 -25.721  1.00  0.00    -0.010 C 
HETATM   26  C16 UNL     1      21.834 -23.328 -26.329  1.00  0.00     0.011 C 
BRANCH  25  27
HETATM   27  C17 UNL     1      20.514 -21.370 -26.874  1.00  0.00    -0.019 C 
HETATM   28  C18 UNL     1      20.645 -19.849 -26.596  1.00  0.00     0.010 C 
HETATM   29  C19 UNL     1      21.250 -21.571 -28.157  1.00  0.00     0.010 C 
ENDBRANCH  25  27
ENDBRANCH  15  25
ENDBRANCH   3   4
TORSDOF 5
ENDMDL
