MODEL 1
REMARK VINA RESULT: -9.262745887      0.000      0.000
REMARK  4 active torsions:
REMARK  status: ('A' for Active; 'I' for Inactive)
REMARK    1  A    between atoms: C2_2  and  C3_3 
REMARK    2  A    between atoms: C2_2  and  C20_24 
REMARK    3  A    between atoms: C12_12  and  N1_13 
REMARK    4  A    between atoms: C20_24  and  O1_27 
ROOT
HETATM    1  C3  UNL     1      21.405 -19.421 -21.935  1.00  0.00     0.001 C 
HETATM    2  C4  UNL     1      21.166 -18.672 -23.203  1.00  0.00     0.006 C 
HETATM    3  C5  UNL     1      20.192 -19.602 -23.896  1.00  0.00     0.006 C 
HETATM    4  C6  UNL     1      20.630 -20.965 -23.493  1.00  0.00    -0.002 C 
HETATM    5  C7  UNL     1      21.121 -21.814 -24.610  1.00  0.00    -0.005 C 
HETATM    6  C8  UNL     1      21.905 -21.150 -25.675  1.00  0.00     0.006 C 
HETATM    7  C9  UNL     1      23.008 -21.995 -26.269  1.00  0.00     0.012 C 
HETATM    8  C10 UNL     1      22.698 -23.442 -26.361  1.00  0.00    -0.012 A 
HETATM    9  C11 UNL     1      22.017 -23.811 -27.674  1.00  0.00     0.018 C 
HETATM   10  C12 UNL     1      23.945 -24.301 -26.104  1.00  0.00     0.192 A 
HETATM   11  C13 UNL     1      23.251 -24.966 -24.935  1.00  0.00     0.039 A 
HETATM   12  C14 UNL     1      22.099 -24.039 -25.137  1.00  0.00     0.002 A 
HETATM   13  C15 UNL     1      21.798 -23.065 -24.046  1.00  0.00    -0.005 C 
HETATM   14  C16 UNL     1      22.907 -22.750 -23.125  1.00  0.00     0.006 C 
HETATM   15  C17 UNL     1      22.958 -21.332 -22.600  1.00  0.00     0.010 C 
HETATM   16  C18 UNL     1      21.600 -20.829 -22.318  1.00  0.00    -0.036 C 
HETATM   17  C19 UNL     1      21.077 -21.678 -21.136  1.00  0.00     0.016 C 
ENDROOT
BRANCH   1  18
HETATM   18  C2  UNL     1      22.076 -18.770 -20.835  1.00  0.00     0.020 C 
HETATM   19  C1  UNL     1      21.216 -17.536 -20.395  1.00  0.00     0.013 C 
BRANCH  18  20
HETATM   20  C20 UNL     1      23.438 -18.174 -20.977  1.00  0.00     0.054 C 
HETATM   21  C21 UNL     1      23.254 -16.755 -20.357  1.00  0.00     0.045 C 
HETATM   22  C22 UNL     1      23.947 -17.948 -22.349  1.00  0.00     0.045 C 
BRANCH  20  23
HETATM   23  O1  UNL     1      24.441 -18.709 -20.212  1.00  0.00    -0.390 OA
ATOM     24  H1  UNL     1      25.086 -18.108 -19.857  1.00  0.00     0.210 HD
ENDBRANCH  20  23
ENDBRANCH  18  20
ENDBRANCH   1  18
BRANCH  10  25
HETATM   25  N1  UNL     1      24.253 -25.147 -27.217  1.00  0.00    -0.074 N 
ATOM     26  H13 UNL     1      23.687 -24.909 -28.030  1.00  0.00     0.274 HD
ATOM     27  H12 UNL     1      25.176 -24.937 -27.596  1.00  0.00     0.274 HD
ATOM     28  H11 UNL     1      24.166 -26.135 -26.982  1.00  0.00     0.274 HD
ENDBRANCH  10  25
TORSDOF 4
ENDMDL
MODEL 2
REMARK VINA RESULT: -7.854176433      1.103      1.463
REMARK  4 active torsions:
REMARK  status: ('A' for Active; 'I' for Inactive)
REMARK    1  A    between atoms: C2_2  and  C3_3 
REMARK    2  A    between atoms: C2_2  and  C20_24 
REMARK    3  A    between atoms: C12_12  and  N1_13 
REMARK    4  A    between atoms: C20_24  and  O1_27 
ROOT
HETATM    1  C3  UNL     1      21.456 -19.102 -22.961  1.00  0.00     0.001 C 
HETATM    2  C4  UNL     1      21.134 -18.627 -24.338  1.00  0.00     0.006 C 
HETATM    3  C5  UNL     1      20.169 -19.704 -24.785  1.00  0.00     0.006 C 
HETATM    4  C6  UNL     1      20.676 -20.946 -24.144  1.00  0.00    -0.002 C 
HETATM    5  C7  UNL     1      21.153 -21.985 -25.094  1.00  0.00    -0.005 C 
HETATM    6  C8  UNL     1      21.863 -21.522 -26.307  1.00  0.00     0.006 C 
HETATM    7  C9  UNL     1      22.972 -22.434 -26.778  1.00  0.00     0.012 C 
HETATM    8  C10 UNL     1      22.716 -23.880 -26.568  1.00  0.00    -0.012 A 
HETATM    9  C11 UNL     1      21.993 -24.522 -27.747  1.00  0.00     0.018 C 
HETATM   10  C12 UNL     1      24.005 -24.633 -26.209  1.00  0.00     0.192 A 
HETATM   11  C13 UNL     1      23.389 -25.073 -24.899  1.00  0.00     0.039 A 
HETATM   12  C14 UNL     1      22.193 -24.240 -25.222  1.00  0.00     0.002 A 
HETATM   13  C15 UNL     1      21.902 -23.078 -24.330  1.00  0.00    -0.005 C 
HETATM   14  C16 UNL     1      23.036 -22.554 -23.546  1.00  0.00     0.006 C 
HETATM   15  C17 UNL     1      23.054 -21.059 -23.313  1.00  0.00     0.010 C 
HETATM   16  C18 UNL     1      21.690 -20.551 -23.069  1.00  0.00    -0.036 C 
HETATM   17  C19 UNL     1      21.252 -21.164 -21.717  1.00  0.00     0.016 C 
ENDROOT
BRANCH   1  18
HETATM   18  C2  UNL     1      22.148 -18.226 -22.044  1.00  0.00     0.020 C 
HETATM   19  C1  UNL     1      23.648 -18.675 -21.973  1.00  0.00     0.013 C 
BRANCH  18  20
HETATM   20  C20 UNL     1      21.775 -18.132 -20.601  1.00  0.00     0.054 C 
HETATM   21  C21 UNL     1      22.520 -16.841 -20.141  1.00  0.00     0.045 C 
HETATM   22  C22 UNL     1      22.246 -19.209 -19.700  1.00  0.00     0.045 C 
BRANCH  20  23
HETATM   23  O1  UNL     1      20.468 -17.845 -20.308  1.00  0.00    -0.390 OA
ATOM     24  H1  UNL     1      20.082 -17.089 -20.734  1.00  0.00     0.210 HD
ENDBRANCH  20  23
ENDBRANCH  18  20
ENDBRANCH   1  18
BRANCH  10  25
HETATM   25  N1  UNL     1      24.298 -25.673 -27.148  1.00  0.00    -0.074 N 
ATOM     26  H13 UNL     1      23.863 -26.553 -26.872  1.00  0.00     0.274 HD
ATOM     27  H12 UNL     1      23.812 -25.522 -28.031  1.00  0.00     0.274 HD
ATOM     28  H11 UNL     1      25.301 -25.786 -27.293  1.00  0.00     0.274 HD
ENDBRANCH  10  25
TORSDOF 4
ENDMDL
MODEL 3
REMARK VINA RESULT: -6.998525594      1.931      3.251
REMARK  4 active torsions:
REMARK  status: ('A' for Active; 'I' for Inactive)
REMARK    1  A    between atoms: C2_2  and  C3_3 
REMARK    2  A    between atoms: C2_2  and  C20_24 
REMARK    3  A    between atoms: C12_12  and  N1_13 
REMARK    4  A    between atoms: C20_24  and  O1_27 
ROOT
HETATM    1  C3  UNL     1      21.761 -20.088 -21.921  1.00  0.00     0.001 C 
HETATM    2  C4  UNL     1      23.229 -20.350 -21.993  1.00  0.00     0.006 C 
HETATM    3  C5  UNL     1      23.557 -19.724 -23.332  1.00  0.00     0.006 C 
HETATM    4  C6  UNL     1      22.354 -19.983 -24.168  1.00  0.00    -0.002 C 
HETATM    5  C7  UNL     1      22.588 -20.872 -25.336  1.00  0.00    -0.005 C 
HETATM    6  C8  UNL     1      23.528 -22.000 -25.153  1.00  0.00     0.006 C 
HETATM    7  C9  UNL     1      23.170 -23.253 -25.918  1.00  0.00     0.012 C 
HETATM    8  C10 UNL     1      22.539 -23.013 -27.238  1.00  0.00    -0.012 A 
HETATM    9  C11 UNL     1      23.562 -22.891 -28.361  1.00  0.00     0.018 C 
HETATM   10  C12 UNL     1      21.471 -24.070 -27.550  1.00  0.00     0.192 A 
HETATM   11  C13 UNL     1      20.421 -22.986 -27.661  1.00  0.00     0.039 A 
HETATM   12  C14 UNL     1      21.455 -21.993 -27.244  1.00  0.00     0.002 A 
HETATM   13  C15 UNL     1      21.248 -21.289 -25.943  1.00  0.00    -0.005 C 
HETATM   14  C16 UNL     1      20.362 -21.956 -24.971  1.00  0.00     0.006 C 
HETATM   15  C17 UNL     1      20.725 -21.791 -23.511  1.00  0.00     0.010 C 
HETATM   16  C18 UNL     1      21.216 -20.426 -23.246  1.00  0.00    -0.036 C 
HETATM   17  C19 UNL     1      20.001 -19.494 -23.466  1.00  0.00     0.016 C 
ENDROOT
BRANCH   1  18
HETATM   18  C2  UNL     1      21.061 -20.280 -20.672  1.00  0.00     0.020 C 
HETATM   19  C1  UNL     1      21.892 -19.596 -19.533  1.00  0.00     0.013 C 
BRANCH  18  20
HETATM   20  C20 UNL     1      20.804 -21.639 -20.108  1.00  0.00     0.054 C 
HETATM   21  C21 UNL     1      19.285 -21.845 -20.398  1.00  0.00     0.045 C 
HETATM   22  C22 UNL     1      20.959 -21.813 -18.645  1.00  0.00     0.045 C 
BRANCH  20  23
HETATM   23  O1  UNL     1      21.380 -22.704 -20.747  1.00  0.00    -0.390 OA
ATOM     24  H1  UNL     1      22.318 -22.816 -20.647  1.00  0.00     0.210 HD
ENDBRANCH  20  23
ENDBRANCH  18  20
ENDBRANCH   1  18
BRANCH  10  25
HETATM   25  N1  UNL     1      21.763 -24.789 -28.753  1.00  0.00    -0.074 N 
ATOM     26  H13 UNL     1      21.527 -25.777 -28.660  1.00  0.00     0.274 HD
ATOM     27  H12 UNL     1      21.115 -24.539 -29.500  1.00  0.00     0.274 HD
ATOM     28  H11 UNL     1      22.731 -24.666 -29.048  1.00  0.00     0.274 HD
ENDBRANCH  10  25
TORSDOF 4
ENDMDL
MODEL 4
REMARK VINA RESULT: -6.739383666      3.072      6.625
REMARK  4 active torsions:
REMARK  status: ('A' for Active; 'I' for Inactive)
REMARK    1  A    between atoms: C2_2  and  C3_3 
REMARK    2  A    between atoms: C2_2  and  C20_24 
REMARK    3  A    between atoms: C12_12  and  N1_13 
REMARK    4  A    between atoms: C20_24  and  O1_27 
ROOT
HETATM    1  C3  UNL     1      21.119 -21.797 -25.963  1.00  0.00     0.001 C 
HETATM    2  C4  UNL     1      20.923 -22.843 -24.918  1.00  0.00     0.006 C 
HETATM    3  C5  UNL     1      20.070 -22.084 -23.923  1.00  0.00     0.006 C 
HETATM    4  C6  UNL     1      20.570 -20.686 -23.995  1.00  0.00    -0.002 C 
HETATM    5  C7  UNL     1      21.201 -20.186 -22.745  1.00  0.00    -0.005 C 
HETATM    6  C8  UNL     1      22.013 -21.145 -21.963  1.00  0.00     0.006 C 
HETATM    7  C9  UNL     1      23.212 -20.542 -21.271  1.00  0.00     0.012 C 
HETATM    8  C10 UNL     1      23.012 -19.158 -20.779  1.00  0.00    -0.012 A 
HETATM    9  C11 UNL     1      22.456 -19.117 -19.360  1.00  0.00     0.018 C 
HETATM   10  C12 UNL     1      24.292 -18.322 -20.915  1.00  0.00     0.192 A 
HETATM   11  C13 UNL     1      23.563 -17.339 -21.804  1.00  0.00     0.039 A 
HETATM   12  C14 UNL     1      22.366 -18.230 -21.748  1.00  0.00     0.002 A 
HETATM   13  C15 UNL     1      21.920 -18.865 -23.023  1.00  0.00    -0.005 C 
HETATM   14  C16 UNL     1      22.933 -18.977 -24.089  1.00  0.00     0.006 C 
HETATM   15  C17 UNL     1      22.847 -20.207 -24.967  1.00  0.00     0.010 C 
HETATM   16  C18 UNL     1      21.440 -20.552 -25.247  1.00  0.00    -0.036 C 
HETATM   17  C19 UNL     1      20.891 -19.396 -26.116  1.00  0.00     0.016 C 
ENDROOT
BRANCH   1  18
HETATM   18  C2  UNL     1      21.661 -22.165 -27.251  1.00  0.00     0.020 C 
HETATM   19  C1  UNL     1      20.575 -22.990 -28.023  1.00  0.00     0.013 C 
BRANCH  18  20
HETATM   20  C20 UNL     1      22.872 -23.029 -27.385  1.00  0.00     0.054 C 
HETATM   21  C21 UNL     1      22.304 -24.302 -28.084  1.00  0.00     0.045 C 
HETATM   22  C22 UNL     1      23.512 -23.509 -26.139  1.00  0.00     0.045 C 
BRANCH  20  23
HETATM   23  O1  UNL     1      23.845 -22.616 -28.256  1.00  0.00    -0.390 OA
ATOM     24  H1  UNL     1      24.712 -22.990 -28.150  1.00  0.00     0.210 HD
ENDBRANCH  20  23
ENDBRANCH  18  20
ENDBRANCH   1  18
BRANCH  10  25
HETATM   25  N1  UNL     1      24.740 -17.816 -19.653  1.00  0.00    -0.074 N 
ATOM     26  H13 UNL     1      24.488 -16.835 -19.537  1.00  0.00     0.274 HD
ATOM     27  H12 UNL     1      24.201 -18.213 -18.883  1.00  0.00     0.274 HD
ATOM     28  H11 UNL     1      25.740 -17.959 -19.516  1.00  0.00     0.274 HD
ENDBRANCH  10  25
TORSDOF 4
ENDMDL
MODEL 5
REMARK VINA RESULT: -6.427983209      3.291      6.823
REMARK  4 active torsions:
REMARK  status: ('A' for Active; 'I' for Inactive)
REMARK    1  A    between atoms: C2_2  and  C3_3 
REMARK    2  A    between atoms: C2_2  and  C20_24 
REMARK    3  A    between atoms: C12_12  and  N1_13 
REMARK    4  A    between atoms: C20_24  and  O1_27 
ROOT
HETATM    1  C3  UNL     1      22.033 -22.732 -25.894  1.00  0.00     0.001 C 
HETATM    2  C4  UNL     1      23.170 -23.271 -25.092  1.00  0.00     0.006 C 
HETATM    3  C5  UNL     1      22.455 -23.637 -23.808  1.00  0.00     0.006 C 
HETATM    4  C6  UNL     1      21.404 -22.595 -23.659  1.00  0.00    -0.002 C 
HETATM    5  C7  UNL     1      21.568 -21.714 -22.473  1.00  0.00    -0.005 C 
HETATM    6  C8  UNL     1      22.946 -21.329 -22.096  1.00  0.00     0.006 C 
HETATM    7  C9  UNL     1      23.081 -19.936 -21.529  1.00  0.00     0.012 C 
HETATM    8  C10 UNL     1      21.931 -19.486 -20.709  1.00  0.00    -0.012 A 
HETATM    9  C11 UNL     1      22.081 -19.856 -19.238  1.00  0.00     0.018 C 
HETATM   10  C12 UNL     1      21.659 -17.987 -20.896  1.00  0.00     0.192 A 
HETATM   11  C13 UNL     1      20.261 -18.296 -21.386  1.00  0.00     0.039 A 
HETATM   12  C14 UNL     1      20.591 -19.749 -21.303  1.00  0.00     0.002 A 
HETATM   13  C15 UNL     1      20.612 -20.525 -22.579  1.00  0.00    -0.005 C 
HETATM   14  C16 UNL     1      20.802 -19.745 -23.816  1.00  0.00     0.006 C 
HETATM   15  C17 UNL     1      21.597 -20.418 -24.915  1.00  0.00     0.010 C 
HETATM   16  C18 UNL     1      21.271 -21.855 -24.991  1.00  0.00    -0.036 C 
HETATM   17  C19 UNL     1      19.797 -21.925 -25.458  1.00  0.00     0.016 C 
ENDROOT
BRANCH   1  18
HETATM   18  C2  UNL     1      22.201 -22.504 -27.310  1.00  0.00     0.020 C 
HETATM   19  C1  UNL     1      20.978 -23.137 -28.059  1.00  0.00     0.013 C 
BRANCH  18  20
HETATM   20  C20 UNL     1      23.361 -23.059 -28.071  1.00  0.00     0.054 C 
HETATM   21  C21 UNL     1      22.878 -24.499 -28.423  1.00  0.00     0.045 C 
HETATM   22  C22 UNL     1      24.639 -23.231 -27.343  1.00  0.00     0.045 C 
BRANCH  20  23
HETATM   23  O1  UNL     1      23.620 -22.518 -29.303  1.00  0.00    -0.390 OA
ATOM     24  H1  UNL     1      24.530 -22.457 -29.569  1.00  0.00     0.210 HD
ENDBRANCH  20  23
ENDBRANCH  18  20
ENDBRANCH   1  18
BRANCH  10  25
HETATM   25  N1  UNL     1      21.749 -17.267 -19.662  1.00  0.00    -0.074 N 
ATOM     26  H13 UNL     1      21.003 -17.538 -19.021  1.00  0.00     0.274 HD
ATOM     27  H12 UNL     1      22.552 -17.572 -19.113  1.00  0.00     0.274 HD
ATOM     28  H11 UNL     1      21.763 -16.258 -19.808  1.00  0.00     0.274 HD
ENDBRANCH  10  25
TORSDOF 4
ENDMDL
