MODEL 1
REMARK VINA RESULT: -6.537743252      0.000      0.000
REMARK  3 active torsions:
REMARK  status: ('A' for Active; 'I' for Inactive)
REMARK       I    between atoms: C2_5  and  N4_7 
REMARK    1  A    between atoms: N6_12  and  C5_13 
REMARK    2  A    between atoms: C5_13  and  C6_14 
REMARK    3  A    between atoms: C6_14  and  N7_15 
ROOT
HETATM    1  N1  UNL     1      14.457  62.386  21.744  1.00  0.00    -0.172 NA
HETATM    2  C1  UNL     1      14.740  63.396  22.263  1.00  0.00     0.184 C 
HETATM    3  N2  UNL     1      15.071  64.587  22.902  1.00  0.00    -0.267 N 
ATOM      4  H2  UNL     1      14.582  64.808  23.770  1.00  0.00     0.180 HD
HETATM    5  C2  UNL     1      15.943  65.427  22.482  1.00  0.00     0.199 C 
HETATM    6  N3  UNL     1      16.638  65.141  21.280  1.00  0.00    -0.063 NA
HETATM    7  N4  UNL     1      16.197  66.599  23.239  1.00  0.00    -0.352 N 
HETATM    8  C3  UNL     1      17.580  66.675  23.714  1.00  0.00     0.146 C 
HETATM    9  C4  UNL     1      17.541  66.634  25.250  1.00  0.00     0.153 C 
HETATM   10  N5  UNL     1      16.211  67.001  25.628  1.00  0.00    -0.353 N 
ATOM     11  H5  UNL     1      15.527  66.310  25.936  1.00  0.00     0.174 HD
HETATM   12  N6  UNL     1      15.914  68.323  25.554  1.00  0.00    -0.233 NA
HETATM   13  C7  UNL     1      15.317  68.645  24.294  1.00  0.00     0.133 C 
HETATM   14  C8  UNL     1      15.074  67.454  23.395  1.00  0.00     0.141 C 
ENDROOT
BRANCH  12  15
HETATM   15  C5  UNL     1      16.937  69.210  25.976  1.00  0.00     0.140 C 
BRANCH  15  16
HETATM   16  C6  UNL     1      16.565  70.656  26.010  1.00  0.00     0.245 C 
BRANCH  16  17
HETATM   17  N7  UNL     1      16.853  71.214  24.675  1.00  0.00    -0.078 N 
ATOM     18  H73 UNL     1      16.073  71.114  24.024  1.00  0.00     0.274 HD
ATOM     19  H72 UNL     1      16.899  72.232  24.670  1.00  0.00     0.274 HD
ATOM     20  H71 UNL     1      17.710  70.773  24.341  1.00  0.00     0.274 HD
ENDBRANCH  16  17
ENDBRANCH  15  16
ENDBRANCH  12  15
TORSDOF 3
ENDMDL
MODEL 2
REMARK VINA RESULT: -6.248358781      1.280      5.921
REMARK  3 active torsions:
REMARK  status: ('A' for Active; 'I' for Inactive)
REMARK       I    between atoms: C2_5  and  N4_7 
REMARK    1  A    between atoms: N6_12  and  C5_13 
REMARK    2  A    between atoms: C5_13  and  C6_14 
REMARK    3  A    between atoms: C6_14  and  N7_15 
ROOT
HETATM    1  N1  UNL     1      16.833  71.464  26.350  1.00  0.00    -0.172 NA
HETATM    2  C1  UNL     1      16.526  70.429  25.898  1.00  0.00     0.184 C 
HETATM    3  N2  UNL     1      16.156  69.209  25.339  1.00  0.00    -0.267 N 
ATOM      4  H2  UNL     1      15.495  69.227  24.563  1.00  0.00     0.180 HD
HETATM    5  C2  UNL     1      16.584  68.065  25.727  1.00  0.00     0.199 C 
HETATM    6  N3  UNL     1      17.507  68.014  26.802  1.00  0.00    -0.063 NA
HETATM    7  N4  UNL     1      16.139  66.896  25.059  1.00  0.00    -0.352 N 
HETATM    8  C3  UNL     1      17.234  66.156  24.428  1.00  0.00     0.146 C 
HETATM    9  C4  UNL     1      16.985  66.172  22.911  1.00  0.00     0.153 C 
HETATM   10  N5  UNL     1      15.598  66.477  22.735  1.00  0.00    -0.353 N 
ATOM     11  H5  UNL     1      15.281  67.404  22.449  1.00  0.00     0.174 HD
HETATM   12  N6  UNL     1      14.730  65.461  22.970  1.00  0.00    -0.233 NA
HETATM   13  C7  UNL     1      14.252  65.495  24.318  1.00  0.00     0.133 C 
HETATM   14  C8  UNL     1      14.738  66.679  25.123  1.00  0.00     0.141 C 
ENDROOT
BRANCH  12  15
HETATM   15  C5  UNL     1      15.140  64.182  22.511  1.00  0.00     0.140 C 
BRANCH  15  16
HETATM   16  C6  UNL     1      14.069  63.142  22.458  1.00  0.00     0.245 C 
BRANCH  16  17
HETATM   17  N7  UNL     1      14.714  61.869  22.085  1.00  0.00    -0.078 N 
ATOM     18  H73 UNL     1      15.322  61.953  21.269  1.00  0.00     0.274 HD
ATOM     19  H72 UNL     1      15.428  61.573  22.751  1.00  0.00     0.274 HD
ATOM     20  H71 UNL     1      13.973  61.179  21.961  1.00  0.00     0.274 HD
ENDBRANCH  16  17
ENDBRANCH  15  16
ENDBRANCH  12  15
TORSDOF 3
ENDMDL
MODEL 3
REMARK VINA RESULT: -6.146278300      4.561      5.470
REMARK  3 active torsions:
REMARK  status: ('A' for Active; 'I' for Inactive)
REMARK       I    between atoms: C2_5  and  N4_7 
REMARK    1  A    between atoms: N6_12  and  C5_13 
REMARK    2  A    between atoms: C5_13  and  C6_14 
REMARK    3  A    between atoms: C6_14  and  N7_15 
ROOT
HETATM    1  N1  UNL     1      11.304  58.713  23.244  1.00  0.00    -0.172 NA
HETATM    2  C1  UNL     1      11.296  59.882  23.301  1.00  0.00     0.184 C 
HETATM    3  N2  UNL     1      11.285  61.271  23.394  1.00  0.00    -0.267 N 
ATOM      4  H2  UNL     1      10.836  61.686  24.210  1.00  0.00     0.180 HD
HETATM    5  C2  UNL     1      11.798  62.067  22.530  1.00  0.00     0.199 C 
HETATM    6  N3  UNL     1      12.432  61.514  21.389  1.00  0.00    -0.063 NA
HETATM    7  N4  UNL     1      11.733  63.466  22.753  1.00  0.00    -0.352 N 
HETATM    8  C3  UNL     1      13.057  64.081  22.867  1.00  0.00     0.146 C 
HETATM    9  C4  UNL     1      13.179  64.650  24.290  1.00  0.00     0.153 C 
HETATM   10  N5  UNL     1      11.843  64.779  24.787  1.00  0.00    -0.353 N 
ATOM     11  H5  UNL     1      11.449  64.117  25.455  1.00  0.00     0.174 HD
HETATM   12  N6  UNL     1      11.132  65.834  24.316  1.00  0.00    -0.233 NA
HETATM   13  C7  UNL     1      10.347  65.459  23.179  1.00  0.00     0.133 C 
HETATM   14  C8  UNL     1      10.415  63.989  22.831  1.00  0.00     0.141 C 
ENDROOT
BRANCH  12  15
HETATM   15  C5  UNL     1      11.852  67.048  24.171  1.00  0.00     0.140 C 
BRANCH  15  16
HETATM   16  C6  UNL     1      11.671  68.042  25.271  1.00  0.00     0.245 C 
BRANCH  16  17
HETATM   17  N7  UNL     1      10.824  69.128  24.745  1.00  0.00    -0.078 N 
ATOM     18  H73 UNL     1      10.394  69.691  25.480  1.00  0.00     0.274 HD
ATOM     19  H72 UNL     1      11.360  69.874  24.304  1.00  0.00     0.274 HD
ATOM     20  H71 UNL     1      10.141  68.702  24.118  1.00  0.00     0.274 HD
ENDBRANCH  16  17
ENDBRANCH  15  16
ENDBRANCH  12  15
TORSDOF 3
ENDMDL
MODEL 4
REMARK VINA RESULT: -6.114035452      2.441      3.462
REMARK  3 active torsions:
REMARK  status: ('A' for Active; 'I' for Inactive)
REMARK       I    between atoms: C2_5  and  N4_7 
REMARK    1  A    between atoms: N6_12  and  C5_13 
REMARK    2  A    between atoms: C5_13  and  C6_14 
REMARK    3  A    between atoms: C6_14  and  N7_15 
ROOT
HETATM    1  N1  UNL     1      17.192  66.262  19.419  1.00  0.00    -0.172 NA
HETATM    2  C1  UNL     1      16.950  66.371  20.559  1.00  0.00     0.184 C 
HETATM    3  N2  UNL     1      16.682  66.485  21.920  1.00  0.00    -0.267 N 
ATOM      4  H2  UNL     1      16.916  65.691  22.515  1.00  0.00     0.180 HD
HETATM    5  C2  UNL     1      16.162  67.514  22.481  1.00  0.00     0.199 C 
HETATM    6  N3  UNL     1      15.831  68.632  21.676  1.00  0.00    -0.063 NA
HETATM    7  N4  UNL     1      15.955  67.507  23.884  1.00  0.00    -0.352 N 
HETATM    8  C3  UNL     1      16.712  68.556  24.571  1.00  0.00     0.146 C 
HETATM    9  C4  UNL     1      17.717  67.861  25.504  1.00  0.00     0.153 C 
HETATM   10  N5  UNL     1      17.232  66.528  25.696  1.00  0.00    -0.353 N 
ATOM     11  H5  UNL     1      17.647  65.728  25.218  1.00  0.00     0.174 HD
HETATM   12  N6  UNL     1      16.188  66.392  26.551  1.00  0.00    -0.233 NA
HETATM   13  C7  UNL     1      14.941  66.417  25.849  1.00  0.00     0.133 C 
HETATM   14  C8  UNL     1      15.074  66.493  24.344  1.00  0.00     0.141 C 
ENDROOT
BRANCH  12  15
HETATM   15  C5  UNL     1      16.235  67.200  27.716  1.00  0.00     0.140 C 
BRANCH  15  16
HETATM   16  C6  UNL     1      16.623  66.497  28.975  1.00  0.00     0.245 C 
BRANCH  16  17
HETATM   17  N7  UNL     1      16.763  65.065  28.651  1.00  0.00    -0.078 N 
ATOM     18  H73 UNL     1      15.910  64.531  28.823  1.00  0.00     0.274 HD
ATOM     19  H72 UNL     1      16.830  64.887  27.649  1.00  0.00     0.274 HD
ATOM     20  H71 UNL     1      17.565  64.713  29.174  1.00  0.00     0.274 HD
ENDBRANCH  16  17
ENDBRANCH  15  16
ENDBRANCH  12  15
TORSDOF 3
ENDMDL
MODEL 5
REMARK VINA RESULT: -6.092241898      2.254      2.854
REMARK  3 active torsions:
REMARK  status: ('A' for Active; 'I' for Inactive)
REMARK       I    between atoms: C2_5  and  N4_7 
REMARK    1  A    between atoms: N6_12  and  C5_13 
REMARK    2  A    between atoms: C5_13  and  C6_14 
REMARK    3  A    between atoms: C6_14  and  N7_15 
ROOT
HETATM    1  N1  UNL     1      15.457  63.251  22.481  1.00  0.00    -0.172 NA
HETATM    2  C1  UNL     1      15.478  64.421  22.471  1.00  0.00     0.184 C 
HETATM    3  N2  UNL     1      15.478  65.813  22.457  1.00  0.00    -0.267 N 
ATOM      4  H2  UNL     1      14.716  66.280  21.963  1.00  0.00     0.180 HD
HETATM    5  C2  UNL     1      16.362  66.552  23.017  1.00  0.00     0.199 C 
HETATM    6  N3  UNL     1      17.428  65.928  23.712  1.00  0.00    -0.063 NA
HETATM    7  N4  UNL     1      16.236  67.963  22.941  1.00  0.00    -0.352 N 
HETATM    8  C3  UNL     1      16.090  68.588  24.257  1.00  0.00     0.146 C 
HETATM    9  C4  UNL     1      14.703  69.249  24.301  1.00  0.00     0.153 C 
HETATM   10  N5  UNL     1      14.290  69.407  22.940  1.00  0.00    -0.353 N 
ATOM     11  H5  UNL     1      13.602  68.790  22.509  1.00  0.00     0.174 HD
HETATM   12  N6  UNL     1      14.868  70.427  22.257  1.00  0.00    -0.233 NA
HETATM   13  C7  UNL     1      16.018  69.976  21.535  1.00  0.00     0.133 C 
HETATM   14  C8  UNL     1      16.265  68.486  21.621  1.00  0.00     0.141 C 
ENDROOT
BRANCH  12  15
HETATM   15  C5  UNL     1      15.052  71.631  22.985  1.00  0.00     0.140 C 
BRANCH  15  16
HETATM   16  C6  UNL     1      16.274  72.416  22.636  1.00  0.00     0.245 C 
BRANCH  16  17
HETATM   17  N7  UNL     1      17.230  72.255  23.748  1.00  0.00    -0.078 N 
ATOM     18  H73 UNL     1      17.194  71.329  24.174  1.00  0.00     0.274 HD
ATOM     19  H72 UNL     1      18.200  72.219  23.437  1.00  0.00     0.274 HD
ATOM     20  H71 UNL     1      17.050  73.008  24.413  1.00  0.00     0.274 HD
ENDBRANCH  16  17
ENDBRANCH  15  16
ENDBRANCH  12  15
TORSDOF 3
ENDMDL
