MODEL 1
REMARK VINA RESULT: -7.338908093      0.000      0.000
REMARK  6 active torsions:
REMARK  status: ('A' for Active; 'I' for Inactive)
REMARK    1  A    between atoms: N1_1  and  C1_4 
REMARK    2  A    between atoms: C2_7  and  O1_8 
REMARK    3  A    between atoms: C3_10  and  C4_11 
REMARK    4  A    between atoms: C4_11  and  C5_12 
REMARK    5  A    between atoms: N3_15  and  N4_16 
REMARK    6  A    between atoms: N5_19  and  O2_20 
ROOT
HETATM    1  C1  UNL     1      16.817  69.562  25.577  1.00  0.00     0.678 A 
HETATM    2  N2  UNL     1      17.371  68.497  26.165  1.00  0.00    -0.169 N 
ATOM      3  H2  UNL     1      17.750  68.482  27.112  1.00  0.00     0.186 HD
HETATM    4  C2  UNL     1      17.354  67.451  25.323  1.00  0.00     0.179 A 
HETATM    5  C3  UNL     1      16.765  67.878  24.158  1.00  0.00     0.082 A 
HETATM    6  N6  UNL     1      16.448  69.169  24.342  1.00  0.00    -0.191 N 
ATOM      7  H6  UNL     1      15.995  69.764  23.649  1.00  0.00     0.184 HD
ENDROOT
BRANCH   5   8
HETATM    8  C4  UNL     1      16.504  67.122  22.930  1.00  0.00     0.102 C 
BRANCH   8   9
HETATM    9  C5  UNL     1      15.552  66.014  23.076  1.00  0.00    -0.031 A 
HETATM   10  C6  UNL     1      14.448  66.134  23.882  1.00  0.00     0.030 A 
HETATM   11  C7  UNL     1      13.537  65.110  24.036  1.00  0.00     0.139 A 
HETATM   12  N3  UNL     1      13.730  63.952  23.376  1.00  0.00    -0.189 N 
HETATM   13  N5  UNL     1      14.790  63.815  22.592  1.00  0.00    -0.154 N 
HETATM   14  C8  UNL     1      15.698  64.793  22.419  1.00  0.00     0.153 A 
BRANCH  12  15
HETATM   15  N4  UNL     1      12.820  62.891  23.513  1.00  0.00    -0.323 N 
ATOM     16  H42 UNL     1      12.621  62.287  22.716  1.00  0.00     0.179 HD
ATOM     17  H41 UNL     1      12.356  62.718  24.405  1.00  0.00     0.179 HD
ENDBRANCH  12  15
BRANCH  13  18
HETATM   18  O2  UNL     1      14.977  62.613  21.917  1.00  0.00    -0.267 OA
ATOM     19  H2  UNL     1      14.216  62.136  21.608  1.00  0.00     0.247 HD
ENDBRANCH  13  18
ENDBRANCH   8   9
ENDBRANCH   5   8
BRANCH   4  20
HETATM   20  O1  UNL     1      17.858  66.167  25.612  1.00  0.00    -0.344 OA
ATOM     21  H1  UNL     1      18.210  65.559  24.972  1.00  0.00     0.219 HD
ENDBRANCH   4  20
BRANCH   1  22
HETATM   22  N1  UNL     1      16.659  70.762  26.088  1.00  0.00    -0.234 N 
ATOM     23  H12 UNL     1      17.353  71.285  26.622  1.00  0.00     0.174 HD
ATOM     24  H11 UNL     1      15.828  71.352  26.035  1.00  0.00     0.174 HD
ENDBRANCH   1  22
TORSDOF 6
ENDMDL
MODEL 2
REMARK VINA RESULT: -7.270998677      3.234      4.083
REMARK  6 active torsions:
REMARK  status: ('A' for Active; 'I' for Inactive)
REMARK    1  A    between atoms: N1_1  and  C1_4 
REMARK    2  A    between atoms: C2_7  and  O1_8 
REMARK    3  A    between atoms: C3_10  and  C4_11 
REMARK    4  A    between atoms: C4_11  and  C5_12 
REMARK    5  A    between atoms: N3_15  and  N4_16 
REMARK    6  A    between atoms: N5_19  and  O2_20 
ROOT
HETATM    1  C1  UNL     1      16.971  67.047  21.875  1.00  0.00     0.678 A 
HETATM    2  N2  UNL     1      18.022  67.024  22.701  1.00  0.00    -0.169 N 
ATOM      3  H2  UNL     1      18.988  67.203  22.426  1.00  0.00     0.186 HD
HETATM    4  C2  UNL     1      17.615  66.732  23.947  1.00  0.00     0.179 A 
HETATM    5  C3  UNL     1      16.253  66.564  23.899  1.00  0.00     0.082 A 
HETATM    6  N6  UNL     1      15.889  66.762  22.624  1.00  0.00    -0.191 N 
ATOM      7  H6  UNL     1      14.933  66.705  22.273  1.00  0.00     0.184 HD
ENDROOT
BRANCH   5   8
HETATM    8  C4  UNL     1      15.330  66.238  24.991  1.00  0.00     0.102 C 
BRANCH   8   9
HETATM    9  C5  UNL     1      13.916  66.513  24.708  1.00  0.00    -0.031 A 
HETATM   10  C6  UNL     1      13.083  65.524  24.249  1.00  0.00     0.030 A 
HETATM   11  C7  UNL     1      11.750  65.754  23.976  1.00  0.00     0.139 A 
HETATM   12  N3  UNL     1      11.244  66.988  24.164  1.00  0.00    -0.189 N 
HETATM   13  N5  UNL     1      12.031  67.958  24.606  1.00  0.00    -0.154 N 
HETATM   14  C8  UNL     1      13.335  67.768  24.882  1.00  0.00     0.153 A 
BRANCH  12  15
HETATM   15  N4  UNL     1       9.891  67.253  23.894  1.00  0.00    -0.323 N 
ATOM     16  H42 UNL     1       9.165  66.817  24.463  1.00  0.00     0.179 HD
ATOM     17  H41 UNL     1       9.627  67.880  23.134  1.00  0.00     0.179 HD
ENDBRANCH  12  15
BRANCH  13  18
HETATM   18  O2  UNL     1      11.494  69.227  24.795  1.00  0.00    -0.267 OA
ATOM     19  H2  UNL     1      11.784  69.937  24.233  1.00  0.00     0.247 HD
ENDBRANCH  13  18
ENDBRANCH   8   9
ENDBRANCH   5   8
BRANCH   4  20
HETATM   20  O1  UNL     1      18.458  66.624  25.072  1.00  0.00    -0.344 OA
ATOM     21  H1  UNL     1      18.357  65.990  25.773  1.00  0.00     0.219 HD
ENDBRANCH   4  20
BRANCH   1  22
HETATM   22  N1  UNL     1      16.978  67.294  20.584  1.00  0.00    -0.234 N 
ATOM     23  H12 UNL     1      17.798  67.508  20.017  1.00  0.00     0.174 HD
ATOM     24  H11 UNL     1      16.176  67.313  19.954  1.00  0.00     0.174 HD
ENDBRANCH   1  22
TORSDOF 6
ENDMDL
MODEL 3
REMARK VINA RESULT: -7.246370279      2.261      2.619
REMARK  6 active torsions:
REMARK  status: ('A' for Active; 'I' for Inactive)
REMARK    1  A    between atoms: N1_1  and  C1_4 
REMARK    2  A    between atoms: C2_7  and  O1_8 
REMARK    3  A    between atoms: C3_10  and  C4_11 
REMARK    4  A    between atoms: C4_11  and  C5_12 
REMARK    5  A    between atoms: N3_15  and  N4_16 
REMARK    6  A    between atoms: N5_19  and  O2_20 
ROOT
HETATM    1  C1  UNL     1      15.534  69.627  22.180  1.00  0.00     0.678 A 
HETATM    2  N2  UNL     1      16.268  69.165  21.163  1.00  0.00    -0.169 N 
ATOM      3  H2  UNL     1      16.471  69.679  20.305  1.00  0.00     0.186 HD
HETATM    4  C2  UNL     1      16.699  67.924  21.440  1.00  0.00     0.179 A 
HETATM    5  C3  UNL     1      16.216  67.595  22.682  1.00  0.00     0.082 A 
HETATM    6  N6  UNL     1      15.509  68.652  23.109  1.00  0.00    -0.191 N 
ATOM      7  H6  UNL     1      15.024  68.709  24.004  1.00  0.00     0.184 HD
ENDROOT
BRANCH   5   8
HETATM    8  C4  UNL     1      16.404  66.355  23.442  1.00  0.00     0.102 C 
BRANCH   8   9
HETATM    9  C5  UNL     1      15.345  65.354  23.266  1.00  0.00    -0.031 A 
HETATM   10  C6  UNL     1      14.143  65.478  23.916  1.00  0.00     0.030 A 
HETATM   11  C7  UNL     1      13.129  64.553  23.767  1.00  0.00     0.139 A 
HETATM   12  N3  UNL     1      13.320  63.493  22.959  1.00  0.00    -0.189 N 
HETATM   13  N5  UNL     1      14.474  63.354  22.322  1.00  0.00    -0.154 N 
HETATM   14  C8  UNL     1      15.482  64.237  22.444  1.00  0.00     0.153 A 
BRANCH  12  15
HETATM   15  N4  UNL     1      12.307  62.534  22.788  1.00  0.00    -0.323 N 
ATOM     16  H42 UNL     1      12.011  62.271  21.848  1.00  0.00     0.179 HD
ATOM     17  H41 UNL     1      11.865  62.097  23.596  1.00  0.00     0.179 HD
ENDBRANCH  12  15
BRANCH  13  18
HETATM   18  O2  UNL     1      14.656  62.254  21.491  1.00  0.00    -0.267 OA
ATOM     19  H2  UNL     1      15.308  61.604  21.725  1.00  0.00     0.247 HD
ENDBRANCH  13  18
ENDBRANCH   8   9
ENDBRANCH   5   8
BRANCH   4  20
HETATM   20  O1  UNL     1      17.499  67.133  20.589  1.00  0.00    -0.344 OA
ATOM     21  H1  UNL     1      17.346  67.001  19.661  1.00  0.00     0.219 HD
ENDBRANCH   4  20
BRANCH   1  22
HETATM   22  N1  UNL     1      14.945  70.799  22.269  1.00  0.00    -0.234 N 
ATOM     23  H12 UNL     1      15.405  71.692  22.445  1.00  0.00     0.174 HD
ATOM     24  H11 UNL     1      13.949  70.998  22.180  1.00  0.00     0.174 HD
ENDBRANCH   1  22
TORSDOF 6
ENDMDL
MODEL 4
REMARK VINA RESULT: -7.242472844      1.943      2.506
REMARK  6 active torsions:
REMARK  status: ('A' for Active; 'I' for Inactive)
REMARK    1  A    between atoms: N1_1  and  C1_4 
REMARK    2  A    between atoms: C2_7  and  O1_8 
REMARK    3  A    between atoms: C3_10  and  C4_11 
REMARK    4  A    between atoms: C4_11  and  C5_12 
REMARK    5  A    between atoms: N3_15  and  N4_16 
REMARK    6  A    between atoms: N5_19  and  O2_20 
ROOT
HETATM    1  C1  UNL     1      17.102  67.614  22.353  1.00  0.00     0.678 A 
HETATM    2  N2  UNL     1      17.779  67.194  23.426  1.00  0.00    -0.169 N 
ATOM      3  H2  UNL     1      18.783  67.304  23.566  1.00  0.00     0.186 HD
HETATM    4  C2  UNL     1      16.939  66.605  24.293  1.00  0.00     0.179 A 
HETATM    5  C3  UNL     1      15.684  66.659  23.741  1.00  0.00     0.082 A 
HETATM    6  N6  UNL     1      15.813  67.279  22.559  1.00  0.00    -0.191 N 
ATOM      7  H6  UNL     1      15.049  67.469  21.910  1.00  0.00     0.184 HD
ENDROOT
BRANCH   5   8
HETATM    8  C4  UNL     1      14.417  66.160  24.287  1.00  0.00     0.102 C 
BRANCH   8   9
HETATM    9  C5  UNL     1      13.905  64.942  23.648  1.00  0.00    -0.031 A 
HETATM   10  C6  UNL     1      12.563  64.659  23.643  1.00  0.00     0.030 A 
HETATM   11  C7  UNL     1      12.054  63.523  23.048  1.00  0.00     0.139 A 
HETATM   12  N3  UNL     1      12.897  62.659  22.451  1.00  0.00    -0.189 N 
HETATM   13  N5  UNL     1      14.198  62.913  22.444  1.00  0.00    -0.154 N 
HETATM   14  C8  UNL     1      14.728  64.011  23.015  1.00  0.00     0.153 A 
BRANCH  12  15
HETATM   15  N4  UNL     1      12.409  61.493  21.838  1.00  0.00    -0.323 N 
ATOM     16  H42 UNL     1      11.507  61.509  21.362  1.00  0.00     0.179 HD
ATOM     17  H41 UNL     1      12.950  60.629  21.862  1.00  0.00     0.179 HD
ENDBRANCH  12  15
BRANCH  13  18
HETATM   18  O2  UNL     1      15.057  62.011  21.825  1.00  0.00    -0.267 OA
ATOM     19  H2  UNL     1      15.907  62.315  21.530  1.00  0.00     0.247 HD
ENDBRANCH  13  18
ENDBRANCH   8   9
ENDBRANCH   5   8
BRANCH   4  20
HETATM   20  O1  UNL     1      17.312  66.045  25.532  1.00  0.00    -0.344 OA
ATOM     21  H1  UNL     1      16.896  66.234  26.366  1.00  0.00     0.219 HD
ENDBRANCH   4  20
BRANCH   1  22
HETATM   22  N1  UNL     1      17.584  68.231  21.298  1.00  0.00    -0.234 N 
ATOM     23  H12 UNL     1      18.238  69.014  21.306  1.00  0.00     0.174 HD
ATOM     24  H11 UNL     1      17.383  68.030  20.318  1.00  0.00     0.174 HD
ENDBRANCH   1  22
TORSDOF 6
ENDMDL
MODEL 5
REMARK VINA RESULT: -7.051835574      2.454      3.154
REMARK  6 active torsions:
REMARK  status: ('A' for Active; 'I' for Inactive)
REMARK    1  A    between atoms: N1_1  and  C1_4 
REMARK    2  A    between atoms: C2_7  and  O1_8 
REMARK    3  A    between atoms: C3_10  and  C4_11 
REMARK    4  A    between atoms: C4_11  and  C5_12 
REMARK    5  A    between atoms: N3_15  and  N4_16 
REMARK    6  A    between atoms: N5_19  and  O2_20 
ROOT
HETATM    1  C1  UNL     1      17.076  67.529  22.304  1.00  0.00     0.678 A 
HETATM    2  N2  UNL     1      17.856  66.880  23.175  1.00  0.00    -0.169 N 
ATOM      3  H2  UNL     1      18.769  66.480  22.959  1.00  0.00     0.186 HD
HETATM    4  C2  UNL     1      17.257  66.833  24.376  1.00  0.00     0.179 A 
HETATM    5  C3  UNL     1      16.052  67.480  24.254  1.00  0.00     0.082 A 
HETATM    6  N6  UNL     1      15.969  67.893  22.980  1.00  0.00    -0.191 N 
ATOM      7  H6  UNL     1      15.183  68.407  22.582  1.00  0.00     0.184 HD
ENDROOT
BRANCH   5   8
HETATM    8  C4  UNL     1      15.024  67.707  25.274  1.00  0.00     0.102 C 
BRANCH   8   9
HETATM    9  C5  UNL     1      13.728  67.078  24.998  1.00  0.00    -0.031 A 
HETATM   10  C6  UNL     1      12.553  67.720  25.299  1.00  0.00     0.030 A 
HETATM   11  C7  UNL     1      11.321  67.152  25.048  1.00  0.00     0.139 A 
HETATM   12  N3  UNL     1      11.262  65.927  24.490  1.00  0.00    -0.189 N 
HETATM   13  N5  UNL     1      12.385  65.289  24.191  1.00  0.00    -0.154 N 
HETATM   14  C8  UNL     1      13.603  65.814  24.422  1.00  0.00     0.153 A 
BRANCH  12  15
HETATM   15  N4  UNL     1      10.022  65.322  24.224  1.00  0.00    -0.323 N 
ATOM     16  H42 UNL     1       9.165  65.871  24.294  1.00  0.00     0.179 HD
ATOM     17  H41 UNL     1       9.971  64.339  23.960  1.00  0.00     0.179 HD
ENDBRANCH  12  15
BRANCH  13  18
HETATM   18  O2  UNL     1      12.309  64.026  23.616  1.00  0.00    -0.267 OA
ATOM     19  H2  UNL     1      12.209  63.268  24.181  1.00  0.00     0.247 HD
ENDBRANCH  13  18
ENDBRANCH   8   9
ENDBRANCH   5   8
BRANCH   4  20
HETATM   20  O1  UNL     1      17.795  66.224  25.528  1.00  0.00    -0.344 OA
ATOM     21  H1  UNL     1      17.765  66.589  26.405  1.00  0.00     0.219 HD
ENDBRANCH   4  20
BRANCH   1  22
HETATM   22  N1  UNL     1      17.325  67.769  21.037  1.00  0.00    -0.234 N 
ATOM     23  H12 UNL     1      16.957  67.248  20.242  1.00  0.00     0.174 HD
ATOM     24  H11 UNL     1      17.920  68.504  20.652  1.00  0.00     0.174 HD
ENDBRANCH   1  22
TORSDOF 6
ENDMDL
