MODEL 1
REMARK VINA RESULT: -7.051462329      0.000      0.000
REMARK  3 active torsions:
REMARK  status: ('A' for Active; 'I' for Inactive)
REMARK    1  A    between atoms: C3_3  and  C4_4 
REMARK    2  A    between atoms: C4_4  and  S1_5 
REMARK    3  A    between atoms: S1_5  and  N1_6 
ROOT
HETATM    1  C1  UNL     1      14.154  65.675  24.584  1.00  0.00     0.015 C 
HETATM    2  C2  UNL     1      15.075  66.427  24.731  1.00  0.00    -0.074 C 
HETATM    3  C3  UNL     1      16.178  67.349  24.914  1.00  0.00     0.193 C 
HETATM    4  N2  UNL     1      15.750  68.717  25.133  1.00  0.00    -0.314 N 
ATOM      5  H2  UNL     1      14.933  69.161  24.714  1.00  0.00     0.166 HD
HETATM    6  C5  UNL     1      16.664  69.332  26.031  1.00  0.00     0.324 C 
HETATM    7  O3  UNL     1      16.837  70.580  26.232  1.00  0.00    -0.247 OA
HETATM    8  N3  UNL     1      17.391  68.326  26.702  1.00  0.00    -0.276 N 
ATOM      9  H3  UNL     1      18.116  68.461  27.406  1.00  0.00     0.173 HD
HETATM   10  C6  UNL     1      16.907  67.080  26.201  1.00  0.00     0.267 C 
HETATM   11  O4  UNL     1      17.021  65.924  26.678  1.00  0.00    -0.269 OA
ENDROOT
BRANCH   3  12
HETATM   12  C4  UNL     1      17.206  67.254  23.821  1.00  0.00     0.217 C 
BRANCH  12  13
HETATM   13  S1  UNL     1      16.596  67.669  22.228  1.00  0.00     0.228 S 
HETATM   14  O1  UNL     1      16.252  66.490  21.398  1.00  0.00    -0.206 OA
HETATM   15  O2  UNL     1      15.417  68.612  22.328  1.00  0.00    -0.206 OA
BRANCH  13  16
HETATM   16  N1  UNL     1      17.842  68.536  21.395  1.00  0.00    -0.328 N 
ATOM     17  H12 UNL     1      18.823  68.573  21.674  1.00  0.00     0.168 HD
ATOM     18  H11 UNL     1      17.417  68.993  20.589  1.00  0.00     0.168 HD
ENDBRANCH  13  16
ENDBRANCH  12  13
ENDBRANCH   3  12
TORSDOF 3
ENDMDL
MODEL 2
REMARK VINA RESULT: -6.944498261      2.245      4.328
REMARK  3 active torsions:
REMARK  status: ('A' for Active; 'I' for Inactive)
REMARK    1  A    between atoms: C3_3  and  C4_4 
REMARK    2  A    between atoms: C4_4  and  S1_5 
REMARK    3  A    between atoms: S1_5  and  N1_6 
ROOT
HETATM    1  C1  UNL     1      12.980  68.165  24.415  1.00  0.00     0.015 C 
HETATM    2  C2  UNL     1      14.114  68.246  24.042  1.00  0.00    -0.074 C 
HETATM    3  C3  UNL     1      15.485  68.331  23.578  1.00  0.00     0.193 C 
HETATM    4  N2  UNL     1      15.893  67.188  22.786  1.00  0.00    -0.314 N 
ATOM      5  H2  UNL     1      15.585  66.225  22.923  1.00  0.00     0.166 HD
HETATM    6  C5  UNL     1      16.797  67.638  21.786  1.00  0.00     0.324 C 
HETATM    7  O3  UNL     1      17.615  66.937  21.102  1.00  0.00    -0.247 OA
HETATM    8  N3  UNL     1      16.660  69.035  21.643  1.00  0.00    -0.276 N 
ATOM      9  H3  UNL     1      17.175  69.639  21.002  1.00  0.00     0.173 HD
HETATM   10  C6  UNL     1      15.655  69.436  22.575  1.00  0.00     0.267 C 
HETATM   11  O4  UNL     1      14.985  70.497  22.624  1.00  0.00    -0.269 OA
ENDROOT
BRANCH   3  12
HETATM   12  C4  UNL     1      16.460  68.617  24.688  1.00  0.00     0.217 C 
BRANCH  12  13
HETATM   13  S1  UNL     1      16.880  67.210  25.650  1.00  0.00     0.228 S 
HETATM   14  O1  UNL     1      15.800  66.196  25.723  1.00  0.00    -0.206 OA
HETATM   15  O2  UNL     1      18.166  66.584  25.161  1.00  0.00    -0.206 OA
BRANCH  13  16
HETATM   16  N1  UNL     1      17.186  67.750  27.267  1.00  0.00    -0.328 N 
ATOM     17  H12 UNL     1      16.475  68.048  27.934  1.00  0.00     0.168 HD
ATOM     18  H11 UNL     1      18.194  67.713  27.421  1.00  0.00     0.168 HD
ENDBRANCH  13  16
ENDBRANCH  12  13
ENDBRANCH   3  12
TORSDOF 3
ENDMDL
MODEL 3
REMARK VINA RESULT: -6.762883598      2.223      2.857
REMARK  3 active torsions:
REMARK  status: ('A' for Active; 'I' for Inactive)
REMARK    1  A    between atoms: C3_3  and  C4_4 
REMARK    2  A    between atoms: C4_4  and  S1_5 
REMARK    3  A    between atoms: S1_5  and  N1_6 
ROOT
HETATM    1  C1  UNL     1      17.356  66.288  22.001  1.00  0.00     0.015 C 
HETATM    2  C2  UNL     1      16.827  66.832  22.926  1.00  0.00    -0.074 C 
HETATM    3  C3  UNL     1      16.171  67.483  24.043  1.00  0.00     0.193 C 
HETATM    4  N2  UNL     1      14.726  67.376  23.999  1.00  0.00    -0.314 N 
ATOM      5  H2  UNL     1      14.152  67.372  23.155  1.00  0.00     0.166 HD
HETATM    6  C5  UNL     1      14.245  67.278  25.333  1.00  0.00     0.324 C 
HETATM    7  O3  UNL     1      13.056  67.483  25.750  1.00  0.00    -0.247 OA
HETATM    8  N3  UNL     1      15.313  66.904  26.176  1.00  0.00    -0.276 N 
ATOM      9  H3  UNL     1      15.274  66.755  27.184  1.00  0.00     0.173 HD
HETATM   10  C6  UNL     1      16.460  66.775  25.336  1.00  0.00     0.267 C 
HETATM   11  O4  UNL     1      17.552  66.194  25.554  1.00  0.00    -0.269 OA
ENDROOT
BRANCH   3  12
HETATM   12  C4  UNL     1      16.618  68.906  24.234  1.00  0.00     0.217 C 
BRANCH  12  13
HETATM   13  S1  UNL     1      15.768  70.065  23.226  1.00  0.00     0.228 S 
HETATM   14  O1  UNL     1      15.690  69.667  21.800  1.00  0.00    -0.206 OA
HETATM   15  O2  UNL     1      14.388  70.351  23.776  1.00  0.00    -0.206 OA
BRANCH  13  16
HETATM   16  N1  UNL     1      16.638  71.561  23.294  1.00  0.00    -0.328 N 
ATOM     17  H12 UNL     1      17.099  72.012  22.503  1.00  0.00     0.168 HD
ATOM     18  H11 UNL     1      16.600  71.898  24.256  1.00  0.00     0.168 HD
ENDBRANCH  13  16
ENDBRANCH  12  13
ENDBRANCH   3  12
TORSDOF 3
ENDMDL
MODEL 4
REMARK VINA RESULT: -6.697301057      2.105      3.142
REMARK  3 active torsions:
REMARK  status: ('A' for Active; 'I' for Inactive)
REMARK    1  A    between atoms: C3_3  and  C4_4 
REMARK    2  A    between atoms: C4_4  and  S1_5 
REMARK    3  A    between atoms: S1_5  and  N1_6 
ROOT
HETATM    1  C1  UNL     1      15.847  70.094  21.714  1.00  0.00     0.015 C 
HETATM    2  C2  UNL     1      15.804  69.236  22.548  1.00  0.00    -0.074 C 
HETATM    3  C3  UNL     1      15.765  68.205  23.566  1.00  0.00     0.193 C 
HETATM    4  N2  UNL     1      16.889  68.260  24.480  1.00  0.00    -0.314 N 
ATOM      5  H2  UNL     1      17.841  68.539  24.240  1.00  0.00     0.166 HD
HETATM    6  C5  UNL     1      16.437  67.860  25.767  1.00  0.00     0.324 C 
HETATM    7  O3  UNL     1      17.145  67.471  26.755  1.00  0.00    -0.247 OA
HETATM    8  N3  UNL     1      15.030  67.956  25.806  1.00  0.00    -0.276 N 
ATOM      9  H3  UNL     1      14.424  67.737  26.597  1.00  0.00     0.173 HD
HETATM   10  C6  UNL     1      14.624  68.422  24.520  1.00  0.00     0.267 C 
HETATM   11  O4  UNL     1      13.536  68.933  24.159  1.00  0.00    -0.269 OA
ENDROOT
BRANCH   3  12
HETATM   12  C4  UNL     1      15.579  66.826  22.994  1.00  0.00     0.217 C 
BRANCH  12  13
HETATM   13  S1  UNL     1      16.958  66.239  22.082  1.00  0.00     0.228 S 
HETATM   14  O1  UNL     1      18.263  66.700  22.614  1.00  0.00    -0.206 OA
HETATM   15  O2  UNL     1      16.931  64.731  21.970  1.00  0.00    -0.206 OA
BRANCH  13  16
HETATM   16  N1  UNL     1      16.820  66.848  20.466  1.00  0.00    -0.328 N 
ATOM     17  H12 UNL     1      15.945  66.982  19.959  1.00  0.00     0.168 HD
ATOM     18  H11 UNL     1      17.761  67.044  20.127  1.00  0.00     0.168 HD
ENDBRANCH  13  16
ENDBRANCH  12  13
ENDBRANCH   3  12
TORSDOF 3
ENDMDL
MODEL 5
REMARK VINA RESULT: -6.663274864      2.647      3.973
REMARK  3 active torsions:
REMARK  status: ('A' for Active; 'I' for Inactive)
REMARK    1  A    between atoms: C3_3  and  C4_4 
REMARK    2  A    between atoms: C4_4  and  S1_5 
REMARK    3  A    between atoms: S1_5  and  N1_6 
ROOT
HETATM    1  C1  UNL     1      16.549  66.883  22.007  1.00  0.00     0.015 C 
HETATM    2  C2  UNL     1      16.154  67.780  22.695  1.00  0.00    -0.074 C 
HETATM    3  C3  UNL     1      15.691  68.866  23.537  1.00  0.00     0.193 C 
HETATM    4  N2  UNL     1      16.499  69.051  24.727  1.00  0.00    -0.314 N 
ATOM      5  H2  UNL     1      16.959  68.312  25.258  1.00  0.00     0.166 HD
HETATM    6  C5  UNL     1      16.540  70.440  25.025  1.00  0.00     0.324 C 
HETATM    7  O3  UNL     1      16.861  70.990  26.132  1.00  0.00    -0.247 OA
HETATM    8  N3  UNL     1      16.158  71.165  23.877  1.00  0.00    -0.276 N 
ATOM      9  H3  UNL     1      16.093  72.179  23.787  1.00  0.00     0.173 HD
HETATM   10  C6  UNL     1      15.880  70.196  22.866  1.00  0.00     0.267 C 
HETATM   11  O4  UNL     1      15.792  70.339  21.621  1.00  0.00    -0.269 OA
ENDROOT
BRANCH   3  12
HETATM   12  C4  UNL     1      14.228  68.765  23.867  1.00  0.00     0.217 C 
BRANCH  12  13
HETATM   13  S1  UNL     1      13.825  67.429  24.932  1.00  0.00     0.228 S 
HETATM   14  O1  UNL     1      13.835  66.108  24.258  1.00  0.00    -0.206 OA
HETATM   15  O2  UNL     1      14.725  67.414  26.147  1.00  0.00    -0.206 OA
BRANCH  13  16
HETATM   16  N1  UNL     1      12.217  67.691  25.521  1.00  0.00    -0.328 N 
ATOM     17  H12 UNL     1      11.764  67.151  26.259  1.00  0.00     0.168 HD
ATOM     18  H11 UNL     1      11.820  68.472  25.001  1.00  0.00     0.168 HD
ENDBRANCH  13  16
ENDBRANCH  12  13
ENDBRANCH   3  12
TORSDOF 3
ENDMDL
