MODEL 1
REMARK VINA RESULT: -7.501105964      0.000      0.000
REMARK  7 active torsions:
REMARK  status: ('A' for Active; 'I' for Inactive)
REMARK    1  A    between atoms: C4_7  and  C5_8 
REMARK    2  A    between atoms: C5_8  and  N2_9 
REMARK       I    between atoms: N2_9  and  C6_11 
REMARK    3  A    between atoms: C6_11  and  C7_13 
REMARK    4  A    between atoms: C7_13  and  C8_14 
REMARK    5  A    between atoms: C8_14  and  C9_15 
REMARK       I    between atoms: N3_21  and  C15_22 
REMARK    6  A    between atoms: C15_22  and  O5_24 
REMARK    7  A    between atoms: O5_24  and  C16_25 
ROOT
HETATM    1  C1  UNL     1      13.349  -9.987   7.971  1.00  0.00     0.144 C 
HETATM    2  N1  UNL     1      12.183 -10.804   8.186  1.00  0.00    -0.193 NA
HETATM    3  O1  UNL     1      12.463 -12.101   8.344  1.00  0.00    -0.301 OA
HETATM    4  C2  UNL     1      11.381 -12.859   7.873  1.00  0.00     0.227 C 
HETATM    5  C3  UNL     1      10.305 -11.879   7.599  1.00  0.00     0.171 C 
HETATM    6  O2  UNL     1       9.473 -12.117   6.550  1.00  0.00    -0.356 OA
HETATM    7  C4  UNL     1       8.434 -11.163   6.640  1.00  0.00     0.246 C 
HETATM    8  N3  UNL     1       8.897  -9.940   7.259  1.00  0.00    -0.298 N 
HETATM    9  C15 UNL     1       7.911  -9.118   7.859  1.00  0.00     0.365 C 
HETATM   10  O4  UNL     1       6.678  -9.408   7.870  1.00  0.00    -0.238 OA
HETATM   11  C20 UNL     1      10.269  -9.488   7.317  1.00  0.00     0.155 C 
HETATM   12  C21 UNL     1      11.179 -10.674   7.187  1.00  0.00     0.135 C 
ENDROOT
BRANCH   7  13
HETATM   13  C5  UNL     1       7.798 -10.930   5.313  1.00  0.00     0.176 C 
BRANCH  13  14
HETATM   14  N2  UNL     1       8.442 -11.719   4.298  1.00  0.00    -0.357 N 
HETATM   15  C6  UNL     1       8.237 -11.630   2.918  1.00  0.00     0.217 C 
HETATM   16  O3  UNL     1       7.431 -10.805   2.426  1.00  0.00    -0.274 OA
ATOM     17  H2  UNL     1       9.116 -12.414   4.617  1.00  0.00     0.162 HD
BRANCH  15  18
HETATM   18  C7  UNL     1       8.998 -12.542   2.005  1.00  0.00     0.103 C 
BRANCH  18  19
HETATM   19  C8  UNL     1       8.318 -13.869   1.983  1.00  0.00     0.014 C 
BRANCH  19  20
HETATM   20  C9  UNL     1       9.269 -15.044   1.980  1.00  0.00    -0.014 C 
HETATM   21  C10 UNL     1       9.757 -15.282   3.372  1.00  0.00     0.004 C 
HETATM   22  C11 UNL     1      10.447 -16.596   3.578  1.00  0.00     0.000 C 
HETATM   23  C12 UNL     1      10.326 -17.523   2.393  1.00  0.00     0.000 C 
HETATM   24  C13 UNL     1       8.872 -17.535   2.000  1.00  0.00     0.000 C 
HETATM   25  C14 UNL     1       8.605 -16.202   1.334  1.00  0.00     0.004 C 
ENDBRANCH  19  20
ENDBRANCH  18  19
ENDBRANCH  15  18
ENDBRANCH  13  14
ENDBRANCH   7  13
BRANCH   9  26
HETATM   26  O5  UNL     1       8.239  -7.922   8.481  1.00  0.00    -0.294 OA
BRANCH  26  27
HETATM   27  C16 UNL     1       8.066  -6.662   7.906  1.00  0.00     0.061 C 
HETATM   28  C17 UNL     1       6.897  -5.925   8.555  1.00  0.00     0.046 C 
HETATM   29  C18 UNL     1       9.304  -5.838   8.207  1.00  0.00     0.046 C 
HETATM   30  C19 UNL     1       7.892  -6.695   6.409  1.00  0.00     0.046 C 
ENDBRANCH  26  27
ENDBRANCH   9  26
TORSDOF 7
ENDMDL
MODEL 2
REMARK VINA RESULT: -7.493994735      1.294      4.238
REMARK  7 active torsions:
REMARK  status: ('A' for Active; 'I' for Inactive)
REMARK    1  A    between atoms: C4_7  and  C5_8 
REMARK    2  A    between atoms: C5_8  and  N2_9 
REMARK       I    between atoms: N2_9  and  C6_11 
REMARK    3  A    between atoms: C6_11  and  C7_13 
REMARK    4  A    between atoms: C7_13  and  C8_14 
REMARK    5  A    between atoms: C8_14  and  C9_15 
REMARK       I    between atoms: N3_21  and  C15_22 
REMARK    6  A    between atoms: C15_22  and  O5_24 
REMARK    7  A    between atoms: O5_24  and  C16_25 
ROOT
HETATM    1  C1  UNL     1       8.269  -7.758  10.666  1.00  0.00     0.144 C 
HETATM    2  N1  UNL     1       8.587  -7.630   9.268  1.00  0.00    -0.193 NA
HETATM    3  O1  UNL     1       8.178  -6.477   8.731  1.00  0.00    -0.301 OA
HETATM    4  C2  UNL     1       7.891  -6.686   7.375  1.00  0.00     0.227 C 
HETATM    5  C3  UNL     1       8.373  -8.055   7.077  1.00  0.00     0.171 C 
HETATM    6  O2  UNL     1       7.674  -8.799   6.179  1.00  0.00    -0.356 OA
HETATM    7  C4  UNL     1       8.450  -9.953   5.928  1.00  0.00     0.246 C 
HETATM    8  N3  UNL     1       9.246 -10.312   7.082  1.00  0.00    -0.298 N 
HETATM    9  C15 UNL     1      10.400 -11.097   6.840  1.00  0.00     0.365 C 
HETATM   10  O4  UNL     1      10.748 -11.483   5.684  1.00  0.00    -0.238 OA
HETATM   11  C20 UNL     1       8.965  -9.941   8.451  1.00  0.00     0.155 C 
HETATM   12  C21 UNL     1       8.120  -8.701   8.457  1.00  0.00     0.135 C 
ENDROOT
BRANCH   7  13
HETATM   13  C5  UNL     1       7.603 -11.079   5.442  1.00  0.00     0.176 C 
BRANCH  13  14
HETATM   14  N2  UNL     1       8.276 -11.803   4.398  1.00  0.00    -0.357 N 
HETATM   15  C6  UNL     1       8.159 -11.582   3.022  1.00  0.00     0.217 C 
HETATM   16  O3  UNL     1       7.418 -10.680   2.563  1.00  0.00    -0.274 OA
ATOM     17  H2  UNL     1       8.901 -12.554   4.690  1.00  0.00     0.162 HD
BRANCH  15  18
HETATM   18  C7  UNL     1       8.937 -12.442   2.075  1.00  0.00     0.103 C 
BRANCH  18  19
HETATM   19  C8  UNL     1       8.275 -13.776   1.989  1.00  0.00     0.014 C 
BRANCH  19  20
HETATM   20  C9  UNL     1       9.239 -14.940   1.988  1.00  0.00    -0.014 C 
HETATM   21  C10 UNL     1       9.736 -15.164   3.380  1.00  0.00     0.004 C 
HETATM   22  C11 UNL     1      10.442 -16.468   3.590  1.00  0.00     0.000 C 
HETATM   23  C12 UNL     1      10.327 -17.403   2.411  1.00  0.00     0.000 C 
HETATM   24  C13 UNL     1       8.872 -17.435   2.024  1.00  0.00     0.000 C 
HETATM   25  C14 UNL     1       8.587 -16.108   1.352  1.00  0.00     0.004 C 
ENDBRANCH  19  20
ENDBRANCH  18  19
ENDBRANCH  15  18
ENDBRANCH  13  14
ENDBRANCH   7  13
BRANCH   9  26
HETATM   26  O5  UNL     1      11.237 -11.500   7.871  1.00  0.00    -0.294 OA
BRANCH  26  27
HETATM   27  C16 UNL     1      11.214 -12.768   8.454  1.00  0.00     0.061 C 
HETATM   28  C17 UNL     1      10.287 -13.704   7.681  1.00  0.00     0.046 C 
HETATM   29  C18 UNL     1      12.605 -13.361   8.337  1.00  0.00     0.046 C 
HETATM   30  C19 UNL     1      10.841 -12.759   9.914  1.00  0.00     0.046 C 
ENDBRANCH  26  27
ENDBRANCH   9  26
TORSDOF 7
ENDMDL
MODEL 3
REMARK VINA RESULT: -7.467354644      0.784      1.211
REMARK  7 active torsions:
REMARK  status: ('A' for Active; 'I' for Inactive)
REMARK    1  A    between atoms: C4_7  and  C5_8 
REMARK    2  A    between atoms: C5_8  and  N2_9 
REMARK       I    between atoms: N2_9  and  C6_11 
REMARK    3  A    between atoms: C6_11  and  C7_13 
REMARK    4  A    between atoms: C7_13  and  C8_14 
REMARK    5  A    between atoms: C8_14  and  C9_15 
REMARK       I    between atoms: N3_21  and  C15_22 
REMARK    6  A    between atoms: C15_22  and  O5_24 
REMARK    7  A    between atoms: O5_24  and  C16_25 
ROOT
HETATM    1  C1  UNL     1      13.383  -9.996   7.857  1.00  0.00     0.144 C 
HETATM    2  N1  UNL     1      12.175 -10.729   8.133  1.00  0.00    -0.193 NA
HETATM    3  O1  UNL     1      12.383 -12.025   8.382  1.00  0.00    -0.301 OA
HETATM    4  C2  UNL     1      11.257 -12.752   7.969  1.00  0.00     0.227 C 
HETATM    5  C3  UNL     1      10.236 -11.735   7.629  1.00  0.00     0.171 C 
HETATM    6  O2  UNL     1       9.385 -12.000   6.601  1.00  0.00    -0.356 OA
HETATM    7  C4  UNL     1       8.402 -10.985   6.626  1.00  0.00     0.246 C 
HETATM    8  N3  UNL     1       8.937  -9.749   7.155  1.00  0.00    -0.298 N 
HETATM    9  C15 UNL     1       8.002  -8.832   7.697  1.00  0.00     0.365 C 
HETATM   10  O4  UNL     1       6.755  -9.051   7.732  1.00  0.00    -0.238 OA
HETATM   11  C20 UNL     1      10.332  -9.372   7.177  1.00  0.00     0.155 C 
HETATM   12  C21 UNL     1      11.173 -10.614   7.129  1.00  0.00     0.135 C 
ENDROOT
BRANCH   7  13
HETATM   13  C5  UNL     1       7.771 -10.811   5.287  1.00  0.00     0.176 C 
BRANCH  13  14
HETATM   14  N2  UNL     1       8.438 -11.622   4.305  1.00  0.00    -0.357 N 
HETATM   15  C6  UNL     1       8.255 -11.573   2.919  1.00  0.00     0.217 C 
HETATM   16  O3  UNL     1       7.449 -10.769   2.393  1.00  0.00    -0.274 OA
ATOM     17  H2  UNL     1       9.114 -12.301   4.654  1.00  0.00     0.162 HD
BRANCH  15  18
HETATM   18  C7  UNL     1       9.038 -12.502   2.045  1.00  0.00     0.103 C 
BRANCH  18  19
HETATM   19  C8  UNL     1       8.350 -13.825   2.017  1.00  0.00     0.014 C 
BRANCH  19  20
HETATM   20  C9  UNL     1       9.293 -15.007   2.017  1.00  0.00    -0.014 C 
HETATM   21  C10 UNL     1       9.758 -15.262   3.415  1.00  0.00     0.004 C 
HETATM   22  C11 UNL     1      10.435 -16.582   3.617  1.00  0.00     0.000 C 
HETATM   23  C12 UNL     1      10.327 -17.496   2.421  1.00  0.00     0.000 C 
HETATM   24  C13 UNL     1       8.880 -17.495   2.005  1.00  0.00     0.000 C 
HETATM   25  C14 UNL     1       8.632 -16.153   1.349  1.00  0.00     0.004 C 
ENDBRANCH  19  20
ENDBRANCH  18  19
ENDBRANCH  15  18
ENDBRANCH  13  14
ENDBRANCH   7  13
BRANCH   9  26
HETATM   26  O5  UNL     1       8.401  -7.615   8.231  1.00  0.00    -0.294 OA
BRANCH  26  27
HETATM   27  C16 UNL     1       8.506  -7.352   9.598  1.00  0.00     0.061 C 
HETATM   28  C17 UNL     1       9.668  -6.403   9.880  1.00  0.00     0.046 C 
HETATM   29  C18 UNL     1       7.249  -6.621  10.030  1.00  0.00     0.046 C 
HETATM   30  C19 UNL     1       8.630  -8.590  10.448  1.00  0.00     0.046 C 
ENDBRANCH  26  27
ENDBRANCH   9  26
TORSDOF 7
ENDMDL
MODEL 4
REMARK VINA RESULT: -7.386957182      1.929      2.769
REMARK  7 active torsions:
REMARK  status: ('A' for Active; 'I' for Inactive)
REMARK    1  A    between atoms: C4_7  and  C5_8 
REMARK    2  A    between atoms: C5_8  and  N2_9 
REMARK       I    between atoms: N2_9  and  C6_11 
REMARK    3  A    between atoms: C6_11  and  C7_13 
REMARK    4  A    between atoms: C7_13  and  C8_14 
REMARK    5  A    between atoms: C8_14  and  C9_15 
REMARK       I    between atoms: N3_21  and  C15_22 
REMARK    6  A    between atoms: C15_22  and  O5_24 
REMARK    7  A    between atoms: O5_24  and  C16_25 
ROOT
HETATM    1  C1  UNL     1      13.484  -9.601   7.990  1.00  0.00     0.144 C 
HETATM    2  N1  UNL     1      12.275 -10.345   8.226  1.00  0.00    -0.193 NA
HETATM    3  O1  UNL     1      12.413 -11.661   8.040  1.00  0.00    -0.301 OA
HETATM    4  C2  UNL     1      11.186 -12.191   7.618  1.00  0.00     0.227 C 
HETATM    5  C3  UNL     1      10.209 -11.087   7.768  1.00  0.00     0.171 C 
HETATM    6  O2  UNL     1       9.200 -10.997   6.860  1.00  0.00    -0.356 OA
HETATM    7  C4  UNL     1       8.315 -10.009   7.346  1.00  0.00     0.246 C 
HETATM    8  N3  UNL     1       9.016  -9.012   8.125  1.00  0.00    -0.298 N 
HETATM    9  C15 UNL     1       8.246  -8.278   9.060  1.00  0.00     0.365 C 
HETATM   10  O4  UNL     1       7.003  -8.458   9.231  1.00  0.00    -0.238 OA
HETATM   11  C20 UNL     1      10.425  -8.704   8.032  1.00  0.00     0.155 C 
HETATM   12  C21 UNL     1      11.150  -9.896   7.480  1.00  0.00     0.135 C 
ENDROOT
BRANCH   7  13
HETATM   13  C5  UNL     1       7.511  -9.413   6.241  1.00  0.00     0.176 C 
BRANCH  13  14
HETATM   14  N2  UNL     1       6.965 -10.444   5.401  1.00  0.00    -0.357 N 
HETATM   15  C6  UNL     1       6.083 -10.267   4.331  1.00  0.00     0.217 C 
HETATM   16  O3  UNL     1       5.677  -9.128   3.997  1.00  0.00    -0.274 OA
ATOM     17  H2  UNL     1       7.250 -11.401   5.606  1.00  0.00     0.162 HD
BRANCH  15  18
HETATM   18  C7  UNL     1       5.612 -11.465   3.565  1.00  0.00     0.103 C 
BRANCH  18  19
HETATM   19  C8  UNL     1       6.587 -11.746   2.472  1.00  0.00     0.014 C 
BRANCH  19  20
HETATM   20  C9  UNL     1       7.554 -12.865   2.786  1.00  0.00    -0.014 C 
HETATM   21  C10 UNL     1       7.475 -13.896   1.707  1.00  0.00     0.004 C 
HETATM   22  C11 UNL     1       8.591 -14.895   1.714  1.00  0.00     0.000 C 
HETATM   23  C12 UNL     1       9.699 -14.542   2.676  1.00  0.00     0.000 C 
HETATM   24  C13 UNL     1      10.040 -13.095   2.431  1.00  0.00     0.000 C 
HETATM   25  C14 UNL     1       8.900 -12.290   3.018  1.00  0.00     0.004 C 
ENDBRANCH  19  20
ENDBRANCH  18  19
ENDBRANCH  15  18
ENDBRANCH  13  14
ENDBRANCH   7  13
BRANCH   9  26
HETATM   26  O5  UNL     1       8.813  -7.297   9.861  1.00  0.00    -0.294 OA
BRANCH  26  27
HETATM   27  C16 UNL     1       8.994  -7.413  11.241  1.00  0.00     0.061 C 
HETATM   28  C17 UNL     1       9.187  -8.874  11.641  1.00  0.00     0.046 C 
HETATM   29  C18 UNL     1      10.283  -6.701  11.604  1.00  0.00     0.046 C 
HETATM   30  C19 UNL     1       7.886  -6.795  12.054  1.00  0.00     0.046 C 
ENDBRANCH  26  27
ENDBRANCH   9  26
TORSDOF 7
ENDMDL
MODEL 5
REMARK VINA RESULT: -7.341749943      2.106      4.833
REMARK  7 active torsions:
REMARK  status: ('A' for Active; 'I' for Inactive)
REMARK    1  A    between atoms: C4_7  and  C5_8 
REMARK    2  A    between atoms: C5_8  and  N2_9 
REMARK       I    between atoms: N2_9  and  C6_11 
REMARK    3  A    between atoms: C6_11  and  C7_13 
REMARK    4  A    between atoms: C7_13  and  C8_14 
REMARK    5  A    between atoms: C8_14  and  C9_15 
REMARK       I    between atoms: N3_21  and  C15_22 
REMARK    6  A    between atoms: C15_22  and  O5_24 
REMARK    7  A    between atoms: O5_24  and  C16_25 
ROOT
HETATM    1  C1  UNL     1      12.931  -6.627  10.091  1.00  0.00     0.144 C 
HETATM    2  N1  UNL     1      12.409  -6.885   8.774  1.00  0.00    -0.193 NA
HETATM    3  O1  UNL     1      12.152  -5.775   8.076  1.00  0.00    -0.301 OA
HETATM    4  C2  UNL     1      11.091  -6.029   7.195  1.00  0.00     0.227 C 
HETATM    5  C3  UNL     1      10.856  -7.489   7.274  1.00  0.00     0.171 C 
HETATM    6  O2  UNL     1       9.578  -7.940   7.157  1.00  0.00    -0.356 OA
HETATM    7  C4  UNL     1       9.659  -9.347   7.057  1.00  0.00     0.246 C 
HETATM    8  N3  UNL     1      10.811  -9.858   7.768  1.00  0.00    -0.298 N 
HETATM    9  C15 UNL     1      11.299 -11.124   7.362  1.00  0.00     0.365 C 
HETATM   10  O4  UNL     1      10.777 -11.803   6.428  1.00  0.00    -0.238 OA
HETATM   11  C20 UNL     1      11.501  -9.192   8.850  1.00  0.00     0.155 C 
HETATM   12  C21 UNL     1      11.254  -7.715   8.749  1.00  0.00     0.135 C 
ENDROOT
BRANCH   7  13
HETATM   13  C5  UNL     1       8.386  -9.993   7.486  1.00  0.00     0.176 C 
BRANCH  13  14
HETATM   14  N2  UNL     1       7.722 -10.595   6.362  1.00  0.00    -0.357 N 
HETATM   15  C6  UNL     1       6.955  -9.935   5.397  1.00  0.00     0.217 C 
HETATM   16  O3  UNL     1       6.778  -8.694   5.435  1.00  0.00    -0.274 OA
ATOM     17  H2  UNL     1       7.820 -11.604   6.258  1.00  0.00     0.162 HD
BRANCH  15  18
HETATM   18  C7  UNL     1       6.330 -10.729   4.292  1.00  0.00     0.103 C 
BRANCH  18  19
HETATM   19  C8  UNL     1       7.353 -10.958   3.231  1.00  0.00     0.014 C 
BRANCH  19  20
HETATM   20  C9  UNL     1       7.901 -12.366   3.202  1.00  0.00    -0.014 C 
HETATM   21  C10 UNL     1       7.358 -13.078   2.005  1.00  0.00     0.004 C 
HETATM   22  C11 UNL     1       8.054 -14.361   1.671  1.00  0.00     0.000 C 
HETATM   23  C12 UNL     1       9.311 -14.584   2.476  1.00  0.00     0.000 C 
HETATM   24  C13 UNL     1      10.103 -13.304   2.404  1.00  0.00     0.000 C 
HETATM   25  C14 UNL     1       9.379 -12.313   3.291  1.00  0.00     0.004 C 
ENDBRANCH  19  20
ENDBRANCH  18  19
ENDBRANCH  15  18
ENDBRANCH  13  14
ENDBRANCH   7  13
BRANCH   9  26
HETATM   26  O5  UNL     1      12.398 -11.712   7.973  1.00  0.00    -0.294 OA
BRANCH  26  27
HETATM   27  C16 UNL     1      12.317 -12.705   8.951  1.00  0.00     0.061 C 
HETATM   28  C17 UNL     1      10.868 -12.935   9.373  1.00  0.00     0.046 C 
HETATM   29  C18 UNL     1      12.788 -14.008   8.333  1.00  0.00     0.046 C 
HETATM   30  C19 UNL     1      13.174 -12.438  10.161  1.00  0.00     0.046 C 
ENDBRANCH  26  27
ENDBRANCH   9  26
TORSDOF 7
ENDMDL
