MODEL 1
REMARK VINA RESULT: -5.548549880      0.000      0.000
REMARK  8 active torsions:
REMARK  status: ('A' for Active; 'I' for Inactive)
REMARK    1  A    between atoms: O1_2  and  C2_3 
REMARK    2  A    between atoms: C2_3  and  C3_5 
REMARK    3  A    between atoms: C3_5  and  C21_29 
REMARK    4  A    between atoms: N1_8  and  C15_23 
REMARK    5  A    between atoms: C7_10  and  C8_11 
REMARK    6  A    between atoms: C10_13  and  C11_14 
REMARK    7  A    between atoms: C11_14  and  O3_16 
REMARK    8  A    between atoms: C14_19  and  N2_20 
ROOT
HETATM    1  C3  UNL     1      10.940  -8.814   8.375  1.00  0.00     0.105 C 
HETATM    2  C4  UNL     1      10.848  -7.832   7.196  1.00  0.00     0.071 C 
HETATM    3  C5  UNL     1       9.498  -7.215   7.018  1.00  0.00     0.065 C 
HETATM    4  N1  UNL     1       8.681  -7.600   8.056  1.00  0.00    -0.368 N 
HETATM    5  C6  UNL     1       8.043  -8.828   7.906  1.00  0.00     0.074 C 
HETATM    6  C7  UNL     1       8.829 -10.058   7.604  1.00  0.00     0.082 C 
HETATM    7  C14 UNL     1      10.282 -10.045   7.922  1.00  0.00     0.087 C 
ENDROOT
BRANCH   6   8
HETATM    8  C8  UNL     1       8.522 -10.352   6.131  1.00  0.00     0.001 C 
HETATM    9  C9  UNL     1       7.051 -10.321   5.785  1.00  0.00     0.012 C 
HETATM   10  C10 UNL     1       7.354 -11.381   4.746  1.00  0.00     0.015 C 
HETATM   11  C13 UNL     1       8.498 -11.789   5.703  1.00  0.00     0.012 C 
BRANCH  10  12
HETATM   12  C11 UNL     1       7.771 -10.774   3.458  1.00  0.00     0.118 C 
HETATM   13  C12 UNL     1       8.266 -11.795   2.453  1.00  0.00     0.040 C 
BRANCH  12  14
HETATM   14  O3  UNL     1       6.660 -10.121   2.896  1.00  0.00    -0.396 OA
ATOM     15  H3  UNL     1       6.743 -10.149   1.950  1.00  0.00     0.210 HD
ENDBRANCH  12  14
ENDBRANCH  10  12
ENDBRANCH   6   8
BRANCH   7  16
HETATM   16  N2  UNL     1      10.754 -11.295   8.481  1.00  0.00    -0.122 N 
HETATM   17  O4  UNL     1      10.601 -11.647   9.660  1.00  0.00    -0.532 OA
HETATM   18  O5  UNL     1      11.464 -12.243   7.763  1.00  0.00    -0.532 OA
ENDBRANCH   7  16
BRANCH   4  19
HETATM   19  C15 UNL     1       8.101  -6.660   8.942  1.00  0.00     0.088 C 
HETATM   20  C16 UNL     1       6.804  -7.118   9.539  1.00  0.00     0.026 C 
HETATM   21  C17 UNL     1       5.947  -7.206   8.314  1.00  0.00     0.012 C 
HETATM   22  C18 UNL     1       6.676  -6.568   7.213  1.00  0.00    -0.029 A 
HETATM   23  C19 UNL     1       7.473  -5.599   7.970  1.00  0.00     0.036 C 
HETATM   24  C20 UNL     1       5.870  -6.525   6.018  1.00  0.00     0.022 A 
HETATM   25  C21 UNL     1       7.306  -6.786   5.983  1.00  0.00    -0.013 A 
HETATM   26  C22 UNL     1       7.939  -5.555   5.290  1.00  0.00     0.018 C 
ENDBRANCH   4  19
BRANCH   1  27
HETATM   27  C2  UNL     1      12.426  -9.078   8.386  1.00  0.00     0.274 C 
HETATM   28  O2  UNL     1      13.027  -9.218   7.264  1.00  0.00    -0.264 OA
BRANCH  27  29
HETATM   29  O1  UNL     1      13.204  -9.181   9.497  1.00  0.00    -0.326 OA
HETATM   30  C1  UNL     1      13.900 -10.327   9.940  1.00  0.00     0.213 C 
ENDBRANCH  27  29
ENDBRANCH   1  27
TORSDOF 8
ENDMDL
MODEL 2
REMARK VINA RESULT: -5.436568868      1.426      1.807
REMARK  8 active torsions:
REMARK  status: ('A' for Active; 'I' for Inactive)
REMARK    1  A    between atoms: O1_2  and  C2_3 
REMARK    2  A    between atoms: C2_3  and  C3_5 
REMARK    3  A    between atoms: C3_5  and  C21_29 
REMARK    4  A    between atoms: N1_8  and  C15_23 
REMARK    5  A    between atoms: C7_10  and  C8_11 
REMARK    6  A    between atoms: C10_13  and  C11_14 
REMARK    7  A    between atoms: C11_14  and  O3_16 
REMARK    8  A    between atoms: C14_19  and  N2_20 
ROOT
HETATM    1  C3  UNL     1       9.686  -7.422   7.899  1.00  0.00     0.105 C 
HETATM    2  C4  UNL     1       9.583  -6.699   6.548  1.00  0.00     0.071 C 
HETATM    3  C5  UNL     1       8.183  -6.390   6.124  1.00  0.00     0.065 C 
HETATM    4  N1  UNL     1       7.316  -6.735   7.135  1.00  0.00    -0.368 N 
HETATM    5  C6  UNL     1       6.918  -8.068   7.169  1.00  0.00     0.074 C 
HETATM    6  C7  UNL     1       7.932  -9.160   7.190  1.00  0.00     0.082 C 
HETATM    7  C14 UNL     1       9.309  -8.817   7.636  1.00  0.00     0.087 C 
ENDROOT
BRANCH   6   8
HETATM    8  C8  UNL     1       7.871  -9.761   5.780  1.00  0.00     0.001 C 
HETATM    9  C9  UNL     1       6.470  -9.993   5.265  1.00  0.00     0.012 C 
HETATM   10  C10 UNL     1       7.031 -11.177   4.504  1.00  0.00     0.015 C 
HETATM   11  C13 UNL     1       8.065 -11.242   5.651  1.00  0.00     0.012 C 
BRANCH  10  12
HETATM   12  C11 UNL     1       7.559 -10.768   3.178  1.00  0.00     0.118 C 
HETATM   13  C12 UNL     1       8.300 -11.883   2.465  1.00  0.00     0.040 C 
BRANCH  12  14
HETATM   14  O3  UNL     1       6.474 -10.387   2.369  1.00  0.00    -0.396 OA
ATOM     15  H3  UNL     1       6.817 -10.027   1.559  1.00  0.00     0.210 HD
ENDBRANCH  12  14
ENDBRANCH  10  12
ENDBRANCH   6   8
BRANCH   7  16
HETATM   16  N2  UNL     1       9.908  -9.837   8.472  1.00  0.00    -0.122 N 
HETATM   17  O4  UNL     1      10.648 -10.744   8.064  1.00  0.00    -0.532 OA
HETATM   18  O5  UNL     1       9.699  -9.936   9.837  1.00  0.00    -0.532 OA
ENDBRANCH   7  16
BRANCH   4  19
HETATM   19  C15 UNL     1       6.476  -5.781   7.761  1.00  0.00     0.088 C 
HETATM   20  C16 UNL     1       5.202  -6.362   8.298  1.00  0.00     0.026 C 
HETATM   21  C17 UNL     1       4.544  -6.813   7.030  1.00  0.00     0.012 C 
HETATM   22  C18 UNL     1       5.301  -6.249   5.909  1.00  0.00    -0.029 A 
HETATM   23  C19 UNL     1       5.821  -5.034   6.544  1.00  0.00     0.036 C 
HETATM   24  C20 UNL     1       4.668  -6.560   4.651  1.00  0.00     0.022 A 
HETATM   25  C21 UNL     1       6.119  -6.553   4.814  1.00  0.00    -0.013 A 
HETATM   26  C22 UNL     1       6.631  -5.363   3.968  1.00  0.00     0.018 C 
ENDBRANCH   4  19
BRANCH   1  27
HETATM   27  C2  UNL     1      11.182  -7.394   8.103  1.00  0.00     0.274 C 
HETATM   28  O2  UNL     1      11.937  -7.569   7.084  1.00  0.00    -0.264 OA
BRANCH  27  29
HETATM   29  O1  UNL     1      11.815  -7.194   9.290  1.00  0.00    -0.326 OA
HETATM   30  C1  UNL     1      12.740  -8.062   9.913  1.00  0.00     0.213 C 
ENDBRANCH  27  29
ENDBRANCH   1  27
TORSDOF 8
ENDMDL
MODEL 3
REMARK VINA RESULT: -5.430416748      2.417      3.606
REMARK  8 active torsions:
REMARK  status: ('A' for Active; 'I' for Inactive)
REMARK    1  A    between atoms: O1_2  and  C2_3 
REMARK    2  A    between atoms: C2_3  and  C3_5 
REMARK    3  A    between atoms: C3_5  and  C21_29 
REMARK    4  A    between atoms: N1_8  and  C15_23 
REMARK    5  A    between atoms: C7_10  and  C8_11 
REMARK    6  A    between atoms: C10_13  and  C11_14 
REMARK    7  A    between atoms: C11_14  and  O3_16 
REMARK    8  A    between atoms: C14_19  and  N2_20 
ROOT
HETATM    1  C3  UNL     1       7.978  -6.337   7.362  1.00  0.00     0.105 C 
HETATM    2  C4  UNL     1       8.215  -5.933   5.898  1.00  0.00     0.071 C 
HETATM    3  C5  UNL     1       6.982  -5.942   5.053  1.00  0.00     0.065 C 
HETATM    4  N1  UNL     1       5.889  -6.202   5.847  1.00  0.00    -0.368 N 
HETATM    5  C6  UNL     1       5.622  -7.545   6.096  1.00  0.00     0.074 C 
HETATM    6  C7  UNL     1       6.679  -8.437   6.652  1.00  0.00     0.082 C 
HETATM    7  C14 UNL     1       7.824  -7.797   7.354  1.00  0.00     0.087 C 
ENDROOT
BRANCH   6   8
HETATM    8  C8  UNL     1       7.094  -9.317   5.467  1.00  0.00     0.001 C 
HETATM    9  C9  UNL     1       5.936  -9.915   4.702  1.00  0.00     0.012 C 
HETATM   10  C10 UNL     1       6.836 -11.102   4.423  1.00  0.00     0.015 C 
HETATM   11  C13 UNL     1       7.506 -10.728   5.765  1.00  0.00     0.012 C 
BRANCH  10  12
HETATM   12  C11 UNL     1       7.657 -10.884   3.206  1.00  0.00     0.118 C 
HETATM   13  C12 UNL     1       8.538 -12.070   2.863  1.00  0.00     0.040 C 
BRANCH  12  14
HETATM   14  O3  UNL     1       6.790 -10.665   2.120  1.00  0.00    -0.396 OA
ATOM     15  H3  UNL     1       7.282 -10.781   1.316  1.00  0.00     0.210 HD
ENDBRANCH  12  14
ENDBRANCH  10  12
ENDBRANCH   6   8
BRANCH   7  16
HETATM   16  N2  UNL     1       8.238  -8.516   8.541  1.00  0.00    -0.122 N 
HETATM   17  O4  UNL     1       9.098  -9.409   8.566  1.00  0.00    -0.532 OA
HETATM   18  O5  UNL     1       7.695  -8.309   9.797  1.00  0.00    -0.532 OA
ENDBRANCH   7  16
BRANCH   4  19
HETATM   19  C15 UNL     1       4.818  -5.283   5.974  1.00  0.00     0.088 C 
HETATM   20  C16 UNL     1       3.513  -5.928   6.333  1.00  0.00     0.026 C 
HETATM   21  C17 UNL     1       3.273  -6.770   5.118  1.00  0.00     0.012 C 
HETATM   22  C18 UNL     1       4.244  -6.367   4.097  1.00  0.00    -0.029 A 
HETATM   23  C19 UNL     1       4.445  -4.967   4.482  1.00  0.00     0.036 C 
HETATM   24  C20 UNL     1       4.011  -7.068   2.858  1.00  0.00     0.022 A 
HETATM   25  C21 UNL     1       5.354  -6.778   3.351  1.00  0.00    -0.013 A 
HETATM   26  C22 UNL     1       5.952  -5.753   2.358  1.00  0.00     0.018 C 
ENDBRANCH   4  19
BRANCH   1  27
HETATM   27  C2  UNL     1       9.336  -6.034   7.945  1.00  0.00     0.274 C 
HETATM   28  O2  UNL     1       9.393  -5.450   9.084  1.00  0.00    -0.264 OA
BRANCH  27  29
HETATM   29  O1  UNL     1      10.531  -6.329   7.365  1.00  0.00    -0.326 OA
HETATM   30  C1  UNL     1      11.630  -6.976   7.972  1.00  0.00     0.213 C 
ENDBRANCH  27  29
ENDBRANCH   1  27
TORSDOF 8
ENDMDL
MODEL 4
REMARK VINA RESULT: -5.283949454      3.443      5.056
REMARK  8 active torsions:
REMARK  status: ('A' for Active; 'I' for Inactive)
REMARK    1  A    between atoms: O1_2  and  C2_3 
REMARK    2  A    between atoms: C2_3  and  C3_5 
REMARK    3  A    between atoms: C3_5  and  C21_29 
REMARK    4  A    between atoms: N1_8  and  C15_23 
REMARK    5  A    between atoms: C7_10  and  C8_11 
REMARK    6  A    between atoms: C10_13  and  C11_14 
REMARK    7  A    between atoms: C11_14  and  O3_16 
REMARK    8  A    between atoms: C14_19  and  N2_20 
ROOT
HETATM    1  C3  UNL     1       7.102  -5.458   6.291  1.00  0.00     0.105 C 
HETATM    2  C4  UNL     1       7.561  -5.356   4.828  1.00  0.00     0.071 C 
HETATM    3  C5  UNL     1       6.473  -5.582   3.828  1.00  0.00     0.065 C 
HETATM    4  N1  UNL     1       5.271  -5.711   4.485  1.00  0.00    -0.368 N 
HETATM    5  C6  UNL     1       4.973  -6.982   4.966  1.00  0.00     0.074 C 
HETATM    6  C7  UNL     1       5.933  -7.703   5.849  1.00  0.00     0.082 C 
HETATM    7  C14 UNL     1       6.955  -6.893   6.565  1.00  0.00     0.087 C 
ENDROOT
BRANCH   6   8
HETATM    8  C8  UNL     1       6.529  -8.793   4.950  1.00  0.00     0.001 C 
HETATM    9  C9  UNL     1       5.501  -9.622   4.215  1.00  0.00     0.012 C 
HETATM   10  C10 UNL     1       6.475 -10.778   4.317  1.00  0.00     0.015 C 
HETATM   11  C13 UNL     1       6.955 -10.073   5.606  1.00  0.00     0.012 C 
BRANCH  10  12
HETATM   12  C11 UNL     1       7.433 -10.780   3.184  1.00  0.00     0.118 C 
HETATM   13  C12 UNL     1       8.513 -11.836   3.322  1.00  0.00     0.040 C 
BRANCH  12  14
HETATM   14  O3  UNL     1       6.720 -11.047   2.002  1.00  0.00    -0.396 OA
ATOM     15  H3  UNL     1       5.808 -11.191   2.228  1.00  0.00     0.210 HD
ENDBRANCH  12  14
ENDBRANCH  10  12
ENDBRANCH   6   8
BRANCH   7  16
HETATM   16  N2  UNL     1       7.183  -7.337   7.925  1.00  0.00    -0.122 N 
HETATM   17  O4  UNL     1       6.457  -7.062   8.891  1.00  0.00    -0.532 OA
HETATM   18  O5  UNL     1       8.266  -8.106   8.314  1.00  0.00    -0.532 OA
ENDBRANCH   7  16
BRANCH   4  19
HETATM   19  C15 UNL     1       4.191  -4.823   4.255  1.00  0.00     0.088 C 
HETATM   20  C16 UNL     1       2.844  -5.453   4.448  1.00  0.00     0.026 C 
HETATM   21  C17 UNL     1       2.856  -6.479   3.356  1.00  0.00     0.012 C 
HETATM   22  C18 UNL     1       4.009  -6.201   2.494  1.00  0.00    -0.029 A 
HETATM   23  C19 UNL     1       4.121  -4.752   2.687  1.00  0.00     0.036 C 
HETATM   24  C20 UNL     1       4.031  -7.090   1.359  1.00  0.00     0.022 A 
HETATM   25  C21 UNL     1       5.248  -6.679   2.054  1.00  0.00    -0.013 A 
HETATM   26  C22 UNL     1       6.026  -5.795   1.049  1.00  0.00     0.018 C 
ENDBRANCH   4  19
BRANCH   1  27
HETATM   27  C2  UNL     1       8.353  -4.993   6.996  1.00  0.00     0.274 C 
HETATM   28  O2  UNL     1       9.487  -5.286   6.478  1.00  0.00    -0.264 OA
BRANCH  27  29
HETATM   29  O1  UNL     1       8.391  -4.277   8.151  1.00  0.00    -0.326 OA
HETATM   30  C1  UNL     1       7.336  -3.528   8.718  1.00  0.00     0.213 C 
ENDBRANCH  27  29
ENDBRANCH   1  27
TORSDOF 8
ENDMDL
MODEL 5
REMARK VINA RESULT: -5.214841466      1.342      1.664
REMARK  8 active torsions:
REMARK  status: ('A' for Active; 'I' for Inactive)
REMARK    1  A    between atoms: O1_2  and  C2_3 
REMARK    2  A    between atoms: C2_3  and  C3_5 
REMARK    3  A    between atoms: C3_5  and  C21_29 
REMARK    4  A    between atoms: N1_8  and  C15_23 
REMARK    5  A    between atoms: C7_10  and  C8_11 
REMARK    6  A    between atoms: C10_13  and  C11_14 
REMARK    7  A    between atoms: C11_14  and  O3_16 
REMARK    8  A    between atoms: C14_19  and  N2_20 
ROOT
HETATM    1  C3  UNL     1      12.164  -9.217   9.027  1.00  0.00     0.105 C 
HETATM    2  C4  UNL     1      11.887  -8.257   7.860  1.00  0.00     0.071 C 
HETATM    3  C5  UNL     1      10.473  -7.776   7.785  1.00  0.00     0.065 C 
HETATM    4  N1  UNL     1       9.779  -8.233   8.881  1.00  0.00    -0.368 N 
HETATM    5  C6  UNL     1       9.255  -9.518   8.779  1.00  0.00     0.074 C 
HETATM    6  C7  UNL     1      10.132 -10.667   8.416  1.00  0.00     0.082 C 
HETATM    7  C14 UNL     1      11.598 -10.510   8.623  1.00  0.00     0.087 C 
ENDROOT
BRANCH   6   8
HETATM    8  C8  UNL     1       9.745 -10.998   6.970  1.00  0.00     0.001 C 
HETATM    9  C9  UNL     1       8.270 -10.858   6.675  1.00  0.00     0.012 C 
HETATM   10  C10 UNL     1       8.443 -11.984   5.677  1.00  0.00     0.015 C 
HETATM   11  C13 UNL     1       9.585 -12.445   6.611  1.00  0.00     0.012 C 
BRANCH  10  12
HETATM   12  C11 UNL     1       8.859 -11.472   4.348  1.00  0.00     0.118 C 
HETATM   13  C12 UNL     1       9.430 -12.550   3.447  1.00  0.00     0.040 C 
BRANCH  12  14
HETATM   14  O3  UNL     1       7.729 -10.932   3.708  1.00  0.00    -0.396 OA
ATOM     15  H3  UNL     1       8.017 -10.236   3.128  1.00  0.00     0.210 HD
ENDBRANCH  12  14
ENDBRANCH  10  12
ENDBRANCH   6   8
BRANCH   7  16
HETATM   16  N2  UNL     1      12.230 -11.705   9.143  1.00  0.00    -0.122 N 
HETATM   17  O4  UNL     1      12.646 -12.646   8.451  1.00  0.00    -0.532 OA
HETATM   18  O5  UNL     1      12.421 -11.952  10.492  1.00  0.00    -0.532 OA
ENDBRANCH   7  16
BRANCH   4  19
HETATM   19  C15 UNL     1       9.178  -7.349   9.811  1.00  0.00     0.088 C 
HETATM   20  C16 UNL     1       7.954  -7.911  10.470  1.00  0.00     0.026 C 
HETATM   21  C17 UNL     1       7.041  -8.051   9.290  1.00  0.00     0.012 C 
HETATM   22  C18 UNL     1       7.658  -7.349   8.162  1.00  0.00    -0.029 A 
HETATM   23  C19 UNL     1       8.420  -6.329   8.888  1.00  0.00     0.036 C 
HETATM   24  C20 UNL     1       6.788  -7.356   7.012  1.00  0.00     0.022 A 
HETATM   25  C21 UNL     1       8.236  -7.506   6.896  1.00  0.00    -0.013 A 
HETATM   26  C22 UNL     1       8.735  -6.223   6.188  1.00  0.00     0.018 C 
ENDBRANCH   4  19
BRANCH   1  27
HETATM   27  C2  UNL     1      13.665  -9.335   8.924  1.00  0.00     0.274 C 
HETATM   28  O2  UNL     1      14.192  -9.394   7.759  1.00  0.00    -0.264 OA
BRANCH  27  29
HETATM   29  O1  UNL     1      14.528  -9.383   9.974  1.00  0.00    -0.326 OA
HETATM   30  C1  UNL     1      15.805  -9.986   9.994  1.00  0.00     0.213 C 
ENDBRANCH  27  29
ENDBRANCH   1  27
TORSDOF 8
ENDMDL
