MODEL 1
REMARK VINA RESULT: -6.307104823      0.000      0.000
REMARK  3 active torsions:
REMARK  status: ('A' for Active; 'I' for Inactive)
REMARK    1  A    between atoms: N1_1  and  C1_4 
REMARK    2  A    between atoms: C2_7  and  C3_8 
REMARK       I    between atoms: C3_8  and  N3_10 
REMARK    3  A    between atoms: N3_10  and  N4_12 
ROOT
HETATM    1  C1  UNL     1      57.325 -27.652  -5.658  1.00  0.00     0.681 A 
HETATM    2  N2  UNL     1      58.424 -26.878  -5.702  1.00  0.00    -0.171 N 
ATOM      3  H2  UNL     1      59.071 -26.982  -6.485  1.00  0.00     0.186 HD
HETATM    4  C2  UNL     1      58.700 -25.964  -4.740  1.00  0.00     0.195 A 
HETATM    5  N5  UNL     1      57.868 -25.821  -3.718  1.00  0.00    -0.289 N 
ATOM      6  H5  UNL     1      58.059 -25.138  -2.985  1.00  0.00     0.172 HD
HETATM    7  C4  UNL     1      56.766 -26.592  -3.665  1.00  0.00     0.340 A 
HETATM    8  O2  UNL     1      55.986 -26.444  -2.688  1.00  0.00    -0.246 OA
HETATM    9  N6  UNL     1      56.483 -27.512  -4.630  1.00  0.00    -0.141 N 
ATOM     10  H6  UNL     1      55.643 -28.086  -4.567  1.00  0.00     0.189 HD
ENDROOT
BRANCH   4  11
HETATM   11  C3  UNL     1      59.918 -25.148  -4.847  1.00  0.00     0.304 C 
HETATM   12  O1  UNL     1      60.824 -25.267  -3.989  1.00  0.00    -0.263 OA
HETATM   13  N3  UNL     1      60.040 -24.239  -5.930  1.00  0.00    -0.270 N 
ATOM     14  H3  UNL     1      59.295 -24.153  -6.621  1.00  0.00     0.189 HD
BRANCH  13  15
HETATM   15  N4  UNL     1      61.196 -23.463  -6.034  1.00  0.00    -0.342 N 
ATOM     16  H42 UNL     1      61.819 -23.379  -5.231  1.00  0.00     0.176 HD
ATOM     17  H41 UNL     1      61.398 -22.992  -6.916  1.00  0.00     0.176 HD
ENDBRANCH  13  15
ENDBRANCH   4  11
BRANCH   1  18
HETATM   18  N1  UNL     1      57.112 -28.506  -6.603  1.00  0.00    -0.234 N 
ATOM     19  H12 UNL     1      56.864 -29.475  -6.408  1.00  0.00     0.174 HD
ATOM     20  H11 UNL     1      57.195 -28.207  -7.575  1.00  0.00     0.174 HD
ENDBRANCH   1  18
TORSDOF 3
ENDMDL
MODEL 2
REMARK VINA RESULT: -6.193823744      7.495      9.367
REMARK  3 active torsions:
REMARK  status: ('A' for Active; 'I' for Inactive)
REMARK    1  A    between atoms: N1_1  and  C1_4 
REMARK    2  A    between atoms: C2_7  and  C3_8 
REMARK       I    between atoms: C3_8  and  N3_10 
REMARK    3  A    between atoms: N3_10  and  N4_12 
ROOT
HETATM    1  C1  UNL     1      56.835 -29.789   1.801  1.00  0.00     0.681 A 
HETATM    2  N2  UNL     1      56.861 -31.124   1.972  1.00  0.00    -0.171 N 
ATOM      3  H2  UNL     1      56.394 -31.527   2.785  1.00  0.00     0.186 HD
HETATM    4  C2  UNL     1      57.489 -31.949   1.099  1.00  0.00     0.195 A 
HETATM    5  N5  UNL     1      58.100 -31.436   0.041  1.00  0.00    -0.289 N 
ATOM      6  H5  UNL     1      58.578 -32.042  -0.627  1.00  0.00     0.172 HD
HETATM    7  C4  UNL     1      58.080 -30.102  -0.138  1.00  0.00     0.340 A 
HETATM    8  O2  UNL     1      58.665 -29.631  -1.148  1.00  0.00    -0.246 OA
HETATM    9  N6  UNL     1      57.450 -29.268   0.736  1.00  0.00    -0.141 N 
ATOM     10  H6  UNL     1      57.449 -28.260   0.580  1.00  0.00     0.189 HD
ENDROOT
BRANCH   4  11
HETATM   11  C3  UNL     1      57.482 -33.398   1.343  1.00  0.00     0.304 C 
HETATM   12  O1  UNL     1      57.948 -34.178   0.478  1.00  0.00    -0.263 OA
HETATM   13  N3  UNL     1      56.942 -33.885   2.563  1.00  0.00    -0.270 N 
ATOM     14  H3  UNL     1      56.567 -33.239   3.257  1.00  0.00     0.189 HD
BRANCH  13  15
HETATM   15  N4  UNL     1      56.934 -35.261   2.797  1.00  0.00    -0.342 N 
ATOM     16  H42 UNL     1      57.530 -35.650   3.527  1.00  0.00     0.176 HD
ATOM     17  H41 UNL     1      56.330 -35.855   2.230  1.00  0.00     0.176 HD
ENDBRANCH  13  15
ENDBRANCH   4  11
BRANCH   1  18
HETATM   18  N1  UNL     1      56.221 -29.052   2.664  1.00  0.00    -0.234 N 
ATOM     19  H12 UNL     1      56.630 -28.829   3.571  1.00  0.00     0.174 HD
ATOM     20  H11 UNL     1      55.298 -28.680   2.439  1.00  0.00     0.174 HD
ENDBRANCH   1  18
TORSDOF 3
ENDMDL
MODEL 3
REMARK VINA RESULT: -6.181356255      1.708      4.225
REMARK  3 active torsions:
REMARK  status: ('A' for Active; 'I' for Inactive)
REMARK    1  A    between atoms: N1_1  and  C1_4 
REMARK    2  A    between atoms: C2_7  and  C3_8 
REMARK       I    between atoms: C3_8  and  N3_10 
REMARK    3  A    between atoms: N3_10  and  N4_12 
ROOT
HETATM    1  C1  UNL     1      57.738 -27.659  -6.112  1.00  0.00     0.681 A 
HETATM    2  N2  UNL     1      57.052 -27.585  -4.956  1.00  0.00    -0.171 N 
ATOM      3  H2  UNL     1      56.155 -28.067  -4.883  1.00  0.00     0.186 HD
HETATM    4  C2  UNL     1      57.515 -26.892  -3.887  1.00  0.00     0.195 A 
HETATM    5  N5  UNL     1      58.678 -26.262  -3.972  1.00  0.00    -0.289 N 
ATOM      6  H5  UNL     1      59.042 -25.735  -3.178  1.00  0.00     0.172 HD
HETATM    7  C4  UNL     1      59.371 -26.329  -5.124  1.00  0.00     0.340 A 
HETATM    8  O2  UNL     1      60.473 -25.726  -5.189  1.00  0.00    -0.246 OA
HETATM    9  N6  UNL     1      58.910 -27.025  -6.202  1.00  0.00    -0.141 N 
ATOM     10  H6  UNL     1      59.453 -27.061  -7.065  1.00  0.00     0.189 HD
ENDROOT
BRANCH   4  11
HETATM   11  C3  UNL     1      56.717 -26.850  -2.654  1.00  0.00     0.304 C 
HETATM   12  O1  UNL     1      56.010 -25.846  -2.403  1.00  0.00    -0.263 OA
HETATM   13  N3  UNL     1      56.767 -27.959  -1.769  1.00  0.00    -0.270 N 
ATOM     14  H3  UNL     1      57.346 -28.770  -1.986  1.00  0.00     0.189 HD
BRANCH  13  15
HETATM   15  N4  UNL     1      56.010 -27.922  -0.597  1.00  0.00    -0.342 N 
ATOM     16  H42 UNL     1      54.994 -27.852  -0.656  1.00  0.00     0.176 HD
ATOM     17  H41 UNL     1      56.489 -27.966   0.303  1.00  0.00     0.176 HD
ENDBRANCH  13  15
ENDBRANCH   4  11
BRANCH   1  18
HETATM   18  N1  UNL     1      57.249 -28.335  -7.097  1.00  0.00    -0.234 N 
ATOM     19  H12 UNL     1      56.748 -27.885  -7.863  1.00  0.00     0.174 HD
ATOM     20  H11 UNL     1      57.364 -29.348  -7.114  1.00  0.00     0.174 HD
ENDBRANCH   1  18
TORSDOF 3
ENDMDL
MODEL 4
REMARK VINA RESULT: -6.124015472      2.812      3.109
REMARK  3 active torsions:
REMARK  status: ('A' for Active; 'I' for Inactive)
REMARK    1  A    between atoms: N1_1  and  C1_4 
REMARK    2  A    between atoms: C2_7  and  C3_8 
REMARK       I    between atoms: C3_8  and  N3_10 
REMARK    3  A    between atoms: N3_10  and  N4_12 
ROOT
HETATM    1  C1  UNL     1      58.375 -28.210  -4.965  1.00  0.00     0.681 A 
HETATM    2  N2  UNL     1      59.702 -28.350  -4.785  1.00  0.00    -0.171 N 
ATOM      3  H2  UNL     1      60.073 -29.268  -4.540  1.00  0.00     0.186 HD
HETATM    4  C2  UNL     1      60.560 -27.309  -4.919  1.00  0.00     0.195 A 
HETATM    5  N5  UNL     1      60.089 -26.111  -5.236  1.00  0.00    -0.289 N 
ATOM      6  H5  UNL     1      60.720 -25.317  -5.341  1.00  0.00     0.172 HD
HETATM    7  C4  UNL     1      58.763 -25.961  -5.417  1.00  0.00     0.340 A 
HETATM    8  O2  UNL     1      58.332 -24.818  -5.718  1.00  0.00    -0.246 OA
HETATM    9  N6  UNL     1      57.896 -27.004  -5.284  1.00  0.00    -0.141 N 
ATOM     10  H6  UNL     1      56.895 -26.866  -5.425  1.00  0.00     0.189 HD
ENDROOT
BRANCH   4  11
HETATM   11  C3  UNL     1      61.998 -27.528  -4.709  1.00  0.00     0.304 C 
HETATM   12  O1  UNL     1      62.440 -27.686  -3.547  1.00  0.00    -0.263 OA
HETATM   13  N3  UNL     1      62.858 -27.557  -5.838  1.00  0.00    -0.270 N 
ATOM     14  H3  UNL     1      62.484 -27.428  -6.778  1.00  0.00     0.189 HD
BRANCH  13  15
HETATM   15  N4  UNL     1      64.224 -27.765  -5.642  1.00  0.00    -0.342 N 
ATOM     16  H42 UNL     1      64.801 -28.090  -6.418  1.00  0.00     0.176 HD
ATOM     17  H41 UNL     1      64.623 -27.587  -4.720  1.00  0.00     0.176 HD
ENDBRANCH  13  15
ENDBRANCH   4  11
BRANCH   1  18
HETATM   18  N1  UNL     1      57.605 -29.236  -4.826  1.00  0.00    -0.234 N 
ATOM     19  H12 UNL     1      56.638 -29.146  -4.514  1.00  0.00     0.174 HD
ATOM     20  H11 UNL     1      57.969 -30.166  -5.031  1.00  0.00     0.174 HD
ENDBRANCH   1  18
TORSDOF 3
ENDMDL
MODEL 5
REMARK VINA RESULT: -6.083000713      2.208      4.065
REMARK  3 active torsions:
REMARK  status: ('A' for Active; 'I' for Inactive)
REMARK    1  A    between atoms: N1_1  and  C1_4 
REMARK    2  A    between atoms: C2_7  and  C3_8 
REMARK       I    between atoms: C3_8  and  N3_10 
REMARK    3  A    between atoms: N3_10  and  N4_12 
ROOT
HETATM    1  C1  UNL     1      58.293 -23.147  -3.999  1.00  0.00     0.681 A 
HETATM    2  N2  UNL     1      58.259 -24.105  -4.944  1.00  0.00    -0.171 N 
ATOM      3  H2  UNL     1      58.336 -23.835  -5.925  1.00  0.00     0.186 HD
HETATM    4  C2  UNL     1      58.125 -25.418  -4.633  1.00  0.00     0.195 A 
HETATM    5  N5  UNL     1      58.022 -25.780  -3.362  1.00  0.00    -0.289 N 
ATOM      6  H5  UNL     1      57.920 -26.763  -3.110  1.00  0.00     0.172 HD
HETATM    7  C4  UNL     1      58.054 -24.829  -2.411  1.00  0.00     0.340 A 
HETATM    8  O2  UNL     1      57.955 -25.189  -1.209  1.00  0.00    -0.246 OA
HETATM    9  N6  UNL     1      58.189 -23.508  -2.717  1.00  0.00    -0.141 N 
ATOM     10  H6  UNL     1      58.209 -22.804  -1.979  1.00  0.00     0.189 HD
ENDROOT
BRANCH   4  11
HETATM   11  C3  UNL     1      58.095 -26.415  -5.712  1.00  0.00     0.304 C 
HETATM   12  O1  UNL     1      58.861 -26.291  -6.697  1.00  0.00    -0.263 OA
HETATM   13  N3  UNL     1      57.192 -27.506  -5.611  1.00  0.00    -0.270 N 
ATOM     14  H3  UNL     1      56.575 -27.595  -4.804  1.00  0.00     0.189 HD
BRANCH  13  15
HETATM   15  N4  UNL     1      57.162 -28.455  -6.634  1.00  0.00    -0.342 N 
ATOM     16  H42 UNL     1      57.310 -29.440  -6.412  1.00  0.00     0.176 HD
ATOM     17  H41 UNL     1      56.991 -28.145  -7.591  1.00  0.00     0.176 HD
ENDBRANCH  13  15
ENDBRANCH   4  11
BRANCH   1  18
HETATM   18  N1  UNL     1      58.423 -21.913  -4.353  1.00  0.00    -0.234 N 
ATOM     19  H12 UNL     1      58.231 -21.601  -5.305  1.00  0.00     0.174 HD
ATOM     20  H11 UNL     1      58.728 -21.224  -3.665  1.00  0.00     0.174 HD
ENDBRANCH   1  18
TORSDOF 3
ENDMDL
