MODEL 1
REMARK VINA RESULT: -7.198375380      0.000      0.000
REMARK  2 active torsions:
REMARK  status: ('A' for Active; 'I' for Inactive)
REMARK    1  A    between atoms: N1_1  and  C1_4 
REMARK       I    between atoms: N3_9  and  C3_10 
REMARK       I    between atoms: C3_10  and  N4_12 
REMARK    2  A    between atoms: N4_12  and  N5_14 
ROOT
HETATM    1  C1  UNL     1      57.155 -27.595  -5.550  1.00  0.00     0.173 A 
HETATM    2  N2  UNL     1      56.466 -27.434  -4.410  1.00  0.00    -0.289 N 
ATOM      3  H2  UNL     1      55.706 -28.071  -4.171  1.00  0.00     0.172 HD
HETATM    4  C2  UNL     1      56.789 -26.421  -3.585  1.00  0.00     0.351 A 
HETATM    5  O1  UNL     1      56.124 -26.285  -2.509  1.00  0.00    -0.244 OA
HETATM    6  N3  UNL     1      57.785 -25.545  -3.847  1.00  0.00    -0.149 N 
HETATM    7  C3  UNL     1      58.051 -24.497  -2.901  1.00  0.00     0.364 C 
HETATM    8  O2  UNL     1      57.346 -24.415  -1.838  1.00  0.00    -0.243 OA
HETATM    9  N4  UNL     1      59.062 -23.538  -3.079  1.00  0.00    -0.256 N 
ATOM     10  H4  UNL     1      59.648 -23.566  -3.914  1.00  0.00     0.191 HD
HETATM   11  N6  UNL     1      58.462 -25.702  -4.965  1.00  0.00    -0.248 N 
ATOM     12  H6  UNL     1      59.219 -25.055  -5.189  1.00  0.00     0.191 HD
HETATM   13  C4  UNL     1      58.169 -26.714  -5.829  1.00  0.00     0.304 A 
HETATM   14  O3  UNL     1      58.819 -26.857  -6.894  1.00  0.00    -0.263 OA
ENDROOT
BRANCH   9  15
HETATM   15  N5  UNL     1      59.267 -22.551  -2.125  1.00  0.00    -0.341 N 
ATOM     16  H52 UNL     1      58.564 -21.820  -2.014  1.00  0.00     0.177 HD
ATOM     17  H51 UNL     1      60.107 -22.560  -1.547  1.00  0.00     0.177 HD
ENDBRANCH   9  15
BRANCH   1  18
HETATM   18  N1  UNL     1      56.883 -28.561  -6.385  1.00  0.00    -0.381 N 
ATOM     19  H12 UNL     1      55.961 -28.615  -6.817  1.00  0.00     0.157 HD
ATOM     20  H11 UNL     1      57.572 -29.273  -6.622  1.00  0.00     0.157 HD
ENDBRANCH   1  18
TORSDOF 2
ENDMDL
MODEL 2
REMARK VINA RESULT: -7.056397221      1.002      1.017
REMARK  2 active torsions:
REMARK  status: ('A' for Active; 'I' for Inactive)
REMARK    1  A    between atoms: N1_1  and  C1_4 
REMARK       I    between atoms: N3_9  and  C3_10 
REMARK       I    between atoms: C3_10  and  N4_12 
REMARK    2  A    between atoms: N4_12  and  N5_14 
ROOT
HETATM    1  C1  UNL     1      56.874 -28.035  -4.587  1.00  0.00     0.173 A 
HETATM    2  N2  UNL     1      56.787 -27.934  -3.251  1.00  0.00    -0.289 N 
ATOM      3  H2  UNL     1      56.371 -28.686  -2.703  1.00  0.00     0.172 HD
HETATM    4  C2  UNL     1      57.256 -26.828  -2.645  1.00  0.00     0.351 A 
HETATM    5  O1  UNL     1      57.165 -26.751  -1.379  1.00  0.00    -0.244 OA
HETATM    6  N3  UNL     1      57.818 -25.798  -3.319  1.00  0.00    -0.149 N 
HETATM    7  C3  UNL     1      58.287 -24.661  -2.578  1.00  0.00     0.364 C 
HETATM    8  O2  UNL     1      58.166 -24.645  -1.306  1.00  0.00    -0.243 OA
HETATM    9  N4  UNL     1      58.885 -23.542  -3.182  1.00  0.00    -0.256 N 
ATOM     10  H4  UNL     1      59.000 -23.513  -4.195  1.00  0.00     0.191 HD
HETATM   11  N6  UNL     1      57.903 -25.896  -4.629  1.00  0.00    -0.248 N 
ATOM     12  H6  UNL     1      58.321 -25.134  -5.163  1.00  0.00     0.191 HD
HETATM   13  C4  UNL     1      57.442 -26.999  -5.284  1.00  0.00     0.304 A 
HETATM   14  O3  UNL     1      57.527 -27.084  -6.534  1.00  0.00    -0.263 OA
ENDROOT
BRANCH   9  15
HETATM   15  N5  UNL     1      59.317 -22.475  -2.407  1.00  0.00    -0.341 N 
ATOM     16  H52 UNL     1      58.894 -21.558  -2.550  1.00  0.00     0.177 HD
ATOM     17  H51 UNL     1      60.045 -22.610  -1.705  1.00  0.00     0.177 HD
ENDBRANCH   9  15
BRANCH   1  18
HETATM   18  N1  UNL     1      56.435 -29.086  -5.225  1.00  0.00    -0.381 N 
ATOM     19  H12 UNL     1      56.307 -29.966  -4.727  1.00  0.00     0.157 HD
ATOM     20  H11 UNL     1      56.213 -29.054  -6.219  1.00  0.00     0.157 HD
ENDBRANCH   1  18
TORSDOF 2
ENDMDL
MODEL 3
REMARK VINA RESULT: -6.765957736      7.113      8.461
REMARK  2 active torsions:
REMARK  status: ('A' for Active; 'I' for Inactive)
REMARK    1  A    between atoms: N1_1  and  C1_4 
REMARK       I    between atoms: N3_9  and  C3_10 
REMARK       I    between atoms: C3_10  and  N4_12 
REMARK    2  A    between atoms: N4_12  and  N5_14 
ROOT
HETATM    1  C1  UNL     1      57.445 -29.055   0.466  1.00  0.00     0.173 A 
HETATM    2  N2  UNL     1      57.012 -29.408   1.687  1.00  0.00    -0.289 N 
ATOM      3  H2  UNL     1      56.600 -28.714   2.310  1.00  0.00     0.172 HD
HETATM    4  C2  UNL     1      57.129 -30.690   2.079  1.00  0.00     0.351 A 
HETATM    5  O1  UNL     1      56.714 -31.005   3.239  1.00  0.00    -0.244 OA
HETATM    6  N3  UNL     1      57.667 -31.655   1.299  1.00  0.00    -0.149 N 
HETATM    7  C3  UNL     1      57.747 -32.994   1.811  1.00  0.00     0.364 C 
HETATM    8  O2  UNL     1      57.310 -33.246   2.986  1.00  0.00    -0.243 OA
HETATM    9  N4  UNL     1      58.287 -34.067   1.081  1.00  0.00    -0.256 N 
ATOM     10  H4  UNL     1      58.646 -33.910   0.140  1.00  0.00     0.191 HD
HETATM   11  N6  UNL     1      58.092 -31.310   0.101  1.00  0.00    -0.248 N 
ATOM     12  H6  UNL     1      58.502 -32.017  -0.508  1.00  0.00     0.191 HD
HETATM   13  C4  UNL     1      57.992 -30.023  -0.337  1.00  0.00     0.304 A 
HETATM   14  O3  UNL     1      58.400 -29.702  -1.480  1.00  0.00    -0.263 OA
ENDROOT
BRANCH   9  15
HETATM   15  N5  UNL     1      58.333 -35.338   1.636  1.00  0.00    -0.341 N 
ATOM     16  H52 UNL     1      58.000 -35.471   2.591  1.00  0.00     0.177 HD
ATOM     17  H51 UNL     1      58.695 -36.124   1.095  1.00  0.00     0.177 HD
ENDBRANCH   9  15
BRANCH   1  18
HETATM   18  N1  UNL     1      57.355 -27.826   0.037  1.00  0.00    -0.381 N 
ATOM     19  H12 UNL     1      56.439 -27.410  -0.128  1.00  0.00     0.157 HD
ATOM     20  H11 UNL     1      58.184 -27.260  -0.142  1.00  0.00     0.157 HD
ENDBRANCH   1  18
TORSDOF 2
ENDMDL
MODEL 4
REMARK VINA RESULT: -6.682635826      1.270      4.961
REMARK  2 active torsions:
REMARK  status: ('A' for Active; 'I' for Inactive)
REMARK    1  A    between atoms: N1_1  and  C1_4 
REMARK       I    between atoms: N3_9  and  C3_10 
REMARK       I    between atoms: C3_10  and  N4_12 
REMARK    2  A    between atoms: N4_12  and  N5_14 
ROOT
HETATM    1  C1  UNL     1      58.867 -23.697  -3.162  1.00  0.00     0.173 A 
HETATM    2  N2  UNL     1      59.058 -23.870  -4.479  1.00  0.00    -0.289 N 
ATOM      3  H2  UNL     1      59.566 -23.172  -5.023  1.00  0.00     0.172 HD
HETATM    4  C2  UNL     1      58.572 -24.975  -5.074  1.00  0.00     0.351 A 
HETATM    5  O1  UNL     1      58.763 -25.120  -6.322  1.00  0.00    -0.244 OA
HETATM    6  N3  UNL     1      57.890 -25.933  -4.406  1.00  0.00    -0.149 N 
HETATM    7  C3  UNL     1      57.412 -27.075  -5.133  1.00  0.00     0.364 C 
HETATM    8  O2  UNL     1      57.638 -27.162  -6.388  1.00  0.00    -0.243 OA
HETATM    9  N4  UNL     1      56.695 -28.125  -4.533  1.00  0.00    -0.256 N 
ATOM     10  H4  UNL     1      56.492 -28.095  -3.534  1.00  0.00     0.191 HD
HETATM   11  N6  UNL     1      57.702 -25.765  -3.113  1.00  0.00    -0.248 N 
ATOM     12  H6  UNL     1      57.191 -26.471  -2.585  1.00  0.00     0.191 HD
HETATM   13  C4  UNL     1      58.178 -24.661  -2.471  1.00  0.00     0.304 A 
HETATM   14  O3  UNL     1      57.994 -24.508  -1.238  1.00  0.00    -0.263 OA
ENDROOT
BRANCH   9  15
HETATM   15  N5  UNL     1      56.261 -29.201  -5.295  1.00  0.00    -0.341 N 
ATOM     16  H52 UNL     1      55.774 -29.018  -6.173  1.00  0.00     0.177 HD
ATOM     17  H51 UNL     1      56.428 -30.156  -4.979  1.00  0.00     0.177 HD
ENDBRANCH   9  15
BRANCH   1  18
HETATM   18  N1  UNL     1      59.318 -22.644  -2.537  1.00  0.00    -0.381 N 
ATOM     19  H12 UNL     1      58.715 -21.832  -2.406  1.00  0.00     0.157 HD
ATOM     20  H11 UNL     1      60.268 -22.606  -2.169  1.00  0.00     0.157 HD
ENDBRANCH   1  18
TORSDOF 2
ENDMDL
MODEL 5
REMARK VINA RESULT: -6.657452601      8.010      9.389
REMARK  2 active torsions:
REMARK  status: ('A' for Active; 'I' for Inactive)
REMARK    1  A    between atoms: N1_1  and  C1_4 
REMARK       I    between atoms: N3_9  and  C3_10 
REMARK       I    between atoms: C3_10  and  N4_12 
REMARK    2  A    between atoms: N4_12  and  N5_14 
ROOT
HETATM    1  C1  UNL     1      57.494 -30.097   0.959  1.00  0.00     0.173 A 
HETATM    2  N2  UNL     1      57.182 -30.565   2.178  1.00  0.00    -0.289 N 
ATOM      3  H2  UNL     1      56.844 -29.933   2.903  1.00  0.00     0.172 HD
HETATM    4  C2  UNL     1      57.321 -31.880   2.431  1.00  0.00     0.351 A 
HETATM    5  O1  UNL     1      57.021 -32.304   3.591  1.00  0.00    -0.244 OA
HETATM    6  N3  UNL     1      57.765 -32.766   1.510  1.00  0.00    -0.149 N 
HETATM    7  C3  UNL     1      57.878 -34.149   1.880  1.00  0.00     0.364 C 
HETATM    8  O2  UNL     1      57.559 -34.512   3.064  1.00  0.00    -0.243 OA
HETATM    9  N4  UNL     1      58.327 -35.147   0.999  1.00  0.00    -0.256 N 
ATOM     10  H4  UNL     1      58.592 -34.901   0.045  1.00  0.00     0.191 HD
HETATM   11  N6  UNL     1      58.071 -32.307   0.314  1.00  0.00    -0.248 N 
ATOM     12  H6  UNL     1      58.408 -32.953  -0.399  1.00  0.00     0.191 HD
HETATM   13  C4  UNL     1      57.944 -30.983   0.015  1.00  0.00     0.304 A 
HETATM   14  O3  UNL     1      58.239 -30.554  -1.128  1.00  0.00    -0.263 OA
ENDROOT
BRANCH   9  15
HETATM   15  N5  UNL     1      58.413 -36.467   1.421  1.00  0.00    -0.341 N 
ATOM     16  H52 UNL     1      58.568 -36.658   2.412  1.00  0.00     0.177 HD
ATOM     17  H51 UNL     1      58.321 -37.229   0.750  1.00  0.00     0.177 HD
ENDBRANCH   9  15
BRANCH   1  18
HETATM   18  N1  UNL     1      57.377 -28.831   0.661  1.00  0.00    -0.381 N 
ATOM     19  H12 UNL     1      57.949 -28.140   1.146  1.00  0.00     0.157 HD
ATOM     20  H11 UNL     1      56.724 -28.507  -0.051  1.00  0.00     0.157 HD
ENDBRANCH   1  18
TORSDOF 2
ENDMDL
