MODEL 1
REMARK VINA RESULT: -6.435312598      0.000      0.000
REMARK  3 active torsions:
REMARK  status: ('A' for Active; 'I' for Inactive)
REMARK    1  A    between atoms: N1_1  and  C1_4 
REMARK    2  A    between atoms: N4_13  and  O2_14 
REMARK    3  A    between atoms: O2_14  and  N5_15 
ROOT
HETATM    1  C1  UNL     1      60.189 -24.000  -5.410  1.00  0.00     0.680 A 
HETATM    2  N2  UNL     1      59.970 -23.674  -4.125  1.00  0.00    -0.154 N 
ATOM      3  H2  UNL     1      60.498 -22.901  -3.720  1.00  0.00     0.187 HD
HETATM    4  C2  UNL     1      59.078 -24.329  -3.347  1.00  0.00     0.290 A 
HETATM    5  O1  UNL     1      58.872 -24.027  -2.146  1.00  0.00    -0.265 OA
HETATM    6  C3  UNL     1      58.351 -25.375  -3.868  1.00  0.00     0.150 A 
HETATM    7  N3  UNL     1      57.412 -26.219  -3.397  1.00  0.00    -0.343 N 
ATOM      8  H3  UNL     1      57.038 -26.216  -2.448  1.00  0.00     0.167 HD
HETATM    9  C4  UNL     1      57.044 -27.071  -4.384  1.00  0.00     0.219 A 
HETATM   10  N4  UNL     1      57.769 -26.741  -5.472  1.00  0.00    -0.174 N 
HETATM   11  C5  UNL     1      58.587 -25.700  -5.192  1.00  0.00     0.184 A 
HETATM   12  N6  UNL     1      59.489 -25.015  -5.925  1.00  0.00    -0.172 N 
ATOM     13  H6  UNL     1      59.641 -25.279  -6.899  1.00  0.00     0.186 HD
ENDROOT
BRANCH  10  14
HETATM   14  O2  UNL     1      57.735 -27.334  -6.718  1.00  0.00    -0.154 OA
BRANCH  14  15
HETATM   15  N5  UNL     1      57.141 -28.551  -6.941  1.00  0.00    -0.285 N 
ATOM     16  H52 UNL     1      56.415 -28.850  -6.290  1.00  0.00     0.186 HD
ATOM     17  H51 UNL     1      57.399 -29.152  -7.723  1.00  0.00     0.186 HD
ENDBRANCH  14  15
ENDBRANCH  10  14
BRANCH   1  18
HETATM   18  N1  UNL     1      61.063 -23.334  -6.117  1.00  0.00    -0.234 N 
ATOM     19  H12 UNL     1      61.668 -22.627  -5.699  1.00  0.00     0.174 HD
ATOM     20  H11 UNL     1      61.157 -23.513  -7.116  1.00  0.00     0.174 HD
ENDBRANCH   1  18
TORSDOF 3
ENDMDL
MODEL 2
REMARK VINA RESULT: -6.428193041      2.499      4.279
REMARK  3 active torsions:
REMARK  status: ('A' for Active; 'I' for Inactive)
REMARK    1  A    between atoms: N1_1  and  C1_4 
REMARK    2  A    between atoms: N4_13  and  O2_14 
REMARK    3  A    between atoms: O2_14  and  N5_15 
ROOT
HETATM    1  C1  UNL     1      58.487 -27.190  -5.637  1.00  0.00     0.680 A 
HETATM    2  N2  UNL     1      58.346 -28.498  -5.364  1.00  0.00    -0.154 N 
ATOM      3  H2  UNL     1      58.661 -29.179  -6.054  1.00  0.00     0.187 HD
HETATM    4  C2  UNL     1      57.803 -28.948  -4.209  1.00  0.00     0.290 A 
HETATM    5  O1  UNL     1      57.669 -30.170  -3.952  1.00  0.00    -0.265 OA
HETATM    6  C3  UNL     1      57.369 -28.052  -3.260  1.00  0.00     0.150 A 
HETATM    7  N3  UNL     1      56.800 -28.146  -2.042  1.00  0.00    -0.343 N 
ATOM      8  H3  UNL     1      56.568 -29.016  -1.563  1.00  0.00     0.167 HD
HETATM    9  C4  UNL     1      56.585 -26.900  -1.554  1.00  0.00     0.219 A 
HETATM   10  N4  UNL     1      57.030 -26.035  -2.488  1.00  0.00    -0.174 N 
HETATM   11  C5  UNL     1      57.520 -26.709  -3.555  1.00  0.00     0.184 A 
HETATM   12  N6  UNL     1      58.069 -26.312  -4.722  1.00  0.00    -0.172 N 
ATOM     13  H6  UNL     1      58.166 -25.314  -4.910  1.00  0.00     0.186 HD
ENDROOT
BRANCH  10  14
HETATM   14  O2  UNL     1      57.019 -24.656  -2.433  1.00  0.00    -0.154 OA
BRANCH  14  15
HETATM   15  N5  UNL     1      58.125 -23.923  -2.081  1.00  0.00    -0.285 N 
ATOM     16  H52 UNL     1      58.810 -23.721  -2.808  1.00  0.00     0.186 HD
ATOM     17  H51 UNL     1      58.277 -23.581  -1.132  1.00  0.00     0.186 HD
ENDBRANCH  14  15
ENDBRANCH  10  14
BRANCH   1  18
HETATM   18  N1  UNL     1      59.019 -26.809  -6.768  1.00  0.00    -0.234 N 
ATOM     19  H12 UNL     1      59.866 -26.243  -6.803  1.00  0.00     0.174 HD
ATOM     20  H11 UNL     1      58.587 -27.076  -7.653  1.00  0.00     0.174 HD
ENDBRANCH   1  18
TORSDOF 3
ENDMDL
MODEL 3
REMARK VINA RESULT: -6.160440263      3.143      4.744
REMARK  3 active torsions:
REMARK  status: ('A' for Active; 'I' for Inactive)
REMARK    1  A    between atoms: N1_1  and  C1_4 
REMARK    2  A    between atoms: N4_13  and  O2_14 
REMARK    3  A    between atoms: O2_14  and  N5_15 
ROOT
HETATM    1  C1  UNL     1      57.323 -28.311  -5.106  1.00  0.00     0.680 A 
HETATM    2  N2  UNL     1      57.503 -27.113  -5.688  1.00  0.00    -0.154 N 
ATOM      3  H2  UNL     1      56.700 -26.650  -6.113  1.00  0.00     0.187 HD
HETATM    4  C2  UNL     1      58.707 -26.497  -5.732  1.00  0.00     0.290 A 
HETATM    5  O1  UNL     1      58.877 -25.378  -6.275  1.00  0.00    -0.265 OA
HETATM    6  C3  UNL     1      59.807 -27.098  -5.165  1.00  0.00     0.150 A 
HETATM    7  N3  UNL     1      61.110 -26.781  -5.030  1.00  0.00    -0.343 N 
ATOM      8  H3  UNL     1      61.548 -25.927  -5.373  1.00  0.00     0.167 HD
HETATM    9  C4  UNL     1      61.744 -27.777  -4.366  1.00  0.00     0.219 A 
HETATM   10  N4  UNL     1      60.814 -28.715  -4.092  1.00  0.00    -0.174 N 
HETATM   11  C5  UNL     1      59.607 -28.331  -4.570  1.00  0.00     0.184 A 
HETATM   12  N6  UNL     1      58.385 -28.904  -4.554  1.00  0.00    -0.172 N 
ATOM     13  H6  UNL     1      58.270 -29.814  -4.108  1.00  0.00     0.186 HD
ENDROOT
BRANCH  10  14
HETATM   14  O2  UNL     1      60.993 -29.911  -3.428  1.00  0.00    -0.154 OA
BRANCH  14  15
HETATM   15  N5  UNL     1      61.585 -29.988  -2.192  1.00  0.00    -0.285 N 
ATOM     16  H52 UNL     1      61.492 -29.184  -1.572  1.00  0.00     0.186 HD
ATOM     17  H51 UNL     1      62.104 -30.809  -1.883  1.00  0.00     0.186 HD
ENDBRANCH  14  15
ENDBRANCH  10  14
BRANCH   1  18
HETATM   18  N1  UNL     1      56.139 -28.863  -5.092  1.00  0.00    -0.234 N 
ATOM     19  H12 UNL     1      55.967 -29.759  -4.637  1.00  0.00     0.174 HD
ATOM     20  H11 UNL     1      55.352 -28.399  -5.545  1.00  0.00     0.174 HD
ENDBRANCH   1  18
TORSDOF 3
ENDMDL
MODEL 4
REMARK VINA RESULT: -6.138481266      1.907      3.910
REMARK  3 active torsions:
REMARK  status: ('A' for Active; 'I' for Inactive)
REMARK    1  A    between atoms: N1_1  and  C1_4 
REMARK    2  A    between atoms: N4_13  and  O2_14 
REMARK    3  A    between atoms: O2_14  and  N5_15 
ROOT
HETATM    1  C1  UNL     1      57.455 -27.482  -5.574  1.00  0.00     0.680 A 
HETATM    2  N2  UNL     1      56.594 -27.400  -4.546  1.00  0.00    -0.154 N 
ATOM      3  H2  UNL     1      55.795 -28.033  -4.525  1.00  0.00     0.187 HD
HETATM    4  C2  UNL     1      56.744 -26.510  -3.538  1.00  0.00     0.290 A 
HETATM    5  O1  UNL     1      55.940 -26.431  -2.577  1.00  0.00    -0.265 OA
HETATM    6  C3  UNL     1      57.812 -25.643  -3.540  1.00  0.00     0.150 A 
HETATM    7  N3  UNL     1      58.255 -24.665  -2.727  1.00  0.00    -0.343 N 
ATOM      8  H3  UNL     1      57.806 -24.369  -1.860  1.00  0.00     0.167 HD
HETATM    9  C4  UNL     1      59.390 -24.135  -3.244  1.00  0.00     0.219 A 
HETATM   10  N4  UNL     1      59.643 -24.802  -4.389  1.00  0.00    -0.174 N 
HETATM   11  C5  UNL     1      58.691 -25.740  -4.605  1.00  0.00     0.184 A 
HETATM   12  N6  UNL     1      58.496 -26.645  -5.586  1.00  0.00    -0.172 N 
ATOM     13  H6  UNL     1      59.161 -26.691  -6.358  1.00  0.00     0.186 HD
ENDROOT
BRANCH  10  14
HETATM   14  O2  UNL     1      60.696 -24.610  -5.260  1.00  0.00    -0.154 OA
BRANCH  14  15
HETATM   15  N5  UNL     1      60.750 -23.549  -6.129  1.00  0.00    -0.285 N 
ATOM     16  H52 UNL     1      61.167 -22.682  -5.792  1.00  0.00     0.186 HD
ATOM     17  H51 UNL     1      60.393 -23.602  -7.082  1.00  0.00     0.186 HD
ENDBRANCH  14  15
ENDBRANCH  10  14
BRANCH   1  18
HETATM   18  N1  UNL     1      57.264 -28.360  -6.523  1.00  0.00    -0.234 N 
ATOM     19  H12 UNL     1      56.931 -29.304  -6.325  1.00  0.00     0.174 HD
ATOM     20  H11 UNL     1      57.446 -28.112  -7.495  1.00  0.00     0.174 HD
ENDBRANCH   1  18
TORSDOF 3
ENDMDL
MODEL 5
REMARK VINA RESULT: -6.102371392      1.435      4.796
REMARK  3 active torsions:
REMARK  status: ('A' for Active; 'I' for Inactive)
REMARK    1  A    between atoms: N1_1  and  C1_4 
REMARK    2  A    between atoms: N4_13  and  O2_14 
REMARK    3  A    between atoms: O2_14  and  N5_15 
ROOT
HETATM    1  C1  UNL     1      56.781 -26.705  -2.938  1.00  0.00     0.680 A 
HETATM    2  N2  UNL     1      56.638 -27.242  -4.162  1.00  0.00    -0.154 N 
ATOM      3  H2  UNL     1      55.920 -27.952  -4.303  1.00  0.00     0.187 HD
HETATM    4  C2  UNL     1      57.408 -26.878  -5.213  1.00  0.00     0.290 A 
HETATM    5  O1  UNL     1      57.276 -27.378  -6.357  1.00  0.00    -0.265 OA
HETATM    6  C3  UNL     1      58.384 -25.921  -5.050  1.00  0.00     0.150 A 
HETATM    7  N3  UNL     1      59.298 -25.339  -5.851  1.00  0.00    -0.343 N 
ATOM      8  H3  UNL     1      59.432 -25.543  -6.841  1.00  0.00     0.167 HD
HETATM    9  C4  UNL     1      60.013 -24.441  -5.130  1.00  0.00     0.219 A 
HETATM   10  N4  UNL     1      59.525 -24.476  -3.873  1.00  0.00    -0.174 N 
HETATM   11  C5  UNL     1      58.520 -25.378  -3.785  1.00  0.00     0.184 A 
HETATM   12  N6  UNL     1      57.726 -25.776  -2.769  1.00  0.00    -0.172 N 
ATOM     13  H6  UNL     1      57.852 -25.357  -1.848  1.00  0.00     0.186 HD
ENDROOT
BRANCH  10  14
HETATM   14  O2  UNL     1      59.941 -23.733  -2.787  1.00  0.00    -0.154 OA
BRANCH  14  15
HETATM   15  N5  UNL     1      59.275 -22.610  -2.363  1.00  0.00    -0.285 N 
ATOM     16  H52 UNL     1      59.508 -22.241  -1.442  1.00  0.00     0.186 HD
ATOM     17  H51 UNL     1      58.567 -22.146  -2.931  1.00  0.00     0.186 HD
ENDBRANCH  14  15
ENDBRANCH  10  14
BRANCH   1  18
HETATM   18  N1  UNL     1      56.011 -27.094  -1.956  1.00  0.00    -0.234 N 
ATOM     19  H12 UNL     1      56.254 -27.885  -1.361  1.00  0.00     0.174 HD
ATOM     20  H11 UNL     1      55.138 -26.604  -1.766  1.00  0.00     0.174 HD
ENDBRANCH   1  18
TORSDOF 3
ENDMDL
