MODEL 1
REMARK VINA RESULT: -6.291677181      0.000      0.000
REMARK  3 active torsions:
REMARK  status: ('A' for Active; 'I' for Inactive)
REMARK    1  A    between atoms: N1_1  and  N2_4 
REMARK       I    between atoms: N2_4  and  C1_6 
REMARK    2  A    between atoms: C1_6  and  C2_8 
REMARK    3  A    between atoms: N5_15  and  N6_16 
ROOT
HETATM    1  C2  UNL     1      57.531 -27.300  -3.297  1.00  0.00     0.171 A 
HETATM    2  C3  UNL     1      57.505 -25.896  -3.345  1.00  0.00     0.155 A 
HETATM    3  N3  UNL     1      57.201 -25.002  -2.287  1.00  0.00    -0.080 NA
HETATM    4  N4  UNL     1      57.830 -25.556  -4.608  1.00  0.00    -0.293 N 
ATOM      5  H4  UNL     1      57.899 -24.604  -4.970  1.00  0.00     0.172 HD
HETATM    6  C4  UNL     1      58.045 -26.676  -5.304  1.00  0.00     0.347 A 
HETATM    7  O2  UNL     1      58.367 -26.776  -6.514  1.00  0.00    -0.245 OA
HETATM    8  N5  UNL     1      57.863 -27.761  -4.507  1.00  0.00    -0.203 N 
ENDROOT
BRANCH   1   9
HETATM    9  C1  UNL     1      57.223 -28.028  -2.060  1.00  0.00     0.291 C 
HETATM   10  N2  UNL     1      56.215 -27.704  -1.144  1.00  0.00    -0.271 N 
ATOM     11  H2  UNL     1      55.617 -26.896  -1.314  1.00  0.00     0.189 HD
HETATM   12  O1  UNL     1      57.925 -29.065  -1.761  1.00  0.00    -0.264 OA
BRANCH  10  13
HETATM   13  N1  UNL     1      56.023 -28.479  -0.002  1.00  0.00    -0.342 N 
ATOM     14  H12 UNL     1      56.789 -28.565   0.667  1.00  0.00     0.176 HD
ATOM     15  H11 UNL     1      55.133 -28.951   0.160  1.00  0.00     0.176 HD
ENDBRANCH  10  13
ENDBRANCH   1   9
BRANCH   8  16
HETATM   16  N6  UNL     1      57.997 -29.099  -4.873  1.00  0.00    -0.334 N 
ATOM     17  H62 UNL     1      58.864 -29.632  -4.938  1.00  0.00     0.177 HD
ATOM     18  H61 UNL     1      57.240 -29.734  -5.129  1.00  0.00     0.177 HD
ENDBRANCH   8  16
TORSDOF 3
ENDMDL
MODEL 2
REMARK VINA RESULT: -6.087727318      2.254      3.573
REMARK  3 active torsions:
REMARK  status: ('A' for Active; 'I' for Inactive)
REMARK    1  A    between atoms: N1_1  and  N2_4 
REMARK       I    between atoms: N2_4  and  C1_6 
REMARK    2  A    between atoms: C1_6  and  C2_8 
REMARK    3  A    between atoms: N5_15  and  N6_16 
ROOT
HETATM    1  C2  UNL     1      58.098 -25.779  -3.971  1.00  0.00     0.171 A 
HETATM    2  C3  UNL     1      57.427 -25.337  -2.818  1.00  0.00     0.155 A 
HETATM    3  N3  UNL     1      56.198 -25.814  -2.298  1.00  0.00    -0.080 NA
HETATM    4  N4  UNL     1      58.188 -24.356  -2.293  1.00  0.00    -0.293 N 
ATOM      5  H4  UNL     1      57.977 -23.825  -1.447  1.00  0.00     0.172 HD
HETATM    6  C4  UNL     1      59.265 -24.196  -3.068  1.00  0.00     0.347 A 
HETATM    7  O2  UNL     1      60.208 -23.381  -2.912  1.00  0.00    -0.245 OA
HETATM    8  N5  UNL     1      59.222 -25.069  -4.109  1.00  0.00    -0.203 N 
ENDROOT
BRANCH   1   9
HETATM    9  C1  UNL     1      57.551 -26.854  -4.807  1.00  0.00     0.291 C 
HETATM   10  N2  UNL     1      56.784 -27.937  -4.359  1.00  0.00    -0.271 N 
ATOM     11  H2  UNL     1      56.562 -28.023  -3.367  1.00  0.00     0.189 HD
HETATM   12  O1  UNL     1      57.778 -26.830  -6.075  1.00  0.00    -0.264 OA
BRANCH  10  13
HETATM   13  N1  UNL     1      56.321 -28.895  -5.257  1.00  0.00    -0.342 N 
ATOM     14  H12 UNL     1      56.686 -29.846  -5.192  1.00  0.00     0.176 HD
ATOM     15  H11 UNL     1      55.631 -28.649  -5.967  1.00  0.00     0.176 HD
ENDBRANCH  10  13
ENDBRANCH   1   9
BRANCH   8  16
HETATM   16  N6  UNL     1      60.164 -25.204  -5.126  1.00  0.00    -0.334 N 
ATOM     17  H62 UNL     1      60.057 -25.730  -5.994  1.00  0.00     0.177 HD
ATOM     18  H61 UNL     1      61.097 -24.791  -5.145  1.00  0.00     0.177 HD
ENDBRANCH   8  16
TORSDOF 3
ENDMDL
MODEL 3
REMARK VINA RESULT: -6.082924181      2.246      3.388
REMARK  3 active torsions:
REMARK  status: ('A' for Active; 'I' for Inactive)
REMARK    1  A    between atoms: N1_1  and  N2_4 
REMARK       I    between atoms: N2_4  and  C1_6 
REMARK    2  A    between atoms: C1_6  and  C2_8 
REMARK    3  A    between atoms: N5_15  and  N6_16 
ROOT
HETATM    1  C2  UNL     1      58.079 -25.900  -4.110  1.00  0.00     0.171 A 
HETATM    2  C3  UNL     1      56.901 -26.448  -3.573  1.00  0.00     0.155 A 
HETATM    3  N3  UNL     1      56.251 -26.081  -2.368  1.00  0.00    -0.080 NA
HETATM    4  N4  UNL     1      56.502 -27.403  -4.435  1.00  0.00    -0.293 N 
ATOM      5  H4  UNL     1      55.674 -27.992  -4.333  1.00  0.00     0.172 HD
HETATM    6  C4  UNL     1      57.374 -27.450  -5.447  1.00  0.00     0.347 A 
HETATM    7  O2  UNL     1      57.348 -28.209  -6.448  1.00  0.00    -0.245 OA
HETATM    8  N5  UNL     1      58.353 -26.526  -5.259  1.00  0.00    -0.203 N 
ENDROOT
BRANCH   1   9
HETATM    9  C1  UNL     1      58.799 -24.819  -3.427  1.00  0.00     0.291 C 
HETATM   10  N2  UNL     1      58.218 -23.712  -2.798  1.00  0.00    -0.271 N 
ATOM     11  H2  UNL     1      57.203 -23.608  -2.791  1.00  0.00     0.189 HD
HETATM   12  O1  UNL     1      60.085 -24.863  -3.383  1.00  0.00    -0.264 OA
BRANCH  10  13
HETATM   13  N1  UNL     1      59.015 -22.750  -2.181  1.00  0.00    -0.342 N 
ATOM     14  H12 UNL     1      60.029 -22.820  -2.274  1.00  0.00     0.176 HD
ATOM     15  H11 UNL     1      58.591 -21.992  -1.647  1.00  0.00     0.176 HD
ENDBRANCH  10  13
ENDBRANCH   1   9
BRANCH   8  16
HETATM   16  N6  UNL     1      59.438 -26.275  -6.097  1.00  0.00    -0.334 N 
ATOM     17  H62 UNL     1      59.414 -26.156  -7.110  1.00  0.00     0.177 HD
ATOM     18  H61 UNL     1      60.412 -26.175  -5.811  1.00  0.00     0.177 HD
ENDBRANCH   8  16
TORSDOF 3
ENDMDL
MODEL 4
REMARK VINA RESULT: -6.050035294      2.262      4.056
REMARK  3 active torsions:
REMARK  status: ('A' for Active; 'I' for Inactive)
REMARK    1  A    between atoms: N1_1  and  N2_4 
REMARK       I    between atoms: N2_4  and  C1_6 
REMARK    2  A    between atoms: C1_6  and  C2_8 
REMARK    3  A    between atoms: N5_15  and  N6_16 
ROOT
HETATM    1  C2  UNL     1      57.558 -26.144  -4.267  1.00  0.00     0.171 A 
HETATM    2  C3  UNL     1      58.452 -25.140  -4.679  1.00  0.00     0.155 A 
HETATM    3  N3  UNL     1      58.965 -24.924  -5.982  1.00  0.00    -0.080 NA
HETATM    4  N4  UNL     1      58.731 -24.411  -3.581  1.00  0.00    -0.293 N 
ATOM      5  H4  UNL     1      59.353 -23.602  -3.544  1.00  0.00     0.172 HD
HETATM    6  C4  UNL     1      58.056 -24.926  -2.549  1.00  0.00     0.347 A 
HETATM    7  O2  UNL     1      58.054 -24.526  -1.358  1.00  0.00    -0.245 OA
HETATM    8  N5  UNL     1      57.328 -25.997  -2.958  1.00  0.00    -0.203 N 
ENDROOT
BRANCH   1   9
HETATM    9  C1  UNL     1      57.035 -27.136  -5.213  1.00  0.00     0.291 C 
HETATM   10  N2  UNL     1      57.747 -27.728  -6.263  1.00  0.00    -0.271 N 
ATOM     11  H2  UNL     1      58.723 -27.474  -6.420  1.00  0.00     0.189 HD
HETATM   12  O1  UNL     1      55.811 -27.519  -5.095  1.00  0.00    -0.264 OA
BRANCH  10  13
HETATM   13  N1  UNL     1      57.133 -28.660  -7.096  1.00  0.00    -0.342 N 
ATOM     14  H12 UNL     1      57.561 -29.581  -7.202  1.00  0.00     0.176 HD
ATOM     15  H11 UNL     1      56.272 -28.425  -7.590  1.00  0.00     0.176 HD
ENDBRANCH  10  13
ENDBRANCH   1   9
BRANCH   8  16
HETATM   16  N6  UNL     1      56.498 -26.794  -2.172  1.00  0.00    -0.334 N 
ATOM     17  H62 UNL     1      55.505 -26.975  -2.318  1.00  0.00     0.177 HD
ATOM     18  H61 UNL     1      56.772 -27.310  -1.335  1.00  0.00     0.177 HD
ENDBRANCH   8  16
TORSDOF 3
ENDMDL
MODEL 5
REMARK VINA RESULT: -5.964155492      2.151      3.671
REMARK  3 active torsions:
REMARK  status: ('A' for Active; 'I' for Inactive)
REMARK    1  A    between atoms: N1_1  and  N2_4 
REMARK       I    between atoms: N2_4  and  C1_6 
REMARK    2  A    between atoms: C1_6  and  C2_8 
REMARK    3  A    between atoms: N5_15  and  N6_16 
ROOT
HETATM    1  C2  UNL     1      57.776 -26.073  -3.775  1.00  0.00     0.171 A 
HETATM    2  C3  UNL     1      58.160 -26.176  -5.123  1.00  0.00     0.155 A 
HETATM    3  N3  UNL     1      58.788 -25.186  -5.919  1.00  0.00    -0.080 NA
HETATM    4  N4  UNL     1      57.812 -27.416  -5.521  1.00  0.00    -0.293 N 
ATOM      5  H4  UNL     1      57.955 -27.806  -6.453  1.00  0.00     0.172 HD
HETATM    6  C4  UNL     1      57.246 -28.047  -4.487  1.00  0.00     0.347 A 
HETATM    7  O2  UNL     1      56.790 -29.217  -4.460  1.00  0.00    -0.245 OA
HETATM    8  N5  UNL     1      57.218 -27.229  -3.402  1.00  0.00    -0.203 N 
ENDROOT
BRANCH   1   9
HETATM    9  C1  UNL     1      58.004 -24.843  -3.008  1.00  0.00     0.291 C 
HETATM   10  N2  UNL     1      59.100 -23.982  -3.139  1.00  0.00    -0.271 N 
ATOM     11  H2  UNL     1      59.831 -24.193  -3.820  1.00  0.00     0.189 HD
HETATM   12  O1  UNL     1      57.135 -24.494  -2.124  1.00  0.00    -0.264 OA
BRANCH  10  13
HETATM   13  N1  UNL     1      59.201 -22.840  -2.348  1.00  0.00    -0.342 N 
ATOM     14  H12 UNL     1      59.083 -21.927  -2.787  1.00  0.00     0.176 HD
ATOM     15  H11 UNL     1      59.390 -22.918  -1.349  1.00  0.00     0.176 HD
ENDBRANCH  10  13
ENDBRANCH   1   9
BRANCH   8  16
HETATM   16  N6  UNL     1      56.706 -27.530  -2.142  1.00  0.00    -0.334 N 
ATOM     17  H62 UNL     1      55.799 -27.252  -1.766  1.00  0.00     0.177 HD
ATOM     18  H61 UNL     1      57.172 -28.074  -1.415  1.00  0.00     0.177 HD
ENDBRANCH   8  16
TORSDOF 3
ENDMDL
