MODEL 1
REMARK VINA RESULT: -7.253576849      0.000      0.000
REMARK  2 active torsions:
REMARK  status: ('A' for Active; 'I' for Inactive)
REMARK       I    between atoms: C1_4  and  N3_6 
REMARK    1  A    between atoms: N3_6  and  C2_8 
REMARK       I    between atoms: N7_15  and  C3_16 
REMARK       I    between atoms: C3_16  and  N8_18 
REMARK    2  A    between atoms: N8_18  and  N9_20 
ROOT
HETATM    1  C2  UNL     1      57.202 -27.488  -4.348  1.00  0.00     0.727 A 
HETATM    2  N4  UNL     1      57.145 -28.780  -4.705  1.00  0.00    -0.114 N 
ATOM      3  H4  UNL     1      56.572 -29.493  -4.253  1.00  0.00     0.207 HD
HETATM    4  N5  UNL     1      57.947 -28.984  -5.733  1.00  0.00    -0.213 N 
ATOM      5  H5  UNL     1      58.093 -29.878  -6.203  1.00  0.00     0.210 HD
HETATM    6  N6  UNL     1      58.524 -27.853  -6.053  1.00  0.00    -0.202 N 
ATOM      7  H6  UNL     1      59.193 -27.708  -6.809  1.00  0.00     0.211 HD
HETATM    8  N7  UNL     1      58.071 -26.920  -5.203  1.00  0.00    -0.013 N 
HETATM    9  C3  UNL     1      58.440 -25.550  -5.194  1.00  0.00     0.376 C 
HETATM   10  O1  UNL     1      57.950 -24.776  -4.351  1.00  0.00    -0.243 OA
HETATM   11  N8  UNL     1      59.365 -25.060  -6.142  1.00  0.00    -0.256 N 
ATOM     12  H8  UNL     1      59.755 -25.712  -6.823  1.00  0.00     0.191 HD
ENDROOT
BRANCH   1  13
HETATM   13  N3  UNL     1      56.604 -26.850  -3.422  1.00  0.00    -0.160 N 
HETATM   14  C1  UNL     1      56.834 -26.908  -2.058  1.00  0.00     0.200 C 
HETATM   15  N1  UNL     1      56.217 -27.767  -1.351  1.00  0.00    -0.373 N 
HETATM   16  N2  UNL     1      57.743 -26.030  -1.432  1.00  0.00    -0.063 NA
ATOM     17  H12 UNL     1      56.387 -27.810  -0.346  1.00  0.00     0.158 HD
ATOM     18  H11 UNL     1      55.560 -28.402  -1.804  1.00  0.00     0.158 HD
ATOM     19  H3  UNL     1      55.864 -26.217  -3.722  1.00  0.00     0.187 HD
ENDBRANCH   1  13
BRANCH  11  20
HETATM   20  N9  UNL     1      59.774 -23.725  -6.192  1.00  0.00    -0.341 N 
ATOM     21  H92 UNL     1      60.018 -23.276  -5.309  1.00  0.00     0.177 HD
ATOM     22  H91 UNL     1      59.837 -23.192  -7.060  1.00  0.00     0.177 HD
ENDBRANCH  11  20
TORSDOF 2
ENDMDL
MODEL 2
REMARK VINA RESULT: -7.117167880      6.524      8.535
REMARK  2 active torsions:
REMARK  status: ('A' for Active; 'I' for Inactive)
REMARK       I    between atoms: C1_4  and  N3_6 
REMARK    1  A    between atoms: N3_6  and  C2_8 
REMARK       I    between atoms: N7_15  and  C3_16 
REMARK       I    between atoms: C3_16  and  N8_18 
REMARK    2  A    between atoms: N8_18  and  N9_20 
ROOT
HETATM    1  C2  UNL     1      57.295 -32.267   2.299  1.00  0.00     0.727 A 
HETATM    2  N4  UNL     1      57.247 -31.781   3.549  1.00  0.00    -0.114 N 
ATOM      3  H4  UNL     1      56.911 -32.289   4.368  1.00  0.00     0.207 HD
HETATM    4  N5  UNL     1      57.702 -30.542   3.553  1.00  0.00    -0.213 N 
ATOM      5  H5  UNL     1      57.774 -29.940   4.373  1.00  0.00     0.210 HD
HETATM    6  N6  UNL     1      58.046 -30.212   2.333  1.00  0.00    -0.202 N 
ATOM      7  H6  UNL     1      58.431 -29.316   2.035  1.00  0.00     0.211 HD
HETATM    8  N7  UNL     1      57.799 -31.271   1.548  1.00  0.00    -0.013 N 
HETATM    9  C3  UNL     1      58.026 -31.344   0.150  1.00  0.00     0.376 C 
HETATM   10  O1  UNL     1      57.756 -32.388  -0.474  1.00  0.00    -0.243 OA
HETATM   11  N8  UNL     1      58.560 -30.234  -0.540  1.00  0.00    -0.256 N 
ATOM     12  H8  UNL     1      58.774 -29.390  -0.009  1.00  0.00     0.191 HD
ENDROOT
BRANCH   1  13
HETATM   13  N3  UNL     1      56.962 -33.405   1.831  1.00  0.00    -0.160 N 
HETATM   14  C1  UNL     1      57.649 -34.602   1.927  1.00  0.00     0.200 C 
HETATM   15  N1  UNL     1      58.510 -34.907   1.040  1.00  0.00    -0.373 N 
HETATM   16  N2  UNL     1      57.414 -35.497   2.991  1.00  0.00    -0.063 NA
ATOM     17  H12 UNL     1      59.016 -35.790   1.112  1.00  0.00     0.158 HD
ATOM     18  H11 UNL     1      58.680 -34.260   0.271  1.00  0.00     0.158 HD
ATOM     19  H3  UNL     1      56.080 -33.436   1.322  1.00  0.00     0.187 HD
ENDBRANCH   1  13
BRANCH  11  20
HETATM   20  N9  UNL     1      58.810 -30.235  -1.914  1.00  0.00    -0.341 N 
ATOM     21  H92 UNL     1      59.782 -30.318  -2.213  1.00  0.00     0.177 HD
ATOM     22  H91 UNL     1      58.074 -30.158  -2.616  1.00  0.00     0.177 HD
ENDBRANCH  11  20
TORSDOF 2
ENDMDL
MODEL 3
REMARK VINA RESULT: -7.078034645      1.905      3.204
REMARK  2 active torsions:
REMARK  status: ('A' for Active; 'I' for Inactive)
REMARK       I    between atoms: C1_4  and  N3_6 
REMARK    1  A    between atoms: N3_6  and  C2_8 
REMARK       I    between atoms: N7_15  and  C3_16 
REMARK       I    between atoms: C3_16  and  N8_18 
REMARK    2  A    between atoms: N8_18  and  N9_20 
ROOT
HETATM    1  C2  UNL     1      59.390 -25.514  -4.335  1.00  0.00     0.727 A 
HETATM    2  N4  UNL     1      60.705 -25.303  -4.173  1.00  0.00    -0.114 N 
ATOM      3  H4  UNL     1      61.120 -24.594  -3.568  1.00  0.00     0.207 HD
HETATM    4  N5  UNL     1      61.379 -26.158  -4.919  1.00  0.00    -0.213 N 
ATOM      5  H5  UNL     1      62.395 -26.215  -4.985  1.00  0.00     0.210 HD
HETATM    6  N6  UNL     1      60.530 -26.921  -5.563  1.00  0.00    -0.202 N 
ATOM      7  H6  UNL     1      60.764 -27.671  -6.212  1.00  0.00     0.211 HD
HETATM    8  N7  UNL     1      59.297 -26.532  -5.210  1.00  0.00    -0.013 N 
HETATM    9  C3  UNL     1      58.080 -27.093  -5.675  1.00  0.00     0.376 C 
HETATM   10  O1  UNL     1      56.990 -26.644  -5.273  1.00  0.00    -0.243 OA
HETATM   11  N8  UNL     1      58.100 -28.162  -6.597  1.00  0.00    -0.256 N 
ATOM     12  H8  UNL     1      59.004 -28.513  -6.913  1.00  0.00     0.191 HD
ENDROOT
BRANCH   1  13
HETATM   13  N3  UNL     1      58.380 -24.933  -3.819  1.00  0.00    -0.160 N 
HETATM   14  C1  UNL     1      57.812 -25.151  -2.576  1.00  0.00     0.200 C 
HETATM   15  N1  UNL     1      56.901 -26.030  -2.445  1.00  0.00    -0.373 N 
HETATM   16  N2  UNL     1      58.222 -24.415  -1.445  1.00  0.00    -0.063 NA
ATOM     17  H12 UNL     1      56.483 -26.191  -1.529  1.00  0.00     0.158 HD
ATOM     18  H11 UNL     1      56.605 -26.562  -3.263  1.00  0.00     0.158 HD
ATOM     19  H3  UNL     1      57.936 -24.217  -4.393  1.00  0.00     0.187 HD
ENDBRANCH   1  13
BRANCH  11  20
HETATM   20  N9  UNL     1      56.942 -28.763  -7.097  1.00  0.00    -0.341 N 
ATOM     21  H92 UNL     1      56.959 -29.077  -8.067  1.00  0.00     0.177 HD
ATOM     22  H91 UNL     1      56.098 -28.898  -6.540  1.00  0.00     0.177 HD
ENDBRANCH  11  20
TORSDOF 2
ENDMDL
MODEL 4
REMARK VINA RESULT: -6.879099282      2.001      3.743
REMARK  2 active torsions:
REMARK  status: ('A' for Active; 'I' for Inactive)
REMARK       I    between atoms: C1_4  and  N3_6 
REMARK    1  A    between atoms: N3_6  and  C2_8 
REMARK       I    between atoms: N7_15  and  C3_16 
REMARK       I    between atoms: C3_16  and  N8_18 
REMARK    2  A    between atoms: N8_18  and  N9_20 
ROOT
HETATM    1  C2  UNL     1      57.596 -25.797  -3.120  1.00  0.00     0.727 A 
HETATM    2  N4  UNL     1      57.263 -25.999  -1.836  1.00  0.00    -0.114 N 
ATOM      3  H4  UNL     1      57.418 -25.338  -1.074  1.00  0.00     0.207 HD
HETATM    4  N5  UNL     1      56.703 -27.188  -1.712  1.00  0.00    -0.213 N 
ATOM      5  H5  UNL     1      56.356 -27.592  -0.842  1.00  0.00     0.210 HD
HETATM    6  N6  UNL     1      56.663 -27.763  -2.888  1.00  0.00    -0.202 N 
ATOM      7  H6  UNL     1      56.284 -28.687  -3.096  1.00  0.00     0.211 HD
HETATM    8  N7  UNL     1      57.213 -26.913  -3.767  1.00  0.00    -0.013 N 
HETATM    9  C3  UNL     1      57.373 -27.140  -5.158  1.00  0.00     0.376 C 
HETATM   10  O1  UNL     1      57.902 -26.270  -5.876  1.00  0.00    -0.243 OA
HETATM   11  N8  UNL     1      56.934 -28.352  -5.733  1.00  0.00    -0.256 N 
ATOM     12  H8  UNL     1      56.504 -29.050  -5.126  1.00  0.00     0.191 HD
ENDROOT
BRANCH   1  13
HETATM   13  N3  UNL     1      58.152 -24.805  -3.693  1.00  0.00    -0.160 N 
HETATM   14  C1  UNL     1      58.945 -23.824  -3.124  1.00  0.00     0.200 C 
HETATM   15  N1  UNL     1      58.405 -22.771  -2.655  1.00  0.00    -0.373 N 
HETATM   16  N2  UNL     1      60.346 -23.966  -3.053  1.00  0.00    -0.063 NA
ATOM     17  H12 UNL     1      58.991 -22.048  -2.235  1.00  0.00     0.158 HD
ATOM     18  H11 UNL     1      57.393 -22.669  -2.706  1.00  0.00     0.158 HD
ATOM     19  H3  UNL     1      57.993 -24.723  -4.697  1.00  0.00     0.187 HD
ENDBRANCH   1  13
BRANCH  11  20
HETATM   20  N9  UNL     1      57.059 -28.642  -7.094  1.00  0.00    -0.341 N 
ATOM     21  H92 UNL     1      56.712 -29.547  -7.414  1.00  0.00     0.177 HD
ATOM     22  H91 UNL     1      57.474 -27.998  -7.768  1.00  0.00     0.177 HD
ENDBRANCH  11  20
TORSDOF 2
ENDMDL
MODEL 5
REMARK VINA RESULT: -6.872619203      1.274      4.070
REMARK  2 active torsions:
REMARK  status: ('A' for Active; 'I' for Inactive)
REMARK       I    between atoms: C1_4  and  N3_6 
REMARK    1  A    between atoms: N3_6  and  C2_8 
REMARK       I    between atoms: N7_15  and  C3_16 
REMARK       I    between atoms: C3_16  and  N8_18 
REMARK    2  A    between atoms: N8_18  and  N9_20 
ROOT
HETATM    1  C2  UNL     1      58.577 -26.678  -5.366  1.00  0.00     0.727 A 
HETATM    2  N4  UNL     1      58.581 -27.294  -6.558  1.00  0.00    -0.114 N 
ATOM      3  H4  UNL     1      59.088 -26.977  -7.385  1.00  0.00     0.207 HD
HETATM    4  N5  UNL     1      57.826 -28.375  -6.493  1.00  0.00    -0.213 N 
ATOM      5  H5  UNL     1      57.656 -29.026  -7.259  1.00  0.00     0.210 HD
HETATM    6  N6  UNL     1      57.333 -28.476  -5.284  1.00  0.00    -0.202 N 
ATOM      7  H6  UNL     1      56.715 -29.213  -4.943  1.00  0.00     0.211 HD
HETATM    8  N7  UNL     1      57.789 -27.432  -4.577  1.00  0.00    -0.013 N 
HETATM    9  C3  UNL     1      57.497 -27.154  -3.218  1.00  0.00     0.376 C 
HETATM   10  O1  UNL     1      57.983 -26.148  -2.667  1.00  0.00    -0.243 OA
HETATM   11  N8  UNL     1      56.654 -28.016  -2.483  1.00  0.00    -0.256 N 
ATOM     12  H8  UNL     1      56.267 -28.834  -2.954  1.00  0.00     0.191 HD
ENDROOT
BRANCH   1  13
HETATM   13  N3  UNL     1      59.158 -25.614  -4.972  1.00  0.00    -0.160 N 
HETATM   14  C1  UNL     1      58.988 -24.325  -5.443  1.00  0.00     0.200 C 
HETATM   15  N1  UNL     1      59.702 -23.909  -6.412  1.00  0.00    -0.373 N 
HETATM   16  N2  UNL     1      58.038 -23.455  -4.871  1.00  0.00    -0.063 NA
ATOM     17  H12 UNL     1      59.577 -22.958  -6.759  1.00  0.00     0.158 HD
ATOM     18  H11 UNL     1      60.390 -24.537  -6.826  1.00  0.00     0.158 HD
ATOM     19  H3  UNL     1      59.831 -25.728  -4.216  1.00  0.00     0.187 HD
ENDBRANCH   1  13
BRANCH  11  20
HETATM   20  N9  UNL     1      56.325 -27.804  -1.142  1.00  0.00    -0.341 N 
ATOM     21  H92 UNL     1      56.431 -26.858  -0.778  1.00  0.00     0.177 HD
ATOM     22  H91 UNL     1      55.988 -28.544  -0.526  1.00  0.00     0.177 HD
ENDBRANCH  11  20
TORSDOF 2
ENDMDL
