MODEL 1
REMARK VINA RESULT: -9.578255566      0.000      0.000
REMARK  8 active torsions:
REMARK  status: ('A' for Active; 'I' for Inactive)
REMARK    1  A    between atoms: C2_2  and  C3_3 
REMARK    2  A    between atoms: C4_4  and  O1_5 
REMARK    3  A    between atoms: C9_11  and  O2_12 
REMARK    4  A    between atoms: O2_12  and  C10_13 
REMARK    5  A    between atoms: C10_13  and  C11_15 
REMARK    6  A    between atoms: C12_16  and  C13_17 
REMARK    7  A    between atoms: C27_33  and  O5_34 
REMARK    8  A    between atoms: C28_36  and  O6_37 
ROOT
HETATM    1  C3  UNL     1       1.264  31.993  25.792  1.00  0.00     0.043 C 
HETATM    2  C4  UNL     1      -0.226  31.771  25.713  1.00  0.00     0.130 C 
HETATM    3  C5  UNL     1      -0.808  33.143  25.331  1.00  0.00     0.018 C 
HETATM    4  C6  UNL     1      -1.972  32.920  24.453  1.00  0.00     0.013 C 
HETATM    5  C7  UNL     1       0.329  33.911  24.868  1.00  0.00     0.029 C 
HETATM    6  C8  UNL     1       1.467  32.906  24.606  1.00  0.00     0.032 C 
HETATM    7  C9  UNL     1       2.723  33.709  24.640  1.00  0.00     0.138 C 
HETATM    8  C16 UNL     1       2.706  34.893  23.740  1.00  0.00     0.048 C 
HETATM    9  C17 UNL     1       1.461  35.699  23.803  1.00  0.00     0.024 C 
HETATM   10  C18 UNL     1       1.375  36.541  25.084  1.00  0.00     0.043 C 
HETATM   11  C19 UNL     1       2.029  37.640  24.231  1.00  0.00     0.117 C 
HETATM   12  N1  UNL     1       1.690  38.956  24.505  1.00  0.00    -0.382 N 
HETATM   13  C20 UNL     1       2.697  39.734  25.182  1.00  0.00     0.146 C 
HETATM   14  C21 UNL     1       0.801  39.667  23.709  1.00  0.00     0.249 A 
HETATM   15  O4  UNL     1       1.327  41.066  23.497  1.00  0.00    -0.354 OA
HETATM   16  C22 UNL     1       1.136  40.204  22.454  1.00  0.00     0.176 A 
HETATM   17  C23 UNL     1       2.275  39.607  21.688  1.00  0.00     0.015 C 
HETATM   18  C24 UNL     1       2.576  40.553  20.523  1.00  0.00     0.012 C 
HETATM   19  C25 UNL     1       1.771  38.312  21.048  1.00  0.00     0.010 C 
HETATM   20  C26 UNL     1       2.244  37.120  21.847  1.00  0.00     0.041 C 
HETATM   21  C27 UNL     1       1.382  36.975  23.056  1.00  0.00     0.088 C 
HETATM   22  C28 UNL     1       0.251  34.741  23.644  1.00  0.00     0.137 C 
ENDROOT
BRANCH  21  23
HETATM   23  O5  UNL     1       0.046  37.327  22.834  1.00  0.00    -0.387 OA
ATOM     24  H5  UNL     1      -0.266  37.893  23.530  1.00  0.00     0.210 HD
ENDBRANCH  21  23
BRANCH  22  25
HETATM   25  O6  UNL     1       0.634  33.951  22.540  1.00  0.00    -0.389 OA
HETATM   26  C29 UNL     1      -0.264  33.931  21.512  1.00  0.00     0.202 C 
ENDBRANCH  22  25
BRANCH   7  27
HETATM   27  O2  UNL     1       3.076  34.023  25.973  1.00  0.00    -0.312 OA
BRANCH  27  28
HETATM   28  C10 UNL     1       4.269  34.602  26.350  1.00  0.00     0.283 C 
HETATM   29  O3  UNL     1       4.236  35.604  27.118  1.00  0.00    -0.260 OA
BRANCH  28  30
HETATM   30  C11 UNL     1       5.543  34.077  25.877  1.00  0.00     0.082 C 
HETATM   31  C12 UNL     1       5.692  32.791  25.618  1.00  0.00     0.006 C 
BRANCH  31  32
HETATM   32  C13 UNL     1       6.955  32.253  25.146  1.00  0.00    -0.004 C 
HETATM   33  C14 UNL     1       7.003  31.051  24.615  1.00  0.00    -0.031 C 
HETATM   34  C15 UNL     1       5.769  30.235  24.493  1.00  0.00     0.036 C 
ENDBRANCH  31  32
ENDBRANCH  28  30
ENDBRANCH  27  28
ENDBRANCH   7  27
BRANCH   1  35
HETATM   35  C2  UNL     1       1.986  30.725  25.666  1.00  0.00    -0.029 C 
HETATM   36  C1  UNL     1       2.172  30.155  24.493  1.00  0.00     0.007 C 
ENDBRANCH   1  35
BRANCH   2  37
HETATM   37  O1  UNL     1      -0.791  31.318  26.892  1.00  0.00    -0.395 OA
ATOM     38  H1  UNL     1      -1.264  31.985  27.375  1.00  0.00     0.210 HD
ENDBRANCH   2  37
TORSDOF 8
ENDMDL
MODEL 2
REMARK VINA RESULT: -9.436639052      2.277      5.519
REMARK  8 active torsions:
REMARK  status: ('A' for Active; 'I' for Inactive)
REMARK    1  A    between atoms: C2_2  and  C3_3 
REMARK    2  A    between atoms: C4_4  and  O1_5 
REMARK    3  A    between atoms: C9_11  and  O2_12 
REMARK    4  A    between atoms: O2_12  and  C10_13 
REMARK    5  A    between atoms: C10_13  and  C11_15 
REMARK    6  A    between atoms: C12_16  and  C13_17 
REMARK    7  A    between atoms: C27_33  and  O5_34 
REMARK    8  A    between atoms: C28_36  and  O6_37 
ROOT
HETATM    1  C3  UNL     1       3.860  32.288  24.968  1.00  0.00     0.043 C 
HETATM    2  C4  UNL     1       5.274  31.810  25.186  1.00  0.00     0.130 C 
HETATM    3  C5  UNL     1       6.131  33.087  25.143  1.00  0.00     0.018 C 
HETATM    4  C6  UNL     1       7.240  32.929  26.102  1.00  0.00     0.013 C 
HETATM    5  C7  UNL     1       5.183  34.173  25.284  1.00  0.00     0.029 C 
HETATM    6  C8  UNL     1       3.869  33.552  25.794  1.00  0.00     0.032 C 
HETATM    7  C9  UNL     1       2.803  34.536  25.447  1.00  0.00     0.138 C 
HETATM    8  C16 UNL     1       3.078  35.917  25.927  1.00  0.00     0.048 C 
HETATM    9  C17 UNL     1       4.460  36.395  25.673  1.00  0.00     0.024 C 
HETATM   10  C18 UNL     1       4.693  36.749  24.199  1.00  0.00     0.043 C 
HETATM   11  C19 UNL     1       4.293  38.170  24.628  1.00  0.00     0.117 C 
HETATM   12  N1  UNL     1       4.888  39.234  23.969  1.00  0.00    -0.382 N 
HETATM   13  C20 UNL     1       4.049  39.940  23.033  1.00  0.00     0.146 C 
HETATM   14  C21 UNL     1       5.918  39.970  24.542  1.00  0.00     0.249 A 
HETATM   15  O4  UNL     1       5.692  41.439  24.276  1.00  0.00    -0.354 OA
HETATM   16  C22 UNL     1       5.722  40.935  25.546  1.00  0.00     0.176 A 
HETATM   17  C23 UNL     1       4.499  40.853  26.405  1.00  0.00     0.015 C 
HETATM   18  C24 UNL     1       4.418  42.161  27.195  1.00  0.00     0.012 C 
HETATM   19  C25 UNL     1       4.739  39.757  27.445  1.00  0.00     0.010 C 
HETATM   20  C26 UNL     1       4.019  38.491  27.041  1.00  0.00     0.041 C 
HETATM   21  C27 UNL     1       4.811  37.800  25.983  1.00  0.00     0.088 C 
HETATM   22  C28 UNL     1       5.451  35.317  26.186  1.00  0.00     0.137 C 
ENDROOT
BRANCH  21  23
HETATM   23  O5  UNL     1       6.194  37.931  26.146  1.00  0.00    -0.387 OA
ATOM     24  H5  UNL     1       6.535  38.597  25.561  1.00  0.00     0.210 HD
ENDBRANCH  21  23
BRANCH  22  25
HETATM   25  O6  UNL     1       4.934  35.013  27.462  1.00  0.00    -0.389 OA
HETATM   26  C29 UNL     1       5.720  35.410  28.507  1.00  0.00     0.202 C 
ENDBRANCH  22  25
BRANCH   7  27
HETATM   27  O2  UNL     1       2.498  34.471  24.068  1.00  0.00    -0.312 OA
BRANCH  27  28
HETATM   28  C10 UNL     1       1.233  34.619  23.540  1.00  0.00     0.283 C 
HETATM   29  O3  UNL     1       0.956  35.691  22.933  1.00  0.00    -0.260 OA
BRANCH  28  30
HETATM   30  C11 UNL     1       0.232  33.569  23.676  1.00  0.00     0.082 C 
HETATM   31  C12 UNL     1      -0.409  33.389  24.816  1.00  0.00     0.006 C 
BRANCH  31  32
HETATM   32  C13 UNL     1      -1.408  32.347  24.967  1.00  0.00    -0.004 C 
HETATM   33  C14 UNL     1      -1.388  31.560  26.021  1.00  0.00    -0.031 C 
HETATM   34  C15 UNL     1      -0.344  31.730  27.064  1.00  0.00     0.036 C 
ENDBRANCH  31  32
ENDBRANCH  28  30
ENDBRANCH  27  28
ENDBRANCH   7  27
BRANCH   1  35
HETATM   35  C2  UNL     1       2.897  31.297  25.453  1.00  0.00    -0.029 C 
HETATM   36  C1  UNL     1       2.221  30.531  24.621  1.00  0.00     0.007 C 
ENDBRANCH   1  35
BRANCH   2  37
HETATM   37  O1  UNL     1       5.714  30.902  24.239  1.00  0.00    -0.395 OA
ATOM     38  H1  UNL     1       6.117  30.124  24.607  1.00  0.00     0.210 HD
ENDBRANCH   2  37
TORSDOF 8
ENDMDL
MODEL 3
REMARK VINA RESULT: -9.201455057      0.742      1.098
REMARK  8 active torsions:
REMARK  status: ('A' for Active; 'I' for Inactive)
REMARK    1  A    between atoms: C2_2  and  C3_3 
REMARK    2  A    between atoms: C4_4  and  O1_5 
REMARK    3  A    between atoms: C9_11  and  O2_12 
REMARK    4  A    between atoms: O2_12  and  C10_13 
REMARK    5  A    between atoms: C10_13  and  C11_15 
REMARK    6  A    between atoms: C12_16  and  C13_17 
REMARK    7  A    between atoms: C27_33  and  O5_34 
REMARK    8  A    between atoms: C28_36  and  O6_37 
ROOT
HETATM    1  C3  UNL     1       1.078  32.015  25.488  1.00  0.00     0.043 C 
HETATM    2  C4  UNL     1      -0.419  31.869  25.367  1.00  0.00     0.130 C 
HETATM    3  C5  UNL     1      -0.925  33.283  25.032  1.00  0.00     0.018 C 
HETATM    4  C6  UNL     1      -2.077  33.154  24.120  1.00  0.00     0.013 C 
HETATM    5  C7  UNL     1       0.258  34.012  24.627  1.00  0.00     0.029 C 
HETATM    6  C8  UNL     1       1.352  32.965  24.347  1.00  0.00     0.032 C 
HETATM    7  C9  UNL     1       2.645  33.703  24.442  1.00  0.00     0.138 C 
HETATM    8  C16 UNL     1       2.706  34.923  23.593  1.00  0.00     0.048 C 
HETATM    9  C17 UNL     1       1.500  35.786  23.664  1.00  0.00     0.024 C 
HETATM   10  C18 UNL     1       1.425  36.576  24.977  1.00  0.00     0.043 C 
HETATM   11  C19 UNL     1       2.151  37.677  24.186  1.00  0.00     0.117 C 
HETATM   12  N1  UNL     1       1.870  38.995  24.509  1.00  0.00    -0.382 N 
HETATM   13  C20 UNL     1       2.897  39.694  25.240  1.00  0.00     0.146 C 
HETATM   14  C21 UNL     1       1.035  39.781  23.725  1.00  0.00     0.249 A 
HETATM   15  O4  UNL     1       1.633  41.161  23.584  1.00  0.00    -0.354 OA
HETATM   16  C22 UNL     1       1.425  40.354  22.501  1.00  0.00     0.176 A 
HETATM   17  C23 UNL     1       2.552  39.733  21.735  1.00  0.00     0.015 C 
HETATM   18  C24 UNL     1       2.925  40.711  20.619  1.00  0.00     0.012 C 
HETATM   19  C25 UNL     1       2.001  38.493  21.030  1.00  0.00     0.010 C 
HETATM   20  C26 UNL     1       2.397  37.246  21.787  1.00  0.00     0.041 C 
HETATM   21  C27 UNL     1       1.500  37.094  22.970  1.00  0.00     0.088 C 
HETATM   22  C28 UNL     1       0.250  34.896  23.438  1.00  0.00     0.137 C 
ENDROOT
BRANCH  21  23
HETATM   23  O5  UNL     1       0.189  37.521  22.735  1.00  0.00    -0.387 OA
ATOM     24  H5  UNL     1      -0.010  37.482  21.807  1.00  0.00     0.210 HD
ENDBRANCH  21  23
BRANCH  22  25
HETATM   25  O6  UNL     1       0.620  34.135  22.310  1.00  0.00    -0.389 OA
HETATM   26  C29 UNL     1      -0.173  34.316  21.212  1.00  0.00     0.202 C 
ENDBRANCH  22  25
BRANCH   7  27
HETATM   27  O2  UNL     1       2.981  33.943  25.794  1.00  0.00    -0.312 OA
BRANCH  27  28
HETATM   28  C10 UNL     1       4.270  34.031  26.275  1.00  0.00     0.283 C 
HETATM   29  O3  UNL     1       4.513  34.858  27.198  1.00  0.00    -0.260 OA
BRANCH  28  30
HETATM   30  C11 UNL     1       5.334  33.194  25.735  1.00  0.00     0.082 C 
HETATM   31  C12 UNL     1       6.251  33.700  24.931  1.00  0.00     0.006 C 
BRANCH  31  32
HETATM   32  C13 UNL     1       7.316  32.879  24.386  1.00  0.00    -0.004 C 
HETATM   33  C14 UNL     1       8.573  33.231  24.553  1.00  0.00    -0.031 C 
HETATM   34  C15 UNL     1       8.911  34.468  25.301  1.00  0.00     0.036 C 
ENDBRANCH  31  32
ENDBRANCH  28  30
ENDBRANCH  27  28
ENDBRANCH   7  27
BRANCH   1  35
HETATM   35  C2  UNL     1       1.740  30.719  25.323  1.00  0.00    -0.029 C 
HETATM   36  C1  UNL     1       2.831  30.592  24.594  1.00  0.00     0.007 C 
ENDBRANCH   1  35
BRANCH   2  37
HETATM   37  O1  UNL     1      -1.033  31.396  26.513  1.00  0.00    -0.395 OA
ATOM     38  H1  UNL     1      -0.465  31.373  27.275  1.00  0.00     0.210 HD
ENDBRANCH   2  37
TORSDOF 8
ENDMDL
MODEL 4
REMARK VINA RESULT: -8.976434789      2.352      6.106
REMARK  8 active torsions:
REMARK  status: ('A' for Active; 'I' for Inactive)
REMARK    1  A    between atoms: C2_2  and  C3_3 
REMARK    2  A    between atoms: C4_4  and  O1_5 
REMARK    3  A    between atoms: C9_11  and  O2_12 
REMARK    4  A    between atoms: O2_12  and  C10_13 
REMARK    5  A    between atoms: C10_13  and  C11_15 
REMARK    6  A    between atoms: C12_16  and  C13_17 
REMARK    7  A    between atoms: C27_33  and  O5_34 
REMARK    8  A    between atoms: C28_36  and  O6_37 
ROOT
HETATM    1  C3  UNL     1       6.128  31.395  24.234  1.00  0.00     0.043 C 
HETATM    2  C4  UNL     1       7.566  31.682  23.878  1.00  0.00     0.130 C 
HETATM    3  C5  UNL     1       7.685  33.215  23.934  1.00  0.00     0.018 C 
HETATM    4  C6  UNL     1       9.031  33.553  24.434  1.00  0.00     0.013 C 
HETATM    5  C7  UNL     1       6.502  33.652  24.645  1.00  0.00     0.029 C 
HETATM    6  C8  UNL     1       5.912  32.408  25.333  1.00  0.00     0.032 C 
HETATM    7  C9  UNL     1       4.484  32.743  25.606  1.00  0.00     0.138 C 
HETATM    8  C16 UNL     1       4.295  34.021  26.342  1.00  0.00     0.048 C 
HETATM    9  C17 UNL     1       5.103  35.155  25.828  1.00  0.00     0.024 C 
HETATM   10  C18 UNL     1       4.554  35.712  24.508  1.00  0.00     0.043 C 
HETATM   11  C19 UNL     1       3.782  36.688  25.410  1.00  0.00     0.117 C 
HETATM   12  N1  UNL     1       3.539  37.963  24.922  1.00  0.00    -0.382 N 
HETATM   13  C20 UNL     1       2.182  38.228  24.512  1.00  0.00     0.146 C 
HETATM   14  C21 UNL     1       4.278  39.062  25.340  1.00  0.00     0.249 A 
HETATM   15  O4  UNL     1       3.350  40.232  25.569  1.00  0.00    -0.354 OA
HETATM   16  C22 UNL     1       4.096  39.698  26.581  1.00  0.00     0.176 A 
HETATM   17  C23 UNL     1       3.483  38.929  27.710  1.00  0.00     0.015 C 
HETATM   18  C24 UNL     1       3.161  39.937  28.815  1.00  0.00     0.012 C 
HETATM   19  C25 UNL     1       4.566  38.015  28.286  1.00  0.00     0.010 C 
HETATM   20  C26 UNL     1       4.375  36.603  27.785  1.00  0.00     0.041 C 
HETATM   21  C27 UNL     1       4.899  36.509  26.391  1.00  0.00     0.088 C 
HETATM   22  C28 UNL     1       6.577  34.686  25.703  1.00  0.00     0.137 C 
ENDROOT
BRANCH  21  23
HETATM   23  O5  UNL     1       6.024  37.307  26.163  1.00  0.00    -0.387 OA
ATOM     24  H5  UNL     1       6.394  37.120  25.308  1.00  0.00     0.210 HD
ENDBRANCH  21  23
BRANCH  22  25
HETATM   25  O6  UNL     1       6.797  34.047  26.940  1.00  0.00    -0.389 OA
HETATM   26  C29 UNL     1       7.622  34.721  27.794  1.00  0.00     0.202 C 
ENDBRANCH  22  25
BRANCH   7  27
HETATM   27  O2  UNL     1       3.720  32.659  24.419  1.00  0.00    -0.312 OA
BRANCH  27  28
HETATM   28  C10 UNL     1       2.456  32.114  24.341  1.00  0.00     0.283 C 
HETATM   29  O3  UNL     1       2.324  30.871  24.521  1.00  0.00    -0.260 OA
BRANCH  28  30
HETATM   30  C11 UNL     1       1.294  32.946  24.057  1.00  0.00     0.082 C 
HETATM   31  C12 UNL     1       1.417  34.250  23.898  1.00  0.00     0.006 C 
BRANCH  31  32
HETATM   32  C13 UNL     1       0.269  35.092  23.615  1.00  0.00    -0.004 C 
HETATM   33  C14 UNL     1       0.261  35.861  22.547  1.00  0.00    -0.031 C 
HETATM   34  C15 UNL     1       1.424  35.874  21.625  1.00  0.00     0.036 C 
ENDBRANCH  31  32
ENDBRANCH  28  30
ENDBRANCH  27  28
ENDBRANCH   7  27
BRANCH   1  35
HETATM   35  C2  UNL     1       5.973  30.013  24.693  1.00  0.00    -0.029 C 
HETATM   36  C1  UNL     1       5.425  29.092  23.927  1.00  0.00     0.007 C 
ENDBRANCH   1  35
BRANCH   2  37
HETATM   37  O1  UNL     1       7.942  31.214  22.632  1.00  0.00    -0.395 OA
ATOM     38  H1  UNL     1       8.836  30.895  22.592  1.00  0.00     0.210 HD
ENDBRANCH   2  37
TORSDOF 8
ENDMDL
MODEL 5
REMARK VINA RESULT: -8.954163761      1.908      5.248
REMARK  8 active torsions:
REMARK  status: ('A' for Active; 'I' for Inactive)
REMARK    1  A    between atoms: C2_2  and  C3_3 
REMARK    2  A    between atoms: C4_4  and  O1_5 
REMARK    3  A    between atoms: C9_11  and  O2_12 
REMARK    4  A    between atoms: O2_12  and  C10_13 
REMARK    5  A    between atoms: C10_13  and  C11_15 
REMARK    6  A    between atoms: C12_16  and  C13_17 
REMARK    7  A    between atoms: C27_33  and  O5_34 
REMARK    8  A    between atoms: C28_36  and  O6_37 
ROOT
HETATM    1  C3  UNL     1       3.715  32.020  24.782  1.00  0.00     0.043 C 
HETATM    2  C4  UNL     1       5.199  31.811  24.953  1.00  0.00     0.130 C 
HETATM    3  C5  UNL     1       5.815  33.211  24.786  1.00  0.00     0.018 C 
HETATM    4  C6  UNL     1       6.974  33.314  25.692  1.00  0.00     0.013 C 
HETATM    5  C7  UNL     1       4.697  34.123  24.912  1.00  0.00     0.029 C 
HETATM    6  C8  UNL     1       3.536  33.321  25.529  1.00  0.00     0.032 C 
HETATM    7  C9  UNL     1       2.299  34.079  25.181  1.00  0.00     0.138 C 
HETATM    8  C16 UNL     1       2.346  35.516  25.561  1.00  0.00     0.048 C 
HETATM    9  C17 UNL     1       3.610  36.208  25.205  1.00  0.00     0.024 C 
HETATM   10  C18 UNL     1       3.714  36.495  23.701  1.00  0.00     0.043 C 
HETATM   11  C19 UNL     1       3.088  37.852  24.065  1.00  0.00     0.117 C 
HETATM   12  N1  UNL     1       3.458  38.955  23.311  1.00  0.00    -0.382 N 
HETATM   13  C20 UNL     1       2.469  39.438  22.381  1.00  0.00     0.146 C 
HETATM   14  C21 UNL     1       4.365  39.895  23.783  1.00  0.00     0.249 A 
HETATM   15  O4  UNL     1       3.872  41.281  23.442  1.00  0.00    -0.354 OA
HETATM   16  C22 UNL     1       4.044  40.878  24.736  1.00  0.00     0.176 A 
HETATM   17  C23 UNL     1       2.892  40.645  25.663  1.00  0.00     0.015 C 
HETATM   18  C24 UNL     1       2.616  41.971  26.375  1.00  0.00     0.012 C 
HETATM   19  C25 UNL     1       3.366  39.681  26.752  1.00  0.00     0.010 C 
HETATM   20  C26 UNL     1       2.864  38.285  26.465  1.00  0.00     0.041 C 
HETATM   21  C27 UNL     1       3.721  37.670  25.410  1.00  0.00     0.088 C 
HETATM   22  C28 UNL     1       4.796  35.356  25.728  1.00  0.00     0.137 C 
ENDROOT
BRANCH  21  23
HETATM   23  O5  UNL     1       5.064  38.050  25.490  1.00  0.00    -0.387 OA
ATOM     24  H5  UNL     1       5.373  38.355  24.645  1.00  0.00     0.210 HD
ENDBRANCH  21  23
BRANCH  22  25
HETATM   25  O6  UNL     1       4.396  35.056  27.046  1.00  0.00    -0.389 OA
HETATM   26  C29 UNL     1       5.188  35.592  28.021  1.00  0.00     0.202 C 
ENDBRANCH  22  25
BRANCH   7  27
HETATM   27  O2  UNL     1       1.952  33.867  23.826  1.00  0.00    -0.312 OA
BRANCH  27  28
HETATM   28  C10 UNL     1       0.661  33.721  23.364  1.00  0.00     0.283 C 
HETATM   29  O3  UNL     1      -0.089  32.877  23.930  1.00  0.00    -0.260 OA
BRANCH  28  30
HETATM   30  C11 UNL     1       0.166  34.517  22.249  1.00  0.00     0.082 C 
HETATM   31  C12 UNL     1       0.888  35.501  21.746  1.00  0.00     0.006 C 
BRANCH  31  32
HETATM   32  C13 UNL     1       0.408  36.303  20.635  1.00  0.00    -0.004 C 
HETATM   33  C14 UNL     1       1.262  36.836  19.788  1.00  0.00    -0.031 C 
HETATM   34  C15 UNL     1       2.721  36.621  19.960  1.00  0.00     0.036 C 
ENDBRANCH  31  32
ENDBRANCH  28  30
ENDBRANCH  27  28
ENDBRANCH   7  27
BRANCH   1  35
HETATM   35  C2  UNL     1       2.963  30.913  25.377  1.00  0.00    -0.029 C 
HETATM   36  C1  UNL     1       2.032  30.273  24.700  1.00  0.00     0.007 C 
ENDBRANCH   1  35
BRANCH   2  37
HETATM   37  O1  UNL     1       5.752  30.930  24.040  1.00  0.00    -0.395 OA
ATOM     38  H1  UNL     1       5.329  30.939  23.189  1.00  0.00     0.210 HD
ENDBRANCH   2  37
TORSDOF 8
ENDMDL
