MODEL 1
REMARK VINA RESULT: -6.835400644      0.000      0.000
REMARK  9 active torsions:
REMARK  status: ('A' for Active; 'I' for Inactive)
REMARK    1  A    between atoms: C2_2  and  O1_3 
REMARK    2  A    between atoms: O1_3  and  C3_4 
REMARK    3  A    between atoms: C3_4  and  C4_5 
REMARK    4  A    between atoms: C4_5  and  O2_6 
REMARK    5  A    between atoms: C4_5  and  C6_8 
REMARK    6  A    between atoms: C11_14  and  O4_15 
REMARK    7  A    between atoms: C15_21  and  O6_22 
REMARK    8  A    between atoms: C16_24  and  C17_25 
REMARK    9  A    between atoms: C17_25  and  O8_27 
ROOT
HETATM    1  C6  UNL     1       4.228  40.023  24.494  1.00  0.00     0.058 C 
HETATM    2  C7  UNL     1       3.177  40.752  25.278  1.00  0.00     0.159 A 
HETATM    3  O3  UNL     1       2.014  40.115  25.656  1.00  0.00    -0.374 OA
HETATM    4  C8  UNL     1       2.881  40.524  26.613  1.00  0.00     0.157 A 
HETATM    5  C9  UNL     1       3.847  39.738  27.369  1.00  0.00     0.043 C 
HETATM    6  C10 UNL     1       3.363  39.738  28.851  1.00  0.00     0.015 C 
HETATM    7  C11 UNL     1       4.006  38.286  27.059  1.00  0.00     0.134 C 
HETATM    8  C12 UNL     1       4.314  37.809  25.743  1.00  0.00     0.007 A 
HETATM    9  C13 UNL     1       3.238  36.870  25.163  1.00  0.00     0.099 C 
HETATM   10  C14 UNL     1       3.824  35.610  24.647  1.00  0.00     0.179 C 
HETATM   11  O5  UNL     1       3.763  35.267  23.450  1.00  0.00    -0.291 OA
HETATM   12  C15 UNL     1       4.558  34.586  25.476  1.00  0.00     0.103 C 
HETATM   13  C16 UNL     1       5.897  34.233  24.940  1.00  0.00     0.153 C 
HETATM   14  C19 UNL     1       7.096  34.458  25.750  1.00  0.00    -0.029 C 
HETATM   15  C20 UNL     1       8.307  34.230  24.826  1.00  0.00     0.016 C 
HETATM   16  C21 UNL     1       7.276  33.411  26.859  1.00  0.00     0.016 C 
HETATM   17  C22 UNL     1       7.322  35.791  26.386  1.00  0.00     0.011 C 
HETATM   18  C23 UNL     1       7.712  36.919  25.546  1.00  0.00     0.010 C 
HETATM   19  C24 UNL     1       6.795  37.896  24.985  1.00  0.00    -0.038 C 
HETATM   20  C25 UNL     1       7.498  38.410  23.689  1.00  0.00     0.015 C 
HETATM   21  C26 UNL     1       6.380  39.147  25.688  1.00  0.00     0.021 C 
HETATM   22  C27 UNL     1       4.965  38.941  25.076  1.00  0.00    -0.015 A 
HETATM   23  C28 UNL     1       5.373  37.635  24.837  1.00  0.00     0.016 A 
ENDROOT
BRANCH   1  24
HETATM   24  C4  UNL     1       3.693  39.939  23.081  1.00  0.00     0.152 C 
BRANCH  24  25
HETATM   25  C3  UNL     1       2.754  41.123  22.750  1.00  0.00     0.199 C 
BRANCH  25  26
HETATM   26  O1  UNL     1       1.779  40.807  21.860  1.00  0.00    -0.389 OA
BRANCH  26  27
HETATM   27  C2  UNL     1       1.138  39.662  22.328  1.00  0.00     0.163 C 
HETATM   28  C1  UNL     1      -0.308  39.594  21.945  1.00  0.00     0.033 C 
ENDBRANCH  26  27
ENDBRANCH  25  26
ENDBRANCH  24  25
BRANCH  24  29
HETATM   29  O2  UNL     1       4.591  39.916  22.066  1.00  0.00    -0.388 OA
HETATM   30  C5  UNL     1       5.355  41.065  22.065  1.00  0.00     0.202 C 
ENDBRANCH  24  29
ENDBRANCH   1  24
BRANCH   7  31
HETATM   31  O4  UNL     1       4.817  37.871  28.148  1.00  0.00    -0.394 OA
ATOM     32  H4  UNL     1       4.572  36.955  28.211  1.00  0.00     0.210 HD
ENDBRANCH   7  31
BRANCH  12  33
HETATM   33  O6  UNL     1       4.444  34.781  26.823  1.00  0.00    -0.360 OA
ATOM     34  H6  UNL     1       4.754  34.051  27.345  1.00  0.00     0.217 HD
ENDBRANCH  12  33
BRANCH  13  35
HETATM   35  C17 UNL     1       5.949  32.773  24.527  1.00  0.00     0.269 C 
HETATM   36  O7  UNL     1       6.631  32.342  23.589  1.00  0.00    -0.264 OA
BRANCH  35  37
HETATM   37  O8  UNL     1       5.194  31.814  25.221  1.00  0.00    -0.326 OA
HETATM   38  C18 UNL     1       4.403  30.854  24.549  1.00  0.00     0.213 C 
ENDBRANCH  35  37
ENDBRANCH  13  35
TORSDOF 9
ENDMDL
MODEL 2
REMARK VINA RESULT: -6.678296636      0.853      1.493
REMARK  9 active torsions:
REMARK  status: ('A' for Active; 'I' for Inactive)
REMARK    1  A    between atoms: C2_2  and  O1_3 
REMARK    2  A    between atoms: O1_3  and  C3_4 
REMARK    3  A    between atoms: C3_4  and  C4_5 
REMARK    4  A    between atoms: C4_5  and  O2_6 
REMARK    5  A    between atoms: C4_5  and  C6_8 
REMARK    6  A    between atoms: C11_14  and  O4_15 
REMARK    7  A    between atoms: C15_21  and  O6_22 
REMARK    8  A    between atoms: C16_24  and  C17_25 
REMARK    9  A    between atoms: C17_25  and  O8_27 
ROOT
HETATM    1  C6  UNL     1       4.375  40.107  24.525  1.00  0.00     0.058 C 
HETATM    2  C7  UNL     1       3.336  40.858  25.303  1.00  0.00     0.159 A 
HETATM    3  O3  UNL     1       2.153  40.249  25.667  1.00  0.00    -0.374 OA
HETATM    4  C8  UNL     1       3.022  40.632  26.634  1.00  0.00     0.157 A 
HETATM    5  C9  UNL     1       3.961  39.819  27.395  1.00  0.00     0.043 C 
HETATM    6  C10 UNL     1       3.464  39.825  28.873  1.00  0.00     0.015 C 
HETATM    7  C11 UNL     1       4.087  38.365  27.080  1.00  0.00     0.134 C 
HETATM    8  C12 UNL     1       4.394  37.886  25.765  1.00  0.00     0.007 A 
HETATM    9  C13 UNL     1       3.300  36.977  25.172  1.00  0.00     0.099 C 
HETATM   10  C14 UNL     1       3.860  35.704  24.655  1.00  0.00     0.179 C 
HETATM   11  O5  UNL     1       3.802  35.369  23.457  1.00  0.00    -0.291 OA
HETATM   12  C15 UNL     1       4.561  34.659  25.486  1.00  0.00     0.103 C 
HETATM   13  C16 UNL     1       5.895  34.275  24.961  1.00  0.00     0.153 C 
HETATM   14  C19 UNL     1       7.093  34.466  25.783  1.00  0.00    -0.029 C 
HETATM   15  C20 UNL     1       8.306  34.213  24.868  1.00  0.00     0.016 C 
HETATM   16  C21 UNL     1       7.236  33.411  26.889  1.00  0.00     0.016 C 
HETATM   17  C22 UNL     1       7.345  35.791  26.427  1.00  0.00     0.011 C 
HETATM   18  C23 UNL     1       7.771  36.913  25.595  1.00  0.00     0.010 C 
HETATM   19  C24 UNL     1       6.884  37.914  25.030  1.00  0.00    -0.038 C 
HETATM   20  C25 UNL     1       7.611  38.416  23.743  1.00  0.00     0.015 C 
HETATM   21  C26 UNL     1       6.494  39.173  25.735  1.00  0.00     0.021 C 
HETATM   22  C27 UNL     1       5.079  39.004  25.109  1.00  0.00    -0.015 A 
HETATM   23  C28 UNL     1       5.457  37.690  24.868  1.00  0.00     0.016 A 
ENDROOT
BRANCH   1  24
HETATM   24  C4  UNL     1       3.851  40.042  23.107  1.00  0.00     0.152 C 
BRANCH  24  25
HETATM   25  C3  UNL     1       4.954  40.363  22.071  1.00  0.00     0.199 C 
BRANCH  25  26
HETATM   26  O1  UNL     1       4.488  40.992  20.963  1.00  0.00    -0.389 OA
BRANCH  26  27
HETATM   27  C2  UNL     1       4.978  40.307  19.853  1.00  0.00     0.163 C 
HETATM   28  C1  UNL     1       3.949  39.453  19.181  1.00  0.00     0.033 C 
ENDBRANCH  26  27
ENDBRANCH  25  26
ENDBRANCH  24  25
BRANCH  24  29
HETATM   29  O2  UNL     1       3.312  38.872  22.687  1.00  0.00    -0.388 OA
HETATM   30  C5  UNL     1       1.983  39.040  22.354  1.00  0.00     0.202 C 
ENDBRANCH  24  29
ENDBRANCH   1  24
BRANCH   7  31
HETATM   31  O4  UNL     1       4.877  37.925  28.175  1.00  0.00    -0.394 OA
ATOM     32  H4  UNL     1       5.672  37.664  27.725  1.00  0.00     0.210 HD
ENDBRANCH   7  31
BRANCH  12  33
HETATM   33  O6  UNL     1       4.440  34.852  26.833  1.00  0.00    -0.360 OA
ATOM     34  H6  UNL     1       5.260  35.055  27.268  1.00  0.00     0.217 HD
ENDBRANCH  12  33
BRANCH  13  35
HETATM   35  C17 UNL     1       5.915  32.816  24.542  1.00  0.00     0.269 C 
HETATM   36  O7  UNL     1       6.619  32.366  23.629  1.00  0.00    -0.264 OA
BRANCH  35  37
HETATM   37  O8  UNL     1       5.101  31.880  25.200  1.00  0.00    -0.326 OA
HETATM   38  C18 UNL     1       4.348  30.915  24.493  1.00  0.00     0.213 C 
ENDBRANCH  35  37
ENDBRANCH  13  35
TORSDOF 9
ENDMDL
MODEL 3
REMARK VINA RESULT: -6.670748707      0.763      1.958
REMARK  9 active torsions:
REMARK  status: ('A' for Active; 'I' for Inactive)
REMARK    1  A    between atoms: C2_2  and  O1_3 
REMARK    2  A    between atoms: O1_3  and  C3_4 
REMARK    3  A    between atoms: C3_4  and  C4_5 
REMARK    4  A    between atoms: C4_5  and  O2_6 
REMARK    5  A    between atoms: C4_5  and  C6_8 
REMARK    6  A    between atoms: C11_14  and  O4_15 
REMARK    7  A    between atoms: C15_21  and  O6_22 
REMARK    8  A    between atoms: C16_24  and  C17_25 
REMARK    9  A    between atoms: C17_25  and  O8_27 
ROOT
HETATM    1  C6  UNL     1       4.378  40.107  24.528  1.00  0.00     0.058 C 
HETATM    2  C7  UNL     1       3.339  40.858  25.307  1.00  0.00     0.159 A 
HETATM    3  O3  UNL     1       2.156  40.248  25.671  1.00  0.00    -0.374 OA
HETATM    4  C8  UNL     1       3.025  40.630  26.638  1.00  0.00     0.157 A 
HETATM    5  C9  UNL     1       3.964  39.815  27.398  1.00  0.00     0.043 C 
HETATM    6  C10 UNL     1       3.466  39.819  28.876  1.00  0.00     0.015 C 
HETATM    7  C11 UNL     1       4.089  38.362  27.081  1.00  0.00     0.134 C 
HETATM    8  C12 UNL     1       4.397  37.884  25.765  1.00  0.00     0.007 A 
HETATM    9  C13 UNL     1       3.302  36.976  25.170  1.00  0.00     0.099 C 
HETATM   10  C14 UNL     1       3.862  35.704  24.652  1.00  0.00     0.179 C 
HETATM   11  O5  UNL     1       3.804  35.370  23.453  1.00  0.00    -0.291 OA
HETATM   12  C15 UNL     1       4.562  34.658  25.481  1.00  0.00     0.103 C 
HETATM   13  C16 UNL     1       5.896  34.274  24.956  1.00  0.00     0.153 C 
HETATM   14  C19 UNL     1       7.094  34.464  25.778  1.00  0.00    -0.029 C 
HETATM   15  C20 UNL     1       8.307  34.211  24.863  1.00  0.00     0.016 C 
HETATM   16  C21 UNL     1       7.236  33.407  26.883  1.00  0.00     0.016 C 
HETATM   17  C22 UNL     1       7.346  35.787  26.424  1.00  0.00     0.011 C 
HETATM   18  C23 UNL     1       7.773  36.910  25.594  1.00  0.00     0.010 C 
HETATM   19  C24 UNL     1       6.886  37.913  25.031  1.00  0.00    -0.038 C 
HETATM   20  C25 UNL     1       7.614  38.416  23.744  1.00  0.00     0.015 C 
HETATM   21  C26 UNL     1       6.496  39.170  25.737  1.00  0.00     0.021 C 
HETATM   22  C27 UNL     1       5.082  39.003  25.111  1.00  0.00    -0.015 A 
HETATM   23  C28 UNL     1       5.459  37.689  24.868  1.00  0.00     0.016 A 
ENDROOT
BRANCH   1  24
HETATM   24  C4  UNL     1       3.855  40.044  23.110  1.00  0.00     0.152 C 
BRANCH  24  25
HETATM   25  C3  UNL     1       4.931  40.463  22.080  1.00  0.00     0.199 C 
BRANCH  25  26
HETATM   26  O1  UNL     1       5.875  41.292  22.593  1.00  0.00    -0.389 OA
BRANCH  26  27
HETATM   27  C2  UNL     1       5.737  42.527  21.962  1.00  0.00     0.163 C 
HETATM   28  C1  UNL     1       6.861  43.471  22.255  1.00  0.00     0.033 C 
ENDBRANCH  26  27
ENDBRANCH  25  26
ENDBRANCH  24  25
BRANCH  24  29
HETATM   29  O2  UNL     1       3.391  38.853  22.661  1.00  0.00    -0.388 OA
HETATM   30  C5  UNL     1       2.055  38.944  22.329  1.00  0.00     0.202 C 
ENDBRANCH  24  29
ENDBRANCH   1  24
BRANCH   7  31
HETATM   31  O4  UNL     1       4.879  37.920  28.175  1.00  0.00    -0.394 OA
ATOM     32  H4  UNL     1       5.750  38.137  27.864  1.00  0.00     0.210 HD
ENDBRANCH   7  31
BRANCH  12  33
HETATM   33  O6  UNL     1       4.441  34.848  26.828  1.00  0.00    -0.360 OA
ATOM     34  H6  UNL     1       3.673  35.349  27.079  1.00  0.00     0.217 HD
ENDBRANCH  12  33
BRANCH  13  35
HETATM   35  C17 UNL     1       5.916  32.815  24.535  1.00  0.00     0.269 C 
HETATM   36  O7  UNL     1       6.615  32.368  23.618  1.00  0.00    -0.264 OA
BRANCH  35  37
HETATM   37  O8  UNL     1       5.106  31.877  25.196  1.00  0.00    -0.326 OA
HETATM   38  C18 UNL     1       4.396  30.877  24.496  1.00  0.00     0.213 C 
ENDBRANCH  35  37
ENDBRANCH  13  35
TORSDOF 9
ENDMDL
MODEL 4
REMARK VINA RESULT: -6.554051532      2.967      6.999
REMARK  9 active torsions:
REMARK  status: ('A' for Active; 'I' for Inactive)
REMARK    1  A    between atoms: C2_2  and  O1_3 
REMARK    2  A    between atoms: O1_3  and  C3_4 
REMARK    3  A    between atoms: C3_4  and  C4_5 
REMARK    4  A    between atoms: C4_5  and  O2_6 
REMARK    5  A    between atoms: C4_5  and  C6_8 
REMARK    6  A    between atoms: C11_14  and  O4_15 
REMARK    7  A    between atoms: C15_21  and  O6_22 
REMARK    8  A    between atoms: C16_24  and  C17_25 
REMARK    9  A    between atoms: C17_25  and  O8_27 
ROOT
HETATM    1  C6  UNL     1       1.691  34.193  23.967  1.00  0.00     0.058 C 
HETATM    2  C7  UNL     1       0.637  33.965  22.925  1.00  0.00     0.159 A 
HETATM    3  O3  UNL     1      -0.471  34.786  22.854  1.00  0.00    -0.374 OA
HETATM    4  C8  UNL     1       0.414  34.783  21.828  1.00  0.00     0.157 A 
HETATM    5  C9  UNL     1       1.457  35.752  21.516  1.00  0.00     0.043 C 
HETATM    6  C10 UNL     1       1.040  36.444  20.182  1.00  0.00     0.015 C 
HETATM    7  C11 UNL     1       1.685  36.899  22.443  1.00  0.00     0.134 C 
HETATM    8  C12 UNL     1       1.960  36.719  23.837  1.00  0.00     0.007 A 
HETATM    9  C13 UNL     1       0.915  37.378  24.759  1.00  0.00     0.099 C 
HETATM   10  C14 UNL     1       1.550  38.232  25.792  1.00  0.00     0.179 C 
HETATM   11  O5  UNL     1       1.456  38.011  27.015  1.00  0.00    -0.291 OA
HETATM   12  C15 UNL     1       2.378  39.462  25.517  1.00  0.00     0.103 C 
HETATM   13  C16 UNL     1       3.709  39.444  26.174  1.00  0.00     0.153 C 
HETATM   14  C19 UNL     1       4.929  39.517  25.365  1.00  0.00    -0.029 C 
HETATM   15  C20 UNL     1       6.109  39.223  26.312  1.00  0.00     0.016 C 
HETATM   16  C21 UNL     1       5.218  40.931  24.842  1.00  0.00     0.016 C 
HETATM   17  C22 UNL     1       5.105  38.592  24.205  1.00  0.00     0.011 C 
HETATM   18  C23 UNL     1       5.392  37.183  24.459  1.00  0.00     0.010 C 
HETATM   19  C24 UNL     1       4.396  36.128  24.512  1.00  0.00    -0.038 C 
HETATM   20  C25 UNL     1       5.010  35.043  25.453  1.00  0.00     0.015 C 
HETATM   21  C26 UNL     1       3.942  35.352  23.319  1.00  0.00     0.021 C 
HETATM   22  C27 UNL     1       2.515  35.366  23.939  1.00  0.00    -0.015 A 
HETATM   23  C28 UNL     1       2.986  36.396  24.741  1.00  0.00     0.016 A 
ENDROOT
BRANCH   1  24
HETATM   24  C4  UNL     1       1.100  33.679  25.261  1.00  0.00     0.152 C 
BRANCH  24  25
HETATM   25  C3  UNL     1       0.048  32.572  25.013  1.00  0.00     0.199 C 
BRANCH  25  26
HETATM   26  O1  UNL     1      -1.111  32.766  25.690  1.00  0.00    -0.389 OA
BRANCH  26  27
HETATM   27  C2  UNL     1      -1.450  31.560  26.300  1.00  0.00     0.163 C 
HETATM   28  C1  UNL     1      -0.692  31.301  27.564  1.00  0.00     0.033 C 
ENDBRANCH  26  27
ENDBRANCH  25  26
ENDBRANCH  24  25
BRANCH  24  29
HETATM   29  O2  UNL     1       1.948  33.152  26.177  1.00  0.00    -0.388 OA
HETATM   30  C5  UNL     1       2.572  32.030  25.673  1.00  0.00     0.202 C 
ENDBRANCH  24  29
ENDBRANCH   1  24
BRANCH   7  31
HETATM   31  O4  UNL     1       2.566  37.696  21.665  1.00  0.00    -0.394 OA
ATOM     32  H4  UNL     1       2.458  37.296  20.810  1.00  0.00     0.210 HD
ENDBRANCH   7  31
BRANCH  12  33
HETATM   33  O6  UNL     1       2.313  39.893  24.223  1.00  0.00    -0.360 OA
ATOM     34  H6  UNL     1       2.774  39.335  23.608  1.00  0.00     0.217 HD
ENDBRANCH  12  33
BRANCH  13  35
HETATM   35  C17 UNL     1       3.828  40.561  27.195  1.00  0.00     0.269 C 
HETATM   36  O7  UNL     1       3.553  41.744  26.962  1.00  0.00    -0.264 OA
BRANCH  35  37
HETATM   37  O8  UNL     1       4.274  40.284  28.497  1.00  0.00    -0.326 OA
HETATM   38  C18 UNL     1       3.522  39.492  29.394  1.00  0.00     0.213 C 
ENDBRANCH  35  37
ENDBRANCH  13  35
TORSDOF 9
ENDMDL
MODEL 5
REMARK VINA RESULT: -6.369401467      2.081      7.157
REMARK  9 active torsions:
REMARK  status: ('A' for Active; 'I' for Inactive)
REMARK    1  A    between atoms: C2_2  and  O1_3 
REMARK    2  A    between atoms: O1_3  and  C3_4 
REMARK    3  A    between atoms: C3_4  and  C4_5 
REMARK    4  A    between atoms: C4_5  and  O2_6 
REMARK    5  A    between atoms: C4_5  and  C6_8 
REMARK    6  A    between atoms: C11_14  and  O4_15 
REMARK    7  A    between atoms: C15_21  and  O6_22 
REMARK    8  A    between atoms: C16_24  and  C17_25 
REMARK    9  A    between atoms: C17_25  and  O8_27 
ROOT
HETATM    1  C6  UNL     1       5.007  35.623  25.191  1.00  0.00     0.058 C 
HETATM    2  C7  UNL     1       3.954  34.785  24.528  1.00  0.00     0.159 A 
HETATM    3  O3  UNL     1       2.651  34.805  24.982  1.00  0.00    -0.374 OA
HETATM    4  C8  UNL     1       2.924  35.279  23.742  1.00  0.00     0.157 A 
HETATM    5  C9  UNL     1       3.049  36.662  23.299  1.00  0.00     0.043 C 
HETATM    6  C10 UNL     1       1.854  36.932  22.334  1.00  0.00     0.015 C 
HETATM    7  C11 UNL     1       2.936  37.761  24.302  1.00  0.00     0.134 C 
HETATM    8  C12 UNL     1       3.767  37.827  25.469  1.00  0.00     0.007 A 
HETATM    9  C13 UNL     1       2.974  37.787  26.790  1.00  0.00     0.099 C 
HETATM   10  C14 UNL     1       3.365  38.889  27.702  1.00  0.00     0.179 C 
HETATM   11  O5  UNL     1       3.878  38.699  28.822  1.00  0.00    -0.291 OA
HETATM   12  C15 UNL     1       3.200  40.359  27.414  1.00  0.00     0.103 C 
HETATM   13  C16 UNL     1       4.449  41.144  27.582  1.00  0.00     0.153 C 
HETATM   14  C19 UNL     1       5.012  41.884  26.450  1.00  0.00    -0.029 C 
HETATM   15  C20 UNL     1       6.409  42.367  26.884  1.00  0.00     0.016 C 
HETATM   16  C21 UNL     1       4.251  43.181  26.143  1.00  0.00     0.016 C 
HETATM   17  C22 UNL     1       5.215  41.193  25.141  1.00  0.00     0.011 C 
HETATM   18  C23 UNL     1       6.300  40.225  25.012  1.00  0.00     0.010 C 
HETATM   19  C24 UNL     1       6.161  38.790  25.183  1.00  0.00    -0.038 C 
HETATM   20  C25 UNL     1       7.569  38.301  25.645  1.00  0.00     0.015 C 
HETATM   21  C26 UNL     1       5.799  37.851  24.079  1.00  0.00     0.021 C 
HETATM   22  C27 UNL     1       4.963  37.054  25.121  1.00  0.00    -0.015 A 
HETATM   23  C28 UNL     1       5.049  38.195  25.907  1.00  0.00     0.016 A 
ENDROOT
BRANCH   1  24
HETATM   24  C4  UNL     1       5.338  34.909  26.483  1.00  0.00     0.152 C 
BRANCH  24  25
HETATM   25  C3  UNL     1       6.829  35.070  26.863  1.00  0.00     0.199 C 
BRANCH  25  26
HETATM   26  O1  UNL     1       7.666  34.331  26.092  1.00  0.00    -0.389 OA
BRANCH  26  27
HETATM   27  C2  UNL     1       7.250  33.003  26.174  1.00  0.00     0.163 C 
HETATM   28  C1  UNL     1       7.463  32.237  24.906  1.00  0.00     0.033 C 
ENDBRANCH  26  27
ENDBRANCH  25  26
ENDBRANCH  24  25
BRANCH  24  29
HETATM   29  O2  UNL     1       4.656  35.272  27.597  1.00  0.00    -0.388 OA
HETATM   30  C5  UNL     1       5.526  35.637  28.603  1.00  0.00     0.202 C 
ENDBRANCH  24  29
ENDBRANCH   1  24
BRANCH   7  31
HETATM   31  O4  UNL     1       2.860  38.892  23.448  1.00  0.00    -0.394 OA
ATOM     32  H4  UNL     1       3.499  39.465  23.855  1.00  0.00     0.210 HD
ENDBRANCH   7  31
BRANCH  12  33
HETATM   33  O6  UNL     1       2.426  40.624  26.320  1.00  0.00    -0.360 OA
ATOM     34  H6  UNL     1       2.654  41.432  25.874  1.00  0.00     0.217 HD
ENDBRANCH  12  33
BRANCH  13  35
HETATM   35  C17 UNL     1       4.307  42.158  28.703  1.00  0.00     0.269 C 
HETATM   36  O7  UNL     1       5.259  42.621  29.344  1.00  0.00    -0.264 OA
BRANCH  35  37
HETATM   37  O8  UNL     1       3.037  42.629  29.075  1.00  0.00    -0.326 OA
HETATM   38  C18 UNL     1       2.519  42.438  30.375  1.00  0.00     0.213 C 
ENDBRANCH  35  37
ENDBRANCH  13  35
TORSDOF 9
ENDMDL
