MODEL 1
REMARK VINA RESULT: -9.288552306      0.000      0.000
REMARK  10 active torsions:
REMARK  status: ('A' for Active; 'I' for Inactive)
REMARK    1  A    between atoms: C4_4  and  C5_5 
REMARK    2  A    between atoms: C5_5  and  O2_7 
REMARK    3  A    between atoms: O2_7  and  C6_8 
REMARK    4  A    between atoms: C8_10  and  O3_11 
REMARK    5  A    between atoms: C11_16  and  C12_17 
REMARK    6  A    between atoms: C12_17  and  C13_18 
REMARK    7  A    between atoms: C18_23  and  O5_24 
REMARK    8  A    between atoms: C20_27  and  O6_29 
REMARK    9  A    between atoms: O6_29  and  C22_30 
REMARK   10  A    between atoms: N1_36  and  C27_37 
ROOT
HETATM    1  C1  UNL     1      -1.386  32.029  26.081  1.00  0.00     0.017 C 
HETATM    2  C2  UNL     1      -1.387  32.640  25.040  1.00  0.00    -0.089 C 
HETATM    3  C3  UNL     1      -1.398  33.382  23.802  1.00  0.00     0.069 C 
HETATM    4  C4  UNL     1      -0.448  33.318  22.915  1.00  0.00     0.091 C 
ENDROOT
BRANCH   4   5
HETATM    5  C5  UNL     1      -0.554  34.106  21.697  1.00  0.00     0.283 C 
HETATM    6  O1  UNL     1      -1.307  33.681  20.762  1.00  0.00    -0.260 OA
BRANCH   5   7
HETATM    7  O2  UNL     1       0.137  35.298  21.524  1.00  0.00    -0.307 OA
BRANCH   7   8
HETATM    8  C6  UNL     1       1.223  35.596  22.341  1.00  0.00     0.205 C 
HETATM    9  C7  UNL     1       1.004  36.858  23.149  1.00  0.00     0.290 C 
HETATM   10  C8  UNL     1       1.411  37.619  21.913  1.00  0.00     0.191 C 
HETATM   11  N1  UNL     1       2.043  37.082  24.140  1.00  0.00     0.126 N 
HETATM   12  C9  UNL     1       2.307  36.398  21.639  1.00  0.00     0.117 C 
HETATM   13  C10 UNL     1       2.489  36.157  20.193  1.00  0.00     0.052 C 
HETATM   14  O4  UNL     1       3.440  36.433  22.402  1.00  0.00    -0.341 OA
HETATM   15  C11 UNL     1       3.253  36.438  23.757  1.00  0.00     0.360 C 
BRANCH  10  16
HETATM   16  O3  UNL     1       0.350  37.620  21.008  1.00  0.00    -0.390 OA
ATOM     17  H3  UNL     1      -0.464  37.736  21.485  1.00  0.00     0.210 HD
ENDBRANCH  10  16
BRANCH  15  18
HETATM   18  C12 UNL     1       4.509  36.956  24.408  1.00  0.00     0.070 C 
BRANCH  18  19
HETATM   19  C13 UNL     1       4.813  36.446  25.732  1.00  0.00     0.008 C 
HETATM   20  C14 UNL     1       4.392  35.117  26.237  1.00  0.00     0.025 C 
HETATM   21  C15 UNL     1       5.470  35.416  27.332  1.00  0.00     0.020 C 
HETATM   22  C19 UNL     1       4.963  33.901  25.638  1.00  0.00    -0.017 C 
HETATM   23  C16 UNL     1       6.139  36.114  26.201  1.00  0.00    -0.021 A 
HETATM   24  C17 UNL     1       6.804  35.307  25.144  1.00  0.00     0.037 A 
HETATM   25  C24 UNL     1       7.491  36.228  26.013  1.00  0.00    -0.032 A 
HETATM   26  C18 UNL     1       6.404  33.914  25.286  1.00  0.00     0.155 C 
HETATM   27  C25 UNL     1       8.432  35.577  27.044  1.00  0.00     0.016 C 
HETATM   28  C26 UNL     1       8.115  37.474  25.424  1.00  0.00     0.016 C 
HETATM   29  C20 UNL     1       4.200  32.803  25.458  1.00  0.00     0.058 C 
HETATM   30  C21 UNL     1       4.783  31.588  24.856  1.00  0.00     0.077 C 
BRANCH  26  31
HETATM   31  O5  UNL     1       6.572  33.246  24.046  1.00  0.00    -0.391 OA
ATOM     32  H5  UNL     1       6.129  32.405  24.077  1.00  0.00     0.210 HD
ENDBRANCH  26  31
BRANCH  29  33
HETATM   33  O6  UNL     1       2.867  32.819  25.844  1.00  0.00    -0.284 OA
BRANCH  33  34
HETATM   34  C22 UNL     1       2.140  31.711  26.215  1.00  0.00     0.259 C 
HETATM   35  C23 UNL     1       1.847  30.579  25.299  1.00  0.00     0.126 C 
HETATM   36  O7  UNL     1       1.707  31.670  27.393  1.00  0.00    -0.265 OA
ENDBRANCH  33  34
ENDBRANCH  29  33
ENDBRANCH  18  19
ENDBRANCH  15  18
BRANCH  11  37
HETATM   37  C27 UNL     1       1.581  36.563  25.443  1.00  0.00     0.272 C 
HETATM   38  C28 UNL     1       1.466  37.750  26.365  1.00  0.00     0.037 C 
ENDBRANCH  11  37
ENDBRANCH   7   8
ENDBRANCH   5   7
ENDBRANCH   4   5
TORSDOF 10
ENDMDL
MODEL 2
REMARK VINA RESULT: -8.843869291      2.103      6.762
REMARK  10 active torsions:
REMARK  status: ('A' for Active; 'I' for Inactive)
REMARK    1  A    between atoms: C4_4  and  C5_5 
REMARK    2  A    between atoms: C5_5  and  O2_7 
REMARK    3  A    between atoms: O2_7  and  C6_8 
REMARK    4  A    between atoms: C8_10  and  O3_11 
REMARK    5  A    between atoms: C11_16  and  C12_17 
REMARK    6  A    between atoms: C12_17  and  C13_18 
REMARK    7  A    between atoms: C18_23  and  O5_24 
REMARK    8  A    between atoms: C20_27  and  O6_29 
REMARK    9  A    between atoms: O6_29  and  C22_30 
REMARK   10  A    between atoms: N1_36  and  C27_37 
ROOT
HETATM    1  C1  UNL     1       6.486  29.524  23.967  1.00  0.00     0.017 C 
HETATM    2  C2  UNL     1       6.979  30.492  24.495  1.00  0.00    -0.089 C 
HETATM    3  C3  UNL     1       7.573  31.639  25.139  1.00  0.00     0.069 C 
HETATM    4  C4  UNL     1       8.013  32.680  24.493  1.00  0.00     0.091 C 
ENDROOT
BRANCH   4   5
HETATM    5  C5  UNL     1       8.594  33.788  25.235  1.00  0.00     0.283 C 
HETATM    6  O1  UNL     1       9.861  33.916  25.243  1.00  0.00    -0.260 OA
BRANCH   5   7
HETATM    7  O2  UNL     1       7.815  34.703  25.930  1.00  0.00    -0.307 OA
BRANCH   7   8
HETATM    8  C6  UNL     1       6.840  35.435  25.259  1.00  0.00     0.205 C 
HETATM    9  C7  UNL     1       6.602  36.789  25.893  1.00  0.00     0.290 C 
HETATM   10  C8  UNL     1       5.727  36.074  26.892  1.00  0.00     0.191 C 
HETATM   11  N1  UNL     1       5.726  37.638  25.102  1.00  0.00     0.126 N 
HETATM   12  C9  UNL     1       5.425  35.124  25.720  1.00  0.00     0.117 C 
HETATM   13  C10 UNL     1       5.157  33.745  26.178  1.00  0.00     0.052 C 
HETATM   14  O4  UNL     1       4.516  35.671  24.859  1.00  0.00    -0.341 OA
HETATM   15  C11 UNL     1       4.877  36.853  24.273  1.00  0.00     0.360 C 
BRANCH  10  16
HETATM   16  O3  UNL     1       6.537  35.416  27.818  1.00  0.00    -0.390 OA
ATOM     17  H3  UNL     1       6.109  34.612  28.088  1.00  0.00     0.210 HD
ENDBRANCH  10  16
BRANCH  15  18
HETATM   18  C12 UNL     1       3.631  37.536  23.772  1.00  0.00     0.070 C 
BRANCH  18  19
HETATM   19  C13 UNL     1       3.092  37.063  22.512  1.00  0.00     0.008 C 
HETATM   20  C14 UNL     1       2.348  35.791  22.341  1.00  0.00     0.025 C 
HETATM   21  C15 UNL     1       1.937  36.448  20.981  1.00  0.00     0.020 C 
HETATM   22  C19 UNL     1       1.025  35.637  22.964  1.00  0.00    -0.017 C 
HETATM   23  C16 UNL     1       2.013  37.696  21.788  1.00  0.00    -0.021 A 
HETATM   24  C17 UNL     1       0.930  37.996  22.762  1.00  0.00     0.037 A 
HETATM   25  C24 UNL     1       1.240  38.813  21.616  1.00  0.00    -0.032 A 
HETATM   26  C18 UNL     1       0.111  36.806  22.943  1.00  0.00     0.155 C 
HETATM   27  C25 UNL     1       0.178  38.806  20.500  1.00  0.00     0.016 C 
HETATM   28  C26 UNL     1       1.789  40.207  21.831  1.00  0.00     0.016 C 
HETATM   29  C20 UNL     1       0.651  34.456  23.496  1.00  0.00     0.058 C 
HETATM   30  C21 UNL     1      -0.680  34.313  24.118  1.00  0.00     0.077 C 
BRANCH  26  31
HETATM   31  O5  UNL     1      -0.558  36.879  24.192  1.00  0.00    -0.391 OA
ATOM     32  H5  UNL     1      -0.864  36.013  24.438  1.00  0.00     0.210 HD
ENDBRANCH  26  31
BRANCH  29  33
HETATM   33  O6  UNL     1       1.520  33.375  23.453  1.00  0.00    -0.284 OA
BRANCH  33  34
HETATM   34  C22 UNL     1       1.986  32.693  24.554  1.00  0.00     0.259 C 
HETATM   35  C23 UNL     1       2.531  31.313  24.493  1.00  0.00     0.126 C 
HETATM   36  O7  UNL     1       1.941  33.283  25.662  1.00  0.00    -0.265 OA
ENDBRANCH  33  34
ENDBRANCH  29  33
ENDBRANCH  18  19
ENDBRANCH  15  18
BRANCH  11  37
HETATM   37  C27 UNL     1       6.554  38.539  24.275  1.00  0.00     0.272 C 
HETATM   38  C28 UNL     1       6.280  39.941  24.757  1.00  0.00     0.037 C 
ENDBRANCH  11  37
ENDBRANCH   7   8
ENDBRANCH   5   7
ENDBRANCH   4   5
TORSDOF 10
ENDMDL
MODEL 3
REMARK VINA RESULT: -8.747414489      2.742      6.438
REMARK  10 active torsions:
REMARK  status: ('A' for Active; 'I' for Inactive)
REMARK    1  A    between atoms: C4_4  and  C5_5 
REMARK    2  A    between atoms: C5_5  and  O2_7 
REMARK    3  A    between atoms: O2_7  and  C6_8 
REMARK    4  A    between atoms: C8_10  and  O3_11 
REMARK    5  A    between atoms: C11_16  and  C12_17 
REMARK    6  A    between atoms: C12_17  and  C13_18 
REMARK    7  A    between atoms: C18_23  and  O5_24 
REMARK    8  A    between atoms: C20_27  and  O6_29 
REMARK    9  A    between atoms: O6_29  and  C22_30 
REMARK   10  A    between atoms: N1_36  and  C27_37 
ROOT
HETATM    1  C1  UNL     1       5.740  29.027  23.822  1.00  0.00     0.017 C 
HETATM    2  C2  UNL     1       4.829  29.747  24.154  1.00  0.00    -0.089 C 
HETATM    3  C3  UNL     1       3.749  30.621  24.544  1.00  0.00     0.069 C 
HETATM    4  C4  UNL     1       2.529  30.214  24.743  1.00  0.00     0.091 C 
ENDROOT
BRANCH   4   5
HETATM    5  C5  UNL     1       1.510  31.175  25.135  1.00  0.00     0.283 C 
HETATM    6  O1  UNL     1       1.166  31.230  26.360  1.00  0.00    -0.260 OA
BRANCH   5   7
HETATM    7  O2  UNL     1       0.907  32.030  24.221  1.00  0.00    -0.307 OA
BRANCH   7   8
HETATM    8  C6  UNL     1       1.533  33.221  23.867  1.00  0.00     0.205 C 
HETATM    9  C7  UNL     1       1.512  34.236  24.990  1.00  0.00     0.290 C 
HETATM   10  C8  UNL     1       0.105  34.561  24.558  1.00  0.00     0.191 C 
HETATM   11  N1  UNL     1       2.320  35.411  24.706  1.00  0.00     0.126 N 
HETATM   12  C9  UNL     1       0.614  34.198  23.152  1.00  0.00     0.117 C 
HETATM   13  C10 UNL     1      -0.451  33.621  22.307  1.00  0.00     0.052 C 
HETATM   14  O4  UNL     1       1.341  35.220  22.608  1.00  0.00    -0.341 OA
HETATM   15  C11 UNL     1       2.457  35.601  23.303  1.00  0.00     0.360 C 
BRANCH  10  16
HETATM   16  O3  UNL     1      -0.753  33.557  25.006  1.00  0.00    -0.390 OA
ATOM     17  H3  UNL     1      -0.714  32.824  24.403  1.00  0.00     0.210 HD
ENDBRANCH  10  16
BRANCH  15  18
HETATM   18  C12 UNL     1       2.841  36.989  22.861  1.00  0.00     0.070 C 
BRANCH  18  19
HETATM   19  C13 UNL     1       2.283  38.091  23.621  1.00  0.00     0.008 C 
HETATM   20  C14 UNL     1       3.089  39.114  24.330  1.00  0.00     0.025 C 
HETATM   21  C15 UNL     1       1.723  39.879  24.357  1.00  0.00     0.020 C 
HETATM   22  C19 UNL     1       3.901  40.063  23.553  1.00  0.00    -0.017 C 
HETATM   23  C16 UNL     1       1.538  39.190  23.052  1.00  0.00    -0.021 A 
HETATM   24  C17 UNL     1       2.287  39.677  21.863  1.00  0.00     0.037 A 
HETATM   25  C24 UNL     1       0.850  39.681  21.974  1.00  0.00    -0.032 A 
HETATM   26  C18 UNL     1       3.321  40.604  22.300  1.00  0.00     0.155 C 
HETATM   27  C25 UNL     1       0.206  41.076  22.088  1.00  0.00     0.016 C 
HETATM   28  C26 UNL     1       0.037  38.783  21.067  1.00  0.00     0.016 C 
HETATM   29  C20 UNL     1       5.114  40.451  23.998  1.00  0.00     0.058 C 
HETATM   30  C21 UNL     1       5.920  41.404  23.210  1.00  0.00     0.077 C 
BRANCH  26  31
HETATM   31  O5  UNL     1       4.344  40.665  21.319  1.00  0.00    -0.391 OA
ATOM     32  H5  UNL     1       5.050  40.076  21.560  1.00  0.00     0.210 HD
ENDBRANCH  26  31
BRANCH  29  33
HETATM   33  O6  UNL     1       5.599  39.955  25.200  1.00  0.00    -0.284 OA
BRANCH  33  34
HETATM   34  C22 UNL     1       6.774  39.254  25.347  1.00  0.00     0.259 C 
HETATM   35  C23 UNL     1       7.057  37.973  24.652  1.00  0.00     0.126 C 
HETATM   36  O7  UNL     1       7.643  39.737  26.115  1.00  0.00    -0.265 OA
ENDBRANCH  33  34
ENDBRANCH  29  33
ENDBRANCH  18  19
ENDBRANCH  15  18
BRANCH  11  37
HETATM   37  C27 UNL     1       3.648  35.240  25.329  1.00  0.00     0.272 C 
HETATM   38  C28 UNL     1       3.723  36.229  26.464  1.00  0.00     0.037 C 
ENDBRANCH  11  37
ENDBRANCH   7   8
ENDBRANCH   5   7
ENDBRANCH   4   5
TORSDOF 10
ENDMDL
MODEL 4
REMARK VINA RESULT: -8.726333419      2.954      7.372
REMARK  10 active torsions:
REMARK  status: ('A' for Active; 'I' for Inactive)
REMARK    1  A    between atoms: C4_4  and  C5_5 
REMARK    2  A    between atoms: C5_5  and  O2_7 
REMARK    3  A    between atoms: O2_7  and  C6_8 
REMARK    4  A    between atoms: C8_10  and  O3_11 
REMARK    5  A    between atoms: C11_16  and  C12_17 
REMARK    6  A    between atoms: C12_17  and  C13_18 
REMARK    7  A    between atoms: C18_23  and  O5_24 
REMARK    8  A    between atoms: C20_27  and  O6_29 
REMARK    9  A    between atoms: O6_29  and  C22_30 
REMARK   10  A    between atoms: N1_36  and  C27_37 
ROOT
HETATM    1  C1  UNL     1       5.741  29.041  23.807  1.00  0.00     0.017 C 
HETATM    2  C2  UNL     1       4.844  29.788  24.118  1.00  0.00    -0.089 C 
HETATM    3  C3  UNL     1       3.781  30.693  24.482  1.00  0.00     0.069 C 
HETATM    4  C4  UNL     1       2.565  30.308  24.740  1.00  0.00     0.091 C 
ENDROOT
BRANCH   4   5
HETATM    5  C5  UNL     1       1.563  31.300  25.099  1.00  0.00     0.283 C 
HETATM    6  O1  UNL     1       1.312  31.491  26.333  1.00  0.00    -0.260 OA
BRANCH   5   7
HETATM    7  O2  UNL     1       0.879  32.041  24.145  1.00  0.00    -0.307 OA
BRANCH   7   8
HETATM    8  C6  UNL     1       1.251  33.358  23.891  1.00  0.00     0.205 C 
HETATM    9  C7  UNL     1       0.913  34.282  25.041  1.00  0.00     0.290 C 
HETATM   10  C8  UNL     1      -0.492  34.313  24.493  1.00  0.00     0.191 C 
HETATM   11  N1  UNL     1       1.458  35.619  24.872  1.00  0.00     0.126 N 
HETATM   12  C9  UNL     1       0.198  34.147  23.128  1.00  0.00     0.117 C 
HETATM   13  C10 UNL     1      -0.639  33.397  22.170  1.00  0.00     0.052 C 
HETATM   14  O4  UNL     1       0.721  35.331  22.689  1.00  0.00    -0.341 OA
HETATM   15  C11 UNL     1       1.664  35.909  23.495  1.00  0.00     0.360 C 
BRANCH  10  16
HETATM   16  O3  UNL     1      -1.138  33.123  24.827  1.00  0.00    -0.390 OA
ATOM     17  H3  UNL     1      -1.430  32.695  24.031  1.00  0.00     0.210 HD
ENDBRANCH  10  16
BRANCH  15  18
HETATM   18  C12 UNL     1       1.764  37.369  23.138  1.00  0.00     0.070 C 
BRANCH  18  19
HETATM   19  C13 UNL     1       0.753  37.889  22.237  1.00  0.00     0.008 C 
HETATM   20  C14 UNL     1       0.218  39.271  22.282  1.00  0.00     0.025 C 
HETATM   21  C15 UNL     1      -0.311  38.898  20.857  1.00  0.00     0.020 C 
HETATM   22  C19 UNL     1       1.099  40.400  21.943  1.00  0.00    -0.017 C 
HETATM   23  C16 UNL     1       0.941  38.096  20.819  1.00  0.00    -0.021 A 
HETATM   24  C17 UNL     1       2.242  38.792  20.632  1.00  0.00     0.037 A 
HETATM   25  C24 UNL     1       1.695  37.834  19.705  1.00  0.00    -0.032 A 
HETATM   26  C18 UNL     1       2.046  40.222  20.816  1.00  0.00     0.155 C 
HETATM   27  C25 UNL     1       1.236  38.416  18.355  1.00  0.00     0.016 C 
HETATM   28  C26 UNL     1       2.400  36.509  19.510  1.00  0.00     0.016 C 
HETATM   29  C20 UNL     1       1.009  41.564  22.617  1.00  0.00     0.058 C 
HETATM   30  C21 UNL     1       1.898  42.690  22.268  1.00  0.00     0.077 C 
BRANCH  26  31
HETATM   31  O5  UNL     1       3.281  40.827  21.164  1.00  0.00    -0.391 OA
ATOM     32  H5  UNL     1       3.645  40.388  21.924  1.00  0.00     0.210 HD
ENDBRANCH  26  31
BRANCH  29  33
HETATM   33  O6  UNL     1       0.077  41.702  23.635  1.00  0.00    -0.284 OA
BRANCH  33  34
HETATM   34  C22 UNL     1      -1.014  42.541  23.598  1.00  0.00     0.259 C 
HETATM   35  C23 UNL     1      -1.717  42.916  22.345  1.00  0.00     0.126 C 
HETATM   36  O7  UNL     1      -1.424  43.007  24.690  1.00  0.00    -0.265 OA
ENDBRANCH  33  34
ENDBRANCH  29  33
ENDBRANCH  18  19
ENDBRANCH  15  18
BRANCH  11  37
HETATM   37  C27 UNL     1       2.736  35.710  25.608  1.00  0.00     0.272 C 
HETATM   38  C28 UNL     1       2.705  37.010  26.368  1.00  0.00     0.037 C 
ENDBRANCH  11  37
ENDBRANCH   7   8
ENDBRANCH   5   7
ENDBRANCH   4   5
TORSDOF 10
ENDMDL
MODEL 5
REMARK VINA RESULT: -8.712876674      2.397      4.950
REMARK  10 active torsions:
REMARK  status: ('A' for Active; 'I' for Inactive)
REMARK    1  A    between atoms: C4_4  and  C5_5 
REMARK    2  A    between atoms: C5_5  and  O2_7 
REMARK    3  A    between atoms: O2_7  and  C6_8 
REMARK    4  A    between atoms: C8_10  and  O3_11 
REMARK    5  A    between atoms: C11_16  and  C12_17 
REMARK    6  A    between atoms: C12_17  and  C13_18 
REMARK    7  A    between atoms: C18_23  and  O5_24 
REMARK    8  A    between atoms: C20_27  and  O6_29 
REMARK    9  A    between atoms: O6_29  and  C22_30 
REMARK   10  A    between atoms: N1_36  and  C27_37 
ROOT
HETATM    1  C1  UNL     1       1.871  37.349  19.616  1.00  0.00     0.017 C 
HETATM    2  C2  UNL     1       1.036  36.647  20.135  1.00  0.00    -0.089 C 
HETATM    3  C3  UNL     1       0.028  35.821  20.756  1.00  0.00     0.069 C 
HETATM    4  C4  UNL     1       0.040  34.520  20.718  1.00  0.00     0.091 C 
ENDROOT
BRANCH   4   5
HETATM    5  C5  UNL     1      -1.024  33.778  21.377  1.00  0.00     0.283 C 
HETATM    6  O1  UNL     1      -2.129  33.626  20.764  1.00  0.00    -0.260 OA
BRANCH   5   7
HETATM    7  O2  UNL     1      -0.871  33.233  22.645  1.00  0.00    -0.307 OA
BRANCH   7   8
HETATM    8  C6  UNL     1       0.369  33.281  23.276  1.00  0.00     0.205 C 
HETATM    9  C7  UNL     1       0.461  32.312  24.435  1.00  0.00     0.290 C 
HETATM   10  C8  UNL     1      -0.271  33.348  25.251  1.00  0.00     0.191 C 
HETATM   11  N1  UNL     1       1.802  32.215  24.987  1.00  0.00     0.126 N 
HETATM   12  C9  UNL     1       0.460  34.356  24.348  1.00  0.00     0.117 C 
HETATM   13  C10 UNL     1      -0.331  35.585  24.134  1.00  0.00     0.052 C 
HETATM   14  O4  UNL     1       1.759  34.524  24.740  1.00  0.00    -0.341 OA
HETATM   15  C11 UNL     1       2.542  33.402  24.725  1.00  0.00     0.360 C 
BRANCH  10  16
HETATM   16  O3  UNL     1      -1.623  33.325  24.910  1.00  0.00    -0.390 OA
ATOM     17  H3  UNL     1      -1.944  34.217  24.856  1.00  0.00     0.210 HD
ENDBRANCH  10  16
BRANCH  15  18
HETATM   18  C12 UNL     1       3.735  33.643  25.613  1.00  0.00     0.070 C 
BRANCH  18  19
HETATM   19  C13 UNL     1       4.653  34.687  25.198  1.00  0.00     0.008 C 
HETATM   20  C14 UNL     1       4.537  36.112  25.591  1.00  0.00     0.025 C 
HETATM   21  C15 UNL     1       6.015  36.165  25.078  1.00  0.00     0.020 C 
HETATM   22  C19 UNL     1       4.738  36.494  26.997  1.00  0.00    -0.017 C 
HETATM   23  C16 UNL     1       6.038  34.773  25.603  1.00  0.00    -0.021 A 
HETATM   24  C17 UNL     1       6.095  34.554  27.073  1.00  0.00     0.037 A 
HETATM   25  C24 UNL     1       7.121  34.138  26.151  1.00  0.00    -0.032 A 
HETATM   26  C18 UNL     1       5.817  35.812  27.751  1.00  0.00     0.155 C 
HETATM   27  C25 UNL     1       8.449  34.911  26.256  1.00  0.00     0.016 C 
HETATM   28  C26 UNL     1       7.372  32.660  25.943  1.00  0.00     0.016 C 
HETATM   29  C20 UNL     1       3.987  37.464  27.557  1.00  0.00     0.058 C 
HETATM   30  C21 UNL     1       4.198  37.840  28.969  1.00  0.00     0.077 C 
BRANCH  26  31
HETATM   31  O5  UNL     1       5.352  35.546  29.065  1.00  0.00    -0.391 OA
ATOM     32  H5  UNL     1       4.404  35.603  29.082  1.00  0.00     0.210 HD
ENDBRANCH  26  31
BRANCH  29  33
HETATM   33  O6  UNL     1       3.018  38.110  26.801  1.00  0.00    -0.284 OA
BRANCH  33  34
HETATM   34  C22 UNL     1       3.169  39.346  26.215  1.00  0.00     0.259 C 
HETATM   35  C23 UNL     1       3.458  39.538  24.771  1.00  0.00     0.126 C 
HETATM   36  O7  UNL     1       3.054  40.355  26.954  1.00  0.00    -0.265 OA
ENDBRANCH  33  34
ENDBRANCH  29  33
ENDBRANCH  18  19
ENDBRANCH  15  18
BRANCH  11  37
HETATM   37  C27 UNL     1       2.483  31.049  24.387  1.00  0.00     0.272 C 
HETATM   38  C28 UNL     1       2.082  29.848  25.205  1.00  0.00     0.037 C 
ENDBRANCH  11  37
ENDBRANCH   7   8
ENDBRANCH   5   7
ENDBRANCH   4   5
TORSDOF 10
ENDMDL
