MODEL 1
REMARK VINA RESULT: -6.011050420      0.000      0.000
REMARK  5 active torsions:
REMARK  status: ('A' for Active; 'I' for Inactive)
REMARK    1  A    between atoms: C2_2  and  C3_3 
REMARK    2  A    between atoms: C3_3  and  C4_4 
REMARK    3  A    between atoms: C4_4  and  N1_5 
REMARK    4  A    between atoms: N1_5  and  C5_7 
REMARK    5  A    between atoms: C8_11  and  N2_12 
ROOT
HETATM    1  C5  UNL     1       9.869 193.579  86.260  1.00  0.00     0.102 C 
HETATM    2  C6  UNL     1       9.261 194.957  86.184  1.00  0.00     0.192 C 
HETATM    3  O1  UNL     1       9.742 195.688  85.109  1.00  0.00    -0.387 OA
HETATM    4  C7  UNL     1      11.109 195.704  85.015  1.00  0.00     0.200 C 
HETATM    5  C8  UNL     1      11.759 195.223  86.307  1.00  0.00     0.209 C 
HETATM    6  C9  UNL     1      11.358 193.765  86.473  1.00  0.00     0.061 C 
ENDROOT
BRANCH   1   7
HETATM    7  N1  UNL     1       9.667 192.772  85.116  1.00  0.00    -0.415 N 
ATOM      8  H1  UNL     1      10.308 192.011  84.891  1.00  0.00     0.153 HD
BRANCH   7   9
HETATM    9  C4  UNL     1       8.549 193.050  84.290  1.00  0.00     0.118 C 
BRANCH   9  10
HETATM   10  C3  UNL     1       7.411 192.096  84.351  1.00  0.00     0.045 C 
BRANCH  10  11
HETATM   11  C2  UNL     1       6.102 192.641  83.985  1.00  0.00    -0.035 C 
HETATM   12  C1  UNL     1       5.032 191.964  83.617  1.00  0.00     0.007 C 
ENDBRANCH  10  11
ENDBRANCH   9  10
ENDBRANCH   7   9
ENDBRANCH   1   7
BRANCH   5  13
HETATM   13  N2  UNL     1      13.181 195.316  86.171  1.00  0.00    -0.073 N 
ATOM     14  H23 UNL     1      13.482 195.299  85.197  1.00  0.00     0.274 HD
ATOM     15  H22 UNL     1      13.535 196.241  86.414  1.00  0.00     0.274 HD
ATOM     16  H21 UNL     1      13.614 194.576  86.725  1.00  0.00     0.274 HD
ENDBRANCH   5  13
TORSDOF 5
ENDMDL
MODEL 2
REMARK VINA RESULT: -5.951616652      1.852      2.378
REMARK  5 active torsions:
REMARK  status: ('A' for Active; 'I' for Inactive)
REMARK    1  A    between atoms: C2_2  and  C3_3 
REMARK    2  A    between atoms: C3_3  and  C4_4 
REMARK    3  A    between atoms: C4_4  and  N1_5 
REMARK    4  A    between atoms: N1_5  and  C5_7 
REMARK    5  A    between atoms: C8_11  and  N2_12 
ROOT
HETATM    1  C5  UNL     1      10.304 195.407  85.434  1.00  0.00     0.102 C 
HETATM    2  C6  UNL     1      11.808 195.375  85.540  1.00  0.00     0.192 C 
HETATM    3  O1  UNL     1      12.267 194.240  86.189  1.00  0.00    -0.387 OA
HETATM    4  C7  UNL     1      11.644 193.994  87.385  1.00  0.00     0.200 C 
HETATM    5  C8  UNL     1      10.868 195.213  87.867  1.00  0.00     0.209 C 
HETATM    6  C9  UNL     1       9.763 195.450  86.849  1.00  0.00     0.061 C 
ENDROOT
BRANCH   1   7
HETATM    7  N1  UNL     1       9.728 194.307  84.756  1.00  0.00    -0.415 N 
ATOM      8  H1  UNL     1      10.119 193.972  83.875  1.00  0.00     0.153 HD
BRANCH   7   9
HETATM    9  C4  UNL     1       8.594 193.685  85.334  1.00  0.00     0.118 C 
BRANCH   9  10
HETATM   10  C3  UNL     1       7.274 193.978  84.715  1.00  0.00     0.045 C 
BRANCH  10  11
HETATM   11  C2  UNL     1       6.577 192.832  84.128  1.00  0.00    -0.035 C 
HETATM   12  C1  UNL     1       6.908 191.560  84.232  1.00  0.00     0.007 C 
ENDBRANCH  10  11
ENDBRANCH   9  10
ENDBRANCH   7   9
ENDBRANCH   1   7
BRANCH   5  13
HETATM   13  N2  UNL     1      10.289 194.918  89.142  1.00  0.00    -0.073 N 
ATOM     14  H23 UNL     1       9.409 195.413  89.295  1.00  0.00     0.274 HD
ATOM     15  H22 UNL     1       9.927 193.966  89.194  1.00  0.00     0.274 HD
ATOM     16  H21 UNL     1      10.977 195.113  89.870  1.00  0.00     0.274 HD
ENDBRANCH   5  13
TORSDOF 5
ENDMDL
MODEL 3
REMARK VINA RESULT: -5.892971794      2.383      4.987
REMARK  5 active torsions:
REMARK  status: ('A' for Active; 'I' for Inactive)
REMARK    1  A    between atoms: C2_2  and  C3_3 
REMARK    2  A    between atoms: C3_3  and  C4_4 
REMARK    3  A    between atoms: C4_4  and  N1_5 
REMARK    4  A    between atoms: N1_5  and  C5_7 
REMARK    5  A    between atoms: C8_11  and  N2_12 
ROOT
HETATM    1  C5  UNL     1      10.260 193.917  85.890  1.00  0.00     0.102 C 
HETATM    2  C6  UNL     1      10.028 195.318  85.382  1.00  0.00     0.192 C 
HETATM    3  O1  UNL     1       8.785 195.812  85.744  1.00  0.00    -0.387 OA
HETATM    4  C7  UNL     1       7.746 194.964  85.460  1.00  0.00     0.200 C 
HETATM    5  C8  UNL     1       8.177 193.862  84.500  1.00  0.00     0.209 C 
HETATM    6  C9  UNL     1       9.218 193.033  85.236  1.00  0.00     0.061 C 
ENDROOT
BRANCH   1   7
HETATM    7  N1  UNL     1      10.173 193.768  87.294  1.00  0.00    -0.415 N 
ATOM      8  H1  UNL     1       9.576 193.052  87.709  1.00  0.00     0.153 HD
BRANCH   7   9
HETATM    9  C4  UNL     1      10.938 194.639  88.108  1.00  0.00     0.118 C 
BRANCH   9  10
HETATM   10  C3  UNL     1      10.275 195.187  89.321  1.00  0.00     0.045 C 
BRANCH  10  11
HETATM   11  C2  UNL     1       9.544 196.442  89.137  1.00  0.00    -0.035 C 
HETATM   12  C1  UNL     1       9.222 197.319  90.067  1.00  0.00     0.007 C 
ENDBRANCH  10  11
ENDBRANCH   9  10
ENDBRANCH   7   9
ENDBRANCH   1   7
BRANCH   5  13
HETATM   13  N2  UNL     1       7.042 193.044  84.195  1.00  0.00    -0.073 N 
ATOM     14  H23 UNL     1       7.217 192.054  84.369  1.00  0.00     0.274 HD
ATOM     15  H22 UNL     1       6.279 193.173  84.860  1.00  0.00     0.274 HD
ATOM     16  H21 UNL     1       6.754 193.226  83.233  1.00  0.00     0.274 HD
ENDBRANCH   5  13
TORSDOF 5
ENDMDL
MODEL 4
REMARK VINA RESULT: -5.781976305      1.963      5.221
REMARK  5 active torsions:
REMARK  status: ('A' for Active; 'I' for Inactive)
REMARK    1  A    between atoms: C2_2  and  C3_3 
REMARK    2  A    between atoms: C3_3  and  C4_4 
REMARK    3  A    between atoms: C4_4  and  N1_5 
REMARK    4  A    between atoms: N1_5  and  C5_7 
REMARK    5  A    between atoms: C8_11  and  N2_12 
ROOT
HETATM    1  C5  UNL     1       9.118 194.496  85.457  1.00  0.00     0.102 C 
HETATM    2  C6  UNL     1       9.521 193.124  85.935  1.00  0.00     0.192 C 
HETATM    3  O1  UNL     1       9.661 192.222  84.892  1.00  0.00    -0.387 OA
HETATM    4  C7  UNL     1       8.593 192.194  84.034  1.00  0.00     0.200 C 
HETATM    5  C8  UNL     1       7.379 192.890  84.637  1.00  0.00     0.209 C 
HETATM    6  C9  UNL     1       7.759 194.353  84.801  1.00  0.00     0.061 C 
ENDROOT
BRANCH   1   7
HETATM    7  N1  UNL     1      10.010 195.096  84.537  1.00  0.00    -0.415 N 
ATOM      8  H1  UNL     1       9.890 194.970  83.533  1.00  0.00     0.153 HD
BRANCH   7   9
HETATM    9  C4  UNL     1      11.075 195.876  85.052  1.00  0.00     0.118 C 
BRANCH   9  10
HETATM   10  C3  UNL     1      12.113 195.165  85.844  1.00  0.00     0.045 C 
BRANCH  10  11
HETATM   11  C2  UNL     1      12.279 195.616  87.227  1.00  0.00    -0.035 C 
HETATM   12  C1  UNL     1      11.417 195.483  88.216  1.00  0.00     0.007 C 
ENDBRANCH  10  11
ENDBRANCH   9  10
ENDBRANCH   7   9
ENDBRANCH   1   7
BRANCH   5  13
HETATM   13  N2  UNL     1       6.281 192.779  83.725  1.00  0.00    -0.073 N 
ATOM     14  H23 UNL     1       5.991 193.683  83.353  1.00  0.00     0.274 HD
ATOM     15  H22 UNL     1       6.551 192.342  82.843  1.00  0.00     0.274 HD
ATOM     16  H21 UNL     1       5.518 192.284  84.187  1.00  0.00     0.274 HD
ENDBRANCH   5  13
TORSDOF 5
ENDMDL
MODEL 5
REMARK VINA RESULT: -5.748526219      1.750      2.158
REMARK  5 active torsions:
REMARK  status: ('A' for Active; 'I' for Inactive)
REMARK    1  A    between atoms: C2_2  and  C3_3 
REMARK    2  A    between atoms: C3_3  and  C4_4 
REMARK    3  A    between atoms: C4_4  and  N1_5 
REMARK    4  A    between atoms: N1_5  and  C5_7 
REMARK    5  A    between atoms: C8_11  and  N2_12 
ROOT
HETATM    1  C5  UNL     1       9.809 194.409  86.441  1.00  0.00     0.102 C 
HETATM    2  C6  UNL     1      10.176 194.091  87.868  1.00  0.00     0.192 C 
HETATM    3  O1  UNL     1      10.782 195.160  88.509  1.00  0.00    -0.387 OA
HETATM    4  C7  UNL     1      11.818 195.716  87.804  1.00  0.00     0.200 C 
HETATM    5  C8  UNL     1      12.273 194.801  86.673  1.00  0.00     0.209 C 
HETATM    6  C9  UNL     1      11.103 194.699  85.706  1.00  0.00     0.061 C 
ENDROOT
BRANCH   1   7
HETATM    7  N1  UNL     1       8.934 195.509  86.279  1.00  0.00    -0.415 N 
ATOM      8  H1  UNL     1       9.185 196.434  86.628  1.00  0.00     0.153 HD
BRANCH   7   9
HETATM    9  C4  UNL     1       7.700 195.290  85.618  1.00  0.00     0.118 C 
BRANCH   9  10
HETATM   10  C3  UNL     1       7.710 194.359  84.460  1.00  0.00     0.045 C 
BRANCH  10  11
HETATM   11  C2  UNL     1       6.770 193.238  84.535  1.00  0.00    -0.035 C 
HETATM   12  C1  UNL     1       6.993 191.988  84.180  1.00  0.00     0.007 C 
ENDBRANCH  10  11
ENDBRANCH   9  10
ENDBRANCH   7   9
ENDBRANCH   1   7
BRANCH   5  13
HETATM   13  N2  UNL     1      13.390 195.404  86.012  1.00  0.00    -0.073 N 
ATOM     14  H23 UNL     1      13.284 195.412  84.997  1.00  0.00     0.274 HD
ATOM     15  H22 UNL     1      13.430 196.413  86.158  1.00  0.00     0.274 HD
ATOM     16  H21 UNL     1      14.243 194.933  86.311  1.00  0.00     0.274 HD
ENDBRANCH   5  13
TORSDOF 5
ENDMDL
