MODEL 1
REMARK VINA RESULT: -5.495998593      0.000      0.000
REMARK  6 active torsions:
REMARK  status: ('A' for Active; 'I' for Inactive)
REMARK    1  A    between atoms: C2_2  and  C3_3 
REMARK    2  A    between atoms: C3_3  and  C7_11 
REMARK    3  A    between atoms: C4_4  and  C5_5 
REMARK    4  A    between atoms: C5_5  and  N1_7 
REMARK    5  A    between atoms: C7_11  and  N2_12 
REMARK    6  A    between atoms: N2_12  and  N3_13 
ROOT
HETATM    1  C3  UNL     1      10.289 195.406  87.239  1.00  0.00    -0.045 C 
HETATM    2  C4  UNL     1       9.420 195.870  88.120  1.00  0.00     0.013 C 
ENDROOT
BRANCH   1   3
HETATM    3  C2  UNL     1      11.689 195.420  87.582  1.00  0.00    -0.002 C 
HETATM    4  C1  UNL     1      12.602 195.418  86.650  1.00  0.00     0.012 C 
ENDBRANCH   1   3
BRANCH   1   5
HETATM    5  C7  UNL     1       9.790 194.892  85.949  1.00  0.00     0.167 C 
BRANCH   5   6
HETATM    6  N2  UNL     1       8.481 195.393  85.582  1.00  0.00    -0.160 NA
BRANCH   6   7
HETATM    7  N3  UNL     1       8.041 194.655  84.491  1.00  0.00    -0.232 NA
HETATM    8  C8  UNL     1       6.965 193.720  84.621  1.00  0.00     0.125 A 
HETATM    9  C9  UNL     1       8.409 193.260  84.473  1.00  0.00     0.125 A 
ENDBRANCH   6   7
ENDBRANCH   5   6
ENDBRANCH   1   5
BRANCH   2  10
HETATM   10  C5  UNL     1       9.810 196.406  89.443  1.00  0.00     0.203 C 
HETATM   11  C6  UNL     1       9.589 195.338  90.500  1.00  0.00     0.044 C 
BRANCH  10  12
HETATM   12  N1  UNL     1       9.135 197.622  89.792  1.00  0.00    -0.072 N 
ATOM     13  H13 UNL     1       9.482 198.400  89.232  1.00  0.00     0.275 HD
ATOM     14  H12 UNL     1       8.166 197.601  89.473  1.00  0.00     0.275 HD
ATOM     15  H11 UNL     1       9.183 197.846  90.787  1.00  0.00     0.275 HD
ENDBRANCH  10  12
ENDBRANCH   2  10
TORSDOF 6
ENDMDL
MODEL 2
REMARK VINA RESULT: -5.461393843      1.685      4.790
REMARK  6 active torsions:
REMARK  status: ('A' for Active; 'I' for Inactive)
REMARK    1  A    between atoms: C2_2  and  C3_3 
REMARK    2  A    between atoms: C3_3  and  C7_11 
REMARK    3  A    between atoms: C4_4  and  C5_5 
REMARK    4  A    between atoms: C5_5  and  N1_7 
REMARK    5  A    between atoms: C7_11  and  N2_12 
REMARK    6  A    between atoms: N2_12  and  N3_13 
ROOT
HETATM    1  C3  UNL     1      10.608 194.473  86.843  1.00  0.00    -0.045 C 
HETATM    2  C4  UNL     1       9.609 193.693  86.466  1.00  0.00     0.013 C 
ENDROOT
BRANCH   1   3
HETATM    3  C2  UNL     1      11.244 195.303  85.851  1.00  0.00    -0.002 C 
HETATM    4  C1  UNL     1      12.541 195.443  85.834  1.00  0.00     0.012 C 
ENDBRANCH   1   3
BRANCH   1   5
HETATM    5  C7  UNL     1      11.022 194.464  88.260  1.00  0.00     0.167 C 
BRANCH   5   6
HETATM    6  N2  UNL     1      11.087 195.779  88.864  1.00  0.00    -0.160 NA
BRANCH   6   7
HETATM    7  N3  UNL     1       9.788 196.160  89.176  1.00  0.00    -0.232 NA
HETATM    8  C8  UNL     1       9.537 197.243  90.078  1.00  0.00     0.125 A 
HETATM    9  C9  UNL     1       9.314 195.794  90.488  1.00  0.00     0.125 A 
ENDBRANCH   6   7
ENDBRANCH   5   6
ENDBRANCH   1   5
BRANCH   2  10
HETATM   10  C5  UNL     1       9.111 193.626  85.074  1.00  0.00     0.203 C 
HETATM   11  C6  UNL     1       7.678 194.126  85.031  1.00  0.00     0.044 C 
BRANCH  10  12
HETATM   12  N1  UNL     1       9.219 192.322  84.487  1.00  0.00    -0.072 N 
ATOM     13  H13 UNL     1       8.712 191.634  85.043  1.00  0.00     0.275 HD
ATOM     14  H12 UNL     1       8.681 192.270  83.622  1.00  0.00     0.275 HD
ATOM     15  H11 UNL     1      10.181 192.022  84.332  1.00  0.00     0.275 HD
ENDBRANCH  10  12
ENDBRANCH   2  10
TORSDOF 6
ENDMDL
MODEL 3
REMARK VINA RESULT: -5.446225165      1.428      1.477
REMARK  6 active torsions:
REMARK  status: ('A' for Active; 'I' for Inactive)
REMARK    1  A    between atoms: C2_2  and  C3_3 
REMARK    2  A    between atoms: C3_3  and  C7_11 
REMARK    3  A    between atoms: C4_4  and  C5_5 
REMARK    4  A    between atoms: C5_5  and  N1_7 
REMARK    5  A    between atoms: C7_11  and  N2_12 
REMARK    6  A    between atoms: N2_12  and  N3_13 
ROOT
HETATM    1  C3  UNL     1       9.696 194.884  86.633  1.00  0.00    -0.045 C 
HETATM    2  C4  UNL     1       9.540 195.794  87.579  1.00  0.00     0.013 C 
ENDROOT
BRANCH   1   3
HETATM    3  C2  UNL     1      10.497 193.722  86.924  1.00  0.00    -0.002 C 
HETATM    4  C1  UNL     1      11.714 193.621  86.463  1.00  0.00     0.012 C 
ENDBRANCH   1   3
BRANCH   1   5
HETATM    5  C7  UNL     1       9.042 195.096  85.327  1.00  0.00     0.167 C 
BRANCH   5   6
HETATM    6  N2  UNL     1       7.639 194.738  85.306  1.00  0.00    -0.160 NA
BRANCH   6   7
HETATM    7  N3  UNL     1       7.417 193.982  84.163  1.00  0.00    -0.232 NA
HETATM    8  C8  UNL     1       6.594 192.811  84.204  1.00  0.00     0.125 A 
HETATM    9  C9  UNL     1       8.109 192.718  84.089  1.00  0.00     0.125 A 
ENDBRANCH   6   7
ENDBRANCH   5   6
ENDBRANCH   1   5
BRANCH   2  10
HETATM   10  C5  UNL     1      10.148 195.681  88.925  1.00  0.00     0.203 C 
HETATM   11  C6  UNL     1       9.307 196.461  89.920  1.00  0.00     0.044 C 
BRANCH  10  12
HETATM   12  N1  UNL     1      11.520 196.097  88.972  1.00  0.00    -0.072 N 
ATOM     13  H13 UNL     1      12.058 195.493  89.593  1.00  0.00     0.275 HD
ATOM     14  H12 UNL     1      11.988 195.894  88.089  1.00  0.00     0.275 HD
ATOM     15  H11 UNL     1      11.641 197.077  89.229  1.00  0.00     0.275 HD
ENDBRANCH  10  12
ENDBRANCH   2  10
TORSDOF 6
ENDMDL
MODEL 4
REMARK VINA RESULT: -5.358772472      1.777      4.991
REMARK  6 active torsions:
REMARK  status: ('A' for Active; 'I' for Inactive)
REMARK    1  A    between atoms: C2_2  and  C3_3 
REMARK    2  A    between atoms: C3_3  and  C7_11 
REMARK    3  A    between atoms: C4_4  and  C5_5 
REMARK    4  A    between atoms: C5_5  and  N1_7 
REMARK    5  A    between atoms: C7_11  and  N2_12 
REMARK    6  A    between atoms: N2_12  and  N3_13 
ROOT
HETATM    1  C3  UNL     1       9.684 194.921  86.084  1.00  0.00    -0.045 C 
HETATM    2  C4  UNL     1       8.867 193.900  85.890  1.00  0.00     0.013 C 
ENDROOT
BRANCH   1   3
HETATM    3  C2  UNL     1      10.430 195.427  84.960  1.00  0.00    -0.002 C 
HETATM    4  C1  UNL     1      11.641 195.887  85.118  1.00  0.00     0.012 C 
ENDBRANCH   1   3
BRANCH   1   5
HETATM    5  C7  UNL     1       9.791 195.499  87.438  1.00  0.00     0.167 C 
BRANCH   5   6
HETATM    6  N2  UNL     1      10.703 194.789  88.311  1.00  0.00    -0.160 NA
BRANCH   6   7
HETATM    7  N3  UNL     1      10.712 195.448  89.533  1.00  0.00    -0.232 NA
HETATM    8  C8  UNL     1       9.580 195.395  90.406  1.00  0.00     0.125 A 
HETATM    9  C9  UNL     1       9.919 196.651  89.615  1.00  0.00     0.125 A 
ENDBRANCH   6   7
ENDBRANCH   5   6
ENDBRANCH   1   5
BRANCH   2  10
HETATM   10  C5  UNL     1       8.680 193.246  84.575  1.00  0.00     0.203 C 
HETATM   11  C6  UNL     1       7.204 192.959  84.364  1.00  0.00     0.044 C 
BRANCH  10  12
HETATM   12  N1  UNL     1       9.465 192.057  84.407  1.00  0.00    -0.072 N 
ATOM     13  H13 UNL     1       8.917 191.324  83.958  1.00  0.00     0.275 HD
ATOM     14  H12 UNL     1      10.181 192.196  83.693  1.00  0.00     0.275 HD
ATOM     15  H11 UNL     1       9.881 191.717  85.274  1.00  0.00     0.275 HD
ENDBRANCH  10  12
ENDBRANCH   2  10
TORSDOF 6
ENDMDL
MODEL 5
REMARK VINA RESULT: -5.205652562      2.472      3.268
REMARK  6 active torsions:
REMARK  status: ('A' for Active; 'I' for Inactive)
REMARK    1  A    between atoms: C2_2  and  C3_3 
REMARK    2  A    between atoms: C3_3  and  C7_11 
REMARK    3  A    between atoms: C4_4  and  C5_5 
REMARK    4  A    between atoms: C5_5  and  N1_7 
REMARK    5  A    between atoms: C7_11  and  N2_12 
REMARK    6  A    between atoms: N2_12  and  N3_13 
ROOT
HETATM    1  C3  UNL     1      11.044 194.885  87.861  1.00  0.00    -0.045 C 
HETATM    2  C4  UNL     1      10.859 195.717  88.872  1.00  0.00     0.013 C 
ENDROOT
BRANCH   1   3
HETATM    3  C2  UNL     1       9.953 194.028  87.469  1.00  0.00    -0.002 C 
HETATM    4  C1  UNL     1      10.116 193.130  86.537  1.00  0.00     0.012 C 
ENDBRANCH   1   3
BRANCH   1   5
HETATM    5  C7  UNL     1      12.352 194.876  87.177  1.00  0.00     0.167 C 
BRANCH   5   6
HETATM    6  N2  UNL     1      12.614 196.064  86.391  1.00  0.00    -0.160 NA
BRANCH   6   7
HETATM    7  N3  UNL     1      12.299 195.770  85.071  1.00  0.00    -0.232 NA
HETATM    8  C8  UNL     1      12.050 196.815  84.125  1.00  0.00     0.125 A 
HETATM    9  C9  UNL     1      10.922 195.961  84.686  1.00  0.00     0.125 A 
ENDBRANCH   6   7
ENDBRANCH   5   6
ENDBRANCH   1   5
BRANCH   2  10
HETATM   10  C5  UNL     1       9.588 195.812  89.626  1.00  0.00     0.203 C 
HETATM   11  C6  UNL     1       9.296 197.270  89.931  1.00  0.00     0.044 C 
BRANCH  10  12
HETATM   12  N1  UNL     1       9.570 195.022  90.823  1.00  0.00    -0.072 N 
ATOM     13  H13 UNL     1       9.520 195.619  91.648  1.00  0.00     0.275 HD
ATOM     14  H12 UNL     1       8.682 194.529  90.915  1.00  0.00     0.275 HD
ATOM     15  H11 UNL     1      10.353 194.371  90.895  1.00  0.00     0.275 HD
ENDBRANCH  10  12
ENDBRANCH   2  10
TORSDOF 6
ENDMDL
