MODEL 1
REMARK VINA RESULT: -6.276763217      0.000      0.000
REMARK  5 active torsions:
REMARK  status: ('A' for Active; 'I' for Inactive)
REMARK    1  A    between atoms: N1_2  and  C2_5 
REMARK    2  A    between atoms: C2_5  and  C3_6 
REMARK    3  A    between atoms: C2_5  and  C4_11 
REMARK    4  A    between atoms: C3_6  and  N2_7 
REMARK    5  A    between atoms: C4_11  and  C5_12 
ROOT
HETATM    1  C2  UNL     1      11.148 195.343  87.514  1.00  0.00     0.215 C 
ENDROOT
BRANCH   1   2
HETATM    2  N1  UNL     1      11.026 195.059  88.941  1.00  0.00    -0.073 N 
HETATM    3  C1  UNL     1       9.976 195.798  89.571  1.00  0.00     0.267 C 
ATOM      4  H12 UNL     1      11.914 195.210  89.420  1.00  0.00     0.277 HD
ATOM      5  H11 UNL     1      10.916 194.059  89.105  1.00  0.00     0.277 HD
ENDBRANCH   1   2
BRANCH   1   6
HETATM    6  C3  UNL     1      12.602 195.717  87.316  1.00  0.00     0.262 C 
BRANCH   6   7
HETATM    7  N2  UNL     1      12.999 195.318  85.984  1.00  0.00    -0.077 N 
ATOM      8  H23 UNL     1      12.272 195.489  85.291  1.00  0.00     0.274 HD
ATOM      9  H22 UNL     1      13.715 195.928  85.589  1.00  0.00     0.274 HD
ATOM     10  H21 UNL     1      13.291 194.341  86.014  1.00  0.00     0.274 HD
ENDBRANCH   6   7
ENDBRANCH   1   6
BRANCH   1  11
HETATM   11  C4  UNL     1      10.782 194.198  86.646  1.00  0.00     0.074 C 
BRANCH  11  12
HETATM   12  C5  UNL     1       9.477 194.248  86.014  1.00  0.00    -0.041 A 
HETATM   13  C6  UNL     1       8.952 193.197  85.307  1.00  0.00     0.010 A 
HETATM   14  C7  UNL     1       7.689 193.299  84.709  1.00  0.00     0.018 A 
HETATM   15  C8  UNL     1       6.957 194.456  84.824  1.00  0.00     0.087 A 
HETATM   16  N3  UNL     1       7.485 195.476  85.521  1.00  0.00    -0.375 N 
HETATM   17  C9  UNL     1       8.700 195.395  86.103  1.00  0.00     0.094 A 
ATOM     18  H3  UNL     1       6.951 196.340  85.614  1.00  0.00     0.164 HD
ENDBRANCH  11  12
ENDBRANCH   1  11
TORSDOF 5
ENDMDL
MODEL 2
REMARK VINA RESULT: -6.182060706      1.486      2.658
REMARK  5 active torsions:
REMARK  status: ('A' for Active; 'I' for Inactive)
REMARK    1  A    between atoms: N1_2  and  C2_5 
REMARK    2  A    between atoms: C2_5  and  C3_6 
REMARK    3  A    between atoms: C2_5  and  C4_11 
REMARK    4  A    between atoms: C3_6  and  N2_7 
REMARK    5  A    between atoms: C4_11  and  C5_12 
ROOT
HETATM    1  C2  UNL     1      10.619 194.969  87.722  1.00  0.00     0.215 C 
ENDROOT
BRANCH   1   2
HETATM    2  N1  UNL     1      11.891 195.670  87.571  1.00  0.00    -0.073 N 
HETATM    3  C1  UNL     1      12.583 195.318  86.370  1.00  0.00     0.267 C 
ATOM      4  H12 UNL     1      12.484 195.528  88.388  1.00  0.00     0.277 HD
ATOM      5  H11 UNL     1      11.760 196.679  87.634  1.00  0.00     0.277 HD
ENDBRANCH   1   2
BRANCH   1   6
HETATM    6  C3  UNL     1      10.225 195.189  89.168  1.00  0.00     0.262 C 
BRANCH   6   7
HETATM    7  N2  UNL     1       9.534 196.455  89.266  1.00  0.00    -0.077 N 
ATOM      8  H23 UNL     1       9.276 196.688  90.225  1.00  0.00     0.274 HD
ATOM      9  H22 UNL     1      10.147 197.251  89.090  1.00  0.00     0.274 HD
ATOM     10  H21 UNL     1       8.730 196.434  88.639  1.00  0.00     0.274 HD
ENDBRANCH   6   7
ENDBRANCH   1   6
BRANCH   1  11
HETATM   11  C4  UNL     1       9.556 195.462  86.813  1.00  0.00     0.074 C 
BRANCH  11  12
HETATM   12  C5  UNL     1       8.962 194.489  85.915  1.00  0.00    -0.041 A 
HETATM   13  C6  UNL     1       7.714 194.646  85.369  1.00  0.00     0.010 A 
HETATM   14  C7  UNL     1       7.183 193.673  84.512  1.00  0.00     0.018 A 
HETATM   15  C8  UNL     1       7.907 192.546  84.206  1.00  0.00     0.087 A 
HETATM   16  N3  UNL     1       9.129 192.408  84.749  1.00  0.00    -0.375 N 
HETATM   17  C9  UNL     1       9.655 193.335  85.576  1.00  0.00     0.094 A 
ATOM     18  H3  UNL     1       9.675 191.576  84.529  1.00  0.00     0.164 HD
ENDBRANCH  11  12
ENDBRANCH   1  11
TORSDOF 5
ENDMDL
MODEL 3
REMARK VINA RESULT: -6.118046030      1.387      1.756
REMARK  5 active torsions:
REMARK  status: ('A' for Active; 'I' for Inactive)
REMARK    1  A    between atoms: N1_2  and  C2_5 
REMARK    2  A    between atoms: C2_5  and  C3_6 
REMARK    3  A    between atoms: C2_5  and  C4_11 
REMARK    4  A    between atoms: C3_6  and  N2_7 
REMARK    5  A    between atoms: C4_11  and  C5_12 
ROOT
HETATM    1  C2  UNL     1      10.880 195.159  86.568  1.00  0.00     0.215 C 
ENDROOT
BRANCH   1   2
HETATM    2  N1  UNL     1      11.457 195.349  87.895  1.00  0.00    -0.073 N 
HETATM    3  C1  UNL     1      10.482 195.304  88.940  1.00  0.00     0.267 C 
ATOM      4  H12 UNL     1      11.996 196.214  87.938  1.00  0.00     0.277 HD
ATOM      5  H11 UNL     1      12.205 194.678  88.066  1.00  0.00     0.277 HD
ENDBRANCH   1   2
BRANCH   1   6
HETATM    6  C3  UNL     1      11.965 195.597  85.607  1.00  0.00     0.262 C 
BRANCH   6   7
HETATM    7  N2  UNL     1      13.250 195.337  86.218  1.00  0.00    -0.077 N 
ATOM      8  H23 UNL     1      13.595 196.132  86.755  1.00  0.00     0.274 HD
ATOM      9  H22 UNL     1      13.191 194.666  86.984  1.00  0.00     0.274 HD
ATOM     10  H21 UNL     1      13.901 195.044  85.489  1.00  0.00     0.274 HD
ENDBRANCH   6   7
ENDBRANCH   1   6
BRANCH   1  11
HETATM   11  C4  UNL     1      10.474 193.760  86.290  1.00  0.00     0.074 C 
BRANCH  11  12
HETATM   12  C5  UNL     1       9.217 193.571  85.589  1.00  0.00    -0.041 A 
HETATM   13  C6  UNL     1       8.244 194.536  85.533  1.00  0.00     0.010 A 
HETATM   14  C7  UNL     1       7.046 194.301  84.847  1.00  0.00     0.018 A 
HETATM   15  C8  UNL     1       6.828 193.098  84.219  1.00  0.00     0.087 A 
HETATM   16  N3  UNL     1       7.792 192.164  84.283  1.00  0.00    -0.375 N 
HETATM   17  C9  UNL     1       8.952 192.374  84.939  1.00  0.00     0.094 A 
ATOM     18  H3  UNL     1       7.642 191.268  83.821  1.00  0.00     0.164 HD
ENDBRANCH  11  12
ENDBRANCH   1  11
TORSDOF 5
ENDMDL
MODEL 4
REMARK VINA RESULT: -6.040764653      1.311      4.945
REMARK  5 active torsions:
REMARK  status: ('A' for Active; 'I' for Inactive)
REMARK    1  A    between atoms: N1_2  and  C2_5 
REMARK    2  A    between atoms: C2_5  and  C3_6 
REMARK    3  A    between atoms: C2_5  and  C4_11 
REMARK    4  A    between atoms: C3_6  and  N2_7 
REMARK    5  A    between atoms: C4_11  and  C5_12 
ROOT
HETATM    1  C2  UNL     1       8.878 193.903  84.764  1.00  0.00     0.215 C 
ENDROOT
BRANCH   1   2
HETATM    2  N1  UNL     1       8.645 192.938  83.694  1.00  0.00    -0.073 N 
HETATM    3  C1  UNL     1       7.483 192.132  83.912  1.00  0.00     0.267 C 
ATOM      4  H12 UNL     1       9.468 192.355  83.543  1.00  0.00     0.277 HD
ATOM      5  H11 UNL     1       8.601 193.402  82.787  1.00  0.00     0.277 HD
ENDBRANCH   1   2
BRANCH   1   6
HETATM    6  C3  UNL     1       7.497 194.387  85.157  1.00  0.00     0.262 C 
BRANCH   6   7
HETATM    7  N2  UNL     1       7.613 195.735  85.667  1.00  0.00    -0.077 N 
ATOM      8  H23 UNL     1       7.259 196.433  85.013  1.00  0.00     0.274 HD
ATOM      9  H22 UNL     1       6.965 195.921  86.433  1.00  0.00     0.274 HD
ATOM     10  H21 UNL     1       8.585 195.899  85.927  1.00  0.00     0.274 HD
ENDBRANCH   6   7
ENDBRANCH   1   6
BRANCH   1  11
HETATM   11  C4  UNL     1       9.582 193.333  85.938  1.00  0.00     0.074 C 
BRANCH  11  12
HETATM   12  C5  UNL     1      10.576 194.176  86.576  1.00  0.00    -0.041 A 
HETATM   13  C6  UNL     1      10.383 194.755  87.804  1.00  0.00     0.010 A 
HETATM   14  C7  UNL     1      11.373 195.566  88.374  1.00  0.00     0.018 A 
HETATM   15  C8  UNL     1      12.554 195.793  87.708  1.00  0.00     0.087 A 
HETATM   16  N3  UNL     1      12.727 195.217  86.507  1.00  0.00    -0.375 N 
HETATM   17  C9  UNL     1      11.785 194.433  85.944  1.00  0.00     0.094 A 
ATOM     18  H3  UNL     1      13.600 195.378  86.004  1.00  0.00     0.164 HD
ENDBRANCH  11  12
ENDBRANCH   1  11
TORSDOF 5
ENDMDL
MODEL 5
REMARK VINA RESULT: -5.972764737      1.397      4.859
REMARK  5 active torsions:
REMARK  status: ('A' for Active; 'I' for Inactive)
REMARK    1  A    between atoms: N1_2  and  C2_5 
REMARK    2  A    between atoms: C2_5  and  C3_6 
REMARK    3  A    between atoms: C2_5  and  C4_11 
REMARK    4  A    between atoms: C3_6  and  N2_7 
REMARK    5  A    between atoms: C4_11  and  C5_12 
ROOT
HETATM    1  C2  UNL     1       8.894 193.898  84.742  1.00  0.00     0.215 C 
ENDROOT
BRANCH   1   2
HETATM    2  N1  UNL     1       8.640 192.941  83.669  1.00  0.00    -0.073 N 
HETATM    3  C1  UNL     1       7.468 192.152  83.891  1.00  0.00     0.267 C 
ATOM      4  H12 UNL     1       9.454 192.348  83.510  1.00  0.00     0.277 HD
ATOM      5  H11 UNL     1       8.597 193.411  82.765  1.00  0.00     0.277 HD
ENDBRANCH   1   2
BRANCH   1   6
HETATM    6  C3  UNL     1       7.522 194.390  85.156  1.00  0.00     0.262 C 
BRANCH   6   7
HETATM    7  N2  UNL     1       7.654 195.734  85.672  1.00  0.00    -0.077 N 
ATOM      8  H23 UNL     1       8.602 195.942  85.983  1.00  0.00     0.274 HD
ATOM      9  H22 UNL     1       7.588 196.443  84.941  1.00  0.00     0.274 HD
ATOM     10  H21 UNL     1       6.961 195.866  86.409  1.00  0.00     0.274 HD
ENDBRANCH   6   7
ENDBRANCH   1   6
BRANCH   1  11
HETATM   11  C4  UNL     1       9.608 193.315  85.903  1.00  0.00     0.074 C 
BRANCH  11  12
HETATM   12  C5  UNL     1      10.564 194.171  86.580  1.00  0.00    -0.041 A 
HETATM   13  C6  UNL     1      11.710 194.627  85.979  1.00  0.00     0.010 A 
HETATM   14  C7  UNL     1      12.604 195.448  86.679  1.00  0.00     0.018 A 
HETATM   15  C8  UNL     1      12.345 195.808  87.980  1.00  0.00     0.087 A 
HETATM   16  N3  UNL     1      11.218 195.353  88.553  1.00  0.00    -0.375 N 
HETATM   17  C9  UNL     1      10.346 194.562  87.894  1.00  0.00     0.094 A 
ATOM     18  H3  UNL     1      11.015 195.613  89.518  1.00  0.00     0.164 HD
ENDBRANCH  11  12
ENDBRANCH   1  11
TORSDOF 5
ENDMDL
