MODEL 1
REMARK VINA RESULT: -5.245684147      0.000      0.000
REMARK  6 active torsions:
REMARK  status: ('A' for Active; 'I' for Inactive)
REMARK    1  A    between atoms: C2_2  and  N1_3 
REMARK    2  A    between atoms: C2_2  and  N2_7 
REMARK    3  A    between atoms: N2_7  and  C4_9 
REMARK    4  A    between atoms: C4_9  and  C5_10 
REMARK    5  A    between atoms: C5_10  and  N3_11 
REMARK    6  A    between atoms: N3_11  and  C6_13 
ROOT
HETATM    1  N2  UNL     1      10.915 195.018  85.428  1.00  0.00    -0.390 N 
HETATM    2  C3  UNL     1      11.554 196.161  84.895  1.00  0.00     0.145 C 
ENDROOT
BRANCH   1   3
HETATM    3  C2  UNL     1       9.547 194.815  85.104  1.00  0.00     0.275 C 
HETATM    4  C1  UNL     1       9.011 193.443  85.488  1.00  0.00     0.063 C 
BRANCH   3   5
HETATM    5  N1  UNL     1       9.353 194.886  83.646  1.00  0.00    -0.059 N 
ATOM      6  H13 UNL     1      10.114 194.479  83.103  1.00  0.00     0.276 HD
ATOM      7  H12 UNL     1       8.620 194.272  83.291  1.00  0.00     0.276 HD
ATOM      8  H11 UNL     1       9.191 195.876  83.461  1.00  0.00     0.276 HD
ENDBRANCH   3   5
ENDBRANCH   1   3
BRANCH   1   9
HETATM    9  C4  UNL     1      11.240 194.671  86.764  1.00  0.00     0.137 C 
BRANCH   9  10
HETATM   10  C5  UNL     1      12.201 195.593  87.463  1.00  0.00     0.133 C 
BRANCH  10  11
HETATM   11  N3  UNL     1      11.657 195.981  88.741  1.00  0.00    -0.416 N 
ATOM     12  H3  UNL     1      12.222 196.427  89.464  1.00  0.00     0.153 HD
BRANCH  11  13
HETATM   13  C6  UNL     1      10.270 195.698  88.920  1.00  0.00     0.076 A 
HETATM   14  C7  UNL     1       9.639 195.410  90.204  1.00  0.00     0.027 A 
HETATM   15  C8  UNL     1       9.554 196.803  89.741  1.00  0.00     0.027 A 
ENDBRANCH  11  13
ENDBRANCH  10  11
ENDBRANCH   9  10
ENDBRANCH   1   9
TORSDOF 6
ENDMDL
MODEL 2
REMARK VINA RESULT: -5.183289139      1.613      4.734
REMARK  6 active torsions:
REMARK  status: ('A' for Active; 'I' for Inactive)
REMARK    1  A    between atoms: C2_2  and  N1_3 
REMARK    2  A    between atoms: C2_2  and  N2_7 
REMARK    3  A    between atoms: N2_7  and  C4_9 
REMARK    4  A    between atoms: C4_9  and  C5_10 
REMARK    5  A    between atoms: C5_10  and  N3_11 
REMARK    6  A    between atoms: N3_11  and  C6_13 
ROOT
HETATM    1  N2  UNL     1      10.401 195.833  88.398  1.00  0.00    -0.390 N 
HETATM    2  C3  UNL     1      11.749 195.851  88.826  1.00  0.00     0.145 C 
ENDROOT
BRANCH   1   3
HETATM    3  C2  UNL     1       9.394 196.020  89.381  1.00  0.00     0.275 C 
HETATM    4  C1  UNL     1       9.397 197.399  90.026  1.00  0.00     0.063 C 
BRANCH   3   5
HETATM    5  N1  UNL     1       9.602 195.092  90.506  1.00  0.00    -0.059 N 
ATOM      6  H13 UNL     1       9.720 195.551  91.409  1.00  0.00     0.276 HD
ATOM      7  H12 UNL     1       8.774 194.553  90.762  1.00  0.00     0.276 HD
ATOM      8  H11 UNL     1      10.397 194.522  90.219  1.00  0.00     0.276 HD
ENDBRANCH   3   5
ENDBRANCH   1   3
BRANCH   1   9
HETATM    9  C4  UNL     1      10.060 194.877  87.408  1.00  0.00     0.137 C 
BRANCH   9  10
HETATM   10  C5  UNL     1      10.571 195.160  86.022  1.00  0.00     0.133 C 
BRANCH  10  11
HETATM   11  N3  UNL     1       9.474 195.132  85.086  1.00  0.00    -0.416 N 
ATOM     12  H3  UNL     1       9.557 195.488  84.134  1.00  0.00     0.153 HD
BRANCH  11  13
HETATM   13  C6  UNL     1       8.262 194.569  85.589  1.00  0.00     0.076 A 
HETATM   14  C7  UNL     1       6.963 194.670  84.932  1.00  0.00     0.027 A 
HETATM   15  C8  UNL     1       7.724 193.439  84.673  1.00  0.00     0.027 A 
ENDBRANCH  11  13
ENDBRANCH  10  11
ENDBRANCH   9  10
ENDBRANCH   1   9
TORSDOF 6
ENDMDL
MODEL 3
REMARK VINA RESULT: -5.161332333      1.745      2.502
REMARK  6 active torsions:
REMARK  status: ('A' for Active; 'I' for Inactive)
REMARK    1  A    between atoms: C2_2  and  N1_3 
REMARK    2  A    between atoms: C2_2  and  N2_7 
REMARK    3  A    between atoms: N2_7  and  C4_9 
REMARK    4  A    between atoms: C4_9  and  C5_10 
REMARK    5  A    between atoms: C5_10  and  N3_11 
REMARK    6  A    between atoms: N3_11  and  C6_13 
ROOT
HETATM    1  N2  UNL     1       8.516 193.988  84.893  1.00  0.00    -0.390 N 
HETATM    2  C3  UNL     1       7.345 194.719  85.200  1.00  0.00     0.145 C 
ENDROOT
BRANCH   1   3
HETATM    3  C2  UNL     1       8.387 192.865  84.034  1.00  0.00     0.275 C 
HETATM    4  C1  UNL     1       7.112 192.060  84.245  1.00  0.00     0.063 C 
BRANCH   3   5
HETATM    5  N1  UNL     1       9.471 191.901  84.289  1.00  0.00    -0.059 N 
ATOM      6  H13 UNL     1       9.220 191.151  84.934  1.00  0.00     0.276 HD
ATOM      7  H12 UNL     1       9.690 191.299  83.496  1.00  0.00     0.276 HD
ATOM      8  H11 UNL     1      10.252 192.477  84.603  1.00  0.00     0.276 HD
ENDBRANCH   3   5
ENDBRANCH   1   3
BRANCH   1   9
HETATM    9  C4  UNL     1       9.440 193.792  85.951  1.00  0.00     0.137 C 
BRANCH   9  10
HETATM   10  C5  UNL     1       9.886 195.036  86.669  1.00  0.00     0.133 C 
BRANCH  10  11
HETATM   11  N3  UNL     1      10.379 194.688  87.979  1.00  0.00    -0.416 N 
ATOM     12  H3  UNL     1      10.643 193.735  88.229  1.00  0.00     0.153 HD
BRANCH  11  13
HETATM   13  C6  UNL     1      10.473 195.775  88.899  1.00  0.00     0.076 A 
HETATM   14  C7  UNL     1       9.352 196.612  89.314  1.00  0.00     0.027 A 
HETATM   15  C8  UNL     1       9.687 195.495  90.208  1.00  0.00     0.027 A 
ENDBRANCH  11  13
ENDBRANCH  10  11
ENDBRANCH   9  10
ENDBRANCH   1   9
TORSDOF 6
ENDMDL
MODEL 4
REMARK VINA RESULT: -5.130009402      1.169      1.523
REMARK  6 active torsions:
REMARK  status: ('A' for Active; 'I' for Inactive)
REMARK    1  A    between atoms: C2_2  and  N1_3 
REMARK    2  A    between atoms: C2_2  and  N2_7 
REMARK    3  A    between atoms: N2_7  and  C4_9 
REMARK    4  A    between atoms: C4_9  and  C5_10 
REMARK    5  A    between atoms: C5_10  and  N3_11 
REMARK    6  A    between atoms: N3_11  and  C6_13 
ROOT
HETATM    1  N2  UNL     1       9.282 194.229  85.990  1.00  0.00    -0.390 N 
HETATM    2  C3  UNL     1      10.111 193.083  85.972  1.00  0.00     0.145 C 
ENDROOT
BRANCH   1   3
HETATM    3  C2  UNL     1       8.410 194.430  84.887  1.00  0.00     0.275 C 
HETATM    4  C1  UNL     1       7.570 193.213  84.525  1.00  0.00     0.063 C 
BRANCH   3   5
HETATM    5  N1  UNL     1       9.186 194.712  83.668  1.00  0.00    -0.059 N 
ATOM      6  H13 UNL     1       8.949 194.116  82.875  1.00  0.00     0.276 HD
ATOM      7  H12 UNL     1       8.951 195.597  83.218  1.00  0.00     0.276 HD
ATOM      8  H11 UNL     1      10.159 194.642  83.967  1.00  0.00     0.276 HD
ENDBRANCH   3   5
ENDBRANCH   1   3
BRANCH   1   9
HETATM    9  C4  UNL     1       9.861 195.426  86.483  1.00  0.00     0.137 C 
BRANCH   9  10
HETATM   10  C5  UNL     1      11.222 195.286  87.107  1.00  0.00     0.133 C 
BRANCH  10  11
HETATM   11  N3  UNL     1      11.167 195.700  88.487  1.00  0.00    -0.416 N 
ATOM     12  H3  UNL     1      12.006 195.893  89.034  1.00  0.00     0.153 HD
BRANCH  11  13
HETATM   13  C6  UNL     1       9.853 195.821  89.032  1.00  0.00     0.076 A 
HETATM   14  C7  UNL     1       9.515 195.629  90.438  1.00  0.00     0.027 A 
HETATM   15  C8  UNL     1       9.740 197.018  90.012  1.00  0.00     0.027 A 
ENDBRANCH  11  13
ENDBRANCH  10  11
ENDBRANCH   9  10
ENDBRANCH   1   9
TORSDOF 6
ENDMDL
MODEL 5
REMARK VINA RESULT: -5.105717747      1.371      4.526
REMARK  6 active torsions:
REMARK  status: ('A' for Active; 'I' for Inactive)
REMARK    1  A    between atoms: C2_2  and  N1_3 
REMARK    2  A    between atoms: C2_2  and  N2_7 
REMARK    3  A    between atoms: N2_7  and  C4_9 
REMARK    4  A    between atoms: C4_9  and  C5_10 
REMARK    5  A    between atoms: C5_10  and  N3_11 
REMARK    6  A    between atoms: N3_11  and  C6_13 
ROOT
HETATM    1  N2  UNL     1      11.351 195.068  86.850  1.00  0.00    -0.390 N 
HETATM    2  C3  UNL     1      12.045 193.929  86.380  1.00  0.00     0.145 C 
ENDROOT
BRANCH   1   3
HETATM    3  C2  UNL     1      11.242 195.242  88.255  1.00  0.00     0.275 C 
HETATM    4  C1  UNL     1       9.921 195.849  88.708  1.00  0.00     0.063 C 
BRANCH   3   5
HETATM    5  N1  UNL     1      12.261 196.193  88.731  1.00  0.00    -0.059 N 
ATOM      6  H13 UNL     1      13.206 195.990  88.405  1.00  0.00     0.276 HD
ATOM      7  H12 UNL     1      12.195 197.121  88.314  1.00  0.00     0.276 HD
ATOM      8  H11 UNL     1      12.159 196.184  89.746  1.00  0.00     0.276 HD
ENDBRANCH   3   5
ENDBRANCH   1   3
BRANCH   1   9
HETATM    9  C4  UNL     1      10.182 195.440  86.139  1.00  0.00     0.137 C 
BRANCH   9  10
HETATM   10  C5  UNL     1      10.299 195.435  84.639  1.00  0.00     0.133 C 
BRANCH  10  11
HETATM   11  N3  UNL     1       9.215 194.672  84.071  1.00  0.00    -0.416 N 
ATOM     12  H3  UNL     1       9.152 194.471  83.073  1.00  0.00     0.153 HD
BRANCH  11  13
HETATM   13  C6  UNL     1       8.238 194.219  85.007  1.00  0.00     0.076 A 
HETATM   14  C7  UNL     1       6.797 194.380  84.847  1.00  0.00     0.027 A 
HETATM   15  C8  UNL     1       7.352 193.089  84.418  1.00  0.00     0.027 A 
ENDBRANCH  11  13
ENDBRANCH  10  11
ENDBRANCH   9  10
ENDBRANCH   1   9
TORSDOF 6
ENDMDL
