MODEL 1
REMARK VINA RESULT: -6.200883458      0.000      0.000
REMARK  5 active torsions:
REMARK  status: ('A' for Active; 'I' for Inactive)
REMARK    1  A    between atoms: O1_2  and  C2_3 
REMARK    2  A    between atoms: C2_3  and  C3_4 
REMARK    3  A    between atoms: C3_4  and  N1_5 
REMARK    4  A    between atoms: N1_5  and  N2_6 
REMARK    5  A    between atoms: N2_6  and  C4_8 
ROOT
HETATM    1  C2  UNL     1      10.041 194.981  86.255  1.00  0.00     0.075 C 
HETATM    2  C5  UNL     1      10.816 193.757  86.691  1.00  0.00     0.039 C 
HETATM    3  C6  UNL     1      12.251 193.942  86.270  1.00  0.00     0.003 C 
HETATM    4  C7  UNL     1      12.302 195.459  86.020  1.00  0.00     0.003 C 
HETATM    5  C8  UNL     1      10.992 195.630  85.277  1.00  0.00     0.039 C 
ENDROOT
BRANCH   1   6
HETATM    6  O1  UNL     1       9.851 195.753  87.367  1.00  0.00    -0.384 OA
HETATM    7  C1  UNL     1      10.061 195.173  88.582  1.00  0.00     0.202 C 
ENDBRANCH   1   6
BRANCH   1   8
HETATM    8  C3  UNL     1       8.725 194.624  85.623  1.00  0.00     0.173 C 
BRANCH   8   9
HETATM    9  N1  UNL     1       8.705 194.655  84.198  1.00  0.00    -0.136 NA
BRANCH   9  10
HETATM   10  N2  UNL     1       8.618 193.338  83.728  1.00  0.00    -0.281 N 
ATOM     11  H2  UNL     1       9.325 193.025  83.063  1.00  0.00     0.184 HD
BRANCH  10  12
HETATM   12  C4  UNL     1       7.624 192.418  84.107  1.00  0.00     0.365 C 
HETATM   13  O2  UNL     1       7.902 191.200  84.095  1.00  0.00    -0.282 OA
ENDBRANCH  10  12
ENDBRANCH   9  10
ENDBRANCH   8   9
ENDBRANCH   1   8
TORSDOF 5
ENDMDL
MODEL 2
REMARK VINA RESULT: -6.067620467      1.233      2.095
REMARK  5 active torsions:
REMARK  status: ('A' for Active; 'I' for Inactive)
REMARK    1  A    between atoms: O1_2  and  C2_3 
REMARK    2  A    between atoms: C2_3  and  C3_4 
REMARK    3  A    between atoms: C3_4  and  N1_5 
REMARK    4  A    between atoms: N1_5  and  N2_6 
REMARK    5  A    between atoms: N2_6  and  C4_8 
ROOT
HETATM    1  C2  UNL     1       9.649 194.595  85.924  1.00  0.00     0.075 C 
HETATM    2  C5  UNL     1       9.978 195.516  87.079  1.00  0.00     0.039 C 
HETATM    3  C6  UNL     1      10.758 194.724  88.096  1.00  0.00     0.003 C 
HETATM    4  C7  UNL     1      11.217 193.518  87.258  1.00  0.00     0.003 C 
HETATM    5  C8  UNL     1       9.928 193.232  86.513  1.00  0.00     0.039 C 
ENDROOT
BRANCH   1   6
HETATM    6  O1  UNL     1      10.514 194.896  84.910  1.00  0.00    -0.384 OA
HETATM    7  C1  UNL     1      11.066 196.142  84.899  1.00  0.00     0.202 C 
ENDBRANCH   1   6
BRANCH   1   8
HETATM    8  C3  UNL     1       8.224 194.742  85.471  1.00  0.00     0.173 C 
BRANCH   8   9
HETATM    9  N1  UNL     1       7.970 194.355  84.122  1.00  0.00    -0.136 NA
BRANCH   9  10
HETATM   10  N2  UNL     1       6.973 193.371  84.125  1.00  0.00    -0.281 N 
ATOM     11  H2  UNL     1       6.002 193.681  84.076  1.00  0.00     0.184 HD
BRANCH  10  12
HETATM   12  C4  UNL     1       7.216 191.987  84.189  1.00  0.00     0.365 C 
HETATM   13  O2  UNL     1       8.347 191.564  83.867  1.00  0.00    -0.282 OA
ENDBRANCH  10  12
ENDBRANCH   9  10
ENDBRANCH   8   9
ENDBRANCH   1   8
TORSDOF 5
ENDMDL
MODEL 3
REMARK VINA RESULT: -5.957207322      1.195      1.753
REMARK  5 active torsions:
REMARK  status: ('A' for Active; 'I' for Inactive)
REMARK    1  A    between atoms: O1_2  and  C2_3 
REMARK    2  A    between atoms: C2_3  and  C3_4 
REMARK    3  A    between atoms: C3_4  and  N1_5 
REMARK    4  A    between atoms: N1_5  and  N2_6 
REMARK    5  A    between atoms: N2_6  and  C4_8 
ROOT
HETATM    1  C2  UNL     1      10.354 194.478  86.436  1.00  0.00     0.075 C 
HETATM    2  C5  UNL     1      10.416 195.013  87.850  1.00  0.00     0.039 C 
HETATM    3  C6  UNL     1      11.818 195.509  88.097  1.00  0.00     0.003 C 
HETATM    4  C7  UNL     1      12.353 195.640  86.661  1.00  0.00     0.003 C 
HETATM    5  C8  UNL     1      11.816 194.347  86.079  1.00  0.00     0.039 C 
ENDROOT
BRANCH   1   6
HETATM    6  O1  UNL     1       9.728 195.425  85.675  1.00  0.00    -0.384 OA
HETATM    7  C1  UNL     1       8.467 195.794  86.036  1.00  0.00     0.202 C 
ENDBRANCH   1   6
BRANCH   1   8
HETATM    8  C3  UNL     1       9.626 193.165  86.359  1.00  0.00     0.173 C 
BRANCH   8   9
HETATM    9  N1  UNL     1       9.848 192.415  85.167  1.00  0.00    -0.136 NA
BRANCH   9  10
HETATM   10  N2  UNL     1       8.914 192.826  84.206  1.00  0.00    -0.281 N 
ATOM     11  H2  UNL     1       9.218 193.511  83.514  1.00  0.00     0.184 HD
BRANCH  10  12
HETATM   12  C4  UNL     1       7.589 192.360  84.129  1.00  0.00     0.365 C 
HETATM   13  O2  UNL     1       7.380 191.133  84.249  1.00  0.00    -0.282 OA
ENDBRANCH  10  12
ENDBRANCH   9  10
ENDBRANCH   8   9
ENDBRANCH   1   8
TORSDOF 5
ENDMDL
MODEL 4
REMARK VINA RESULT: -5.930778764      1.467      2.414
REMARK  5 active torsions:
REMARK  status: ('A' for Active; 'I' for Inactive)
REMARK    1  A    between atoms: O1_2  and  C2_3 
REMARK    2  A    between atoms: C2_3  and  C3_4 
REMARK    3  A    between atoms: C3_4  and  N1_5 
REMARK    4  A    between atoms: N1_5  and  N2_6 
REMARK    5  A    between atoms: N2_6  and  C4_8 
ROOT
HETATM    1  C2  UNL     1      10.161 194.699  86.387  1.00  0.00     0.075 C 
HETATM    2  C5  UNL     1       9.450 195.874  87.020  1.00  0.00     0.039 C 
HETATM    3  C6  UNL     1       9.798 195.892  88.487  1.00  0.00     0.003 C 
HETATM    4  C7  UNL     1      11.046 194.994  88.514  1.00  0.00     0.003 C 
HETATM    5  C8  UNL     1      10.573 193.887  87.592  1.00  0.00     0.039 C 
ENDROOT
BRANCH   1   6
HETATM    6  O1  UNL     1      11.243 195.198  85.717  1.00  0.00    -0.384 OA
HETATM    7  C1  UNL     1      11.009 196.086  84.710  1.00  0.00     0.202 C 
ENDBRANCH   1   6
BRANCH   1   8
HETATM    8  C3  UNL     1       9.267 193.930  85.457  1.00  0.00     0.173 C 
BRANCH   8   9
HETATM    9  N1  UNL     1       9.578 192.545  85.318  1.00  0.00    -0.136 NA
BRANCH   9  10
HETATM   10  N2  UNL     1       8.962 192.067  84.154  1.00  0.00    -0.281 N 
ATOM     11  H2  UNL     1       9.565 191.784  83.381  1.00  0.00     0.184 HD
BRANCH  10  12
HETATM   12  C4  UNL     1       7.572 191.951  83.975  1.00  0.00     0.365 C 
HETATM   13  O2  UNL     1       7.010 190.895  84.337  1.00  0.00    -0.282 OA
ENDBRANCH  10  12
ENDBRANCH   9  10
ENDBRANCH   8   9
ENDBRANCH   1   8
TORSDOF 5
ENDMDL
MODEL 5
REMARK VINA RESULT: -5.877365220      3.058      4.757
REMARK  5 active torsions:
REMARK  status: ('A' for Active; 'I' for Inactive)
REMARK    1  A    between atoms: O1_2  and  C2_3 
REMARK    2  A    between atoms: C2_3  and  C3_4 
REMARK    3  A    between atoms: C3_4  and  N1_5 
REMARK    4  A    between atoms: N1_5  and  N2_6 
REMARK    5  A    between atoms: N2_6  and  C4_8 
ROOT
HETATM    1  C2  UNL     1      10.502 195.009  86.703  1.00  0.00     0.075 C 
HETATM    2  C5  UNL     1      10.433 193.505  86.555  1.00  0.00     0.039 C 
HETATM    3  C6  UNL     1       9.184 193.171  85.781  1.00  0.00     0.003 C 
HETATM    4  C7  UNL     1       8.849 194.530  85.143  1.00  0.00     0.003 C 
HETATM    5  C8  UNL     1       9.099 195.431  86.337  1.00  0.00     0.039 C 
ENDROOT
BRANCH   1   6
HETATM    6  O1  UNL     1      11.421 195.460  85.796  1.00  0.00    -0.384 OA
HETATM    7  C1  UNL     1      12.731 195.464  86.172  1.00  0.00     0.202 C 
ENDBRANCH   1   6
BRANCH   1   8
HETATM    8  C3  UNL     1      10.880 195.425  88.096  1.00  0.00     0.173 C 
BRANCH   8   9
HETATM    9  N1  UNL     1      10.265 194.677  89.143  1.00  0.00    -0.136 NA
BRANCH   9  10
HETATM   10  N2  UNL     1       9.718 195.578  90.067  1.00  0.00    -0.281 N 
ATOM     11  H2  UNL     1       9.691 195.294  91.046  1.00  0.00     0.184 HD
BRANCH  10  12
HETATM   12  C4  UNL     1       9.202 196.845  89.738  1.00  0.00     0.365 C 
HETATM   13  O2  UNL     1       9.703 197.852  90.284  1.00  0.00    -0.282 OA
ENDBRANCH  10  12
ENDBRANCH   9  10
ENDBRANCH   8   9
ENDBRANCH   1   8
TORSDOF 5
ENDMDL
