MODEL 1
REMARK VINA RESULT: -6.283371534      0.000      0.000
REMARK  12 active torsions:
REMARK  status: ('A' for Active; 'I' for Inactive)
REMARK    1  A    between atoms: C3_3  and  C4_4 
REMARK       I    between atoms: C4_4  and  N1_6 
REMARK    2  A    between atoms: N1_6  and  N2_8 
REMARK    3  A    between atoms: C14_21  and  C15_22 
REMARK       I    between atoms: C15_22  and  N4_24 
REMARK    4  A    between atoms: N4_24  and  C16_26 
REMARK    5  A    between atoms: C16_26  and  C17_27 
REMARK    6  A    between atoms: C17_27  and  O3_28 
REMARK    7  A    between atoms: C17_27  and  N5_30 
REMARK    8  A    between atoms: N5_30  and  O4_32 
REMARK    9  A    between atoms: N9_46  and  C21_47 
REMARK   10  A    between atoms: C21_47  and  O7_48 
REMARK   11  A    between atoms: O7_48  and  C22_49 
REMARK   12  A    between atoms: C22_49  and  C23_51 
ROOT
HETATM    1  N2  UNL     1      46.463  10.630 -46.682  1.00  0.00    -0.286 N 
ATOM      2  H2  UNL     1      47.055   9.996 -47.219  1.00  0.00     0.188 HD
HETATM    3  C5  UNL     1      45.294  10.988 -47.096  1.00  0.00     0.106 C 
HETATM    4  C6  UNL     1      44.889  10.387 -48.432  1.00  0.00     0.078 C 
HETATM    5  C7  UNL     1      44.022   9.176 -48.177  1.00  0.00     0.007 C 
HETATM    6  C8  UNL     1      44.212   8.196 -49.308  1.00  0.00     0.001 C 
HETATM    7  C9  UNL     1      43.890   8.814 -50.630  1.00  0.00     0.005 C 
HETATM    8  C10 UNL     1      42.430   8.612 -50.951  1.00  0.00     0.041 C 
HETATM    9  C11 UNL     1      41.482   9.644 -50.409  1.00  0.00    -0.024 A 
HETATM   10  C12 UNL     1      41.589  11.021 -50.403  1.00  0.00     0.034 A 
HETATM   11  C13 UNL     1      40.511  11.461 -49.678  1.00  0.00     0.011 A 
HETATM   12  N3  UNL     1      39.757  10.406 -49.257  1.00  0.00    -0.355 N 
ATOM     13  H3  UNL     1      38.903  10.470 -48.703  1.00  0.00     0.166 HD
HETATM   14  C14 UNL     1      40.328   9.257 -49.695  1.00  0.00     0.107 A 
HETATM   15  C18 UNL     1      40.138  12.880 -49.277  1.00  0.00     0.077 C 
HETATM   16  C19 UNL     1      41.150  13.456 -48.306  1.00  0.00     0.139 C 
HETATM   17  N6  UNL     1      42.158  12.419 -47.999  1.00  0.00    -0.302 N 
ATOM     18  H6  UNL     1      42.088  11.440 -48.276  1.00  0.00     0.173 HD
HETATM   19  S1  UNL     1      43.450  13.086 -47.120  1.00  0.00     0.320 S 
HETATM   20  O5  UNL     1      44.308  13.931 -48.039  1.00  0.00    -0.182 OA
HETATM   21  O6  UNL     1      42.960  14.023 -46.030  1.00  0.00    -0.182 OA
HETATM   22  N7  UNL     1      44.423  11.850 -46.418  1.00  0.00    -0.256 N 
ATOM     23  H7  UNL     1      44.358  11.735 -45.407  1.00  0.00     0.181 HD
ENDROOT
BRANCH   1  24
HETATM   24  N1  UNL     1      46.883  11.179 -45.420  1.00  0.00    -0.263 N 
HETATM   25  C4  UNL     1      48.239  11.428 -45.274  1.00  0.00     0.288 C 
HETATM   26  O1  UNL     1      49.002  11.140 -46.267  1.00  0.00    -0.264 OA
ATOM     27  H1  UNL     1      46.217  11.374 -44.672  1.00  0.00     0.190 HD
BRANCH  25  28
HETATM   28  C3  UNL     1      48.857  11.987 -44.089  1.00  0.00     0.126 A 
HETATM   29  C2  UNL     1      49.528  11.393 -43.061  1.00  0.00     0.043 A 
HETATM   30  C1  UNL     1      49.833   9.948 -42.863  1.00  0.00     0.071 C 
HETATM   31  N9  UNL     1      49.901  12.354 -42.197  1.00  0.00    -0.322 N 
HETATM   32  C20 UNL     1      49.477  13.527 -42.666  1.00  0.00     0.185 A 
HETATM   33  N8  UNL     1      48.840  13.349 -43.811  1.00  0.00    -0.346 N 
ATOM     34  H8  UNL     1      48.415  14.077 -44.384  1.00  0.00     0.167 HD
BRANCH  31  35
HETATM   35  C21 UNL     1      50.634  12.176 -40.943  1.00  0.00     0.310 C 
BRANCH  35  36
HETATM   36  O7  UNL     1      49.746  12.222 -39.855  1.00  0.00    -0.301 OA
BRANCH  36  37
HETATM   37  C22 UNL     1      49.038  11.112 -39.484  1.00  0.00     0.263 C 
HETATM   38  O8  UNL     1      49.664  10.080 -39.187  1.00  0.00    -0.265 OA
BRANCH  37  39
HETATM   39  C23 UNL     1      47.539  11.165 -39.447  1.00  0.00     0.077 C 
HETATM   40  C24 UNL     1      47.036  10.153 -40.457  1.00  0.00     0.020 C 
HETATM   41  C25 UNL     1      47.133  12.570 -39.840  1.00  0.00     0.020 C 
ENDBRANCH  37  39
ENDBRANCH  36  37
ENDBRANCH  35  36
ENDBRANCH  31  35
ENDBRANCH  25  28
ENDBRANCH   1  24
BRANCH  14  42
HETATM   42  C15 UNL     1      39.724   7.936 -49.505  1.00  0.00     0.269 C 
HETATM   43  O2  UNL     1      38.675   7.602 -50.122  1.00  0.00    -0.266 OA
HETATM   44  N4  UNL     1      40.301   6.963 -48.620  1.00  0.00    -0.348 N 
ATOM     45  H4  UNL     1      41.157   7.185 -48.110  1.00  0.00     0.163 HD
BRANCH  44  46
HETATM   46  C16 UNL     1      39.678   5.677 -48.447  1.00  0.00     0.208 C 
BRANCH  46  47
HETATM   47  C17 UNL     1      39.054   5.475 -47.134  1.00  0.00     0.153 C 
BRANCH  47  48
HETATM   48  O3  UNL     1      38.109   4.364 -47.107  1.00  0.00    -0.347 OA
ATOM     49  H3  UNL     1      37.404   4.484 -46.482  1.00  0.00     0.219 HD
ENDBRANCH  47  48
BRANCH  47  50
HETATM   50  N5  UNL     1      39.166   6.054 -46.045  1.00  0.00    -0.250 N 
ATOM     51  H5  UNL     1      38.530   5.683 -45.340  1.00  0.00     0.196 HD
BRANCH  50  52
HETATM   52  O4  UNL     1      39.917   7.041 -45.579  1.00  0.00    -0.288 OA
ATOM     53  H4  UNL     1      40.316   7.245 -44.742  1.00  0.00     0.244 HD
ENDBRANCH  50  52
ENDBRANCH  47  50
ENDBRANCH  46  47
ENDBRANCH  44  46
ENDBRANCH  14  42
TORSDOF 12
ENDMDL
MODEL 2
REMARK VINA RESULT: -6.213067799      3.244     10.588
REMARK  12 active torsions:
REMARK  status: ('A' for Active; 'I' for Inactive)
REMARK    1  A    between atoms: C3_3  and  C4_4 
REMARK       I    between atoms: C4_4  and  N1_6 
REMARK    2  A    between atoms: N1_6  and  N2_8 
REMARK    3  A    between atoms: C14_21  and  C15_22 
REMARK       I    between atoms: C15_22  and  N4_24 
REMARK    4  A    between atoms: N4_24  and  C16_26 
REMARK    5  A    between atoms: C16_26  and  C17_27 
REMARK    6  A    between atoms: C17_27  and  O3_28 
REMARK    7  A    between atoms: C17_27  and  N5_30 
REMARK    8  A    between atoms: N5_30  and  O4_32 
REMARK    9  A    between atoms: N9_46  and  C21_47 
REMARK   10  A    between atoms: C21_47  and  O7_48 
REMARK   11  A    between atoms: O7_48  and  C22_49 
REMARK   12  A    between atoms: C22_49  and  C23_51 
ROOT
HETATM    1  N2  UNL     1      41.811   9.543 -47.941  1.00  0.00    -0.286 N 
ATOM      2  H2  UNL     1      41.156  10.288 -47.706  1.00  0.00     0.188 HD
HETATM    3  C5  UNL     1      43.088   9.734 -47.953  1.00  0.00     0.106 C 
HETATM    4  C6  UNL     1      43.515  11.147 -47.590  1.00  0.00     0.078 C 
HETATM    5  C7  UNL     1      43.896  11.178 -46.129  1.00  0.00     0.007 C 
HETATM    6  C8  UNL     1      43.612  12.556 -45.583  1.00  0.00     0.001 C 
HETATM    7  C9  UNL     1      44.343  13.611 -46.349  1.00  0.00     0.005 C 
HETATM    8  C10 UNL     1      45.698  13.851 -45.730  1.00  0.00     0.041 C 
HETATM    9  C11 UNL     1      46.810  12.955 -46.197  1.00  0.00    -0.024 A 
HETATM   10  C12 UNL     1      47.143  12.561 -47.478  1.00  0.00     0.034 A 
HETATM   11  C13 UNL     1      48.157  11.650 -47.321  1.00  0.00     0.011 A 
HETATM   12  N3  UNL     1      48.451  11.489 -46.000  1.00  0.00    -0.355 N 
ATOM     13  H3  UNL     1      49.169  10.870 -45.623  1.00  0.00     0.166 HD
HETATM   14  C14 UNL     1      47.635  12.288 -45.268  1.00  0.00     0.107 A 
HETATM   15  C18 UNL     1      48.880  10.827 -48.375  1.00  0.00     0.077 C 
HETATM   16  C19 UNL     1      47.945   9.821 -49.017  1.00  0.00     0.139 C 
HETATM   17  N6  UNL     1      46.623   9.913 -48.361  1.00  0.00    -0.302 N 
ATOM     18  H6  UNL     1      46.429  10.455 -47.518  1.00  0.00     0.173 HD
HETATM   19  S1  UNL     1      45.472   8.994 -49.206  1.00  0.00     0.320 S 
HETATM   20  O5  UNL     1      45.103   9.700 -50.494  1.00  0.00    -0.182 OA
HETATM   21  O6  UNL     1      46.029   7.641 -49.616  1.00  0.00    -0.182 OA
HETATM   22  N7  UNL     1      44.050   8.764 -48.262  1.00  0.00    -0.256 N 
ATOM     23  H7  UNL     1      43.893   7.828 -47.890  1.00  0.00     0.181 HD
ENDROOT
BRANCH   1  24
HETATM   24  N1  UNL     1      41.367   8.217 -48.280  1.00  0.00    -0.263 N 
HETATM   25  C4  UNL     1      40.736   7.500 -47.274  1.00  0.00     0.288 C 
HETATM   26  O1  UNL     1      40.611   8.074 -46.131  1.00  0.00    -0.264 OA
ATOM     27  H1  UNL     1      41.510   7.824 -49.210  1.00  0.00     0.190 HD
BRANCH  25  28
HETATM   28  C3  UNL     1      40.208   6.159 -47.418  1.00  0.00     0.126 A 
HETATM   29  C2  UNL     1      40.751   5.034 -47.967  1.00  0.00     0.043 A 
HETATM   30  C1  UNL     1      42.092   4.860 -48.591  1.00  0.00     0.071 C 
HETATM   31  N9  UNL     1      39.850   4.041 -47.858  1.00  0.00    -0.322 N 
HETATM   32  C20 UNL     1      38.765   4.525 -47.255  1.00  0.00     0.185 A 
HETATM   33  N8  UNL     1      38.940   5.804 -46.970  1.00  0.00    -0.346 N 
ATOM     34  H8  UNL     1      38.269   6.416 -46.508  1.00  0.00     0.167 HD
BRANCH  31  35
HETATM   35  C21 UNL     1      39.998   2.663 -48.324  1.00  0.00     0.310 C 
BRANCH  35  36
HETATM   36  O7  UNL     1      39.876   2.610 -49.723  1.00  0.00    -0.301 OA
BRANCH  36  37
HETATM   37  C22 UNL     1      40.685   1.793 -50.464  1.00  0.00     0.263 C 
HETATM   38  O8  UNL     1      40.207   1.238 -51.470  1.00  0.00    -0.265 OA
BRANCH  37  39
HETATM   39  C23 UNL     1      42.111   1.585 -50.049  1.00  0.00     0.077 C 
HETATM   40  C24 UNL     1      42.980   2.208 -51.123  1.00  0.00     0.020 C 
HETATM   41  C25 UNL     1      42.338   0.090 -49.969  1.00  0.00     0.020 C 
ENDBRANCH  37  39
ENDBRANCH  36  37
ENDBRANCH  35  36
ENDBRANCH  31  35
ENDBRANCH  25  28
ENDBRANCH   1  24
BRANCH  14  42
HETATM   42  C15 UNL     1      47.748  12.436 -43.815  1.00  0.00     0.269 C 
HETATM   43  O2  UNL     1      48.375  13.405 -43.304  1.00  0.00    -0.266 OA
HETATM   44  N4  UNL     1      47.145  11.496 -42.912  1.00  0.00    -0.348 N 
ATOM     45  H4  UNL     1      46.618  10.704 -43.281  1.00  0.00     0.163 HD
BRANCH  44  46
HETATM   46  C16 UNL     1      47.282  11.664 -41.489  1.00  0.00     0.208 C 
BRANCH  46  47
HETATM   47  C17 UNL     1      46.970  10.465 -40.703  1.00  0.00     0.153 C 
BRANCH  47  48
HETATM   48  O3  UNL     1      46.191  10.747 -39.501  1.00  0.00    -0.347 OA
ATOM     49  H3  UNL     1      45.678  10.006 -39.202  1.00  0.00     0.219 HD
ENDBRANCH  47  48
BRANCH  47  50
HETATM   50  N5  UNL     1      47.231   9.263 -40.850  1.00  0.00    -0.250 N 
ATOM     51  H5  UNL     1      48.228   9.094 -40.975  1.00  0.00     0.196 HD
BRANCH  50  52
HETATM   52  O4  UNL     1      46.520   8.146 -40.883  1.00  0.00    -0.288 OA
ATOM     53  H4  UNL     1      46.649   7.258 -40.573  1.00  0.00     0.244 HD
ENDBRANCH  50  52
ENDBRANCH  47  50
ENDBRANCH  46  47
ENDBRANCH  44  46
ENDBRANCH  14  42
TORSDOF 12
ENDMDL
MODEL 3
REMARK VINA RESULT: -6.118163219      0.985      1.356
REMARK  12 active torsions:
REMARK  status: ('A' for Active; 'I' for Inactive)
REMARK    1  A    between atoms: C3_3  and  C4_4 
REMARK       I    between atoms: C4_4  and  N1_6 
REMARK    2  A    between atoms: N1_6  and  N2_8 
REMARK    3  A    between atoms: C14_21  and  C15_22 
REMARK       I    between atoms: C15_22  and  N4_24 
REMARK    4  A    between atoms: N4_24  and  C16_26 
REMARK    5  A    between atoms: C16_26  and  C17_27 
REMARK    6  A    between atoms: C17_27  and  O3_28 
REMARK    7  A    between atoms: C17_27  and  N5_30 
REMARK    8  A    between atoms: N5_30  and  O4_32 
REMARK    9  A    between atoms: N9_46  and  C21_47 
REMARK   10  A    between atoms: C21_47  and  O7_48 
REMARK   11  A    between atoms: O7_48  and  C22_49 
REMARK   12  A    between atoms: C22_49  and  C23_51 
ROOT
HETATM    1  N2  UNL     1      46.197  10.334 -47.009  1.00  0.00    -0.286 N 
ATOM      2  H2  UNL     1      46.732   9.694 -47.596  1.00  0.00     0.188 HD
HETATM    3  C5  UNL     1      45.041  10.784 -47.366  1.00  0.00     0.106 C 
HETATM    4  C6  UNL     1      44.561  10.281 -48.717  1.00  0.00     0.078 C 
HETATM    5  C7  UNL     1      43.628   9.113 -48.496  1.00  0.00     0.007 C 
HETATM    6  C8  UNL     1      43.723   8.186 -49.682  1.00  0.00     0.001 C 
HETATM    7  C9  UNL     1      43.403   8.892 -50.959  1.00  0.00     0.005 C 
HETATM    8  C10 UNL     1      41.924   8.796 -51.243  1.00  0.00     0.041 C 
HETATM    9  C11 UNL     1      41.058   9.853 -50.619  1.00  0.00    -0.024 A 
HETATM   10  C12 UNL     1      41.251  11.218 -50.545  1.00  0.00     0.034 A 
HETATM   11  C13 UNL     1      40.224  11.684 -49.764  1.00  0.00     0.011 A 
HETATM   12  N3  UNL     1      39.419  10.656 -49.374  1.00  0.00    -0.355 N 
ATOM     13  H3  UNL     1      38.586  10.742 -48.791  1.00  0.00     0.166 HD
HETATM   14  C14 UNL     1      39.904   9.499 -49.889  1.00  0.00     0.107 A 
HETATM   15  C18 UNL     1      39.952  13.100 -49.279  1.00  0.00     0.077 C 
HETATM   16  C19 UNL     1      41.025  13.560 -48.312  1.00  0.00     0.139 C 
HETATM   17  N6  UNL     1      41.976  12.449 -48.091  1.00  0.00    -0.302 N 
ATOM     18  H6  UNL     1      41.837  11.492 -48.417  1.00  0.00     0.173 HD
HETATM   19  S1  UNL     1      43.332  12.988 -47.221  1.00  0.00     0.320 S 
HETATM   20  O5  UNL     1      44.214  13.827 -48.123  1.00  0.00    -0.182 OA
HETATM   21  O6  UNL     1      42.933  13.894 -46.069  1.00  0.00    -0.182 OA
HETATM   22  N7  UNL     1      44.245  11.660 -46.616  1.00  0.00    -0.256 N 
ATOM     23  H7  UNL     1      44.203  11.495 -45.611  1.00  0.00     0.181 HD
ENDROOT
BRANCH   1  24
HETATM   24  N1  UNL     1      46.687  10.788 -45.734  1.00  0.00    -0.263 N 
HETATM   25  C4  UNL     1      47.861  11.525 -45.749  1.00  0.00     0.288 C 
HETATM   26  O1  UNL     1      48.414  11.730 -46.890  1.00  0.00    -0.264 OA
ATOM     27  H1  UNL     1      46.195  10.577 -44.865  1.00  0.00     0.190 HD
BRANCH  25  28
HETATM   28  C3  UNL     1      48.507  12.079 -44.577  1.00  0.00     0.126 A 
HETATM   29  C2  UNL     1      48.002  12.770 -43.515  1.00  0.00     0.043 A 
HETATM   30  C1  UNL     1      46.589  13.158 -43.248  1.00  0.00     0.071 C 
HETATM   31  N9  UNL     1      49.022  13.070 -42.690  1.00  0.00    -0.322 N 
HETATM   32  C20 UNL     1      50.143  12.581 -43.216  1.00  0.00     0.185 A 
HETATM   33  N8  UNL     1      49.877  11.972 -44.359  1.00  0.00    -0.346 N 
ATOM     34  H8  UNL     1      50.551  11.510 -44.968  1.00  0.00     0.167 HD
BRANCH  31  35
HETATM   35  C21 UNL     1      48.948  13.815 -41.434  1.00  0.00     0.310 C 
BRANCH  35  36
HETATM   36  O7  UNL     1      49.041  12.933 -40.344  1.00  0.00    -0.301 OA
BRANCH  36  37
HETATM   37  C22 UNL     1      47.952  12.215 -39.931  1.00  0.00     0.263 C 
HETATM   38  O8  UNL     1      46.916  12.832 -39.624  1.00  0.00    -0.265 OA
BRANCH  37  39
HETATM   39  C23 UNL     1      48.033  10.720 -39.855  1.00  0.00     0.077 C 
HETATM   40  C24 UNL     1      49.456  10.335 -40.207  1.00  0.00     0.020 C 
HETATM   41  C25 UNL     1      47.057  10.169 -40.873  1.00  0.00     0.020 C 
ENDBRANCH  37  39
ENDBRANCH  36  37
ENDBRANCH  35  36
ENDBRANCH  31  35
ENDBRANCH  25  28
ENDBRANCH   1  24
BRANCH  14  42
HETATM   42  C15 UNL     1      39.225   8.209 -49.748  1.00  0.00     0.269 C 
HETATM   43  O2  UNL     1      38.499   7.748 -50.673  1.00  0.00    -0.266 OA
HETATM   44  N4  UNL     1      39.360   7.411 -48.562  1.00  0.00    -0.348 N 
ATOM     45  H4  UNL     1      39.947   7.738 -47.795  1.00  0.00     0.163 HD
BRANCH  44  46
HETATM   46  C16 UNL     1      38.672   6.152 -48.450  1.00  0.00     0.208 C 
BRANCH  46  47
HETATM   47  C17 UNL     1      38.838   5.481 -47.155  1.00  0.00     0.153 C 
BRANCH  47  48
HETATM   48  O3  UNL     1      38.430   4.081 -47.172  1.00  0.00    -0.347 OA
ATOM     49  H3  UNL     1      37.641   3.912 -46.671  1.00  0.00     0.219 HD
ENDBRANCH  47  48
BRANCH  47  50
HETATM   50  N5  UNL     1      39.254   5.861 -46.052  1.00  0.00    -0.250 N 
ATOM     51  H5  UNL     1      39.040   5.198 -45.307  1.00  0.00     0.196 HD
BRANCH  50  52
HETATM   52  O4  UNL     1      39.911   6.923 -45.611  1.00  0.00    -0.288 OA
ATOM     53  H4  UNL     1      39.767   7.861 -45.638  1.00  0.00     0.244 HD
ENDBRANCH  50  52
ENDBRANCH  47  50
ENDBRANCH  46  47
ENDBRANCH  44  46
ENDBRANCH  14  42
TORSDOF 12
ENDMDL
MODEL 4
REMARK VINA RESULT: -5.982294629      6.830     10.372
REMARK  12 active torsions:
REMARK  status: ('A' for Active; 'I' for Inactive)
REMARK    1  A    between atoms: C3_3  and  C4_4 
REMARK       I    between atoms: C4_4  and  N1_6 
REMARK    2  A    between atoms: N1_6  and  N2_8 
REMARK    3  A    between atoms: C14_21  and  C15_22 
REMARK       I    between atoms: C15_22  and  N4_24 
REMARK    4  A    between atoms: N4_24  and  C16_26 
REMARK    5  A    between atoms: C16_26  and  C17_27 
REMARK    6  A    between atoms: C17_27  and  O3_28 
REMARK    7  A    between atoms: C17_27  and  N5_30 
REMARK    8  A    between atoms: N5_30  and  O4_32 
REMARK    9  A    between atoms: N9_46  and  C21_47 
REMARK   10  A    between atoms: C21_47  and  O7_48 
REMARK   11  A    between atoms: O7_48  and  C22_49 
REMARK   12  A    between atoms: C22_49  and  C23_51 
ROOT
HETATM    1  N2  UNL     1      38.635  10.720 -49.064  1.00  0.00    -0.286 N 
ATOM      2  H2  UNL     1      37.853  10.501 -48.447  1.00  0.00     0.188 HD
HETATM    3  C5  UNL     1      39.594   9.881 -49.276  1.00  0.00     0.106 C 
HETATM    4  C6  UNL     1      39.451   8.563 -48.534  1.00  0.00     0.078 C 
HETATM    5  C7  UNL     1      38.847   7.542 -49.470  1.00  0.00     0.007 C 
HETATM    6  C8  UNL     1      38.050   6.551 -48.657  1.00  0.00     0.001 C 
HETATM    7  C9  UNL     1      38.893   5.889 -47.618  1.00  0.00     0.005 C 
HETATM    8  C10 UNL     1      39.519   4.637 -48.182  1.00  0.00     0.041 C 
HETATM    9  C11 UNL     1      40.821   4.814 -48.909  1.00  0.00    -0.024 A 
HETATM   10  C12 UNL     1      41.930   5.558 -48.557  1.00  0.00     0.034 A 
HETATM   11  C13 UNL     1      42.779   5.466 -49.632  1.00  0.00     0.011 A 
HETATM   12  N3  UNL     1      42.229   4.690 -50.608  1.00  0.00    -0.355 N 
ATOM     13  H3  UNL     1      42.662   4.467 -51.504  1.00  0.00     0.166 HD
HETATM   14  C14 UNL     1      41.010   4.263 -50.193  1.00  0.00     0.107 A 
HETATM   15  C18 UNL     1      44.128   6.135 -49.850  1.00  0.00     0.077 C 
HETATM   16  C19 UNL     1      43.976   7.638 -49.976  1.00  0.00     0.139 C 
HETATM   17  N6  UNL     1      42.539   7.979 -49.910  1.00  0.00    -0.302 N 
ATOM     18  H6  UNL     1      41.779   7.299 -49.934  1.00  0.00     0.173 HD
HETATM   19  S1  UNL     1      42.330   9.661 -49.790  1.00  0.00     0.320 S 
HETATM   20  O5  UNL     1      42.707  10.121 -48.397  1.00  0.00    -0.182 OA
HETATM   21  O6  UNL     1      43.252  10.408 -50.739  1.00  0.00    -0.182 OA
HETATM   22  N7  UNL     1      40.698  10.105 -50.109  1.00  0.00    -0.256 N 
ATOM     23  H7  UNL     1      40.516  10.579 -50.994  1.00  0.00     0.181 HD
ENDROOT
BRANCH   1  24
HETATM   24  N1  UNL     1      38.735  11.980 -49.750  1.00  0.00    -0.263 N 
HETATM   25  C4  UNL     1      38.604  13.121 -48.971  1.00  0.00     0.288 C 
HETATM   26  O1  UNL     1      38.396  12.955 -47.714  1.00  0.00    -0.264 OA
ATOM     27  H1  UNL     1      38.893  12.033 -50.756  1.00  0.00     0.190 HD
BRANCH  25  28
HETATM   28  C3  UNL     1      38.685  14.478 -49.468  1.00  0.00     0.126 A 
HETATM   29  C2  UNL     1      37.794  15.230 -50.176  1.00  0.00     0.043 A 
HETATM   30  C1  UNL     1      36.432  14.855 -50.650  1.00  0.00     0.071 C 
HETATM   31  N9  UNL     1      38.350  16.434 -50.401  1.00  0.00    -0.322 N 
HETATM   32  C20 UNL     1      39.563  16.444 -49.848  1.00  0.00     0.185 A 
HETATM   33  N8  UNL     1      39.805  15.280 -49.273  1.00  0.00    -0.346 N 
ATOM     34  H8  UNL     1      40.656  15.017 -48.776  1.00  0.00     0.167 HD
BRANCH  31  35
HETATM   35  C21 UNL     1      37.760  17.555 -51.133  1.00  0.00     0.310 C 
BRANCH  35  36
HETATM   36  O7  UNL     1      37.327  18.544 -50.233  1.00  0.00    -0.301 OA
BRANCH  36  37
HETATM   37  C22 UNL     1      35.994  18.789 -50.054  1.00  0.00     0.263 C 
HETATM   38  O8  UNL     1      35.460  19.692 -50.722  1.00  0.00    -0.265 OA
BRANCH  37  39
HETATM   39  C23 UNL     1      35.215  17.974 -49.064  1.00  0.00     0.077 C 
HETATM   40  C24 UNL     1      33.901  17.610 -49.726  1.00  0.00     0.020 C 
HETATM   41  C25 UNL     1      34.985  18.848 -47.849  1.00  0.00     0.020 C 
ENDBRANCH  37  39
ENDBRANCH  36  37
ENDBRANCH  35  36
ENDBRANCH  31  35
ENDBRANCH  25  28
ENDBRANCH   1  24
BRANCH  14  42
HETATM   42  C15 UNL     1      40.183   3.327 -50.959  1.00  0.00     0.269 C 
HETATM   43  O2  UNL     1      39.961   2.158 -50.539  1.00  0.00    -0.266 OA
HETATM   44  N4  UNL     1      39.586   3.698 -52.211  1.00  0.00    -0.348 N 
ATOM     45  H4  UNL     1      39.729   4.637 -52.583  1.00  0.00     0.163 HD
BRANCH  44  46
HETATM   46  C16 UNL     1      38.786   2.752 -52.944  1.00  0.00     0.208 C 
BRANCH  46  47
HETATM   47  C17 UNL     1      37.339   2.975 -52.848  1.00  0.00     0.153 C 
BRANCH  47  48
HETATM   48  O3  UNL     1      36.574   1.746 -52.668  1.00  0.00    -0.347 OA
ATOM     49  H3  UNL     1      35.642   1.857 -52.814  1.00  0.00     0.219 HD
ENDBRANCH  47  48
BRANCH  47  50
HETATM   50  N5  UNL     1      36.634   3.993 -52.887  1.00  0.00    -0.250 N 
ATOM     51  H5  UNL     1      35.938   3.956 -53.631  1.00  0.00     0.196 HD
BRANCH  50  52
HETATM   52  O4  UNL     1      36.571   5.117 -52.190  1.00  0.00    -0.288 OA
ATOM     53  H4  UNL     1      35.889   5.574 -51.711  1.00  0.00     0.244 HD
ENDBRANCH  50  52
ENDBRANCH  47  50
ENDBRANCH  46  47
ENDBRANCH  44  46
ENDBRANCH  14  42
TORSDOF 12
ENDMDL
MODEL 5
REMARK VINA RESULT: -5.942577479      1.464      1.856
REMARK  12 active torsions:
REMARK  status: ('A' for Active; 'I' for Inactive)
REMARK    1  A    between atoms: C3_3  and  C4_4 
REMARK       I    between atoms: C4_4  and  N1_6 
REMARK    2  A    between atoms: N1_6  and  N2_8 
REMARK    3  A    between atoms: C14_21  and  C15_22 
REMARK       I    between atoms: C15_22  and  N4_24 
REMARK    4  A    between atoms: N4_24  and  C16_26 
REMARK    5  A    between atoms: C16_26  and  C17_27 
REMARK    6  A    between atoms: C17_27  and  O3_28 
REMARK    7  A    between atoms: C17_27  and  N5_30 
REMARK    8  A    between atoms: N5_30  and  O4_32 
REMARK    9  A    between atoms: N9_46  and  C21_47 
REMARK   10  A    between atoms: C21_47  and  O7_48 
REMARK   11  A    between atoms: O7_48  and  C22_49 
REMARK   12  A    between atoms: C22_49  and  C23_51 
ROOT
HETATM    1  N2  UNL     1      45.749  10.847 -48.285  1.00  0.00    -0.286 N 
ATOM      2  H2  UNL     1      46.345  10.210 -48.813  1.00  0.00     0.188 HD
HETATM    3  C5  UNL     1      44.493  10.983 -48.549  1.00  0.00     0.106 C 
HETATM    4  C6  UNL     1      43.994  10.120 -49.696  1.00  0.00     0.078 C 
HETATM    5  C7  UNL     1      43.362   8.872 -49.126  1.00  0.00     0.007 C 
HETATM    6  C8  UNL     1      43.532   7.746 -50.116  1.00  0.00     0.001 C 
HETATM    7  C9  UNL     1      42.936   8.088 -51.443  1.00  0.00     0.005 C 
HETATM    8  C10 UNL     1      41.491   7.656 -51.486  1.00  0.00     0.041 C 
HETATM    9  C11 UNL     1      40.488   8.638 -50.952  1.00  0.00    -0.024 A 
HETATM   10  C12 UNL     1      40.389   9.999 -51.166  1.00  0.00     0.034 A 
HETATM   11  C13 UNL     1      39.372  10.418 -50.346  1.00  0.00     0.011 A 
HETATM   12  N3  UNL     1      38.852   9.363 -49.656  1.00  0.00    -0.355 N 
ATOM     13  H3  UNL     1      38.086   9.414 -48.984  1.00  0.00     0.166 HD
HETATM   14  C14 UNL     1      39.519   8.237 -50.009  1.00  0.00     0.107 A 
HETATM   15  C18 UNL     1      38.854  11.827 -50.102  1.00  0.00     0.077 C 
HETATM   16  C19 UNL     1      39.897  12.678 -49.406  1.00  0.00     0.139 C 
HETATM   17  N6  UNL     1      41.082  11.842 -49.121  1.00  0.00    -0.302 N 
ATOM     18  H6  UNL     1      41.120  10.829 -49.236  1.00  0.00     0.173 HD
HETATM   19  S1  UNL     1      42.373  12.801 -48.575  1.00  0.00     0.320 S 
HETATM   20  O5  UNL     1      42.955  13.579 -49.738  1.00  0.00    -0.182 OA
HETATM   21  O6  UNL     1      41.910  13.841 -47.568  1.00  0.00    -0.182 OA
HETATM   22  N7  UNL     1      43.609  11.832 -47.870  1.00  0.00    -0.256 N 
ATOM     23  H7  UNL     1      43.708  11.881 -46.856  1.00  0.00     0.181 HD
ENDROOT
BRANCH   1  24
HETATM   24  N1  UNL     1      46.259  11.648 -47.204  1.00  0.00    -0.263 N 
HETATM   25  C4  UNL     1      47.397  11.177 -46.568  1.00  0.00     0.288 C 
HETATM   26  O1  UNL     1      47.891  10.068 -46.989  1.00  0.00    -0.264 OA
ATOM     27  H1  UNL     1      45.806  12.517 -46.921  1.00  0.00     0.190 HD
BRANCH  25  28
HETATM   28  C3  UNL     1      48.069  11.841 -45.470  1.00  0.00     0.126 A 
HETATM   29  C2  UNL     1      47.605  12.268 -44.260  1.00  0.00     0.043 A 
HETATM   30  C1  UNL     1      46.227  12.161 -43.704  1.00  0.00     0.071 C 
HETATM   31  N9  UNL     1      48.630  12.833 -43.597  1.00  0.00    -0.322 N 
HETATM   32  C20 UNL     1      49.715  12.765 -44.368  1.00  0.00     0.185 A 
HETATM   33  N8  UNL     1      49.419  12.171 -45.510  1.00  0.00    -0.346 N 
ATOM     34  H8  UNL     1      50.062  11.988 -46.280  1.00  0.00     0.167 HD
BRANCH  31  35
HETATM   35  C21 UNL     1      48.591  13.439 -42.267  1.00  0.00     0.310 C 
BRANCH  35  36
HETATM   36  O7  UNL     1      49.012  12.509 -41.300  1.00  0.00    -0.301 OA
BRANCH  36  37
HETATM   37  C22 UNL     1      48.098  11.793 -40.577  1.00  0.00     0.263 C 
HETATM   38  O8  UNL     1      47.144  12.400 -40.057  1.00  0.00    -0.265 OA
BRANCH  37  39
HETATM   39  C23 UNL     1      48.267  10.310 -40.426  1.00  0.00     0.077 C 
HETATM   40  C24 UNL     1      49.153   9.847 -41.565  1.00  0.00     0.020 C 
HETATM   41  C25 UNL     1      46.888   9.692 -40.527  1.00  0.00     0.020 C 
ENDBRANCH  37  39
ENDBRANCH  36  37
ENDBRANCH  35  36
ENDBRANCH  31  35
ENDBRANCH  25  28
ENDBRANCH   1  24
BRANCH  14  42
HETATM   42  C15 UNL     1      39.152   6.902 -49.529  1.00  0.00     0.269 C 
HETATM   43  O2  UNL     1      38.036   6.388 -49.819  1.00  0.00    -0.266 OA
HETATM   44  N4  UNL     1      40.043   6.119 -48.720  1.00  0.00    -0.348 N 
ATOM     45  H4  UNL     1      40.960   6.491 -48.471  1.00  0.00     0.163 HD
BRANCH  44  46
HETATM   46  C16 UNL     1      39.649   4.815 -48.256  1.00  0.00     0.208 C 
BRANCH  46  47
HETATM   47  C17 UNL     1      38.932   4.816 -46.976  1.00  0.00     0.153 C 
BRANCH  47  48
HETATM   48  O3  UNL     1      38.077   3.648 -46.790  1.00  0.00    -0.347 OA
ATOM     49  H3  UNL     1      37.223   3.860 -46.433  1.00  0.00     0.219 HD
ENDBRANCH  47  48
BRANCH  47  50
HETATM   50  N5  UNL     1      38.905   5.604 -46.020  1.00  0.00    -0.250 N 
ATOM     51  H5  UNL     1      38.162   5.385 -45.357  1.00  0.00     0.196 HD
BRANCH  50  52
HETATM   52  O4  UNL     1      39.613   6.662 -45.657  1.00  0.00    -0.288 OA
ATOM     53  H4  UNL     1      39.803   7.509 -46.042  1.00  0.00     0.244 HD
ENDBRANCH  50  52
ENDBRANCH  47  50
ENDBRANCH  46  47
ENDBRANCH  44  46
ENDBRANCH  14  42
TORSDOF 12
ENDMDL
