MODEL 1
REMARK VINA RESULT: -6.072141938      0.000      0.000
REMARK  10 active torsions:
REMARK  status: ('A' for Active; 'I' for Inactive)
REMARK    1  A    between atoms: N1_1  and  C1_5 
REMARK    2  A    between atoms: C1_5  and  C2_6 
REMARK    3  A    between atoms: C2_6  and  C3_7 
REMARK    4  A    between atoms: C3_7  and  C4_8 
REMARK    5  A    between atoms: C4_8  and  C5_9 
REMARK    6  A    between atoms: C5_9  and  N2_10 
REMARK    7  A    between atoms: N2_10  and  C6_13 
REMARK    8  A    between atoms: C6_13  and  C7_14 
REMARK    9  A    between atoms: C10_17  and  C11_18 
REMARK   10  A    between atoms: C11_18  and  N3_19 
ROOT
HETATM    1  N3  UNL     1      44.558   5.233 -50.568  1.00  0.00     0.094 N 
HETATM    2  C12 UNL     1      45.819   4.594 -50.468  1.00  0.00     0.274 C 
HETATM    3  C13 UNL     1      46.879   5.295 -49.679  1.00  0.00     0.057 C 
HETATM    4  C14 UNL     1      47.034   4.591 -48.352  1.00  0.00     0.234 C 
HETATM    5  N4  UNL     1      47.734   5.356 -47.379  1.00  0.00    -0.073 N 
ATOM      6  H41 UNL     1      48.168   4.741 -46.689  1.00  0.00     0.277 HD
ATOM      7  H42 UNL     1      47.077   5.856 -46.780  1.00  0.00     0.277 HD
HETATM    8  C15 UNL     1      48.713   6.269 -47.923  1.00  0.00     0.259 C 
HETATM    9  C16 UNL     1      48.566   7.587 -47.148  1.00  0.00     0.259 C 
HETATM   10  N5  UNL     1      47.191   7.993 -47.148  1.00  0.00    -0.072 N 
ATOM     11  H51 UNL     1      46.822   8.037 -46.198  1.00  0.00     0.277 HD
ATOM     12  H52 UNL     1      46.592   7.259 -47.525  1.00  0.00     0.277 HD
HETATM   13  C17 UNL     1      46.981   9.243 -47.845  1.00  0.00     0.251 C 
HETATM   14  C18 UNL     1      47.292  10.392 -46.876  1.00  0.00     0.141 C 
HETATM   15  N6  UNL     1      46.047  10.998 -46.533  1.00  0.00    -0.420 N 
ATOM     16  H6  UNL     1      45.194  10.812 -47.061  1.00  0.00     0.153 HD
HETATM   17  C19 UNL     1      46.063  11.879 -45.408  1.00  0.00     0.115 C 
HETATM   18  C20 UNL     1      44.671  11.970 -44.804  1.00  0.00     0.046 C 
HETATM   19  C21 UNL     1      43.802  12.957 -45.577  1.00  0.00     0.234 C 
HETATM   20  N7  UNL     1      42.986  12.323 -46.573  1.00  0.00    -0.071 N 
ATOM     21  H71 UNL     1      41.997  12.412 -46.343  1.00  0.00     0.277 HD
ATOM     22  H72 UNL     1      43.078  11.308 -46.527  1.00  0.00     0.277 HD
HETATM   23  C22 UNL     1      43.253  12.809 -47.924  1.00  0.00     0.271 C 
HETATM   24  C23 UNL     1      42.029  12.713 -48.737  1.00  0.00    -0.025 A 
HETATM   25  C24 UNL     1      41.029  13.643 -48.418  1.00  0.00     0.009 A 
HETATM   26  C25 UNL     1      39.828  13.674 -49.090  1.00  0.00     0.001 A 
HETATM   27  C26 UNL     1      39.589  12.785 -50.097  1.00  0.00     0.001 A 
HETATM   28  C27 UNL     1      40.582  11.866 -50.410  1.00  0.00     0.009 A 
HETATM   29  C28 UNL     1      41.798  11.811 -49.750  1.00  0.00    -0.033 A 
HETATM   30  C29 UNL     1      42.810  10.777 -50.145  1.00  0.00     0.161 C 
HETATM   31  N8  UNL     1      42.614  10.338 -51.481  1.00  0.00    -0.360 N 
ATOM     32  H8  UNL     1      42.772  11.040 -52.204  1.00  0.00     0.162 HD
HETATM   33  C30 UNL     1      42.229   9.051 -51.943  1.00  0.00     0.184 C 
HETATM   34  N9  UNL     1      41.290   9.062 -53.075  1.00  0.00    -0.064 NA
HETATM   35  N10 UNL     1      42.590   7.942 -51.524  1.00  0.00    -0.363 N 
ATOM     36  H10 UNL     1      42.137   7.202 -52.061  1.00  0.00     0.162 HD
HETATM   37  C31 UNL     1      43.417   7.384 -50.554  1.00  0.00     0.152 C 
HETATM   38  C32 UNL     1      44.557   6.519 -51.158  1.00  0.00     0.292 C 
ENDROOT
BRANCH   1  39
HETATM   39  C11 UNL     1      43.642   4.335 -51.201  1.00  0.00     0.318 C 
BRANCH  39  40
HETATM   40  C10 UNL     1      42.424   4.122 -50.323  1.00  0.00     0.011 A 
HETATM   41  C9  UNL     1      41.279   3.428 -50.512  1.00  0.00     0.017 A 
HETATM   42  C8  UNL     1      40.361   3.441 -49.532  1.00  0.00     0.017 A 
HETATM   43  C7  UNL     1      40.651   4.160 -48.407  1.00  0.00     0.008 A 
HETATM   44  S1  UNL     1      42.184   4.791 -48.737  1.00  0.00    -0.096 SA
BRANCH  43  45
HETATM   45  C6  UNL     1      39.724   4.412 -47.239  1.00  0.00     0.278 C 
BRANCH  45  46
HETATM   46  N2  UNL     1      40.453   5.456 -46.487  1.00  0.00    -0.071 N 
ATOM     47  H22 UNL     1      41.388   5.641 -46.850  1.00  0.00     0.277 HD
ATOM     48  H21 UNL     1      40.740   5.161 -45.553  1.00  0.00     0.277 HD
BRANCH  46  49
HETATM   49  C5  UNL     1      39.612   6.592 -46.487  1.00  0.00     0.232 C 
BRANCH  49  50
HETATM   50  C4  UNL     1      40.250   7.825 -47.057  1.00  0.00     0.027 C 
BRANCH  50  51
HETATM   51  C3  UNL     1      39.342   8.222 -48.207  1.00  0.00     0.003 C 
BRANCH  51  52
HETATM   52  C2  UNL     1      39.612   7.678 -49.535  1.00  0.00     0.027 C 
BRANCH  52  53
HETATM   53  C1  UNL     1      38.620   6.754 -50.146  1.00  0.00     0.229 C 
BRANCH  53  54
HETATM   54  N1  UNL     1      37.361   6.629 -49.487  1.00  0.00    -0.079 N 
ATOM     55  H13 UNL     1      37.247   5.674 -49.149  1.00  0.00     0.274 HD
ATOM     56  H12 UNL     1      37.386   7.140 -48.605  1.00  0.00     0.274 HD
ATOM     57  H11 UNL     1      36.533   6.904 -50.016  1.00  0.00     0.274 HD
ENDBRANCH  53  54
ENDBRANCH  52  53
ENDBRANCH  51  52
ENDBRANCH  50  51
ENDBRANCH  49  50
ENDBRANCH  46  49
ENDBRANCH  45  46
ENDBRANCH  43  45
ENDBRANCH  39  40
ENDBRANCH   1  39
TORSDOF 10
ENDMDL
MODEL 2
REMARK VINA RESULT: -5.977669002      2.639      4.451
REMARK  10 active torsions:
REMARK  status: ('A' for Active; 'I' for Inactive)
REMARK    1  A    between atoms: N1_1  and  C1_5 
REMARK    2  A    between atoms: C1_5  and  C2_6 
REMARK    3  A    between atoms: C2_6  and  C3_7 
REMARK    4  A    between atoms: C3_7  and  C4_8 
REMARK    5  A    between atoms: C4_8  and  C5_9 
REMARK    6  A    between atoms: C5_9  and  N2_10 
REMARK    7  A    between atoms: N2_10  and  C6_13 
REMARK    8  A    between atoms: C6_13  and  C7_14 
REMARK    9  A    between atoms: C10_17  and  C11_18 
REMARK   10  A    between atoms: C11_18  and  N3_19 
ROOT
HETATM    1  N3  UNL     1      43.415   6.494 -51.360  1.00  0.00     0.094 N 
HETATM    2  C12 UNL     1      44.795   6.778 -51.208  1.00  0.00     0.274 C 
HETATM    3  C13 UNL     1      45.169   8.186 -50.867  1.00  0.00     0.057 C 
HETATM    4  C14 UNL     1      45.561   8.240 -49.410  1.00  0.00     0.234 C 
HETATM    5  N4  UNL     1      45.587   9.556 -48.874  1.00  0.00    -0.073 N 
ATOM      6  H41 UNL     1      46.220   9.602 -48.075  1.00  0.00     0.277 HD
ATOM      7  H42 UNL     1      44.703   9.769 -48.410  1.00  0.00     0.277 HD
HETATM    8  C15 UNL     1      45.913  10.588 -49.832  1.00  0.00     0.259 C 
HETATM    9  C16 UNL     1      44.954  11.758 -49.564  1.00  0.00     0.259 C 
HETATM   10  N5  UNL     1      43.605  11.274 -49.526  1.00  0.00    -0.072 N 
ATOM     11  H51 UNL     1      43.181  11.442 -48.613  1.00  0.00     0.277 HD
ATOM     12  H52 UNL     1      43.581  10.255 -49.534  1.00  0.00     0.277 HD
HETATM   13  C17 UNL     1      42.788  11.822 -50.587  1.00  0.00     0.251 C 
HETATM   14  C18 UNL     1      42.278  13.198 -50.140  1.00  0.00     0.141 C 
HETATM   15  N6  UNL     1      40.884  13.060 -49.873  1.00  0.00    -0.420 N 
ATOM     16  H6  UNL     1      40.354  12.245 -50.182  1.00  0.00     0.153 HD
HETATM   17  C19 UNL     1      40.272  14.129 -49.147  1.00  0.00     0.115 C 
HETATM   18  C20 UNL     1      39.027  13.624 -48.436  1.00  0.00     0.046 C 
HETATM   19  C21 UNL     1      37.836  13.574 -49.387  1.00  0.00     0.234 C 
HETATM   20  N7  UNL     1      37.643  12.279 -49.975  1.00  0.00    -0.071 N 
ATOM     21  H71 UNL     1      36.765  11.865 -49.663  1.00  0.00     0.277 HD
ATOM     22  H72 UNL     1      38.296  11.601 -49.584  1.00  0.00     0.277 HD
HETATM   23  C22 UNL     1      37.721  12.296 -51.433  1.00  0.00     0.271 C 
HETATM   24  C23 UNL     1      36.869  11.232 -51.989  1.00  0.00    -0.025 A 
HETATM   25  C24 UNL     1      35.489  11.463 -51.892  1.00  0.00     0.009 A 
HETATM   26  C25 UNL     1      34.567  10.558 -52.365  1.00  0.00     0.001 A 
HETATM   27  C26 UNL     1      34.990   9.400 -52.949  1.00  0.00     0.001 A 
HETATM   28  C27 UNL     1      36.357   9.174 -53.044  1.00  0.00     0.009 A 
HETATM   29  C28 UNL     1      37.306  10.067 -52.575  1.00  0.00    -0.033 A 
HETATM   30  C29 UNL     1      38.763   9.737 -52.707  1.00  0.00     0.161 C 
HETATM   31  N8  UNL     1      38.997   8.816 -53.761  1.00  0.00    -0.360 N 
ATOM     32  H8  UNL     1      38.797   9.159 -54.701  1.00  0.00     0.162 HD
HETATM   33  C30 UNL     1      39.473   7.479 -53.681  1.00  0.00     0.184 C 
HETATM   34  N9  UNL     1      38.823   6.540 -54.608  1.00  0.00    -0.064 NA
HETATM   35  N10 UNL     1      40.361   7.021 -52.946  1.00  0.00    -0.363 N 
ATOM     36  H10 UNL     1      40.474   6.022 -53.120  1.00  0.00     0.162 HD
HETATM   37  C31 UNL     1      41.250   7.435 -51.961  1.00  0.00     0.152 C 
HETATM   38  C32 UNL     1      42.736   7.226 -52.363  1.00  0.00     0.292 C 
ENDROOT
BRANCH   1  39
HETATM   39  C11 UNL     1      43.254   5.080 -51.506  1.00  0.00     0.318 C 
BRANCH  39  40
HETATM   40  C10 UNL     1      42.205   4.569 -50.538  1.00  0.00     0.011 A 
HETATM   41  C9  UNL     1      41.197   3.678 -50.679  1.00  0.00     0.017 A 
HETATM   42  C8  UNL     1      40.410   3.440 -49.617  1.00  0.00     0.017 A 
HETATM   43  C7  UNL     1      40.684   4.119 -48.464  1.00  0.00     0.008 A 
HETATM   44  S1  UNL     1      42.023   5.061 -48.881  1.00  0.00    -0.096 SA
BRANCH  43  45
HETATM   45  C6  UNL     1      39.863   4.098 -47.194  1.00  0.00     0.278 C 
BRANCH  45  46
HETATM   46  N2  UNL     1      40.349   5.307 -46.494  1.00  0.00    -0.071 N 
ATOM     47  H22 UNL     1      41.243   5.651 -46.847  1.00  0.00     0.277 HD
ATOM     48  H21 UNL     1      40.656   5.129 -45.537  1.00  0.00     0.277 HD
BRANCH  46  49
HETATM   49  C5  UNL     1      39.304   6.254 -46.586  1.00  0.00     0.232 C 
BRANCH  49  50
HETATM   50  C4  UNL     1      39.732   7.588 -47.124  1.00  0.00     0.027 C 
BRANCH  50  51
HETATM   51  C3  UNL     1      39.180   7.621 -48.537  1.00  0.00     0.003 C 
BRANCH  51  52
HETATM   52  C2  UNL     1      38.088   6.717 -48.886  1.00  0.00     0.027 C 
BRANCH  52  53
HETATM   53  C1  UNL     1      37.688   6.592 -50.312  1.00  0.00     0.229 C 
BRANCH  53  54
HETATM   54  N1  UNL     1      36.289   6.543 -50.588  1.00  0.00    -0.079 N 
ATOM     55  H13 UNL     1      35.778   6.354 -49.726  1.00  0.00     0.274 HD
ATOM     56  H12 UNL     1      35.952   7.481 -50.805  1.00  0.00     0.274 HD
ATOM     57  H11 UNL     1      35.983   5.895 -51.314  1.00  0.00     0.274 HD
ENDBRANCH  53  54
ENDBRANCH  52  53
ENDBRANCH  51  52
ENDBRANCH  50  51
ENDBRANCH  49  50
ENDBRANCH  46  49
ENDBRANCH  45  46
ENDBRANCH  43  45
ENDBRANCH  39  40
ENDBRANCH   1  39
TORSDOF 10
ENDMDL
MODEL 3
REMARK VINA RESULT: -5.873889452      4.258      9.438
REMARK  10 active torsions:
REMARK  status: ('A' for Active; 'I' for Inactive)
REMARK    1  A    between atoms: N1_1  and  C1_5 
REMARK    2  A    between atoms: C1_5  and  C2_6 
REMARK    3  A    between atoms: C2_6  and  C3_7 
REMARK    4  A    between atoms: C3_7  and  C4_8 
REMARK    5  A    between atoms: C4_8  and  C5_9 
REMARK    6  A    between atoms: C5_9  and  N2_10 
REMARK    7  A    between atoms: N2_10  and  C6_13 
REMARK    8  A    between atoms: C6_13  and  C7_14 
REMARK    9  A    between atoms: C10_17  and  C11_18 
REMARK   10  A    between atoms: C11_18  and  N3_19 
ROOT
HETATM    1  N3  UNL     1      36.896  12.303 -53.789  1.00  0.00     0.094 N 
HETATM    2  C12 UNL     1      36.007  11.608 -54.647  1.00  0.00     0.274 C 
HETATM    3  C13 UNL     1      35.829  10.143 -54.403  1.00  0.00     0.057 C 
HETATM    4  C14 UNL     1      34.487   9.926 -53.745  1.00  0.00     0.234 C 
HETATM    5  N4  UNL     1      34.348   8.647 -53.139  1.00  0.00    -0.073 N 
ATOM      6  H41 UNL     1      33.363   8.386 -53.083  1.00  0.00     0.277 HD
ATOM      7  H42 UNL     1      34.573   8.699 -52.145  1.00  0.00     0.277 HD
HETATM    8  C15 UNL     1      35.111   7.596 -53.774  1.00  0.00     0.259 C 
HETATM    9  C16 UNL     1      35.740   6.766 -52.646  1.00  0.00     0.259 C 
HETATM   10  N5  UNL     1      36.421   7.635 -51.731  1.00  0.00    -0.072 N 
ATOM     11  H51 UNL     1      36.015   7.574 -50.797  1.00  0.00     0.277 HD
ATOM     12  H52 UNL     1      36.219   8.613 -51.936  1.00  0.00     0.277 HD
HETATM   13  C17 UNL     1      37.847   7.396 -51.693  1.00  0.00     0.251 C 
HETATM   14  C18 UNL     1      38.114   6.226 -50.737  1.00  0.00     0.141 C 
HETATM   15  N6  UNL     1      38.721   6.773 -49.568  1.00  0.00    -0.420 N 
ATOM     16  H6  UNL     1      39.101   7.719 -49.550  1.00  0.00     0.153 HD
HETATM   17  C19 UNL     1      38.769   5.918 -48.424  1.00  0.00     0.115 C 
HETATM   18  C20 UNL     1      38.866   6.755 -47.158  1.00  0.00     0.046 C 
HETATM   19  C21 UNL     1      40.304   7.195 -46.901  1.00  0.00     0.234 C 
HETATM   20  N7  UNL     1      40.587   8.505 -47.413  1.00  0.00    -0.071 N 
ATOM     21  H71 UNL     1      40.788   9.156 -46.655  1.00  0.00     0.277 HD
ATOM     22  H72 UNL     1      39.745   8.940 -47.788  1.00  0.00     0.277 HD
HETATM   23  C22 UNL     1      41.661   8.511 -48.403  1.00  0.00     0.271 C 
HETATM   24  C23 UNL     1      42.370   9.801 -48.359  1.00  0.00    -0.025 A 
HETATM   25  C24 UNL     1      43.180   9.998 -47.231  1.00  0.00     0.009 A 
HETATM   26  C25 UNL     1      43.901  11.155 -47.050  1.00  0.00     0.001 A 
HETATM   27  C26 UNL     1      43.840  12.148 -47.983  1.00  0.00     0.001 A 
HETATM   28  C27 UNL     1      43.037  11.950 -49.100  1.00  0.00     0.009 A 
HETATM   29  C28 UNL     1      42.300  10.797 -49.307  1.00  0.00    -0.033 A 
HETATM   30  C29 UNL     1      41.448  10.672 -50.535  1.00  0.00     0.161 C 
HETATM   31  N8  UNL     1      41.913  11.512 -51.581  1.00  0.00    -0.360 N 
ATOM     32  H8  UNL     1      42.829  11.276 -51.963  1.00  0.00     0.162 HD
HETATM   33  C30 UNL     1      41.271  12.637 -52.165  1.00  0.00     0.184 C 
HETATM   34  N9  UNL     1      42.169  13.758 -52.482  1.00  0.00    -0.064 NA
HETATM   35  N10 UNL     1      40.072  12.780 -52.445  1.00  0.00    -0.363 N 
ATOM     36  H10 UNL     1      39.918  13.702 -52.854  1.00  0.00     0.162 HD
HETATM   37  C31 UNL     1      38.870  12.084 -52.380  1.00  0.00     0.152 C 
HETATM   38  C32 UNL     1      38.235  11.844 -53.777  1.00  0.00     0.292 C 
ENDROOT
BRANCH   1  39
HETATM   39  C11 UNL     1      36.796  13.702 -54.067  1.00  0.00     0.318 C 
BRANCH  39  40
HETATM   40  C10 UNL     1      36.771  14.493 -52.773  1.00  0.00     0.011 A 
HETATM   41  C9  UNL     1      36.032  14.370 -51.647  1.00  0.00     0.017 A 
HETATM   42  C8  UNL     1      36.236  15.253 -50.656  1.00  0.00     0.017 A 
HETATM   43  C7  UNL     1      37.180  16.220 -50.858  1.00  0.00     0.008 A 
HETATM   44  S1  UNL     1      37.760  15.875 -52.407  1.00  0.00    -0.096 SA
BRANCH  43  45
HETATM   45  C6  UNL     1      37.488  17.380 -49.937  1.00  0.00     0.278 C 
BRANCH  45  46
HETATM   46  N2  UNL     1      38.966  17.399 -49.951  1.00  0.00    -0.071 N 
ATOM     47  H22 UNL     1      39.365  18.296 -49.672  1.00  0.00     0.277 HD
ATOM     48  H21 UNL     1      39.366  17.375 -50.890  1.00  0.00     0.277 HD
BRANCH  46  49
HETATM   49  C5  UNL     1      39.375  16.321 -49.134  1.00  0.00     0.232 C 
BRANCH  49  50
HETATM   50  C4  UNL     1      40.492  15.502 -49.715  1.00  0.00     0.027 C 
BRANCH  50  51
HETATM   51  C3  UNL     1      40.466  14.210 -48.919  1.00  0.00     0.003 C 
BRANCH  51  52
HETATM   52  C2  UNL     1      39.196  13.754 -48.362  1.00  0.00     0.027 C 
BRANCH  52  53
HETATM   53  C1  UNL     1      38.481  12.634 -49.030  1.00  0.00     0.229 C 
BRANCH  53  54
HETATM   54  N1  UNL     1      38.487  11.374 -48.362  1.00  0.00    -0.079 N 
ATOM     55  H13 UNL     1      39.448  11.056 -48.242  1.00  0.00     0.274 HD
ATOM     56  H12 UNL     1      38.208  11.502 -47.390  1.00  0.00     0.274 HD
ATOM     57  H11 UNL     1      37.931  10.627 -48.779  1.00  0.00     0.274 HD
ENDBRANCH  53  54
ENDBRANCH  52  53
ENDBRANCH  51  52
ENDBRANCH  50  51
ENDBRANCH  49  50
ENDBRANCH  46  49
ENDBRANCH  45  46
ENDBRANCH  43  45
ENDBRANCH  39  40
ENDBRANCH   1  39
TORSDOF 10
ENDMDL
MODEL 4
REMARK VINA RESULT: -5.523708157      3.112      5.414
REMARK  10 active torsions:
REMARK  status: ('A' for Active; 'I' for Inactive)
REMARK    1  A    between atoms: N1_1  and  C1_5 
REMARK    2  A    between atoms: C1_5  and  C2_6 
REMARK    3  A    between atoms: C2_6  and  C3_7 
REMARK    4  A    between atoms: C3_7  and  C4_8 
REMARK    5  A    between atoms: C4_8  and  C5_9 
REMARK    6  A    between atoms: C5_9  and  N2_10 
REMARK    7  A    between atoms: N2_10  and  C6_13 
REMARK    8  A    between atoms: C6_13  and  C7_14 
REMARK    9  A    between atoms: C10_17  and  C11_18 
REMARK   10  A    between atoms: C11_18  and  N3_19 
ROOT
HETATM    1  N3  UNL     1      43.243   7.192 -51.840  1.00  0.00     0.094 N 
HETATM    2  C12 UNL     1      44.581   7.660 -51.846  1.00  0.00     0.274 C 
HETATM    3  C13 UNL     1      44.790   9.134 -51.697  1.00  0.00     0.057 C 
HETATM    4  C14 UNL     1      45.280   9.411 -50.296  1.00  0.00     0.234 C 
HETATM    5  N4  UNL     1      45.172  10.776 -49.913  1.00  0.00    -0.073 N 
ATOM      6  H41 UNL     1      45.852  10.995 -49.184  1.00  0.00     0.277 HD
ATOM      7  H42 UNL     1      44.305  10.932 -49.397  1.00  0.00     0.277 HD
HETATM    8  C15 UNL     1      45.285  11.716 -51.004  1.00  0.00     0.259 C 
HETATM    9  C16 UNL     1      44.202  12.783 -50.780  1.00  0.00     0.259 C 
HETATM   10  N5  UNL     1      42.936  12.146 -50.568  1.00  0.00    -0.072 N 
ATOM     11  H51 UNL     1      42.563  12.369 -49.645  1.00  0.00     0.277 HD
ATOM     12  H52 UNL     1      43.046  11.137 -50.462  1.00  0.00     0.277 HD
HETATM   13  C17 UNL     1      41.976  12.456 -51.604  1.00  0.00     0.251 C 
HETATM   14  C18 UNL     1      41.323  13.803 -51.267  1.00  0.00     0.141 C 
HETATM   15  N6  UNL     1      39.984  13.528 -50.862  1.00  0.00    -0.420 N 
ATOM     16  H6  UNL     1      39.545  12.623 -51.031  1.00  0.00     0.153 HD
HETATM   17  C19 UNL     1      39.292  14.593 -50.206  1.00  0.00     0.115 C 
HETATM   18  C20 UNL     1      38.182  14.028 -49.334  1.00  0.00     0.046 C 
HETATM   19  C21 UNL     1      36.939  13.718 -50.162  1.00  0.00     0.234 C 
HETATM   20  N7  UNL     1      36.876  12.348 -50.584  1.00  0.00    -0.071 N 
ATOM     21  H71 UNL     1      36.087  11.869 -50.150  1.00  0.00     0.277 HD
ATOM     22  H72 UNL     1      37.641  11.807 -50.181  1.00  0.00     0.277 HD
HETATM   23  C22 UNL     1      36.841  12.199 -52.037  1.00  0.00     0.271 C 
HETATM   24  C23 UNL     1      36.098  10.978 -52.393  1.00  0.00    -0.025 A 
HETATM   25  C24 UNL     1      34.711  11.048 -52.197  1.00  0.00     0.009 A 
HETATM   26  C25 UNL     1      33.884   9.986 -52.483  1.00  0.00     0.001 A 
HETATM   27  C26 UNL     1      34.411   8.826 -52.972  1.00  0.00     0.001 A 
HETATM   28  C27 UNL     1      35.786   8.761 -53.165  1.00  0.00     0.009 A 
HETATM   29  C28 UNL     1      36.640   9.813 -52.885  1.00  0.00    -0.033 A 
HETATM   30  C29 UNL     1      38.115   9.652 -53.111  1.00  0.00     0.161 C 
HETATM   31  N8  UNL     1      38.388   8.646 -54.073  1.00  0.00    -0.360 N 
ATOM     32  H8  UNL     1      38.074   8.846 -55.023  1.00  0.00     0.162 HD
HETATM   33  C30 UNL     1      39.042   7.397 -53.890  1.00  0.00     0.184 C 
HETATM   34  N9  UNL     1      38.454   6.281 -54.645  1.00  0.00    -0.064 NA
HETATM   35  N10 UNL     1      40.035   7.144 -53.192  1.00  0.00    -0.363 N 
ATOM     36  H10 UNL     1      40.267   6.153 -53.265  1.00  0.00     0.162 HD
HETATM   37  C31 UNL     1      40.934   7.780 -52.343  1.00  0.00     0.152 C 
HETATM   38  C32 UNL     1      42.400   7.708 -52.852  1.00  0.00     0.292 C 
ENDROOT
BRANCH   1  39
HETATM   39  C11 UNL     1      43.261   5.762 -51.814  1.00  0.00     0.318 C 
BRANCH  39  40
HETATM   40  C10 UNL     1      42.529   5.250 -50.589  1.00  0.00     0.011 A 
HETATM   41  C9  UNL     1      42.848   5.250 -49.275  1.00  0.00     0.017 A 
HETATM   42  C8  UNL     1      41.979   4.697 -48.413  1.00  0.00     0.017 A 
HETATM   43  C7  UNL     1      40.830   4.168 -48.928  1.00  0.00     0.008 A 
HETATM   44  S1  UNL     1      40.982   4.457 -50.586  1.00  0.00    -0.096 SA
BRANCH  43  45
HETATM   45  C6  UNL     1      39.778   3.395 -48.165  1.00  0.00     0.278 C 
BRANCH  45  46
HETATM   46  N2  UNL     1      39.782   4.081 -46.855  1.00  0.00    -0.071 N 
ATOM     47  H22 UNL     1      40.695   4.452 -46.592  1.00  0.00     0.277 HD
ATOM     48  H21 UNL     1      39.674   3.447 -46.063  1.00  0.00     0.277 HD
BRANCH  46  49
HETATM   49  C5  UNL     1      38.771   5.067 -46.932  1.00  0.00     0.232 C 
BRANCH  49  50
HETATM   50  C4  UNL     1      39.236   6.448 -46.572  1.00  0.00     0.027 C 
BRANCH  50  51
HETATM   51  C3  UNL     1      38.867   7.295 -47.776  1.00  0.00     0.003 C 
BRANCH  51  52
HETATM   52  C2  UNL     1      39.937   7.887 -48.574  1.00  0.00     0.027 C 
BRANCH  52  53
HETATM   53  C1  UNL     1      39.752   9.258 -49.118  1.00  0.00     0.229 C 
BRANCH  53  54
HETATM   54  N1  UNL     1      38.812  10.097 -48.450  1.00  0.00    -0.079 N 
ATOM     55  H13 UNL     1      39.311  10.812 -47.921  1.00  0.00     0.274 HD
ATOM     56  H12 UNL     1      38.325  10.675 -49.134  1.00  0.00     0.274 HD
ATOM     57  H11 UNL     1      38.131   9.639 -47.845  1.00  0.00     0.274 HD
ENDBRANCH  53  54
ENDBRANCH  52  53
ENDBRANCH  51  52
ENDBRANCH  50  51
ENDBRANCH  49  50
ENDBRANCH  46  49
ENDBRANCH  45  46
ENDBRANCH  43  45
ENDBRANCH  39  40
ENDBRANCH   1  39
TORSDOF 10
ENDMDL
MODEL 5
REMARK VINA RESULT: -5.437452628      2.980      5.510
REMARK  10 active torsions:
REMARK  status: ('A' for Active; 'I' for Inactive)
REMARK    1  A    between atoms: N1_1  and  C1_5 
REMARK    2  A    between atoms: C1_5  and  C2_6 
REMARK    3  A    between atoms: C2_6  and  C3_7 
REMARK    4  A    between atoms: C3_7  and  C4_8 
REMARK    5  A    between atoms: C4_8  and  C5_9 
REMARK    6  A    between atoms: C5_9  and  N2_10 
REMARK    7  A    between atoms: N2_10  and  C6_13 
REMARK    8  A    between atoms: C6_13  and  C7_14 
REMARK    9  A    between atoms: C10_17  and  C11_18 
REMARK   10  A    between atoms: C11_18  and  N3_19 
ROOT
HETATM    1  N3  UNL     1      44.222   8.557 -50.221  1.00  0.00     0.094 N 
HETATM    2  C12 UNL     1      45.099   9.010 -49.204  1.00  0.00     0.274 C 
HETATM    3  C13 UNL     1      44.760  10.306 -48.538  1.00  0.00     0.057 C 
HETATM    4  C14 UNL     1      44.208  10.009 -47.164  1.00  0.00     0.234 C 
HETATM    5  N4  UNL     1      43.520  11.106 -46.576  1.00  0.00    -0.073 N 
ATOM      6  H41 UNL     1      43.531  11.028 -45.559  1.00  0.00     0.277 HD
ATOM      7  H42 UNL     1      42.517  11.030 -46.747  1.00  0.00     0.277 HD
HETATM    8  C15 UNL     1      44.003  12.406 -46.984  1.00  0.00     0.259 C 
HETATM    9  C16 UNL     1      42.763  13.277 -47.238  1.00  0.00     0.259 C 
HETATM   10  N5  UNL     1      41.862  12.587 -48.113  1.00  0.00    -0.072 N 
ATOM     11  H51 UNL     1      40.965  12.418 -47.656  1.00  0.00     0.277 HD
ATOM     12  H52 UNL     1      42.158  11.622 -48.258  1.00  0.00     0.277 HD
HETATM   13  C17 UNL     1      41.681  13.269 -49.376  1.00  0.00     0.251 C 
HETATM   14  C18 UNL     1      40.617  14.359 -49.185  1.00  0.00     0.141 C 
HETATM   15  N6  UNL     1      39.446  13.923 -49.871  1.00  0.00    -0.420 N 
ATOM     16  H6  UNL     1      39.467  13.153 -50.539  1.00  0.00     0.153 HD
HETATM   17  C19 UNL     1      38.239  14.626 -49.567  1.00  0.00     0.115 C 
HETATM   18  C20 UNL     1      37.038  13.742 -49.861  1.00  0.00     0.046 C 
HETATM   19  C21 UNL     1      36.690  13.768 -51.346  1.00  0.00     0.234 C 
HETATM   20  N7  UNL     1      37.274  12.679 -52.076  1.00  0.00    -0.071 N 
ATOM     21  H71 UNL     1      36.553  12.054 -52.437  1.00  0.00     0.277 HD
ATOM     22  H72 UNL     1      37.754  12.035 -51.447  1.00  0.00     0.277 HD
HETATM   23  C22 UNL     1      38.163  13.121 -53.147  1.00  0.00     0.271 C 
HETATM   24  C23 UNL     1      38.156  12.132 -54.238  1.00  0.00    -0.025 A 
HETATM   25  C24 UNL     1      36.980  12.095 -55.000  1.00  0.00     0.009 A 
HETATM   26  C25 UNL     1      36.825  11.221 -56.052  1.00  0.00     0.001 A 
HETATM   27  C26 UNL     1      37.834  10.361 -56.376  1.00  0.00     0.001 A 
HETATM   28  C27 UNL     1      38.998  10.401 -55.619  1.00  0.00     0.009 A 
HETATM   29  C28 UNL     1      39.180  11.268 -54.556  1.00  0.00    -0.033 A 
HETATM   30  C29 UNL     1      40.465  11.235 -53.783  1.00  0.00     0.161 C 
HETATM   31  N8  UNL     1      41.527  10.701 -54.559  1.00  0.00    -0.360 N 
ATOM     32  H8  UNL     1      41.808  11.258 -55.366  1.00  0.00     0.162 HD
HETATM   33  C30 UNL     1      42.250   9.493 -54.360  1.00  0.00     0.184 C 
HETATM   34  N9  UNL     1      42.572   8.761 -55.594  1.00  0.00    -0.064 NA
HETATM   35  N10 UNL     1      42.645   8.999 -53.293  1.00  0.00    -0.363 N 
ATOM     36  H10 UNL     1      43.135   8.124 -53.476  1.00  0.00     0.162 HD
HETATM   37  C31 UNL     1      42.632   9.259 -51.927  1.00  0.00     0.152 C 
HETATM   38  C32 UNL     1      44.057   9.420 -51.330  1.00  0.00     0.292 C 
ENDROOT
BRANCH   1  39
HETATM   39  C11 UNL     1      44.614   7.236 -50.605  1.00  0.00     0.318 C 
BRANCH  39  40
HETATM   40  C10 UNL     1      43.733   6.209 -49.921  1.00  0.00     0.011 A 
HETATM   41  C9  UNL     1      43.849   4.869 -49.772  1.00  0.00     0.017 A 
HETATM   42  C8  UNL     1      42.875   4.220 -49.113  1.00  0.00     0.017 A 
HETATM   43  C7  UNL     1      41.831   4.961 -48.638  1.00  0.00     0.008 A 
HETATM   44  S1  UNL     1      42.229   6.533 -49.113  1.00  0.00    -0.096 SA
BRANCH  43  45
HETATM   45  C6  UNL     1      40.578   4.429 -47.980  1.00  0.00     0.278 C 
BRANCH  45  46
HETATM   46  N2  UNL     1      40.595   5.129 -46.677  1.00  0.00    -0.071 N 
ATOM     47  H22 UNL     1      41.459   5.641 -46.500  1.00  0.00     0.277 HD
ATOM     48  H21 UNL     1      40.659   4.499 -45.877  1.00  0.00     0.277 HD
BRANCH  46  49
HETATM   49  C5  UNL     1      39.441   5.946 -46.662  1.00  0.00     0.232 C 
BRANCH  49  50
HETATM   50  C4  UNL     1      38.485   5.674 -47.787  1.00  0.00     0.027 C 
BRANCH  50  51
HETATM   51  C3  UNL     1      38.293   7.025 -48.453  1.00  0.00     0.003 C 
BRANCH  51  52
HETATM   52  C2  UNL     1      38.970   8.189 -47.889  1.00  0.00     0.027 C 
BRANCH  52  53
HETATM   53  C1  UNL     1      39.481   9.237 -48.811  1.00  0.00     0.229 C 
BRANCH  53  54
HETATM   54  N1  UNL     1      38.860  10.519 -48.739  1.00  0.00    -0.079 N 
ATOM     55  H13 UNL     1      39.273  11.138 -49.436  1.00  0.00     0.274 HD
ATOM     56  H12 UNL     1      37.904  10.455 -49.087  1.00  0.00     0.274 HD
ATOM     57  H11 UNL     1      38.861  10.983 -47.830  1.00  0.00     0.274 HD
ENDBRANCH  53  54
ENDBRANCH  52  53
ENDBRANCH  51  52
ENDBRANCH  50  51
ENDBRANCH  49  50
ENDBRANCH  46  49
ENDBRANCH  45  46
ENDBRANCH  43  45
ENDBRANCH  39  40
ENDBRANCH   1  39
TORSDOF 10
ENDMDL
