MODEL 1
REMARK VINA RESULT: -4.528627950      0.000      0.000
REMARK  1 active torsions:
REMARK  status: ('A' for Active; 'I' for Inactive)
REMARK    1  A    between atoms: N1_1  and  N2_4 
ROOT
HETATM    1  N2  UNL     1      25.476  17.206  -8.571  1.00  0.00    -0.285 N 
HETATM    2  C1  UNL     1      26.207  18.329  -8.412  1.00  0.00     0.115 A 
HETATM    3  C2  UNL     1      25.697  19.433  -7.757  1.00  0.00     0.019 A 
HETATM    4  C3  UNL     1      24.417  19.431  -7.237  1.00  0.00     0.003 A 
HETATM    5  C4  UNL     1      23.688  18.271  -7.411  1.00  0.00     0.019 A 
HETATM    6  C5  UNL     1      24.242  17.194  -8.074  1.00  0.00     0.115 A 
ENDROOT
BRANCH   1   7
HETATM    7  N1  UNL     1      26.052  16.117  -9.247  1.00  0.00    -0.339 N 
ATOM      8  H12 UNL     1      26.725  16.217 -10.007  1.00  0.00     0.177 HD
ATOM      9  H11 UNL     1      25.786  15.172  -8.968  1.00  0.00     0.177 HD
ENDBRANCH   1   7
TORSDOF 1
ENDMDL
MODEL 2
REMARK VINA RESULT: -4.482589287      0.095      1.757
REMARK  1 active torsions:
REMARK  status: ('A' for Active; 'I' for Inactive)
REMARK    1  A    between atoms: N1_1  and  N2_4 
ROOT
HETATM    1  N2  UNL     1      25.562  17.274  -8.583  1.00  0.00    -0.285 N 
HETATM    2  C1  UNL     1      24.314  17.241  -8.070  1.00  0.00     0.115 A 
HETATM    3  C2  UNL     1      23.775  18.331  -7.416  1.00  0.00     0.019 A 
HETATM    4  C3  UNL     1      24.492  19.502  -7.262  1.00  0.00     0.003 A 
HETATM    5  C4  UNL     1      25.766  19.513  -7.795  1.00  0.00     0.019 A 
HETATM    6  C5  UNL     1      26.261  18.397  -8.440  1.00  0.00     0.115 A 
ENDROOT
BRANCH   1   7
HETATM    7  N1  UNL     1      26.052  16.132  -9.237  1.00  0.00    -0.339 N 
ATOM      8  H12 UNL     1      26.790  16.158  -9.941  1.00  0.00     0.177 HD
ATOM      9  H11 UNL     1      25.653  15.223  -9.000  1.00  0.00     0.177 HD
ENDBRANCH   1   7
TORSDOF 1
ENDMDL
MODEL 3
REMARK VINA RESULT: -4.427002672      1.748      2.833
REMARK  1 active torsions:
REMARK  status: ('A' for Active; 'I' for Inactive)
REMARK    1  A    between atoms: N1_1  and  N2_4 
ROOT
HETATM    1  N2  UNL     1      23.620  18.120  -7.320  1.00  0.00    -0.285 N 
HETATM    2  C1  UNL     1      24.132  17.132  -8.082  1.00  0.00     0.115 A 
HETATM    3  C2  UNL     1      25.313  17.297  -8.779  1.00  0.00     0.019 A 
HETATM    4  C3  UNL     1      26.019  18.484  -8.721  1.00  0.00     0.003 A 
HETATM    5  C4  UNL     1      25.477  19.481  -7.935  1.00  0.00     0.019 A 
HETATM    6  C5  UNL     1      24.292  19.267  -7.258  1.00  0.00     0.115 A 
ENDROOT
BRANCH   1   7
HETATM    7  N1  UNL     1      22.415  17.889  -6.636  1.00  0.00    -0.339 N 
ATOM      8  H12 UNL     1      22.246  18.182  -5.674  1.00  0.00     0.177 HD
ATOM      9  H11 UNL     1      21.662  17.401  -7.123  1.00  0.00     0.177 HD
ENDBRANCH   1   7
TORSDOF 1
ENDMDL
MODEL 4
REMARK VINA RESULT: -4.409012383      1.487      2.216
REMARK  1 active torsions:
REMARK  status: ('A' for Active; 'I' for Inactive)
REMARK    1  A    between atoms: N1_1  and  N2_4 
ROOT
HETATM    1  N2  UNL     1      24.001  17.759  -8.319  1.00  0.00    -0.285 N 
HETATM    2  C1  UNL     1      24.080  18.641  -7.301  1.00  0.00     0.115 A 
HETATM    3  C2  UNL     1      25.008  19.664  -7.305  1.00  0.00     0.019 A 
HETATM    4  C3  UNL     1      25.894  19.825  -8.355  1.00  0.00     0.003 A 
HETATM    5  C4  UNL     1      25.794  18.910  -9.383  1.00  0.00     0.019 A 
HETATM    6  C5  UNL     1      24.850  17.905  -9.333  1.00  0.00     0.115 A 
ENDROOT
BRANCH   1   7
HETATM    7  N1  UNL     1      23.035  16.741  -8.254  1.00  0.00    -0.339 N 
ATOM      8  H12 UNL     1      22.815  16.225  -7.402  1.00  0.00     0.177 HD
ATOM      9  H11 UNL     1      22.522  16.499  -9.102  1.00  0.00     0.177 HD
ENDBRANCH   1   7
TORSDOF 1
ENDMDL
MODEL 5
REMARK VINA RESULT: -4.402355353      1.742      2.566
REMARK  1 active torsions:
REMARK  status: ('A' for Active; 'I' for Inactive)
REMARK    1  A    between atoms: N1_1  and  N2_4 
ROOT
HETATM    1  N2  UNL     1      23.626  18.062  -7.346  1.00  0.00    -0.285 N 
HETATM    2  C1  UNL     1      24.269  19.244  -7.252  1.00  0.00     0.115 A 
HETATM    3  C2  UNL     1      25.455  19.475  -7.921  1.00  0.00     0.019 A 
HETATM    4  C3  UNL     1      26.030  18.502  -8.716  1.00  0.00     0.003 A 
HETATM    5  C4  UNL     1      25.355  17.301  -8.798  1.00  0.00     0.019 A 
HETATM    6  C5  UNL     1      24.173  17.118  -8.109  1.00  0.00     0.115 A 
ENDROOT
BRANCH   1   7
HETATM    7  N1  UNL     1      22.424  17.891  -6.641  1.00  0.00    -0.339 N 
ATOM      8  H12 UNL     1      21.700  18.607  -6.577  1.00  0.00     0.177 HD
ATOM      9  H11 UNL     1      22.258  17.004  -6.163  1.00  0.00     0.177 HD
ENDBRANCH   1   7
TORSDOF 1
ENDMDL
