MODEL 1
REMARK VINA RESULT: -3.941791003      0.000      0.000
REMARK  1 active torsions:
REMARK  status: ('A' for Active; 'I' for Inactive)
REMARK    1  A    between atoms: C2_2  and  C3_3 
ROOT
HETATM    1  C3  UNL     1      24.296  18.596  -7.465  1.00  0.00     0.090 C 
HETATM    2  N1  UNL     1      24.705  19.904  -7.146  1.00  0.00    -0.095 NA
HETATM    3  S1  UNL     1      25.236  17.670  -8.426  1.00  0.00    -0.069 SA
ENDROOT
BRANCH   1   4
HETATM    4  C2  UNL     1      23.018  18.024  -6.947  1.00  0.00     0.062 C 
HETATM    5  C1  UNL     1      22.564  16.881  -7.800  1.00  0.00     0.012 C 
ENDBRANCH   1   4
TORSDOF 1
ENDMDL
MODEL 2
REMARK VINA RESULT: -3.778289280      0.993      1.139
REMARK  1 active torsions:
REMARK  status: ('A' for Active; 'I' for Inactive)
REMARK    1  A    between atoms: C2_2  and  C3_3 
ROOT
HETATM    1  C3  UNL     1      24.777  18.742  -8.030  1.00  0.00     0.090 C 
HETATM    2  N1  UNL     1      24.793  19.850  -7.164  1.00  0.00    -0.095 NA
HETATM    3  S1  UNL     1      25.790  18.705  -9.310  1.00  0.00    -0.069 SA
ENDROOT
BRANCH   1   4
HETATM    4  C2  UNL     1      23.854  17.589  -7.814  1.00  0.00     0.062 C 
HETATM    5  C1  UNL     1      22.777  17.948  -6.838  1.00  0.00     0.012 C 
ENDBRANCH   1   4
TORSDOF 1
ENDMDL
MODEL 3
REMARK VINA RESULT: -3.649676617      1.902      2.052
REMARK  1 active torsions:
REMARK  status: ('A' for Active; 'I' for Inactive)
REMARK    1  A    between atoms: C2_2  and  C3_3 
ROOT
HETATM    1  C3  UNL     1      24.840  17.786  -8.174  1.00  0.00     0.090 C 
HETATM    2  N1  UNL     1      25.834  17.014  -8.801  1.00  0.00    -0.095 NA
HETATM    3  S1  UNL     1      25.190  19.301  -7.677  1.00  0.00    -0.069 SA
ENDROOT
BRANCH   1   4
HETATM    4  C2  UNL     1      23.463  17.257  -7.946  1.00  0.00     0.062 C 
HETATM    5  C1  UNL     1      22.796  17.982  -6.819  1.00  0.00     0.012 C 
ENDBRANCH   1   4
TORSDOF 1
ENDMDL
MODEL 4
REMARK VINA RESULT: -3.635462951      1.520      1.520
REMARK  1 active torsions:
REMARK  status: ('A' for Active; 'I' for Inactive)
REMARK    1  A    between atoms: C2_2  and  C3_3 
ROOT
HETATM    1  C3  UNL     1      24.422  18.314  -7.861  1.00  0.00     0.090 C 
HETATM    2  N1  UNL     1      24.496  18.119  -9.252  1.00  0.00    -0.095 NA
HETATM    3  S1  UNL     1      25.729  18.863  -7.052  1.00  0.00    -0.069 SA
ENDROOT
BRANCH   1   4
HETATM    4  C2  UNL     1      23.172  18.031  -7.094  1.00  0.00     0.062 C 
HETATM    5  C1  UNL     1      22.427  16.882  -7.699  1.00  0.00     0.012 C 
ENDBRANCH   1   4
TORSDOF 1
ENDMDL
MODEL 5
REMARK VINA RESULT: -3.439894324      1.800      2.312
REMARK  1 active torsions:
REMARK  status: ('A' for Active; 'I' for Inactive)
REMARK    1  A    between atoms: C2_2  and  C3_3 
ROOT
HETATM    1  C3  UNL     1      24.356  18.736  -7.763  1.00  0.00     0.090 C 
HETATM    2  N1  UNL     1      24.884  19.894  -7.163  1.00  0.00    -0.095 NA
HETATM    3  S1  UNL     1      23.128  17.941  -7.038  1.00  0.00    -0.069 SA
ENDROOT
BRANCH   1   4
HETATM    4  C2  UNL     1      24.889  18.207  -9.053  1.00  0.00     0.062 C 
HETATM    5  C1  UNL     1      25.894  17.125  -8.808  1.00  0.00     0.012 C 
ENDBRANCH   1   4
TORSDOF 1
ENDMDL
