MODEL 1
REMARK VINA RESULT: -4.188294179      0.000      0.000
REMARK  2 active torsions:
REMARK  status: ('A' for Active; 'I' for Inactive)
REMARK    1  A    between atoms: C1_4  and  C2_5 
REMARK    2  A    between atoms: C3_6  and  C4_7 
ROOT
HETATM    1  C2  UNL     1      24.048  18.661  -7.397  1.00  0.00    -0.059 C 
HETATM    2  C3  UNL     1      24.899  19.513  -7.462  1.00  0.00    -0.070 C 
ENDROOT
BRANCH   1   3
HETATM    3  C1  UNL     1      23.039  17.651  -7.342  1.00  0.00     0.146 C 
HETATM    4  N1  UNL     1      23.011  16.708  -8.221  1.00  0.00    -0.401 N 
ATOM      5  H12 UNL     1      23.722  16.697  -8.952  1.00  0.00     0.156 HD
ATOM      6  H11 UNL     1      22.290  15.987  -8.182  1.00  0.00     0.156 HD
ENDBRANCH   1   3
BRANCH   2   7
HETATM    7  C4  UNL     1      25.956  20.548  -7.562  1.00  0.00     0.200 A 
HETATM    8  C5  UNL     1      26.695  20.827  -6.402  1.00  0.00     0.095 A 
HETATM    9  N2  UNL     1      25.752  21.675  -6.784  1.00  0.00    -0.380 N 
ATOM     10  H2  UNL     1      25.239  22.542  -6.621  1.00  0.00     0.160 HD
ENDBRANCH   2   7
TORSDOF 2
ENDMDL
MODEL 2
REMARK VINA RESULT: -4.132048925      1.255      1.255
REMARK  2 active torsions:
REMARK  status: ('A' for Active; 'I' for Inactive)
REMARK    1  A    between atoms: C1_4  and  C2_5 
REMARK    2  A    between atoms: C3_6  and  C4_7 
ROOT
HETATM    1  C2  UNL     1      24.150  18.639  -7.389  1.00  0.00    -0.059 C 
HETATM    2  C3  UNL     1      25.045  19.448  -7.374  1.00  0.00    -0.070 C 
ENDROOT
BRANCH   1   3
HETATM    3  C1  UNL     1      23.103  17.667  -7.393  1.00  0.00     0.146 C 
HETATM    4  N1  UNL     1      22.140  17.742  -6.539  1.00  0.00    -0.401 N 
ATOM      5  H12 UNL     1      22.141  18.507  -5.864  1.00  0.00     0.156 HD
ATOM      6  H11 UNL     1      21.392  17.048  -6.541  1.00  0.00     0.156 HD
ENDBRANCH   1   3
BRANCH   2   7
HETATM    7  C4  UNL     1      26.149  20.436  -7.332  1.00  0.00     0.200 A 
HETATM    8  C5  UNL     1      27.458  19.943  -7.452  1.00  0.00     0.095 A 
HETATM    9  N2  UNL     1      27.014  20.307  -6.258  1.00  0.00    -0.380 N 
ATOM     10  H2  UNL     1      27.186  20.416  -5.258  1.00  0.00     0.160 HD
ENDBRANCH   2   7
TORSDOF 2
ENDMDL
MODEL 3
REMARK VINA RESULT: -4.115497203      1.149      1.375
REMARK  2 active torsions:
REMARK  status: ('A' for Active; 'I' for Inactive)
REMARK    1  A    between atoms: C1_4  and  C2_5 
REMARK    2  A    between atoms: C3_6  and  C4_7 
ROOT
HETATM    1  C2  UNL     1      24.104  18.651  -7.397  1.00  0.00    -0.059 C 
HETATM    2  C3  UNL     1      24.989  19.464  -7.484  1.00  0.00    -0.070 C 
ENDROOT
BRANCH   1   3
HETATM    3  C1  UNL     1      23.057  17.681  -7.318  1.00  0.00     0.146 C 
HETATM    4  N1  UNL     1      22.974  16.737  -8.192  1.00  0.00    -0.401 N 
ATOM      5  H12 UNL     1      23.667  16.697  -8.938  1.00  0.00     0.156 HD
ATOM      6  H11 UNL     1      22.226  16.045  -8.135  1.00  0.00     0.156 HD
ENDBRANCH   1   3
BRANCH   2   7
HETATM    7  C4  UNL     1      26.090  20.450  -7.606  1.00  0.00     0.200 A 
HETATM    8  C5  UNL     1      26.626  20.659  -8.886  1.00  0.00     0.095 A 
HETATM    9  N2  UNL     1      27.306  19.927  -8.016  1.00  0.00    -0.380 N 
ATOM     10  H2  UNL     1      28.134  19.373  -7.800  1.00  0.00     0.160 HD
ENDBRANCH   2   7
TORSDOF 2
ENDMDL
MODEL 4
REMARK VINA RESULT: -4.052312914      1.241      1.310
REMARK  2 active torsions:
REMARK  status: ('A' for Active; 'I' for Inactive)
REMARK    1  A    between atoms: C1_4  and  C2_5 
REMARK    2  A    between atoms: C3_6  and  C4_7 
ROOT
HETATM    1  C2  UNL     1      24.485  18.337  -7.115  1.00  0.00    -0.059 C 
HETATM    2  C3  UNL     1      25.556  18.803  -6.816  1.00  0.00    -0.070 C 
ENDROOT
BRANCH   1   3
HETATM    3  C1  UNL     1      23.219  17.768  -7.454  1.00  0.00     0.146 C 
HETATM    4  N1  UNL     1      23.151  16.749  -8.242  1.00  0.00    -0.401 N 
ATOM      5  H12 UNL     1      24.016  16.360  -8.616  1.00  0.00     0.156 HD
ATOM      6  H11 UNL     1      22.247  16.343  -8.484  1.00  0.00     0.156 HD
ENDBRANCH   1   3
BRANCH   2   7
HETATM    7  C4  UNL     1      26.870  19.368  -6.425  1.00  0.00     0.200 A 
HETATM    8  C5  UNL     1      27.022  20.761  -6.511  1.00  0.00     0.095 A 
HETATM    9  N2  UNL     1      27.568  19.994  -7.443  1.00  0.00    -0.380 N 
ATOM     10  H2  UNL     1      28.115  19.919  -8.301  1.00  0.00     0.160 HD
ENDBRANCH   2   7
TORSDOF 2
ENDMDL
MODEL 5
REMARK VINA RESULT: -3.975704097      1.121      1.121
REMARK  2 active torsions:
REMARK  status: ('A' for Active; 'I' for Inactive)
REMARK    1  A    between atoms: C1_4  and  C2_5 
REMARK    2  A    between atoms: C3_6  and  C4_7 
ROOT
HETATM    1  C2  UNL     1      24.354  18.651  -7.363  1.00  0.00    -0.059 C 
HETATM    2  C3  UNL     1      25.268  19.433  -7.281  1.00  0.00    -0.070 C 
ENDROOT
BRANCH   1   3
HETATM    3  C1  UNL     1      23.259  17.737  -7.444  1.00  0.00     0.146 C 
HETATM    4  N1  UNL     1      22.290  17.801  -6.595  1.00  0.00    -0.401 N 
ATOM      5  H12 UNL     1      22.322  18.515  -5.867  1.00  0.00     0.156 HD
ATOM      6  H11 UNL     1      21.509  17.148  -6.653  1.00  0.00     0.156 HD
ENDBRANCH   1   3
BRANCH   2   7
HETATM    7  C4  UNL     1      26.375  20.414  -7.177  1.00  0.00     0.200 A 
HETATM    8  C5  UNL     1      26.032  21.743  -6.885  1.00  0.00     0.095 A 
HETATM    9  N2  UNL     1      26.361  21.421  -8.127  1.00  0.00    -0.380 N 
ATOM     10  H2  UNL     1      26.504  21.710  -9.095  1.00  0.00     0.160 HD
ENDBRANCH   2   7
TORSDOF 2
ENDMDL
