MODEL 1
REMARK VINA RESULT: -4.278700296      0.000      0.000
REMARK  3 active torsions:
REMARK  status: ('A' for Active; 'I' for Inactive)
REMARK    1  A    between atoms: C3_3  and  C4_4 
REMARK    2  A    between atoms: C5_5  and  C6_6 
REMARK    3  A    between atoms: C6_6  and  N1_7 
ROOT
HETATM    1  C1  UNL     1      27.826  20.305 -10.839  1.00  0.00     0.113 C 
HETATM    2  C2  UNL     1      26.768  19.547 -10.163  1.00  0.00    -0.097 C 
HETATM    3  C3  UNL     1      25.886  18.938  -9.598  1.00  0.00    -0.015 C 
ENDROOT
BRANCH   3   4
HETATM    4  C4  UNL     1      24.836  18.241  -8.931  1.00  0.00    -0.013 C 
HETATM    5  C5  UNL     1      23.930  17.658  -8.378  1.00  0.00    -0.065 C 
BRANCH   5   6
HETATM    6  C6  UNL     1      22.820  16.963  -7.723  1.00  0.00     0.324 C 
BRANCH   6   7
HETATM    7  N1  UNL     1      22.354  17.825  -6.649  1.00  0.00    -0.069 N 
ATOM      8  H13 UNL     1      22.753  17.585  -5.741  1.00  0.00     0.275 HD
ATOM      9  H12 UNL     1      22.725  18.774  -6.707  1.00  0.00     0.275 HD
ATOM     10  H11 UNL     1      21.335  17.792  -6.661  1.00  0.00     0.275 HD
ENDBRANCH   6   7
ENDBRANCH   5   6
ENDBRANCH   3   4
TORSDOF 3
ENDMDL
MODEL 2
REMARK VINA RESULT: -4.255715162      2.647      2.654
REMARK  3 active torsions:
REMARK  status: ('A' for Active; 'I' for Inactive)
REMARK    1  A    between atoms: C3_3  and  C4_4 
REMARK    2  A    between atoms: C5_5  and  C6_6 
REMARK    3  A    between atoms: C6_6  and  N1_7 
ROOT
HETATM    1  C1  UNL     1      27.192  22.907  -7.120  1.00  0.00     0.113 C 
HETATM    2  C2  UNL     1      26.355  21.709  -7.234  1.00  0.00    -0.097 C 
HETATM    3  C3  UNL     1      25.653  20.724  -7.312  1.00  0.00    -0.015 C 
ENDROOT
BRANCH   3   4
HETATM    4  C4  UNL     1      24.811  19.576  -7.390  1.00  0.00    -0.013 C 
HETATM    5  C5  UNL     1      24.079  18.614  -7.459  1.00  0.00    -0.065 C 
BRANCH   5   6
HETATM    6  C6  UNL     1      23.176  17.464  -7.543  1.00  0.00     0.324 C 
BRANCH   6   7
HETATM    7  N1  UNL     1      22.118  17.683  -6.570  1.00  0.00    -0.069 N 
ATOM      8  H13 UNL     1      22.278  18.501  -5.982  1.00  0.00     0.275 HD
ATOM      9  H12 UNL     1      21.244  17.995  -6.992  1.00  0.00     0.275 HD
ATOM     10  H11 UNL     1      22.020  16.818  -6.037  1.00  0.00     0.275 HD
ENDBRANCH   6   7
ENDBRANCH   5   6
ENDBRANCH   3   4
TORSDOF 3
ENDMDL
MODEL 3
REMARK VINA RESULT: -4.239297437      3.408      5.089
REMARK  3 active torsions:
REMARK  status: ('A' for Active; 'I' for Inactive)
REMARK    1  A    between atoms: C3_3  and  C4_4 
REMARK    2  A    between atoms: C5_5  and  C6_6 
REMARK    3  A    between atoms: C6_6  and  N1_7 
ROOT
HETATM    1  C1  UNL     1      22.625  16.781  -7.785  1.00  0.00     0.113 C 
HETATM    2  C2  UNL     1      23.545  17.908  -7.597  1.00  0.00    -0.097 C 
HETATM    3  C3  UNL     1      24.291  18.851  -7.451  1.00  0.00    -0.015 C 
ENDROOT
BRANCH   3   4
HETATM    4  C4  UNL     1      25.151  19.975  -7.280  1.00  0.00    -0.013 C 
HETATM    5  C5  UNL     1      25.871  20.936  -7.118  1.00  0.00    -0.065 C 
BRANCH   5   6
HETATM    6  C6  UNL     1      26.729  22.103  -6.905  1.00  0.00     0.324 C 
BRANCH   6   7
HETATM    7  N1  UNL     1      26.814  22.311  -5.468  1.00  0.00    -0.069 N 
ATOM      8  H13 UNL     1      26.928  21.443  -4.944  1.00  0.00     0.275 HD
ATOM      9  H12 UNL     1      27.685  22.754  -5.178  1.00  0.00     0.275 HD
ATOM     10  H11 UNL     1      25.984  22.838  -5.194  1.00  0.00     0.275 HD
ENDBRANCH   6   7
ENDBRANCH   5   6
ENDBRANCH   3   4
TORSDOF 3
ENDMDL
MODEL 4
REMARK VINA RESULT: -4.217396997      3.460      5.097
REMARK  3 active torsions:
REMARK  status: ('A' for Active; 'I' for Inactive)
REMARK    1  A    between atoms: C3_3  and  C4_4 
REMARK    2  A    between atoms: C5_5  and  C6_6 
REMARK    3  A    between atoms: C6_6  and  N1_7 
ROOT
HETATM    1  C1  UNL     1      22.372  16.827  -7.781  1.00  0.00     0.113 C 
HETATM    2  C2  UNL     1      23.528  17.685  -7.499  1.00  0.00    -0.097 C 
HETATM    3  C3  UNL     1      24.484  18.385  -7.248  1.00  0.00    -0.015 C 
ENDROOT
BRANCH   3   4
HETATM    4  C4  UNL     1      25.614  19.196  -6.934  1.00  0.00    -0.013 C 
HETATM    5  C5  UNL     1      26.570  19.883  -6.647  1.00  0.00    -0.065 C 
BRANCH   5   6
HETATM    6  C6  UNL     1      27.718  20.714  -6.278  1.00  0.00     0.324 C 
BRANCH   6   7
HETATM    7  N1  UNL     1      27.785  20.725  -4.826  1.00  0.00    -0.069 N 
ATOM      8  H13 UNL     1      26.906  20.456  -4.382  1.00  0.00     0.275 HD
ATOM      9  H12 UNL     1      28.358  19.972  -4.445  1.00  0.00     0.275 HD
ATOM     10  H11 UNL     1      28.106  21.653  -4.550  1.00  0.00     0.275 HD
ENDBRANCH   6   7
ENDBRANCH   5   6
ENDBRANCH   3   4
TORSDOF 3
ENDMDL
MODEL 5
REMARK VINA RESULT: -4.173206191      3.537      5.197
REMARK  3 active torsions:
REMARK  status: ('A' for Active; 'I' for Inactive)
REMARK    1  A    between atoms: C3_3  and  C4_4 
REMARK    2  A    between atoms: C5_5  and  C6_6 
REMARK    3  A    between atoms: C6_6  and  N1_7 
ROOT
HETATM    1  C1  UNL     1      22.336  16.856  -7.709  1.00  0.00     0.113 C 
HETATM    2  C2  UNL     1      23.496  17.714  -7.450  1.00  0.00    -0.097 C 
HETATM    3  C3  UNL     1      24.465  18.414  -7.251  1.00  0.00    -0.015 C 
ENDROOT
BRANCH   3   4
HETATM    4  C4  UNL     1      25.613  19.232  -7.038  1.00  0.00    -0.013 C 
HETATM    5  C5  UNL     1      26.595  19.922  -6.876  1.00  0.00    -0.065 C 
BRANCH   5   6
HETATM    6  C6  UNL     1      27.791  20.749  -6.699  1.00  0.00     0.324 C 
BRANCH   6   7
HETATM    7  N1  UNL     1      28.660  20.486  -7.834  1.00  0.00    -0.069 N 
ATOM      8  H13 UNL     1      29.613  20.824  -7.697  1.00  0.00     0.275 HD
ATOM      9  H12 UNL     1      28.888  19.497  -7.944  1.00  0.00     0.275 HD
ATOM     10  H11 UNL     1      28.207  20.886  -8.656  1.00  0.00     0.275 HD
ENDBRANCH   6   7
ENDBRANCH   5   6
ENDBRANCH   3   4
TORSDOF 3
ENDMDL
