MODEL 1
REMARK VINA RESULT: -2.766704239      0.000      0.000
REMARK  0 active torsions:
REMARK  status: ('A' for Active; 'I' for Inactive)
ROOT
HETATM    1  C1  UNL     1      23.794  18.275  -7.234  1.00  0.00     0.160 C 
HETATM    2  S1  UNL     1      25.274  19.210  -7.388  1.00  0.00     0.137 S 
HETATM    3  C2  UNL     1      25.950  19.242  -9.044  1.00  0.00     0.160 C 
HETATM    4  O1  UNL     1      24.978  20.817  -6.910  1.00  0.00    -0.229 OA
HETATM    5  O2  UNL     1      26.474  18.531  -6.364  1.00  0.00    -0.229 OA
ENDROOT
TORSDOF 0
ENDMDL
MODEL 2
REMARK VINA RESULT: -2.766588873      0.033      2.579
REMARK  0 active torsions:
REMARK  status: ('A' for Active; 'I' for Inactive)
ROOT
HETATM    1  C1  UNL     1      25.922  19.213  -9.058  1.00  0.00     0.160 C 
HETATM    2  S1  UNL     1      25.295  19.193  -7.416  1.00  0.00     0.137 S 
HETATM    3  C2  UNL     1      23.771  18.275  -7.227  1.00  0.00     0.160 C 
HETATM    4  O1  UNL     1      26.455  18.506  -6.378  1.00  0.00    -0.229 OA
HETATM    5  O2  UNL     1      24.980  20.806  -6.919  1.00  0.00    -0.229 OA
ENDROOT
TORSDOF 0
ENDMDL
MODEL 3
REMARK VINA RESULT: -2.683266488      2.633      3.051
REMARK  0 active torsions:
REMARK  status: ('A' for Active; 'I' for Inactive)
ROOT
HETATM    1  C1  UNL     1      25.995  19.026 -10.073  1.00  0.00     0.160 C 
HETATM    2  S1  UNL     1      25.469  17.971  -8.769  1.00  0.00     0.137 S 
HETATM    3  C2  UNL     1      25.919  18.548  -7.137  1.00  0.00     0.160 C 
HETATM    4  O1  UNL     1      23.776  17.811  -8.822  1.00  0.00    -0.229 OA
HETATM    5  O2  UNL     1      26.188  16.425  -8.976  1.00  0.00    -0.229 OA
ENDROOT
TORSDOF 0
ENDMDL
MODEL 4
REMARK VINA RESULT: -2.664327286      2.621      3.088
REMARK  0 active torsions:
REMARK  status: ('A' for Active; 'I' for Inactive)
ROOT
HETATM    1  C1  UNL     1      25.780  18.597  -7.142  1.00  0.00     0.160 C 
HETATM    2  S1  UNL     1      25.434  17.980  -8.751  1.00  0.00     0.137 S 
HETATM    3  C2  UNL     1      25.979  19.050 -10.077  1.00  0.00     0.160 C 
HETATM    4  O1  UNL     1      26.194  16.469  -8.950  1.00  0.00    -0.229 OA
HETATM    5  O2  UNL     1      23.737  17.784  -8.923  1.00  0.00    -0.229 OA
ENDROOT
TORSDOF 0
ENDMDL
MODEL 5
REMARK VINA RESULT: -2.645149104      1.993      2.428
REMARK  0 active torsions:
REMARK  status: ('A' for Active; 'I' for Inactive)
ROOT
HETATM    1  C1  UNL     1      26.218  20.104  -8.950  1.00  0.00     0.160 C 
HETATM    2  S1  UNL     1      25.659  20.023  -7.285  1.00  0.00     0.137 S 
HETATM    3  C2  UNL     1      26.747  19.117  -6.192  1.00  0.00     0.160 C 
HETATM    4  O1  UNL     1      25.491  21.601  -6.671  1.00  0.00    -0.229 OA
HETATM    5  O2  UNL     1      24.132  19.238  -7.245  1.00  0.00    -0.229 OA
ENDROOT
TORSDOF 0
ENDMDL
