MODEL 1
REMARK VINA RESULT: -4.643231373      0.000      0.000
REMARK  1 active torsions:
REMARK  status: ('A' for Active; 'I' for Inactive)
REMARK    1  A    between atoms: N1_1  and  C1_5 
ROOT
HETATM    1  C1  UNL     1      25.263  19.154  -7.603  1.00  0.00     0.200 A 
HETATM    2  C2  UNL     1      23.854  19.051  -7.265  1.00  0.00     0.048 A 
HETATM    3  C3  UNL     1      23.039  17.949  -6.995  1.00  0.00    -0.023 A 
HETATM    4  C4  UNL     1      23.538  17.218  -7.885  1.00  0.00    -0.023 A 
HETATM    5  C5  UNL     1      24.453  18.191  -8.326  1.00  0.00     0.048 A 
ENDROOT
BRANCH   1   6
HETATM    6  N1  UNL     1      26.298  18.576  -6.726  1.00  0.00    -0.074 N 
ATOM      7  H13 UNL     1      26.119  18.893  -5.773  1.00  0.00     0.274 HD
ATOM      8  H12 UNL     1      26.123  17.574  -6.649  1.00  0.00     0.274 HD
ATOM      9  H11 UNL     1      27.289  18.710  -6.925  1.00  0.00     0.274 HD
ENDBRANCH   1   6
TORSDOF 1
ENDMDL
MODEL 2
REMARK VINA RESULT: -4.546318001      1.629      2.025
REMARK  1 active torsions:
REMARK  status: ('A' for Active; 'I' for Inactive)
REMARK    1  A    between atoms: N1_1  and  C1_5 
ROOT
HETATM    1  C1  UNL     1      25.384  17.796  -8.854  1.00  0.00     0.200 A 
HETATM    2  C2  UNL     1      24.341  17.029  -8.194  1.00  0.00     0.048 A 
HETATM    3  C3  UNL     1      23.116  17.406  -7.639  1.00  0.00    -0.023 A 
HETATM    4  C4  UNL     1      23.545  18.470  -7.131  1.00  0.00    -0.023 A 
HETATM    5  C5  UNL     1      24.862  18.291  -7.593  1.00  0.00     0.048 A 
ENDROOT
BRANCH   1   6
HETATM    6  N1  UNL     1      25.081  18.630 -10.032  1.00  0.00    -0.074 N 
ATOM      7  H13 UNL     1      25.836  18.510 -10.708  1.00  0.00     0.274 HD
ATOM      8  H12 UNL     1      24.293  18.209 -10.523  1.00  0.00     0.274 HD
ATOM      9  H11 UNL     1      24.898  19.628  -9.935  1.00  0.00     0.274 HD
ENDBRANCH   1   6
TORSDOF 1
ENDMDL
MODEL 3
REMARK VINA RESULT: -4.264214177      1.182      1.613
REMARK  1 active torsions:
REMARK  status: ('A' for Active; 'I' for Inactive)
REMARK    1  A    between atoms: N1_1  and  C1_5 
ROOT
HETATM    1  C1  UNL     1      25.919  18.357  -7.736  1.00  0.00     0.200 A 
HETATM    2  C2  UNL     1      24.889  17.362  -7.981  1.00  0.00     0.048 A 
HETATM    3  C3  UNL     1      23.496  17.460  -8.044  1.00  0.00    -0.023 A 
HETATM    4  C4  UNL     1      23.394  18.261  -7.084  1.00  0.00    -0.023 A 
HETATM    5  C5  UNL     1      24.779  18.314  -6.838  1.00  0.00     0.048 A 
ENDROOT
BRANCH   1   6
HETATM    6  N1  UNL     1      26.018  19.568  -8.571  1.00  0.00    -0.074 N 
ATOM      7  H13 UNL     1      25.130  19.691  -9.058  1.00  0.00     0.274 HD
ATOM      8  H12 UNL     1      26.031  20.379  -7.952  1.00  0.00     0.274 HD
ATOM      9  H11 UNL     1      26.771  19.676  -9.251  1.00  0.00     0.274 HD
ENDBRANCH   1   6
TORSDOF 1
ENDMDL
MODEL 4
REMARK VINA RESULT: -4.058749528      1.691      2.510
REMARK  1 active torsions:
REMARK  status: ('A' for Active; 'I' for Inactive)
REMARK    1  A    between atoms: N1_1  and  C1_5 
ROOT
HETATM    1  C1  UNL     1      24.343  17.738  -8.211  1.00  0.00     0.200 A 
HETATM    2  C2  UNL     1      24.204  18.910  -7.364  1.00  0.00     0.048 A 
HETATM    3  C3  UNL     1      25.004  20.045  -7.205  1.00  0.00    -0.023 A 
HETATM    4  C4  UNL     1      26.093  19.425  -7.263  1.00  0.00    -0.023 A 
HETATM    5  C5  UNL     1      25.494  18.164  -7.435  1.00  0.00     0.048 A 
ENDROOT
BRANCH   1   6
HETATM    6  N1  UNL     1      24.485  17.872  -9.673  1.00  0.00    -0.074 N 
ATOM      7  H13 UNL     1      24.395  18.860  -9.911  1.00  0.00     0.274 HD
ATOM      8  H12 UNL     1      25.458  17.686  -9.914  1.00  0.00     0.274 HD
ATOM      9  H11 UNL     1      23.893  17.337 -10.308  1.00  0.00     0.274 HD
ENDBRANCH   1   6
TORSDOF 1
ENDMDL
MODEL 5
REMARK VINA RESULT: -3.986293321      1.674      2.589
REMARK  1 active torsions:
REMARK  status: ('A' for Active; 'I' for Inactive)
REMARK    1  A    between atoms: N1_1  and  C1_5 
ROOT
HETATM    1  C1  UNL     1      23.806  18.142  -7.232  1.00  0.00     0.200 A 
HETATM    2  C2  UNL     1      24.443  19.420  -7.502  1.00  0.00     0.048 A 
HETATM    3  C3  UNL     1      25.673  19.744  -8.080  1.00  0.00    -0.023 A 
HETATM    4  C4  UNL     1      26.309  18.820  -7.517  1.00  0.00    -0.023 A 
HETATM    5  C5  UNL     1      25.189  18.319  -6.828  1.00  0.00     0.048 A 
ENDROOT
BRANCH   1   6
HETATM    6  N1  UNL     1      23.585  17.162  -8.310  1.00  0.00    -0.074 N 
ATOM      7  H13 UNL     1      23.373  17.675  -9.167  1.00  0.00     0.274 HD
ATOM      8  H12 UNL     1      24.482  16.735  -8.539  1.00  0.00     0.274 HD
ATOM      9  H11 UNL     1      22.896  16.416  -8.208  1.00  0.00     0.274 HD
ENDBRANCH   1   6
TORSDOF 1
ENDMDL
