MODEL 1
REMARK VINA RESULT: -6.278514452      0.000      0.000
REMARK  2 active torsions:
REMARK  status: ('A' for Active; 'I' for Inactive)
REMARK    1  A    between atoms: O1_1  and  C1_3 
REMARK    2  A    between atoms: C4_7  and  C5_8 
ROOT
HETATM    1  C1  UNL     1      25.754  19.094  -8.737  1.00  0.00     0.149 C 
HETATM    2  C2  UNL     1      26.558  20.372  -8.454  1.00  0.00     0.060 C 
HETATM    3  C3  UNL     1      25.818  20.941  -7.272  1.00  0.00     0.171 C 
HETATM    4  O2  UNL     1      25.481  19.760  -6.581  1.00  0.00    -0.383 OA
HETATM    5  C4  UNL     1      24.811  19.073  -7.616  1.00  0.00     0.158 C 
ENDROOT
BRANCH   5   6
HETATM    6  C5  UNL     1      24.303  17.762  -7.124  1.00  0.00     0.043 A 
HETATM    7  C6  UNL     1      23.950  16.723  -8.028  1.00  0.00    -0.023 A 
HETATM    8  C7  UNL     1      22.704  16.705  -7.658  1.00  0.00    -0.029 A 
HETATM    9  C8  UNL     1      22.913  17.772  -6.680  1.00  0.00     0.038 A 
ENDBRANCH   5   6
BRANCH   1  10
HETATM   10  O1  UNL     1      26.642  18.074  -8.863  1.00  0.00    -0.393 OA
ATOM     11  H1  UNL     1      26.538  17.712  -9.734  1.00  0.00     0.210 HD
ENDBRANCH   1  10
TORSDOF 2
ENDMDL
MODEL 2
REMARK VINA RESULT: -6.134303042      1.311      3.679
REMARK  2 active torsions:
REMARK  status: ('A' for Active; 'I' for Inactive)
REMARK    1  A    between atoms: O1_1  and  C1_3 
REMARK    2  A    between atoms: C4_7  and  C5_8 
ROOT
HETATM    1  C1  UNL     1      24.333  17.279  -8.483  1.00  0.00     0.149 C 
HETATM    2  C2  UNL     1      23.021  16.813  -7.832  1.00  0.00     0.060 C 
HETATM    3  C3  UNL     1      22.995  17.642  -6.575  1.00  0.00     0.171 C 
HETATM    4  O2  UNL     1      23.538  18.853  -7.048  1.00  0.00    -0.383 OA
HETATM    5  C4  UNL     1      24.747  18.364  -7.591  1.00  0.00     0.158 C 
ENDROOT
BRANCH   5   6
HETATM    6  C5  UNL     1      25.557  19.486  -8.144  1.00  0.00     0.043 A 
HETATM    7  C6  UNL     1      26.972  19.389  -8.246  1.00  0.00    -0.023 A 
HETATM    8  C7  UNL     1      27.185  20.384  -7.436  1.00  0.00    -0.029 A 
HETATM    9  C8  UNL     1      25.755  20.606  -7.231  1.00  0.00     0.038 A 
ENDBRANCH   5   6
BRANCH   1  10
HETATM   10  O1  UNL     1      24.062  17.569  -9.782  1.00  0.00    -0.393 OA
ATOM     11  H1  UNL     1      24.794  17.257 -10.302  1.00  0.00     0.210 HD
ENDBRANCH   1  10
TORSDOF 2
ENDMDL
MODEL 3
REMARK VINA RESULT: -6.076629792      1.344      1.508
REMARK  2 active torsions:
REMARK  status: ('A' for Active; 'I' for Inactive)
REMARK    1  A    between atoms: O1_1  and  C1_3 
REMARK    2  A    between atoms: C4_7  and  C5_8 
ROOT
HETATM    1  C1  UNL     1      27.019  19.130  -6.848  1.00  0.00     0.149 C 
HETATM    2  C2  UNL     1      27.176  20.653  -6.727  1.00  0.00     0.060 C 
HETATM    3  C3  UNL     1      25.894  21.141  -7.349  1.00  0.00     0.171 C 
HETATM    4  O2  UNL     1      24.992  20.158  -6.896  1.00  0.00    -0.383 OA
HETATM    5  C4  UNL     1      25.655  19.005  -7.368  1.00  0.00     0.158 C 
ENDROOT
BRANCH   5   6
HETATM    6  C5  UNL     1      24.866  17.783  -7.042  1.00  0.00     0.043 A 
HETATM    7  C6  UNL     1      24.596  16.797  -8.029  1.00  0.00    -0.023 A 
HETATM    8  C7  UNL     1      23.308  16.959  -7.964  1.00  0.00    -0.029 A 
HETATM    9  C8  UNL     1      23.426  17.995  -6.938  1.00  0.00     0.038 A 
ENDBRANCH   5   6
BRANCH   1  10
HETATM   10  O1  UNL     1      27.306  18.593  -5.633  1.00  0.00    -0.393 OA
ATOM     11  H1  UNL     1      28.072  18.042  -5.740  1.00  0.00     0.210 HD
ENDBRANCH   1  10
TORSDOF 2
ENDMDL
MODEL 4
REMARK VINA RESULT: -5.783979457      1.133      2.184
REMARK  2 active torsions:
REMARK  status: ('A' for Active; 'I' for Inactive)
REMARK    1  A    between atoms: O1_1  and  C1_3 
REMARK    2  A    between atoms: C4_7  and  C5_8 
ROOT
HETATM    1  C1  UNL     1      26.157  19.990  -6.684  1.00  0.00     0.149 C 
HETATM    2  C2  UNL     1      27.534  20.379  -7.246  1.00  0.00     0.060 C 
HETATM    3  C3  UNL     1      27.783  19.270  -8.234  1.00  0.00     0.171 C 
HETATM    4  O2  UNL     1      26.482  19.071  -8.737  1.00  0.00    -0.383 OA
HETATM    5  C4  UNL     1      25.799  18.845  -7.523  1.00  0.00     0.158 C 
ENDROOT
BRANCH   5   6
HETATM    6  C5  UNL     1      24.359  18.561  -7.783  1.00  0.00     0.043 A 
HETATM    7  C6  UNL     1      23.564  17.865  -6.832  1.00  0.00    -0.023 A 
HETATM    8  C7  UNL     1      23.320  16.871  -7.634  1.00  0.00    -0.029 A 
HETATM    9  C8  UNL     1      24.110  17.465  -8.712  1.00  0.00     0.038 A 
ENDBRANCH   5   6
BRANCH   1  10
HETATM   10  O1  UNL     1      25.374  21.099  -6.723  1.00  0.00    -0.393 OA
ATOM     11  H1  UNL     1      25.437  21.522  -5.875  1.00  0.00     0.210 HD
ENDBRANCH   1  10
TORSDOF 2
ENDMDL
MODEL 5
REMARK VINA RESULT: -5.756758135      1.436      1.727
REMARK  2 active torsions:
REMARK  status: ('A' for Active; 'I' for Inactive)
REMARK    1  A    between atoms: O1_1  and  C1_3 
REMARK    2  A    between atoms: C4_7  and  C5_8 
ROOT
HETATM    1  C1  UNL     1      26.098  20.094  -7.772  1.00  0.00     0.149 C 
HETATM    2  C2  UNL     1      27.490  19.857  -7.165  1.00  0.00     0.060 C 
HETATM    3  C3  UNL     1      27.180  18.872  -6.069  1.00  0.00     0.171 C 
HETATM    4  O2  UNL     1      26.180  18.097  -6.688  1.00  0.00    -0.383 OA
HETATM    5  C4  UNL     1      25.279  19.125  -7.040  1.00  0.00     0.158 C 
ENDROOT
BRANCH   5   6
HETATM    6  C5  UNL     1      24.072  18.554  -7.701  1.00  0.00     0.043 A 
HETATM    7  C6  UNL     1      23.068  17.886  -6.947  1.00  0.00    -0.023 A 
HETATM    8  C7  UNL     1      23.243  16.750  -7.556  1.00  0.00    -0.029 A 
HETATM    9  C8  UNL     1      24.299  17.297  -8.407  1.00  0.00     0.038 A 
ENDBRANCH   5   6
BRANCH   1  10
HETATM   10  O1  UNL     1      26.214  19.965  -9.119  1.00  0.00    -0.393 OA
ATOM     11  H1  UNL     1      25.805  20.725  -9.514  1.00  0.00     0.210 HD
ENDBRANCH   1  10
TORSDOF 2
ENDMDL
