MODEL 1
REMARK VINA RESULT: -5.103332903      0.000      0.000
REMARK  2 active torsions:
REMARK  status: ('A' for Active; 'I' for Inactive)
REMARK    1  A    between atoms: N1_1  and  C1_5 
REMARK    2  A    between atoms: N2_9  and  C5_10 
ROOT
HETATM    1  C1  UNL     1      27.569  19.422  -6.631  1.00  0.00     0.211 C 
HETATM    2  C2  UNL     1      26.869  20.690  -6.224  1.00  0.00     0.036 C 
HETATM    3  C3  UNL     1      25.925  20.994  -7.382  1.00  0.00     0.032 C 
HETATM    4  C4  UNL     1      24.878  19.925  -7.356  1.00  0.00     0.273 C 
HETATM    5  N2  UNL     1      25.342  18.596  -7.357  1.00  0.00     0.095 N 
HETATM    6  C8  UNL     1      26.630  18.300  -6.874  1.00  0.00     0.305 C 
ENDROOT
BRANCH   1   7
HETATM    7  N1  UNL     1      28.346  19.635  -7.849  1.00  0.00    -0.073 N 
ATOM      8  H13 UNL     1      28.636  20.608  -7.949  1.00  0.00     0.274 HD
ATOM      9  H12 UNL     1      29.269  19.207  -7.791  1.00  0.00     0.274 HD
ATOM     10  H11 UNL     1      27.827  19.309  -8.664  1.00  0.00     0.274 HD
ENDBRANCH   1   7
BRANCH   5  11
HETATM   11  C5  UNL     1      24.399  17.652  -6.816  1.00  0.00     0.223 A 
HETATM   12  C6  UNL     1      23.536  17.003  -7.918  1.00  0.00     0.038 A 
HETATM   13  C7  UNL     1      22.943  17.851  -6.861  1.00  0.00     0.038 A 
ENDBRANCH   5  11
TORSDOF 2
ENDMDL
MODEL 2
REMARK VINA RESULT: -5.027394222      1.060      1.086
REMARK  2 active torsions:
REMARK  status: ('A' for Active; 'I' for Inactive)
REMARK    1  A    between atoms: N1_1  and  C1_5 
REMARK    2  A    between atoms: N2_9  and  C5_10 
ROOT
HETATM    1  C1  UNL     1      27.432  19.102  -8.357  1.00  0.00     0.211 C 
HETATM    2  C2  UNL     1      27.341  20.199  -7.332  1.00  0.00     0.036 C 
HETATM    3  C3  UNL     1      26.015  20.892  -7.629  1.00  0.00     0.032 C 
HETATM    4  C4  UNL     1      24.945  19.910  -7.270  1.00  0.00     0.273 C 
HETATM    5  N2  UNL     1      25.044  18.635  -7.858  1.00  0.00     0.095 N 
HETATM    6  C8  UNL     1      26.294  18.153  -8.285  1.00  0.00     0.305 C 
ENDROOT
BRANCH   1   7
HETATM    7  N1  UNL     1      27.467  19.665  -9.705  1.00  0.00    -0.073 N 
ATOM      8  H13 UNL     1      26.532  19.877 -10.052  1.00  0.00     0.274 HD
ATOM      9  H12 UNL     1      27.850  20.610  -9.712  1.00  0.00     0.274 HD
ATOM     10  H11 UNL     1      27.975  19.045 -10.337  1.00  0.00     0.274 HD
ENDBRANCH   1   7
BRANCH   5  11
HETATM   11  C5  UNL     1      24.358  17.603  -7.124  1.00  0.00     0.223 A 
HETATM   12  C6  UNL     1      23.264  16.923  -7.973  1.00  0.00     0.038 A 
HETATM   13  C7  UNL     1      22.938  17.689  -6.750  1.00  0.00     0.038 A 
ENDBRANCH   5  11
TORSDOF 2
ENDMDL
MODEL 3
REMARK VINA RESULT: -4.945964110      2.281      4.202
REMARK  2 active torsions:
REMARK  status: ('A' for Active; 'I' for Inactive)
REMARK    1  A    between atoms: N1_1  and  C1_5 
REMARK    2  A    between atoms: N2_9  and  C5_10 
ROOT
HETATM    1  C1  UNL     1      24.219  17.583  -8.640  1.00  0.00     0.211 C 
HETATM    2  C2  UNL     1      24.099  18.251  -7.298  1.00  0.00     0.036 C 
HETATM    3  C3  UNL     1      25.515  18.234  -6.733  1.00  0.00     0.032 C 
HETATM    4  C4  UNL     1      26.313  19.171  -7.583  1.00  0.00     0.273 C 
HETATM    5  N2  UNL     1      26.271  18.944  -8.972  1.00  0.00     0.095 N 
HETATM    6  C8  UNL     1      25.173  18.274  -9.542  1.00  0.00     0.305 C 
ENDROOT
BRANCH   1   7
HETATM    7  N1  UNL     1      24.664  16.200  -8.483  1.00  0.00    -0.073 N 
ATOM      8  H13 UNL     1      25.573  16.043  -8.918  1.00  0.00     0.274 HD
ATOM      9  H12 UNL     1      24.919  15.990  -7.519  1.00  0.00     0.274 HD
ATOM     10  H11 UNL     1      23.958  15.556  -8.838  1.00  0.00     0.274 HD
ENDBRANCH   1   7
BRANCH   5  11
HETATM   11  C5  UNL     1      26.583  20.107  -9.760  1.00  0.00     0.223 A 
HETATM   12  C6  UNL     1      27.918  19.949 -10.517  1.00  0.00     0.038 A 
HETATM   13  C7  UNL     1      27.728  20.987  -9.480  1.00  0.00     0.038 A 
ENDBRANCH   5  11
TORSDOF 2
ENDMDL
MODEL 4
REMARK VINA RESULT: -4.894059604      1.238      2.032
REMARK  2 active torsions:
REMARK  status: ('A' for Active; 'I' for Inactive)
REMARK    1  A    between atoms: N1_1  and  C1_5 
REMARK    2  A    between atoms: N2_9  and  C5_10 
ROOT
HETATM    1  C1  UNL     1      26.651  20.842  -7.399  1.00  0.00     0.211 C 
HETATM    2  C2  UNL     1      27.750  19.822  -7.283  1.00  0.00     0.036 C 
HETATM    3  C3  UNL     1      27.360  18.975  -6.077  1.00  0.00     0.032 C 
HETATM    4  C4  UNL     1      26.139  18.212  -6.482  1.00  0.00     0.273 C 
HETATM    5  N2  UNL     1      25.068  18.971  -6.991  1.00  0.00     0.095 N 
HETATM    6  C8  UNL     1      25.313  20.227  -7.577  1.00  0.00     0.305 C 
ENDROOT
BRANCH   1   7
HETATM    7  N1  UNL     1      26.608  21.684  -6.206  1.00  0.00    -0.073 N 
ATOM      8  H13 UNL     1      25.757  21.532  -5.666  1.00  0.00     0.274 HD
ATOM      9  H12 UNL     1      27.288  21.387  -5.507  1.00  0.00     0.274 HD
ATOM     10  H11 UNL     1      26.728  22.665  -6.458  1.00  0.00     0.274 HD
ENDBRANCH   1   7
BRANCH   5  11
HETATM   11  C5  UNL     1      24.170  18.219  -7.828  1.00  0.00     0.223 A 
HETATM   12  C6  UNL     1      22.994  17.626  -7.024  1.00  0.00     0.038 A 
HETATM   13  C7  UNL     1      23.984  16.766  -7.709  1.00  0.00     0.038 A 
ENDBRANCH   5  11
TORSDOF 2
ENDMDL
MODEL 5
REMARK VINA RESULT: -4.638469614      1.914      4.166
REMARK  2 active torsions:
REMARK  status: ('A' for Active; 'I' for Inactive)
REMARK    1  A    between atoms: N1_1  and  C1_5 
REMARK    2  A    between atoms: N2_9  and  C5_10 
ROOT
HETATM    1  C1  UNL     1      24.684  17.656  -8.930  1.00  0.00     0.211 C 
HETATM    2  C2  UNL     1      24.064  18.262  -7.700  1.00  0.00     0.036 C 
HETATM    3  C3  UNL     1      25.108  18.060  -6.607  1.00  0.00     0.032 C 
HETATM    4  C4  UNL     1      26.258  18.947  -6.962  1.00  0.00     0.273 C 
HETATM    5  N2  UNL     1      26.784  18.800  -8.259  1.00  0.00     0.095 N 
HETATM    6  C8  UNL     1      25.978  18.285  -9.290  1.00  0.00     0.305 C 
ENDROOT
BRANCH   1   7
HETATM    7  N1  UNL     1      24.914  16.227  -8.734  1.00  0.00    -0.073 N 
ATOM      8  H13 UNL     1      25.825  16.043  -8.315  1.00  0.00     0.274 HD
ATOM      9  H12 UNL     1      24.327  15.846  -7.992  1.00  0.00     0.274 HD
ATOM     10  H11 UNL     1      24.791  15.722  -9.612  1.00  0.00     0.274 HD
ENDBRANCH   1   7
BRANCH   5  11
HETATM   11  C5  UNL     1      27.487  19.962  -8.736  1.00  0.00     0.223 A 
HETATM   12  C6  UNL     1      29.004  19.869  -8.468  1.00  0.00     0.038 A 
HETATM   13  C7  UNL     1      28.165  20.916  -7.846  1.00  0.00     0.038 A 
ENDBRANCH   5  11
TORSDOF 2
ENDMDL
