MODEL 1
REMARK VINA RESULT: -5.836285021      0.000      0.000
REMARK  1 active torsions:
REMARK  status: ('A' for Active; 'I' for Inactive)
REMARK    1  A    between atoms: C3_3  and  N1_4 
ROOT
HETATM    1  N1  UNL     1      24.899  19.021  -7.697  1.00  0.00     0.124 N 
HETATM    2  C4  UNL     1      25.457  18.848  -9.042  1.00  0.00     0.308 C 
HETATM    3  C5  UNL     1      26.592  19.813  -8.875  1.00  0.00     0.157 C 
HETATM    4  C6  UNL     1      27.277  19.206  -7.682  1.00  0.00     0.098 C 
HETATM    5  C7  UNL     1      25.977  19.723  -7.087  1.00  0.00     0.362 C 
HETATM    6  O1  UNL     1      26.135  20.795  -7.982  1.00  0.00    -0.350 OA
ENDROOT
BRANCH   1   7
HETATM    7  C3  UNL     1      24.502  17.802  -7.082  1.00  0.00     0.226 A 
HETATM    8  C2  UNL     1      22.997  17.838  -6.835  1.00  0.00     0.036 A 
HETATM    9  C1  UNL     1      22.774  16.621  -7.701  1.00  0.00     0.004 A 
HETATM   10  C8  UNL     1      24.259  16.645  -8.032  1.00  0.00     0.036 A 
ENDBRANCH   1   7
TORSDOF 1
ENDMDL
MODEL 2
REMARK VINA RESULT: -5.483679421      1.111      1.708
REMARK  1 active torsions:
REMARK  status: ('A' for Active; 'I' for Inactive)
REMARK    1  A    between atoms: C3_3  and  N1_4 
ROOT
HETATM    1  N1  UNL     1      25.469  18.939  -7.376  1.00  0.00     0.124 N 
HETATM    2  C4  UNL     1      25.750  20.374  -7.271  1.00  0.00     0.308 C 
HETATM    3  C5  UNL     1      27.101  20.324  -7.920  1.00  0.00     0.157 C 
HETATM    4  C6  UNL     1      26.731  19.715  -9.245  1.00  0.00     0.098 C 
HETATM    5  C7  UNL     1      26.504  18.563  -8.278  1.00  0.00     0.362 C 
HETATM    6  O1  UNL     1      27.633  19.063  -7.607  1.00  0.00    -0.350 OA
ENDROOT
BRANCH   1   7
HETATM    7  C3  UNL     1      24.135  18.647  -7.777  1.00  0.00     0.226 A 
HETATM    8  C2  UNL     1      24.149  17.432  -8.699  1.00  0.00     0.036 A 
HETATM    9  C1  UNL     1      23.259  16.648  -7.764  1.00  0.00     0.004 A 
HETATM   10  C8  UNL     1      23.328  17.820  -6.795  1.00  0.00     0.036 A 
ENDBRANCH   1   7
TORSDOF 1
ENDMDL
MODEL 3
REMARK VINA RESULT: -5.470524807      1.219      1.880
REMARK  1 active torsions:
REMARK  status: ('A' for Active; 'I' for Inactive)
REMARK    1  A    between atoms: C3_3  and  N1_4 
ROOT
HETATM    1  N1  UNL     1      25.818  18.577  -7.783  1.00  0.00     0.124 N 
HETATM    2  C4  UNL     1      26.232  18.349  -6.394  1.00  0.00     0.308 C 
HETATM    3  C5  UNL     1      27.287  19.415  -6.362  1.00  0.00     0.157 C 
HETATM    4  C6  UNL     1      26.456  20.616  -6.722  1.00  0.00     0.098 C 
HETATM    5  C7  UNL     1      26.467  19.822  -8.019  1.00  0.00     0.362 C 
HETATM    6  O1  UNL     1      27.790  19.500  -7.669  1.00  0.00    -0.350 OA
ENDROOT
BRANCH   1   7
HETATM    7  C3  UNL     1      24.408  18.547  -7.970  1.00  0.00     0.226 A 
HETATM    8  C2  UNL     1      24.051  17.363  -8.862  1.00  0.00     0.036 A 
HETATM    9  C1  UNL     1      23.184  16.749  -7.789  1.00  0.00     0.004 A 
HETATM   10  C8  UNL     1      23.620  17.875  -6.862  1.00  0.00     0.036 A 
ENDBRANCH   1   7
TORSDOF 1
ENDMDL
MODEL 4
REMARK VINA RESULT: -5.330896109      1.608      3.860
REMARK  1 active torsions:
REMARK  status: ('A' for Active; 'I' for Inactive)
REMARK    1  A    between atoms: C3_3  and  N1_4 
ROOT
HETATM    1  N1  UNL     1      24.814  18.870  -7.880  1.00  0.00     0.124 N 
HETATM    2  C4  UNL     1      24.218  17.924  -6.930  1.00  0.00     0.308 C 
HETATM    3  C5  UNL     1      23.966  16.830  -7.925  1.00  0.00     0.157 C 
HETATM    4  C6  UNL     1      25.364  16.617  -8.437  1.00  0.00     0.098 C 
HETATM    5  C7  UNL     1      25.020  17.994  -8.983  1.00  0.00     0.362 C 
HETATM    6  O1  UNL     1      23.727  17.471  -9.150  1.00  0.00    -0.350 OA
ENDROOT
BRANCH   1   7
HETATM    7  C3  UNL     1      25.962  19.540  -7.373  1.00  0.00     0.226 A 
HETATM    8  C2  UNL     1      26.868  19.924  -8.539  1.00  0.00     0.036 A 
HETATM    9  C1  UNL     1      26.767  21.392  -8.200  1.00  0.00     0.004 A 
HETATM   10  C8  UNL     1      25.782  21.021  -7.101  1.00  0.00     0.036 A 
ENDBRANCH   1   7
TORSDOF 1
ENDMDL
MODEL 5
REMARK VINA RESULT: -5.269022751      1.658      3.706
REMARK  1 active torsions:
REMARK  status: ('A' for Active; 'I' for Inactive)
REMARK    1  A    between atoms: C3_3  and  N1_4 
ROOT
HETATM    1  N1  UNL     1      25.078  18.898  -8.006  1.00  0.00     0.124 N 
HETATM    2  C4  UNL     1      24.679  18.008  -6.910  1.00  0.00     0.308 C 
HETATM    3  C5  UNL     1      24.200  16.883  -7.780  1.00  0.00     0.157 C 
HETATM    4  C6  UNL     1      25.453  16.610  -8.566  1.00  0.00     0.098 C 
HETATM    5  C7  UNL     1      25.028  17.974  -9.087  1.00  0.00     0.362 C 
HETATM    6  O1  UNL     1      23.718  17.482  -8.954  1.00  0.00    -0.350 OA
ENDROOT
BRANCH   1   7
HETATM    7  C3  UNL     1      26.320  19.555  -7.784  1.00  0.00     0.226 A 
HETATM    8  C2  UNL     1      26.051  20.987  -7.334  1.00  0.00     0.036 A 
HETATM    9  C1  UNL     1      26.772  20.766  -6.026  1.00  0.00     0.004 A 
HETATM   10  C8  UNL     1      26.952  19.308  -6.428  1.00  0.00     0.036 A 
ENDBRANCH   1   7
TORSDOF 1
ENDMDL
