MODEL 1
REMARK VINA RESULT: -5.161712763      0.000      0.000
REMARK  3 active torsions:
REMARK  status: ('A' for Active; 'I' for Inactive)
REMARK    1  A    between atoms: O1_1  and  S1_3 
REMARK    2  A    between atoms: S1_3  and  C1_4 
REMARK    3  A    between atoms: C5_8  and  O2_9 
ROOT
HETATM    1  C1  UNL     1      24.717  17.662  -7.781  1.00  0.00     0.078 C 
HETATM    2  C2  UNL     1      25.155  17.722  -9.203  1.00  0.00     0.017 C 
HETATM    3  C3  UNL     1      26.230  18.694  -9.523  1.00  0.00     0.004 C 
HETATM    4  C4  UNL     1      26.270  19.949  -8.741  1.00  0.00     0.032 C 
HETATM    5  C5  UNL     1      25.458  20.060  -7.515  1.00  0.00     0.119 C 
HETATM    6  C6  UNL     1      24.416  19.034  -7.266  1.00  0.00     0.049 C 
ENDROOT
BRANCH   1   7
HETATM    7  S1  UNL     1      23.112  16.781  -7.802  1.00  0.00    -0.011 SA
BRANCH   7   8
HETATM    8  O1  UNL     1      22.159  17.492  -6.551  1.00  0.00    -0.329 OA
ATOM      9  H1  UNL     1      21.533  16.827  -6.287  1.00  0.00     0.227 HD
ENDBRANCH   7   8
ENDBRANCH   1   7
BRANCH   5  10
HETATM   10  O2  UNL     1      26.250  20.217  -6.363  1.00  0.00    -0.396 OA
ATOM     11  H2  UNL     1      27.126  19.869  -6.477  1.00  0.00     0.210 HD
ENDBRANCH   5  10
TORSDOF 3
ENDMDL
MODEL 2
REMARK VINA RESULT: -5.044577318      2.445      3.904
REMARK  3 active torsions:
REMARK  status: ('A' for Active; 'I' for Inactive)
REMARK    1  A    between atoms: O1_1  and  S1_3 
REMARK    2  A    between atoms: S1_3  and  C1_4 
REMARK    3  A    between atoms: C5_8  and  O2_9 
ROOT
HETATM    1  C1  UNL     1      25.579  18.772  -7.492  1.00  0.00     0.078 C 
HETATM    2  C2  UNL     1      24.177  18.994  -7.042  1.00  0.00     0.017 C 
HETATM    3  C3  UNL     1      23.283  17.809  -7.060  1.00  0.00     0.004 C 
HETATM    4  C4  UNL     1      23.512  16.797  -8.115  1.00  0.00     0.032 C 
HETATM    5  C5  UNL     1      24.759  16.844  -8.899  1.00  0.00     0.119 C 
HETATM    6  C6  UNL     1      25.603  18.061  -8.808  1.00  0.00     0.049 C 
ENDROOT
BRANCH   1   7
HETATM    7  S1  UNL     1      26.253  20.442  -7.823  1.00  0.00    -0.011 SA
BRANCH   7   8
HETATM    8  O1  UNL     1      25.521  21.492  -6.666  1.00  0.00    -0.329 OA
ATOM      9  H1  UNL     1      25.110  22.189  -7.165  1.00  0.00     0.227 HD
ENDBRANCH   7   8
ENDBRANCH   1   7
BRANCH   5  10
HETATM   10  O2  UNL     1      25.558  15.701  -8.701  1.00  0.00    -0.396 OA
ATOM     11  H2  UNL     1      25.341  15.002  -9.305  1.00  0.00     0.210 HD
ENDBRANCH   5  10
TORSDOF 3
ENDMDL
MODEL 3
REMARK VINA RESULT: -4.890547403      2.189      3.525
REMARK  3 active torsions:
REMARK  status: ('A' for Active; 'I' for Inactive)
REMARK    1  A    between atoms: O1_1  and  S1_3 
REMARK    2  A    between atoms: S1_3  and  C1_4 
REMARK    3  A    between atoms: C5_8  and  O2_9 
ROOT
HETATM    1  C1  UNL     1      26.072  19.466  -7.570  1.00  0.00     0.078 C 
HETATM    2  C2  UNL     1      26.235  19.000  -8.976  1.00  0.00     0.017 C 
HETATM    3  C3  UNL     1      25.085  18.270  -9.566  1.00  0.00     0.004 C 
HETATM    4  C4  UNL     1      24.268  17.435  -8.659  1.00  0.00     0.032 C 
HETATM    5  C5  UNL     1      24.430  17.585  -7.201  1.00  0.00     0.119 C 
HETATM    6  C6  UNL     1      25.599  18.346  -6.697  1.00  0.00     0.049 C 
ENDROOT
BRANCH   1   7
HETATM    7  S1  UNL     1      27.762  19.862  -6.990  1.00  0.00    -0.011 SA
BRANCH   7   8
HETATM    8  O1  UNL     1      27.888  19.207  -5.398  1.00  0.00    -0.329 OA
ATOM      9  H1  UNL     1      28.782  19.367  -5.117  1.00  0.00     0.227 HD
ENDBRANCH   7   8
ENDBRANCH   1   7
BRANCH   5  10
HETATM   10  O2  UNL     1      23.258  18.055  -6.579  1.00  0.00    -0.396 OA
ATOM     11  H2  UNL     1      23.248  17.875  -5.647  1.00  0.00     0.210 HD
ENDBRANCH   5  10
TORSDOF 3
ENDMDL
MODEL 4
REMARK VINA RESULT: -4.812606816      1.921      3.524
REMARK  3 active torsions:
REMARK  status: ('A' for Active; 'I' for Inactive)
REMARK    1  A    between atoms: O1_1  and  S1_3 
REMARK    2  A    between atoms: S1_3  and  C1_4 
REMARK    3  A    between atoms: C5_8  and  O2_9 
ROOT
HETATM    1  C1  UNL     1      25.363  19.294  -7.419  1.00  0.00     0.078 C 
HETATM    2  C2  UNL     1      25.744  18.806  -8.773  1.00  0.00     0.017 C 
HETATM    3  C3  UNL     1      24.741  17.969  -9.479  1.00  0.00     0.004 C 
HETATM    4  C4  UNL     1      23.879  17.095  -8.654  1.00  0.00     0.032 C 
HETATM    5  C5  UNL     1      23.836  17.298  -7.194  1.00  0.00     0.119 C 
HETATM    6  C6  UNL     1      24.867  18.164  -6.573  1.00  0.00     0.049 C 
ENDROOT
BRANCH   1   7
HETATM    7  S1  UNL     1      26.927  19.842  -6.642  1.00  0.00    -0.011 SA
BRANCH   7   8
HETATM    8  O1  UNL     1      26.504  21.118  -5.559  1.00  0.00    -0.329 OA
ATOM      9  H1  UNL     1      26.885  21.910  -5.923  1.00  0.00     0.227 HD
ENDBRANCH   7   8
ENDBRANCH   1   7
BRANCH   5  10
HETATM   10  O2  UNL     1      22.560  17.687  -6.745  1.00  0.00    -0.396 OA
ATOM     11  H2  UNL     1      22.535  18.597  -6.476  1.00  0.00     0.210 HD
ENDBRANCH   5  10
TORSDOF 3
ENDMDL
MODEL 5
REMARK VINA RESULT: -4.804517828      2.751      4.102
REMARK  3 active torsions:
REMARK  status: ('A' for Active; 'I' for Inactive)
REMARK    1  A    between atoms: O1_1  and  S1_3 
REMARK    2  A    between atoms: S1_3  and  C1_4 
REMARK    3  A    between atoms: C5_8  and  O2_9 
ROOT
HETATM    1  C1  UNL     1      25.957  19.032  -7.922  1.00  0.00     0.078 C 
HETATM    2  C2  UNL     1      24.638  19.397  -7.334  1.00  0.00     0.017 C 
HETATM    3  C3  UNL     1      23.681  18.284  -7.120  1.00  0.00     0.004 C 
HETATM    4  C4  UNL     1      23.714  17.160  -8.081  1.00  0.00     0.032 C 
HETATM    5  C5  UNL     1      24.853  17.040  -9.009  1.00  0.00     0.119 C 
HETATM    6  C6  UNL     1      25.772  18.196  -9.149  1.00  0.00     0.049 C 
ENDROOT
BRANCH   1   7
HETATM    7  S1  UNL     1      26.682  20.609  -8.506  1.00  0.00    -0.011 SA
BRANCH   7   8
HETATM    8  O1  UNL     1      26.704  20.517 -10.230  1.00  0.00    -0.329 OA
ATOM      9  H1  UNL     1      27.049  21.349 -10.534  1.00  0.00     0.227 HD
ENDBRANCH   7   8
ENDBRANCH   1   7
BRANCH   5  10
HETATM   10  O2  UNL     1      25.600  15.868  -8.789  1.00  0.00    -0.396 OA
ATOM     11  H2  UNL     1      26.283  15.749  -9.437  1.00  0.00     0.210 HD
ENDBRANCH   5  10
TORSDOF 3
ENDMDL
