MODEL 1
REMARK VINA RESULT: -4.195563786      0.000      0.000
REMARK  1 active torsions:
REMARK  status: ('A' for Active; 'I' for Inactive)
REMARK    1  A    between atoms: N1_2  and  C3_5 
ROOT
HETATM    1  C1  UNL     1      24.802  16.895  -8.508  1.00  0.00     0.171 C 
HETATM    2  N1  UNL     1      24.236  18.012  -7.785  1.00  0.00    -0.268 N 
HETATM    3  C2  UNL     1      23.059  17.890  -7.039  1.00  0.00     0.185 C 
HETATM    4  N2  UNL     1      22.081  17.769  -6.414  1.00  0.00    -0.172 NA
ENDROOT
BRANCH   2   5
HETATM    5  C3  UNL     1      24.907  19.257  -7.849  1.00  0.00     0.196 C 
HETATM    6  N3  UNL     1      24.621  20.322  -6.932  1.00  0.00    -0.069 NA
HETATM    7  S1  UNL     1      26.042  19.507  -8.989  1.00  0.00    -0.043 SA
ENDBRANCH   2   5
TORSDOF 1
ENDMDL
MODEL 2
REMARK VINA RESULT: -3.983266370      1.087      2.193
REMARK  1 active torsions:
REMARK  status: ('A' for Active; 'I' for Inactive)
REMARK    1  A    between atoms: N1_2  and  C3_5 
ROOT
HETATM    1  C1  UNL     1      24.802  19.878  -7.291  1.00  0.00     0.171 C 
HETATM    2  N1  UNL     1      24.247  18.608  -7.700  1.00  0.00    -0.268 N 
HETATM    3  C2  UNL     1      23.103  18.072  -7.098  1.00  0.00     0.185 C 
HETATM    4  N2  UNL     1      22.144  17.642  -6.590  1.00  0.00    -0.172 NA
ENDROOT
BRANCH   2   5
HETATM    5  C3  UNL     1      24.894  17.900  -8.742  1.00  0.00     0.196 C 
HETATM    6  N3  UNL     1      25.094  16.482  -8.687  1.00  0.00    -0.069 NA
HETATM    7  S1  UNL     1      25.432  18.703 -10.052  1.00  0.00    -0.043 SA
ENDBRANCH   2   5
TORSDOF 1
ENDMDL
MODEL 3
REMARK VINA RESULT: -3.933584586      1.697      2.308
REMARK  1 active torsions:
REMARK  status: ('A' for Active; 'I' for Inactive)
REMARK    1  A    between atoms: N1_2  and  C3_5 
ROOT
HETATM    1  C1  UNL     1      24.980  20.038  -7.382  1.00  0.00     0.171 C 
HETATM    2  N1  UNL     1      24.385  18.781  -7.777  1.00  0.00    -0.268 N 
HETATM    3  C2  UNL     1      23.272  18.249  -7.116  1.00  0.00     0.185 C 
HETATM    4  N2  UNL     1      22.339  17.824  -6.559  1.00  0.00    -0.172 NA
ENDROOT
BRANCH   2   5
HETATM    5  C3  UNL     1      24.959  18.083  -8.867  1.00  0.00     0.196 C 
HETATM    6  N3  UNL     1      25.321  18.743 -10.086  1.00  0.00    -0.069 NA
HETATM    7  S1  UNL     1      25.226  16.481  -8.750  1.00  0.00    -0.043 SA
ENDBRANCH   2   5
TORSDOF 1
ENDMDL
MODEL 4
REMARK VINA RESULT: -3.900488857      2.162      2.900
REMARK  1 active torsions:
REMARK  status: ('A' for Active; 'I' for Inactive)
REMARK    1  A    between atoms: N1_2  and  C3_5 
ROOT
HETATM    1  C1  UNL     1      25.522  19.010  -9.760  1.00  0.00     0.171 C 
HETATM    2  N1  UNL     1      25.017  18.061  -8.793  1.00  0.00    -0.268 N 
HETATM    3  C2  UNL     1      25.296  16.693  -8.884  1.00  0.00     0.185 C 
HETATM    4  N2  UNL     1      25.544  15.556  -8.969  1.00  0.00    -0.172 NA
ENDROOT
BRANCH   2   5
HETATM    5  C3  UNL     1      24.217  18.551  -7.732  1.00  0.00     0.196 C 
HETATM    6  N3  UNL     1      24.450  19.833  -7.134  1.00  0.00    -0.069 NA
HETATM    7  S1  UNL     1      22.991  17.645  -7.159  1.00  0.00    -0.043 SA
ENDBRANCH   2   5
TORSDOF 1
ENDMDL
MODEL 5
REMARK VINA RESULT: -3.813532185      2.266      3.132
REMARK  1 active torsions:
REMARK  status: ('A' for Active; 'I' for Inactive)
REMARK    1  A    between atoms: N1_2  and  C3_5 
ROOT
HETATM    1  C1  UNL     1      25.205  16.623  -8.675  1.00  0.00     0.171 C 
HETATM    2  N1  UNL     1      24.996  18.053  -8.681  1.00  0.00    -0.268 N 
HETATM    3  C2  UNL     1      25.557  18.879  -9.661  1.00  0.00     0.185 C 
HETATM    4  N2  UNL     1      26.027  19.552 -10.491  1.00  0.00    -0.172 NA
ENDROOT
BRANCH   2   5
HETATM    5  C3  UNL     1      24.197  18.616  -7.657  1.00  0.00     0.196 C 
HETATM    6  N3  UNL     1      24.450  19.924  -7.127  1.00  0.00    -0.069 NA
HETATM    7  S1  UNL     1      22.946  17.769  -7.049  1.00  0.00    -0.043 SA
ENDBRANCH   2   5
TORSDOF 1
ENDMDL
