MODEL 1
REMARK VINA RESULT: -5.146282590      0.000      0.000
REMARK  2 active torsions:
REMARK  status: ('A' for Active; 'I' for Inactive)
REMARK    1  A    between atoms: C6_7  and  N2_8 
REMARK    2  A    between atoms: N2_8  and  N3_10 
ROOT
HETATM    1  C1  UNL     1      26.088  18.978  -8.391  1.00  0.00     0.157 C 
HETATM    2  N1  UNL     1      24.861  18.244  -8.091  1.00  0.00    -0.347 N 
HETATM    3  C2  UNL     1      23.962  18.807  -7.225  1.00  0.00     0.092 A 
HETATM    4  C3  UNL     1      22.781  18.207  -6.874  1.00  0.00     0.017 A 
HETATM    5  C4  UNL     1      22.443  16.976  -7.395  1.00  0.00     0.005 A 
HETATM    6  C5  UNL     1      23.328  16.405  -8.258  1.00  0.00     0.050 A 
HETATM    7  C6  UNL     1      24.550  17.052  -8.606  1.00  0.00     0.120 A 
ENDROOT
BRANCH   7   8
HETATM    8  N2  UNL     1      25.311  16.446  -9.414  1.00  0.00    -0.292 N 
ATOM      9  H2  UNL     1      25.674  17.013 -10.181  1.00  0.00     0.188 HD
BRANCH   8  10
HETATM   10  N3  UNL     1      25.710  15.165  -9.406  1.00  0.00    -0.344 N 
ATOM     11  H32 UNL     1      25.903  14.792  -8.476  1.00  0.00     0.176 HD
ATOM     12  H31 UNL     1      25.843  14.526 -10.189  1.00  0.00     0.176 HD
ENDBRANCH   8  10
ENDBRANCH   7   8
TORSDOF 2
ENDMDL
MODEL 2
REMARK VINA RESULT: -5.089390346      1.812      2.798
REMARK  2 active torsions:
REMARK  status: ('A' for Active; 'I' for Inactive)
REMARK    1  A    between atoms: C6_7  and  N2_8 
REMARK    2  A    between atoms: N2_8  and  N3_10 
ROOT
HETATM    1  C1  UNL     1      25.500  15.924  -9.119  1.00  0.00     0.157 C 
HETATM    2  N1  UNL     1      25.001  17.115  -8.436  1.00  0.00    -0.347 N 
HETATM    3  C2  UNL     1      25.852  18.178  -8.281  1.00  0.00     0.092 A 
HETATM    4  C3  UNL     1      25.489  19.343  -7.656  1.00  0.00     0.017 A 
HETATM    5  C4  UNL     1      24.217  19.494  -7.148  1.00  0.00     0.005 A 
HETATM    6  C5  UNL     1      23.362  18.445  -7.296  1.00  0.00     0.050 A 
HETATM    7  C6  UNL     1      23.766  17.244  -7.949  1.00  0.00     0.120 A 
ENDROOT
BRANCH   7   8
HETATM    8  N2  UNL     1      22.905  16.322  -8.041  1.00  0.00    -0.292 N 
ATOM      9  H2  UNL     1      23.230  15.463  -8.484  1.00  0.00     0.188 HD
BRANCH   8  10
HETATM   10  N3  UNL     1      21.624  16.313  -7.638  1.00  0.00    -0.344 N 
ATOM     11  H32 UNL     1      21.037  17.011  -8.095  1.00  0.00     0.176 HD
ATOM     12  H31 UNL     1      21.168  15.715  -6.950  1.00  0.00     0.176 HD
ENDBRANCH   8  10
ENDBRANCH   7   8
TORSDOF 2
ENDMDL
MODEL 3
REMARK VINA RESULT: -4.887969048      1.532      2.940
REMARK  2 active torsions:
REMARK  status: ('A' for Active; 'I' for Inactive)
REMARK    1  A    between atoms: C6_7  and  N2_8 
REMARK    2  A    between atoms: N2_8  and  N3_10 
ROOT
HETATM    1  C1  UNL     1      25.651  18.678  -9.899  1.00  0.00     0.157 C 
HETATM    2  N1  UNL     1      24.672  18.331  -8.872  1.00  0.00    -0.347 N 
HETATM    3  C2  UNL     1      23.949  17.178  -9.029  1.00  0.00     0.092 A 
HETATM    4  C3  UNL     1      23.005  16.757  -8.128  1.00  0.00     0.017 A 
HETATM    5  C4  UNL     1      22.742  17.499  -6.996  1.00  0.00     0.005 A 
HETATM    6  C5  UNL     1      23.455  18.646  -6.828  1.00  0.00     0.050 A 
HETATM    7  C6  UNL     1      24.430  19.061  -7.782  1.00  0.00     0.120 A 
ENDROOT
BRANCH   7   8
HETATM    8  N2  UNL     1      25.043  20.141  -7.543  1.00  0.00    -0.292 N 
ATOM      9  H2  UNL     1      24.802  20.924  -8.152  1.00  0.00     0.188 HD
BRANCH   8  10
HETATM   10  N3  UNL     1      25.966  20.405  -6.604  1.00  0.00    -0.344 N 
ATOM     11  H32 UNL     1      26.569  19.615  -6.377  1.00  0.00     0.176 HD
ATOM     12  H31 UNL     1      26.142  21.272  -6.098  1.00  0.00     0.176 HD
ENDBRANCH   8  10
ENDBRANCH   7   8
TORSDOF 2
ENDMDL
MODEL 4
REMARK VINA RESULT: -4.705507064      1.095      2.749
REMARK  2 active torsions:
REMARK  status: ('A' for Active; 'I' for Inactive)
REMARK    1  A    between atoms: C6_7  and  N2_8 
REMARK    2  A    between atoms: N2_8  and  N3_10 
ROOT
HETATM    1  C1  UNL     1      22.902  17.892  -6.909  1.00  0.00     0.157 C 
HETATM    2  N1  UNL     1      24.025  18.534  -7.586  1.00  0.00    -0.347 N 
HETATM    3  C2  UNL     1      24.412  19.779  -7.164  1.00  0.00     0.092 A 
HETATM    4  C3  UNL     1      25.452  20.472  -7.727  1.00  0.00     0.017 A 
HETATM    5  C4  UNL     1      26.168  19.926  -8.771  1.00  0.00     0.005 A 
HETATM    6  C5  UNL     1      25.795  18.690  -9.199  1.00  0.00     0.050 A 
HETATM    7  C6  UNL     1      24.709  17.991  -8.595  1.00  0.00     0.120 A 
ENDROOT
BRANCH   7   8
HETATM    8  N2  UNL     1      24.432  16.848  -9.060  1.00  0.00    -0.292 N 
ATOM      9  H2  UNL     1      23.491  16.747  -9.441  1.00  0.00     0.188 HD
BRANCH   8  10
HETATM   10  N3  UNL     1      25.199  15.748  -9.123  1.00  0.00    -0.344 N 
ATOM     11  H32 UNL     1      25.151  15.255 -10.015  1.00  0.00     0.176 HD
ATOM     12  H31 UNL     1      25.811  15.347  -8.413  1.00  0.00     0.176 HD
ENDBRANCH   8  10
ENDBRANCH   7   8
TORSDOF 2
ENDMDL
MODEL 5
REMARK VINA RESULT: -4.670221555      1.685      2.127
REMARK  2 active torsions:
REMARK  status: ('A' for Active; 'I' for Inactive)
REMARK    1  A    between atoms: C6_7  and  N2_8 
REMARK    2  A    between atoms: N2_8  and  N3_10 
ROOT
HETATM    1  C1  UNL     1      25.137  20.550  -7.231  1.00  0.00     0.157 C 
HETATM    2  N1  UNL     1      24.578  19.266  -7.646  1.00  0.00    -0.347 N 
HETATM    3  C2  UNL     1      23.530  18.752  -6.930  1.00  0.00     0.092 A 
HETATM    4  C3  UNL     1      22.930  17.557  -7.231  1.00  0.00     0.017 A 
HETATM    5  C4  UNL     1      23.372  16.805  -8.299  1.00  0.00     0.005 A 
HETATM    6  C5  UNL     1      24.413  17.305  -9.019  1.00  0.00     0.050 A 
HETATM    7  C6  UNL     1      25.019  18.551  -8.683  1.00  0.00     0.120 A 
ENDROOT
BRANCH   7   8
HETATM    8  N2  UNL     1      25.981  18.936  -9.408  1.00  0.00    -0.292 N 
ATOM      9  H2  UNL     1      26.911  18.787  -9.015  1.00  0.00     0.188 HD
BRANCH   8  10
HETATM   10  N3  UNL     1      25.954  19.512 -10.620  1.00  0.00    -0.344 N 
ATOM     11  H32 UNL     1      25.058  19.434 -11.100  1.00  0.00     0.176 HD
ATOM     12  H31 UNL     1      26.695  20.007 -11.116  1.00  0.00     0.176 HD
ENDBRANCH   8  10
ENDBRANCH   7   8
TORSDOF 2
ENDMDL
