MODEL 1
REMARK VINA RESULT: -5.210773238      0.000      0.000
REMARK  2 active torsions:
REMARK  status: ('A' for Active; 'I' for Inactive)
REMARK    1  A    between atoms: C4_5  and  N2_6 
REMARK    2  A    between atoms: N3_9  and  O1_10 
ROOT
HETATM    1  C1  UNL     1      25.942  20.606  -7.897  1.00  0.00     0.156 C 
HETATM    2  N1  UNL     1      25.086  19.428  -7.987  1.00  0.00    -0.355 N 
HETATM    3  C2  UNL     1      25.296  18.487  -8.927  1.00  0.00     0.095 A 
HETATM    4  C3  UNL     1      24.509  17.355  -9.048  1.00  0.00     0.067 A 
HETATM    5  C4  UNL     1      23.462  17.170  -8.177  1.00  0.00     0.129 A 
HETATM    6  N3  UNL     1      23.262  18.118  -7.244  1.00  0.00    -0.204 N 
HETATM    7  C5  UNL     1      24.055  19.218  -7.153  1.00  0.00     0.217 A 
ENDROOT
BRANCH   5   8
HETATM    8  N2  UNL     1      22.697  16.134  -8.245  1.00  0.00    -0.384 N 
ATOM      9  H22 UNL     1      22.862  15.404  -8.939  1.00  0.00     0.157 HD
ATOM     10  H21 UNL     1      21.907  16.007  -7.614  1.00  0.00     0.157 HD
ENDBRANCH   5   8
BRANCH   6  11
HETATM   11  O1  UNL     1      22.202  17.915  -6.373  1.00  0.00    -0.280 OA
ATOM     12  H1  UNL     1      22.352  17.308  -5.658  1.00  0.00     0.245 HD
ENDBRANCH   6  11
TORSDOF 2
ENDMDL
MODEL 2
REMARK VINA RESULT: -5.118444040      1.468      2.204
REMARK  2 active torsions:
REMARK  status: ('A' for Active; 'I' for Inactive)
REMARK    1  A    between atoms: C4_5  and  N2_6 
REMARK    2  A    between atoms: N3_9  and  O1_10 
ROOT
HETATM    1  C1  UNL     1      25.990  18.868 -10.010  1.00  0.00     0.156 C 
HETATM    2  N1  UNL     1      24.963  18.533  -9.030  1.00  0.00    -0.355 N 
HETATM    3  C2  UNL     1      24.730  19.327  -7.969  1.00  0.00     0.095 A 
HETATM    4  C3  UNL     1      23.766  19.047  -7.016  1.00  0.00     0.067 A 
HETATM    5  C4  UNL     1      23.005  17.910  -7.145  1.00  0.00     0.129 A 
HETATM    6  N3  UNL     1      23.249  17.125  -8.210  1.00  0.00    -0.204 N 
HETATM    7  C5  UNL     1      24.203  17.429  -9.128  1.00  0.00     0.217 A 
ENDROOT
BRANCH   5   8
HETATM    8  N2  UNL     1      22.094  17.601  -6.287  1.00  0.00    -0.384 N 
ATOM      9  H22 UNL     1      21.129  17.448  -6.577  1.00  0.00     0.157 HD
ATOM     10  H21 UNL     1      22.304  17.499  -5.294  1.00  0.00     0.157 HD
ENDBRANCH   5   8
BRANCH   6  11
HETATM   11  O1  UNL     1      22.472  15.981  -8.326  1.00  0.00    -0.280 OA
ATOM     12  H1  UNL     1      22.251  15.708  -9.208  1.00  0.00     0.245 HD
ENDBRANCH   6  11
TORSDOF 2
ENDMDL
MODEL 3
REMARK VINA RESULT: -5.091576570      1.800      2.163
REMARK  2 active torsions:
REMARK  status: ('A' for Active; 'I' for Inactive)
REMARK    1  A    between atoms: C4_5  and  N2_6 
REMARK    2  A    between atoms: N3_9  and  O1_10 
ROOT
HETATM    1  C1  UNL     1      26.531  19.943  -7.660  1.00  0.00     0.156 C 
HETATM    2  N1  UNL     1      25.473  18.942  -7.758  1.00  0.00    -0.355 N 
HETATM    3  C2  UNL     1      24.247  19.178  -7.256  1.00  0.00     0.095 A 
HETATM    4  C3  UNL     1      23.215  18.259  -7.327  1.00  0.00     0.067 A 
HETATM    5  C4  UNL     1      23.438  17.045  -7.933  1.00  0.00     0.129 A 
HETATM    6  N3  UNL     1      24.668  16.822  -8.429  1.00  0.00    -0.204 N 
HETATM    7  C5  UNL     1      25.659  17.748  -8.343  1.00  0.00     0.217 A 
ENDROOT
BRANCH   5   8
HETATM    8  N2  UNL     1      22.512  16.152  -8.026  1.00  0.00    -0.384 N 
ATOM      9  H22 UNL     1      22.430  15.565  -8.856  1.00  0.00     0.157 HD
ATOM     10  H21 UNL     1      21.834  16.001  -7.279  1.00  0.00     0.157 HD
ENDBRANCH   5   8
BRANCH   6  11
HETATM   11  O1  UNL     1      24.876  15.593  -9.038  1.00  0.00    -0.280 OA
ATOM     12  H1  UNL     1      25.317  15.607  -9.879  1.00  0.00     0.245 HD
ENDBRANCH   6  11
TORSDOF 2
ENDMDL
MODEL 4
REMARK VINA RESULT: -4.621138981      1.596      3.317
REMARK  2 active torsions:
REMARK  status: ('A' for Active; 'I' for Inactive)
REMARK    1  A    between atoms: C4_5  and  N2_6 
REMARK    2  A    between atoms: N3_9  and  O1_10 
ROOT
HETATM    1  C1  UNL     1      22.513  16.583  -7.814  1.00  0.00     0.156 C 
HETATM    2  N1  UNL     1      23.532  17.596  -8.063  1.00  0.00    -0.355 N 
HETATM    3  C2  UNL     1      24.345  17.515  -9.132  1.00  0.00     0.095 A 
HETATM    4  C3  UNL     1      25.325  18.453  -9.407  1.00  0.00     0.067 A 
HETATM    5  C4  UNL     1      25.487  19.522  -8.557  1.00  0.00     0.129 A 
HETATM    6  N3  UNL     1      24.668  19.591  -7.492  1.00  0.00    -0.204 N 
HETATM    7  C5  UNL     1      23.716  18.652  -7.253  1.00  0.00     0.217 A 
ENDROOT
BRANCH   5   8
HETATM    8  N2  UNL     1      26.384  20.425  -8.765  1.00  0.00    -0.384 N 
ATOM      9  H22 UNL     1      27.085  20.310  -9.497  1.00  0.00     0.157 HD
ATOM     10  H21 UNL     1      26.424  21.279  -8.211  1.00  0.00     0.157 HD
ENDBRANCH   5   8
BRANCH   6  11
HETATM   11  O1  UNL     1      24.844  20.675  -6.646  1.00  0.00    -0.280 OA
ATOM     12  H1  UNL     1      24.936  20.480  -5.721  1.00  0.00     0.245 HD
ENDBRANCH   6  11
TORSDOF 2
ENDMDL
MODEL 5
REMARK VINA RESULT: -4.615628567      1.812      2.201
REMARK  2 active torsions:
REMARK  status: ('A' for Active; 'I' for Inactive)
REMARK    1  A    between atoms: C4_5  and  N2_6 
REMARK    2  A    between atoms: N3_9  and  O1_10 
ROOT
HETATM    1  C1  UNL     1      27.490  20.003  -8.310  1.00  0.00     0.156 C 
HETATM    2  N1  UNL     1      26.264  19.242  -8.091  1.00  0.00    -0.355 N 
HETATM    3  C2  UNL     1      25.816  18.991  -6.847  1.00  0.00     0.095 A 
HETATM    4  C3  UNL     1      24.659  18.275  -6.593  1.00  0.00     0.067 A 
HETATM    5  C4  UNL     1      23.925  17.790  -7.650  1.00  0.00     0.129 A 
HETATM    6  N3  UNL     1      24.385  18.047  -8.887  1.00  0.00    -0.204 N 
HETATM    7  C5  UNL     1      25.525  18.755  -9.101  1.00  0.00     0.217 A 
ENDROOT
BRANCH   5   8
HETATM    8  N2  UNL     1      22.841  17.116  -7.470  1.00  0.00    -0.384 N 
ATOM      9  H22 UNL     1      22.870  16.150  -7.145  1.00  0.00     0.157 HD
ATOM     10  H21 UNL     1      21.922  17.521  -7.646  1.00  0.00     0.157 HD
ENDBRANCH   5   8
BRANCH   6  11
HETATM   11  O1  UNL     1      23.632  17.552  -9.942  1.00  0.00    -0.280 OA
ATOM     12  H1  UNL     1      23.678  18.036 -10.758  1.00  0.00     0.245 HD
ENDBRANCH   6  11
TORSDOF 2
ENDMDL
