MODEL 1
REMARK VINA RESULT: -4.525184479      0.000      0.000
REMARK  2 active torsions:
REMARK  status: ('A' for Active; 'I' for Inactive)
REMARK    1  A    between atoms: N1_3  and  N2_4 
REMARK    2  A    between atoms: N3_8  and  O1_9 
ROOT
HETATM    1  C1  UNL     1      25.505  15.507  -8.489  1.00  0.00     0.060 C 
HETATM    2  C2  UNL     1      24.385  16.497  -8.357  1.00  0.00     0.232 A 
HETATM    3  N1  UNL     1      24.527  17.485  -7.318  1.00  0.00    -0.267 N 
HETATM    4  C3  UNL     1      23.369  16.929  -6.750  1.00  0.00     0.231 A 
HETATM    5  N3  UNL     1      23.223  16.044  -7.660  1.00  0.00    -0.230 N 
ENDROOT
BRANCH   3   6
HETATM    6  N2  UNL     1      25.446  18.506  -7.074  1.00  0.00    -0.340 N 
ATOM      7  H22 UNL     1      25.615  19.479  -7.333  1.00  0.00     0.177 HD
ATOM      8  H21 UNL     1      26.294  18.574  -6.512  1.00  0.00     0.177 HD
ENDBRANCH   3   6
BRANCH   5   9
HETATM    9  O1  UNL     1      22.323  15.039  -7.907  1.00  0.00    -0.285 OA
ATOM     10  H1  UNL     1      21.688  14.898  -8.599  1.00  0.00     0.245 HD
ENDBRANCH   5   9
TORSDOF 2
ENDMDL
MODEL 2
REMARK VINA RESULT: -4.092741688      2.069      2.834
REMARK  2 active torsions:
REMARK  status: ('A' for Active; 'I' for Inactive)
REMARK    1  A    between atoms: N1_3  and  N2_4 
REMARK    2  A    between atoms: N3_8  and  O1_9 
ROOT
HETATM    1  C1  UNL     1      25.359  16.772  -9.245  1.00  0.00     0.060 C 
HETATM    2  C2  UNL     1      24.991  16.456  -7.825  1.00  0.00     0.232 A 
HETATM    3  N1  UNL     1      23.601  16.183  -7.572  1.00  0.00    -0.267 N 
HETATM    4  C3  UNL     1      23.620  17.312  -6.737  1.00  0.00     0.231 A 
HETATM    5  N3  UNL     1      24.853  17.574  -6.947  1.00  0.00    -0.230 N 
ENDROOT
BRANCH   3   6
HETATM    6  N2  UNL     1      22.712  15.200  -8.011  1.00  0.00    -0.340 N 
ATOM      7  H22 UNL     1      21.770  14.861  -7.815  1.00  0.00     0.177 HD
ATOM      8  H21 UNL     1      22.760  14.470  -8.721  1.00  0.00     0.177 HD
ENDBRANCH   3   6
BRANCH   5   9
HETATM    9  O1  UNL     1      25.731  18.537  -6.519  1.00  0.00    -0.285 OA
ATOM     10  H1  UNL     1      25.654  19.247  -5.893  1.00  0.00     0.245 HD
ENDBRANCH   5   9
TORSDOF 2
ENDMDL
MODEL 3
REMARK VINA RESULT: -4.090824578      2.021      2.337
REMARK  2 active torsions:
REMARK  status: ('A' for Active; 'I' for Inactive)
REMARK    1  A    between atoms: N1_3  and  N2_4 
REMARK    2  A    between atoms: N3_8  and  O1_9 
ROOT
HETATM    1  C1  UNL     1      24.693  18.168  -7.121  1.00  0.00     0.060 C 
HETATM    2  C2  UNL     1      24.293  16.742  -6.880  1.00  0.00     0.232 A 
HETATM    3  N1  UNL     1      24.413  15.847  -8.002  1.00  0.00    -0.267 N 
HETATM    4  C3  UNL     1      23.021  15.678  -7.905  1.00  0.00     0.231 A 
HETATM    5  N3  UNL     1      22.891  16.468  -6.909  1.00  0.00    -0.230 N 
ENDROOT
BRANCH   3   6
HETATM    6  N2  UNL     1      25.486  15.406  -8.776  1.00  0.00    -0.340 N 
ATOM      7  H22 UNL     1      26.388  15.740  -9.118  1.00  0.00     0.177 HD
ATOM      8  H21 UNL     1      25.692  14.537  -9.268  1.00  0.00     0.177 HD
ENDBRANCH   3   6
BRANCH   5   9
HETATM    9  O1  UNL     1      21.840  16.906  -6.144  1.00  0.00    -0.285 OA
ATOM     10  H1  UNL     1      20.949  16.595  -6.035  1.00  0.00     0.245 HD
ENDBRANCH   5   9
TORSDOF 2
ENDMDL
MODEL 4
REMARK VINA RESULT: -3.949424829      1.857      2.413
REMARK  2 active torsions:
REMARK  status: ('A' for Active; 'I' for Inactive)
REMARK    1  A    between atoms: N1_3  and  N2_4 
REMARK    2  A    between atoms: N3_8  and  O1_9 
ROOT
HETATM    1  C1  UNL     1      23.509  17.093  -6.838  1.00  0.00     0.060 C 
HETATM    2  C2  UNL     1      24.999  17.025  -7.011  1.00  0.00     0.232 A 
HETATM    3  N1  UNL     1      25.644  18.234  -7.455  1.00  0.00    -0.267 N 
HETATM    4  C3  UNL     1      26.030  17.506  -8.594  1.00  0.00     0.231 A 
HETATM    5  N3  UNL     1      25.465  16.423  -8.220  1.00  0.00    -0.230 N 
ENDROOT
BRANCH   3   6
HETATM    6  N2  UNL     1      25.774  19.515  -6.918  1.00  0.00    -0.340 N 
ATOM      7  H22 UNL     1      26.431  20.060  -6.359  1.00  0.00     0.177 HD
ATOM      8  H21 UNL     1      25.190  20.350  -6.933  1.00  0.00     0.177 HD
ENDBRANCH   3   6
BRANCH   5   9
HETATM    9  O1  UNL     1      25.334  15.162  -8.743  1.00  0.00    -0.285 OA
ATOM     10  H1  UNL     1      25.300  14.833  -9.633  1.00  0.00     0.245 HD
ENDBRANCH   5   9
TORSDOF 2
ENDMDL
MODEL 5
REMARK VINA RESULT: -3.918288890      2.511      3.257
REMARK  2 active torsions:
REMARK  status: ('A' for Active; 'I' for Inactive)
REMARK    1  A    between atoms: N1_3  and  N2_4 
REMARK    2  A    between atoms: N3_8  and  O1_9 
ROOT
HETATM    1  C1  UNL     1      23.249  16.806  -6.748  1.00  0.00     0.060 C 
HETATM    2  C2  UNL     1      24.278  17.306  -7.719  1.00  0.00     0.232 A 
HETATM    3  N1  UNL     1      25.332  16.386  -8.061  1.00  0.00    -0.267 N 
HETATM    4  C3  UNL     1      26.214  17.320  -7.492  1.00  0.00     0.231 A 
HETATM    5  N3  UNL     1      25.295  18.152  -7.179  1.00  0.00    -0.230 N 
ENDROOT
BRANCH   3   6
HETATM    6  N2  UNL     1      25.363  15.139  -8.684  1.00  0.00    -0.340 N 
ATOM      7  H22 UNL     1      24.892  14.634  -9.436  1.00  0.00     0.177 HD
ATOM      8  H21 UNL     1      25.919  14.295  -8.550  1.00  0.00     0.177 HD
ENDBRANCH   3   6
BRANCH   5   9
HETATM    9  O1  UNL     1      25.259  19.378  -6.567  1.00  0.00    -0.285 OA
ATOM     10  H1  UNL     1      25.576  19.690  -5.728  1.00  0.00     0.245 HD
ENDBRANCH   5   9
TORSDOF 2
ENDMDL
