MODEL 1
REMARK VINA RESULT: -4.057860671      0.000      0.000
REMARK  4 active torsions:
REMARK  status: ('A' for Active; 'I' for Inactive)
REMARK    1  A    between atoms: C2_2  and  O1_4 
REMARK    2  A    between atoms: C2_2  and  N1_6 
REMARK    3  A    between atoms: N1_6  and  O2_7 
REMARK    4  A    between atoms: N1_6  and  O3_9 
ROOT
HETATM    1  C1  UNL     1      25.594  17.623  -8.125  1.00  0.00     0.068 C 
HETATM    2  C2  UNL     1      24.753  16.418  -8.429  1.00  0.00     0.155 C 
HETATM    3  C3  UNL     1      25.651  15.209  -8.525  1.00  0.00     0.068 C 
ENDROOT
BRANCH   2   4
HETATM    4  O1  UNL     1      24.131  16.631  -9.654  1.00  0.00    -0.372 OA
ATOM      5  H1  UNL     1      24.623  17.298 -10.118  1.00  0.00     0.212 HD
ENDBRANCH   2   4
BRANCH   2   6
HETATM    6  N1  UNL     1      23.749  16.145  -7.438  1.00  0.00    -0.038 NA
BRANCH   6   7
HETATM    7  O2  UNL     1      22.661  15.627  -8.067  1.00  0.00    -0.286 OA
ATOM      8  H2  UNL     1      22.740  14.680  -8.065  1.00  0.00     0.239 HD
ENDBRANCH   6   7
BRANCH   6   9
HETATM    9  O3  UNL     1      23.343  17.224  -6.760  1.00  0.00    -0.286 OA
ATOM     10  H3  UNL     1      23.105  17.961  -7.308  1.00  0.00     0.239 HD
ENDBRANCH   6   9
ENDBRANCH   2   6
TORSDOF 4
ENDMDL
MODEL 2
REMARK VINA RESULT: -4.017334252      1.177      1.809
REMARK  4 active torsions:
REMARK  status: ('A' for Active; 'I' for Inactive)
REMARK    1  A    between atoms: C2_2  and  O1_4 
REMARK    2  A    between atoms: C2_2  and  N1_6 
REMARK    3  A    between atoms: N1_6  and  O2_7 
REMARK    4  A    between atoms: N1_6  and  O3_9 
ROOT
HETATM    1  C1  UNL     1      25.318  17.155  -9.467  1.00  0.00     0.068 C 
HETATM    2  C2  UNL     1      24.885  16.430  -8.226  1.00  0.00     0.155 C 
HETATM    3  C3  UNL     1      25.604  17.024  -7.040  1.00  0.00     0.068 C 
ENDROOT
BRANCH   2   4
HETATM    4  O1  UNL     1      25.247  15.095  -8.365  1.00  0.00    -0.372 OA
ATOM      5  H1  UNL     1      26.146  15.005  -8.074  1.00  0.00     0.212 HD
ENDBRANCH   2   4
BRANCH   2   6
HETATM    6  N1  UNL     1      23.474  16.507  -7.971  1.00  0.00    -0.038 NA
BRANCH   6   7
HETATM    7  O2  UNL     1      23.291  17.102  -6.762  1.00  0.00    -0.286 OA
ATOM      8  H2  UNL     1      22.511  17.641  -6.811  1.00  0.00     0.239 HD
ENDBRANCH   6   7
BRANCH   6   9
HETATM    9  O3  UNL     1      22.860  15.319  -7.929  1.00  0.00    -0.286 OA
ATOM     10  H3  UNL     1      23.156  14.705  -8.591  1.00  0.00     0.239 HD
ENDBRANCH   6   9
ENDBRANCH   2   6
TORSDOF 4
ENDMDL
MODEL 3
REMARK VINA RESULT: -3.819575968      1.308      1.956
REMARK  4 active torsions:
REMARK  status: ('A' for Active; 'I' for Inactive)
REMARK    1  A    between atoms: C2_2  and  O1_4 
REMARK    2  A    between atoms: C2_2  and  N1_6 
REMARK    3  A    between atoms: N1_6  and  O2_7 
REMARK    4  A    between atoms: N1_6  and  O3_9 
ROOT
HETATM    1  C1  UNL     1      26.174  17.291  -6.155  1.00  0.00     0.068 C 
HETATM    2  C2  UNL     1      25.097  17.532  -7.171  1.00  0.00     0.155 C 
HETATM    3  C3  UNL     1      25.707  17.467  -8.550  1.00  0.00     0.068 C 
ENDROOT
BRANCH   2   4
HETATM    4  O1  UNL     1      24.582  18.804  -6.952  1.00  0.00    -0.372 OA
ATOM      5  H1  UNL     1      23.800  18.714  -6.421  1.00  0.00     0.212 HD
ENDBRANCH   2   4
BRANCH   2   6
HETATM    6  N1  UNL     1      24.023  16.579  -7.118  1.00  0.00    -0.038 NA
BRANCH   6   7
HETATM    7  O2  UNL     1      23.695  16.236  -8.392  1.00  0.00    -0.286 OA
ATOM      8  H2  UNL     1      24.464  15.864  -8.807  1.00  0.00     0.239 HD
ENDBRANCH   6   7
BRANCH   6   9
HETATM    9  O3  UNL     1      22.913  17.038  -6.529  1.00  0.00    -0.286 OA
ATOM     10  H3  UNL     1      22.130  16.960  -7.061  1.00  0.00     0.239 HD
ENDBRANCH   6   9
ENDBRANCH   2   6
TORSDOF 4
ENDMDL
MODEL 4
REMARK VINA RESULT: -3.710831020      9.149      9.730
REMARK  4 active torsions:
REMARK  status: ('A' for Active; 'I' for Inactive)
REMARK    1  A    between atoms: C2_2  and  O1_4 
REMARK    2  A    between atoms: C2_2  and  N1_6 
REMARK    3  A    between atoms: N1_6  and  O2_7 
REMARK    4  A    between atoms: N1_6  and  O3_9 
ROOT
HETATM    1  C1  UNL     1      17.421  10.448 -14.218  1.00  0.00     0.068 C 
HETATM    2  C2  UNL     1      17.849  11.688 -13.490  1.00  0.00     0.155 C 
HETATM    3  C3  UNL     1      19.098  12.229 -14.142  1.00  0.00     0.068 C 
ENDROOT
BRANCH   2   4
HETATM    4  O1  UNL     1      18.130  11.334 -12.175  1.00  0.00    -0.372 OA
ATOM      5  H1  UNL     1      18.751  11.965 -11.831  1.00  0.00     0.212 HD
ENDBRANCH   2   4
BRANCH   2   6
HETATM    6  N1  UNL     1      16.862  12.732 -13.491  1.00  0.00    -0.038 NA
BRANCH   6   7
HETATM    7  O2  UNL     1      17.459  13.881 -13.907  1.00  0.00    -0.286 OA
ATOM      8  H2  UNL     1      18.382  13.833 -13.688  1.00  0.00     0.239 HD
ENDBRANCH   6   7
BRANCH   6   9
HETATM    9  O3  UNL     1      16.321  12.974 -12.292  1.00  0.00    -0.286 OA
ATOM     10  H3  UNL     1      16.425  13.870 -11.992  1.00  0.00     0.239 HD
ENDBRANCH   6   9
ENDBRANCH   2   6
TORSDOF 4
ENDMDL
MODEL 5
REMARK VINA RESULT: -3.608521664      1.456      2.137
REMARK  4 active torsions:
REMARK  status: ('A' for Active; 'I' for Inactive)
REMARK    1  A    between atoms: C2_2  and  O1_4 
REMARK    2  A    between atoms: C2_2  and  N1_6 
REMARK    3  A    between atoms: N1_6  and  O2_7 
REMARK    4  A    between atoms: N1_6  and  O3_9 
ROOT
HETATM    1  C1  UNL     1      25.568  15.311  -8.390  1.00  0.00     0.068 C 
HETATM    2  C2  UNL     1      24.509  16.374  -8.373  1.00  0.00     0.155 C 
HETATM    3  C3  UNL     1      23.282  15.828  -7.685  1.00  0.00     0.068 C 
ENDROOT
BRANCH   2   4
HETATM    4  O1  UNL     1      24.199  16.688  -9.691  1.00  0.00    -0.372 OA
ATOM      5  H1  UNL     1      24.770  17.398  -9.963  1.00  0.00     0.212 HD
ENDBRANCH   2   4
BRANCH   2   6
HETATM    6  N1  UNL     1      24.902  17.574  -7.688  1.00  0.00    -0.038 NA
BRANCH   6   7
HETATM    7  O2  UNL     1      26.004  17.297  -6.941  1.00  0.00    -0.286 OA
ATOM      8  H2  UNL     1      25.792  16.583  -6.352  1.00  0.00     0.239 HD
ENDBRANCH   6   7
BRANCH   6   9
HETATM    9  O3  UNL     1      23.972  18.063  -6.861  1.00  0.00    -0.286 OA
ATOM     10  H3  UNL     1      23.348  18.645  -7.279  1.00  0.00     0.239 HD
ENDBRANCH   6   9
ENDBRANCH   2   6
TORSDOF 4
ENDMDL
