MODEL 1
REMARK VINA RESULT: -3.300142299      0.000      0.000
REMARK  1 active torsions:
REMARK  status: ('A' for Active; 'I' for Inactive)
REMARK       I    between atoms: N1_2  and  C3_4 
REMARK    1  A    between atoms: N3_6  and  N4_8 
ROOT
HETATM    1  C1  UNL     1      26.466  18.087  -7.424  1.00  0.00     0.152 C 
HETATM    2  N1  UNL     1      25.910  17.460  -8.601  1.00  0.00    -0.363 N 
HETATM    3  C2  UNL     1      26.134  17.915  -9.958  1.00  0.00     0.152 C 
HETATM    4  C3  UNL     1      25.084  16.319  -8.412  1.00  0.00     0.204 C 
HETATM    5  N2  UNL     1      25.687  15.040  -8.552  1.00  0.00    -0.062 NA
HETATM    6  N3  UNL     1      23.851  16.493  -8.127  1.00  0.00    -0.280 N 
ATOM      7  H3  UNL     1      23.469  17.435  -8.037  1.00  0.00     0.189 HD
ENDROOT
BRANCH   6   8
HETATM    8  N4  UNL     1      23.023  15.368  -7.937  1.00  0.00    -0.343 N 
ATOM      9  H42 UNL     1      23.244  14.702  -7.197  1.00  0.00     0.176 HD
ATOM     10  H41 UNL     1      22.213  15.237  -8.544  1.00  0.00     0.176 HD
ENDBRANCH   6   8
TORSDOF 1
ENDMDL
MODEL 2
REMARK VINA RESULT: -3.277952278      1.659      2.671
REMARK  1 active torsions:
REMARK  status: ('A' for Active; 'I' for Inactive)
REMARK       I    between atoms: N1_2  and  C3_4 
REMARK    1  A    between atoms: N3_6  and  N4_8 
ROOT
HETATM    1  C1  UNL     1      26.536  19.732  -7.913  1.00  0.00     0.152 C 
HETATM    2  N1  UNL     1      26.267  18.664  -6.978  1.00  0.00    -0.363 N 
HETATM    3  C2  UNL     1      26.878  18.543  -5.670  1.00  0.00     0.152 C 
HETATM    4  C3  UNL     1      25.338  17.662  -7.370  1.00  0.00     0.204 C 
HETATM    5  N2  UNL     1      23.995  17.799  -6.926  1.00  0.00    -0.062 NA
HETATM    6  N3  UNL     1      25.749  16.695  -8.099  1.00  0.00    -0.280 N 
ATOM      7  H3  UNL     1      26.725  16.647  -8.390  1.00  0.00     0.189 HD
ENDROOT
BRANCH   6   8
HETATM    8  N4  UNL     1      24.836  15.696  -8.494  1.00  0.00    -0.343 N 
ATOM      9  H42 UNL     1      25.131  14.720  -8.497  1.00  0.00     0.176 HD
ATOM     10  H41 UNL     1      23.892  15.966  -8.772  1.00  0.00     0.176 HD
ENDBRANCH   6   8
TORSDOF 1
ENDMDL
MODEL 3
REMARK VINA RESULT: -3.224471993      2.075      3.692
REMARK  1 active torsions:
REMARK  status: ('A' for Active; 'I' for Inactive)
REMARK       I    between atoms: N1_2  and  C3_4 
REMARK    1  A    between atoms: N3_6  and  N4_8 
ROOT
HETATM    1  C1  UNL     1      25.330  16.189  -8.538  1.00  0.00     0.152 C 
HETATM    2  N1  UNL     1      24.891  17.043  -7.459  1.00  0.00    -0.363 N 
HETATM    3  C2  UNL     1      23.563  17.021  -6.881  1.00  0.00     0.152 C 
HETATM    4  C3  UNL     1      25.829  17.970  -6.929  1.00  0.00     0.204 C 
HETATM    5  N2  UNL     1      26.539  17.591  -5.757  1.00  0.00    -0.062 NA
HETATM    6  N3  UNL     1      25.992  19.089  -7.525  1.00  0.00    -0.280 N 
ATOM      7  H3  UNL     1      25.456  19.309  -8.364  1.00  0.00     0.189 HD
ENDROOT
BRANCH   6   8
HETATM    8  N4  UNL     1      26.921  20.015  -7.008  1.00  0.00    -0.343 N 
ATOM      9  H42 UNL     1      27.815  19.681  -6.650  1.00  0.00     0.176 HD
ATOM     10  H41 UNL     1      26.683  21.007  -7.000  1.00  0.00     0.176 HD
ENDBRANCH   6   8
TORSDOF 1
ENDMDL
MODEL 4
REMARK VINA RESULT: -3.096591560      1.450      1.481
REMARK  1 active torsions:
REMARK  status: ('A' for Active; 'I' for Inactive)
REMARK       I    between atoms: N1_2  and  C3_4 
REMARK    1  A    between atoms: N3_6  and  N4_8 
ROOT
HETATM    1  C1  UNL     1      26.741  18.498  -6.015  1.00  0.00     0.152 C 
HETATM    2  N1  UNL     1      26.128  18.286  -7.305  1.00  0.00    -0.363 N 
HETATM    3  C2  UNL     1      26.432  19.053  -8.496  1.00  0.00     0.152 C 
HETATM    4  C3  UNL     1      25.159  17.252  -7.413  1.00  0.00     0.204 C 
HETATM    5  N2  UNL     1      25.594  15.990  -7.900  1.00  0.00    -0.062 NA
HETATM    6  N3  UNL     1      23.954  17.501  -7.068  1.00  0.00    -0.280 N 
ATOM      7  H3  UNL     1      23.696  18.425  -6.724  1.00  0.00     0.189 HD
ENDROOT
BRANCH   6   8
HETATM    8  N4  UNL     1      22.984  16.482  -7.170  1.00  0.00    -0.343 N 
ATOM      9  H42 UNL     1      22.897  15.960  -8.042  1.00  0.00     0.176 HD
ATOM     10  H41 UNL     1      22.385  16.283  -6.369  1.00  0.00     0.176 HD
ENDBRANCH   6   8
TORSDOF 1
ENDMDL
MODEL 5
REMARK VINA RESULT: -3.078344164      2.749      4.161
REMARK  1 active torsions:
REMARK  status: ('A' for Active; 'I' for Inactive)
REMARK       I    between atoms: N1_2  and  C3_4 
REMARK    1  A    between atoms: N3_6  and  N4_8 
ROOT
HETATM    1  C1  UNL     1      26.296  17.998  -8.841  1.00  0.00     0.152 C 
HETATM    2  N1  UNL     1      25.658  18.154  -7.554  1.00  0.00    -0.363 N 
HETATM    3  C2  UNL     1      24.435  17.487  -7.155  1.00  0.00     0.152 C 
HETATM    4  C3  UNL     1      26.275  19.023  -6.614  1.00  0.00     0.204 C 
HETATM    5  N2  UNL     1      27.122  18.439  -5.633  1.00  0.00    -0.062 NA
HETATM    6  N3  UNL     1      26.043  20.278  -6.693  1.00  0.00    -0.280 N 
ATOM      7  H3  UNL     1      25.427  20.644  -7.418  1.00  0.00     0.189 HD
ENDROOT
BRANCH   6   8
HETATM    8  N4  UNL     1      26.651  21.150  -5.766  1.00  0.00    -0.343 N 
ATOM      9  H42 UNL     1      26.098  21.524  -4.995  1.00  0.00     0.176 HD
ATOM     10  H41 UNL     1      27.635  21.392  -5.881  1.00  0.00     0.176 HD
ENDBRANCH   6   8
TORSDOF 1
ENDMDL
