MODEL 1
REMARK VINA RESULT: -3.331221516      0.000      0.000
REMARK  2 active torsions:
REMARK  status: ('A' for Active; 'I' for Inactive)
REMARK    1  A    between atoms: N1_2  and  C2_4 
REMARK    2  A    between atoms: C2_4  and  O1_6 
ROOT
HETATM    1  C2  UNL     1      24.326  18.721  -7.397  1.00  0.00     0.209 C 
HETATM    2  S1  UNL     1      25.452  17.994  -8.303  1.00  0.00    -0.033 SA
ENDROOT
BRANCH   1   3
HETATM    3  N1  UNL     1      23.103  18.097  -7.029  1.00  0.00    -0.366 N 
HETATM    4  C1  UNL     1      22.661  16.937  -7.816  1.00  0.00     0.149 C 
ATOM      5  H1  UNL     1      22.550  18.443  -6.245  1.00  0.00     0.161 HD
ENDBRANCH   1   3
BRANCH   1   6
HETATM    6  O1  UNL     1      24.554  20.017  -6.953  1.00  0.00    -0.332 OA
HETATM    7  C3  UNL     1      25.807  20.595  -7.203  1.00  0.00     0.212 C 
ENDBRANCH   1   6
TORSDOF 2
ENDMDL
MODEL 2
REMARK VINA RESULT: -3.271107358      1.658      3.108
REMARK  2 active torsions:
REMARK  status: ('A' for Active; 'I' for Inactive)
REMARK    1  A    between atoms: N1_2  and  C2_4 
REMARK    2  A    between atoms: C2_4  and  O1_6 
ROOT
HETATM    1  C2  UNL     1      25.124  18.614  -7.269  1.00  0.00     0.209 C 
HETATM    2  S1  UNL     1      25.376  17.746  -8.610  1.00  0.00    -0.033 SA
ENDROOT
BRANCH   1   3
HETATM    3  N1  UNL     1      26.166  18.980  -6.373  1.00  0.00    -0.366 N 
HETATM    4  C1  UNL     1      26.635  20.373  -6.401  1.00  0.00     0.149 C 
ATOM      5  H1  UNL     1      26.575  18.299  -5.734  1.00  0.00     0.161 HD
ENDBRANCH   1   3
BRANCH   1   6
HETATM    6  O1  UNL     1      23.833  19.026  -6.966  1.00  0.00    -0.332 OA
HETATM    7  C3  UNL     1      22.833  18.050  -6.851  1.00  0.00     0.212 C 
ENDBRANCH   1   6
TORSDOF 2
ENDMDL
MODEL 3
REMARK VINA RESULT: -3.222389874      2.134      2.925
REMARK  2 active torsions:
REMARK  status: ('A' for Active; 'I' for Inactive)
REMARK    1  A    between atoms: N1_2  and  C2_4 
REMARK    2  A    between atoms: C2_4  and  O1_6 
ROOT
HETATM    1  C2  UNL     1      25.160  19.104  -7.472  1.00  0.00     0.209 C 
HETATM    2  S1  UNL     1      26.389  19.661  -6.582  1.00  0.00    -0.033 SA
ENDROOT
BRANCH   1   3
HETATM    3  N1  UNL     1      25.335  18.489  -8.743  1.00  0.00    -0.366 N 
HETATM    4  C1  UNL     1      26.065  19.242  -9.773  1.00  0.00     0.149 C 
ATOM      5  H1  UNL     1      24.968  17.557  -8.933  1.00  0.00     0.161 HD
ENDBRANCH   1   3
BRANCH   1   6
HETATM    6  O1  UNL     1      23.866  19.225  -6.983  1.00  0.00    -0.332 OA
HETATM    7  C3  UNL     1      23.048  18.087  -6.978  1.00  0.00     0.212 C 
ENDBRANCH   1   6
TORSDOF 2
ENDMDL
MODEL 4
REMARK VINA RESULT: -3.088431253      1.069      1.069
REMARK  2 active torsions:
REMARK  status: ('A' for Active; 'I' for Inactive)
REMARK    1  A    between atoms: N1_2  and  C2_4 
REMARK    2  A    between atoms: C2_4  and  O1_6 
ROOT
HETATM    1  C2  UNL     1      24.908  18.994  -7.959  1.00  0.00     0.209 C 
HETATM    2  S1  UNL     1      26.006  19.064  -9.144  1.00  0.00    -0.033 SA
ENDROOT
BRANCH   1   3
HETATM    3  N1  UNL     1      24.043  17.882  -7.765  1.00  0.00    -0.366 N 
HETATM    4  C1  UNL     1      22.893  18.058  -6.867  1.00  0.00     0.149 C 
ATOM      5  H1  UNL     1      24.216  16.992  -8.233  1.00  0.00     0.161 HD
ENDBRANCH   1   3
BRANCH   1   6
HETATM    6  O1  UNL     1      24.795  20.066  -7.083  1.00  0.00    -0.332 OA
HETATM    7  C3  UNL     1      25.802  21.041  -7.091  1.00  0.00     0.212 C 
ENDBRANCH   1   6
TORSDOF 2
ENDMDL
MODEL 5
REMARK VINA RESULT: -3.059235675      1.955      2.084
REMARK  2 active torsions:
REMARK  status: ('A' for Active; 'I' for Inactive)
REMARK    1  A    between atoms: N1_2  and  C2_4 
REMARK    2  A    between atoms: C2_4  and  O1_6 
ROOT
HETATM    1  C2  UNL     1      24.489  18.817  -7.534  1.00  0.00     0.209 C 
HETATM    2  S1  UNL     1      23.153  18.081  -6.999  1.00  0.00    -0.033 SA
ENDROOT
BRANCH   1   3
HETATM    3  N1  UNL     1      25.171  18.426  -8.719  1.00  0.00    -0.366 N 
HETATM    4  C1  UNL     1      25.684  17.050  -8.791  1.00  0.00     0.149 C 
ATOM      5  H1  UNL     1      25.300  19.077  -9.493  1.00  0.00     0.161 HD
ENDBRANCH   1   3
BRANCH   1   6
HETATM    6  O1  UNL     1      25.005  19.885  -6.811  1.00  0.00    -0.332 OA
HETATM    7  C3  UNL     1      26.357  19.847  -6.443  1.00  0.00     0.212 C 
ENDBRANCH   1   6
TORSDOF 2
ENDMDL
