MODEL 1
REMARK VINA RESULT: -4.988620559      0.000      0.000
REMARK  0 active torsions:
REMARK  status: ('A' for Active; 'I' for Inactive)
ROOT
HETATM    1  N1  UNL     1      21.897  16.575  -7.840  1.00  0.00    -0.172 NA
HETATM    2  C1  UNL     1      22.602  17.376  -7.382  1.00  0.00     0.183 C 
HETATM    3  N2  UNL     1      23.458  18.349  -6.851  1.00  0.00    -0.279 N 
ATOM      4  H2  UNL     1      23.289  18.739  -5.924  1.00  0.00     0.179 HD
HETATM    5  C2  UNL     1      24.477  18.750  -7.564  1.00  0.00     0.117 A 
HETATM    6  C3  UNL     1      25.334  19.706  -7.063  1.00  0.00     0.074 A 
HETATM    7  C4  UNL     1      26.397  20.085  -7.876  1.00  0.00     0.147 A 
HETATM    8  O1  UNL     1      26.571  19.552  -9.067  1.00  0.00    -0.318 OA
HETATM    9  C5  UNL     1      25.760  18.643  -9.550  1.00  0.00     0.234 A 
HETATM   10  N3  UNL     1      24.723  18.254  -8.791  1.00  0.00    -0.333 N 
ATOM     11  H3  UNL     1      24.089  17.546  -9.162  1.00  0.00     0.168 HD
ENDROOT
TORSDOF 0
ENDMDL
MODEL 2
REMARK VINA RESULT: -4.925193103      1.045      1.768
REMARK  0 active torsions:
REMARK  status: ('A' for Active; 'I' for Inactive)
ROOT
HETATM    1  N1  UNL     1      21.974  16.974  -7.375  1.00  0.00    -0.172 NA
HETATM    2  C1  UNL     1      22.952  17.118  -7.984  1.00  0.00     0.183 C 
HETATM    3  N2  UNL     1      24.141  17.304  -8.701  1.00  0.00    -0.279 N 
ATOM      4  H2  UNL     1      24.413  16.649  -9.433  1.00  0.00     0.179 HD
HETATM    5  C2  UNL     1      24.896  18.331  -8.415  1.00  0.00     0.117 A 
HETATM    6  C3  UNL     1      26.071  18.535  -9.107  1.00  0.00     0.074 A 
HETATM    7  C4  UNL     1      26.824  19.648  -8.750  1.00  0.00     0.147 A 
HETATM    8  O1  UNL     1      26.431  20.464  -7.795  1.00  0.00    -0.318 OA
HETATM    9  C5  UNL     1      25.316  20.275  -7.132  1.00  0.00     0.234 A 
HETATM   10  N3  UNL     1      24.563  19.210  -7.452  1.00  0.00    -0.333 N 
ATOM     11  H3  UNL     1      23.694  19.059  -6.939  1.00  0.00     0.168 HD
ENDROOT
TORSDOF 0
ENDMDL
MODEL 3
REMARK VINA RESULT: -4.838502707      2.389      3.879
REMARK  0 active torsions:
REMARK  status: ('A' for Active; 'I' for Inactive)
ROOT
HETATM    1  N1  UNL     1      28.409  20.672  -7.396  1.00  0.00    -0.172 NA
HETATM    2  C1  UNL     1      27.296  20.459  -7.143  1.00  0.00     0.183 C 
HETATM    3  N2  UNL     1      25.957  20.180  -6.843  1.00  0.00    -0.279 N 
ATOM      4  H2  UNL     1      25.424  20.794  -6.227  1.00  0.00     0.179 HD
HETATM    5  C2  UNL     1      25.400  19.120  -7.366  1.00  0.00     0.117 A 
HETATM    6  C3  UNL     1      24.083  18.825  -7.086  1.00  0.00     0.074 A 
HETATM    7  C4  UNL     1      23.557  17.681  -7.676  1.00  0.00     0.147 A 
HETATM    8  O1  UNL     1      24.286  16.919  -8.464  1.00  0.00    -0.318 OA
HETATM    9  C5  UNL     1      25.539  17.193  -8.734  1.00  0.00     0.234 A 
HETATM   10  N3  UNL     1      26.080  18.292  -8.180  1.00  0.00    -0.333 N 
ATOM     11  H3  UNL     1      27.055  18.509  -8.388  1.00  0.00     0.168 HD
ENDROOT
TORSDOF 0
ENDMDL
MODEL 4
REMARK VINA RESULT: -4.836158000      1.599      2.228
REMARK  0 active torsions:
REMARK  status: ('A' for Active; 'I' for Inactive)
ROOT
HETATM    1  N1  UNL     1      22.624  18.012  -6.465  1.00  0.00    -0.172 NA
HETATM    2  C1  UNL     1      23.441  18.205  -7.267  1.00  0.00     0.183 C 
HETATM    3  N2  UNL     1      24.443  18.438  -8.217  1.00  0.00    -0.279 N 
ATOM      4  H2  UNL     1      24.318  18.145  -9.186  1.00  0.00     0.179 HD
HETATM    5  C2  UNL     1      25.542  19.038  -7.842  1.00  0.00     0.117 A 
HETATM    6  C3  UNL     1      26.542  19.279  -8.760  1.00  0.00     0.074 A 
HETATM    7  C4  UNL     1      27.683  19.920  -8.291  1.00  0.00     0.147 A 
HETATM    8  O1  UNL     1      27.798  20.278  -7.029  1.00  0.00    -0.318 OA
HETATM    9  C5  UNL     1      26.852  20.052  -6.151  1.00  0.00     0.234 A 
HETATM   10  N3  UNL     1      25.734  19.434  -6.570  1.00  0.00    -0.333 N 
ATOM     11  H3  UNL     1      24.995  19.255  -5.891  1.00  0.00     0.168 HD
ENDROOT
TORSDOF 0
ENDMDL
MODEL 5
REMARK VINA RESULT: -4.681519039      2.427      3.897
REMARK  0 active torsions:
REMARK  status: ('A' for Active; 'I' for Inactive)
ROOT
HETATM    1  N1  UNL     1      25.733  21.959  -6.149  1.00  0.00    -0.172 NA
HETATM    2  C1  UNL     1      25.944  21.066  -6.860  1.00  0.00     0.183 C 
HETATM    3  N2  UNL     1      26.175  19.983  -7.718  1.00  0.00    -0.279 N 
ATOM      4  H2  UNL     1      27.026  19.938  -8.278  1.00  0.00     0.179 HD
HETATM    5  C2  UNL     1      25.281  19.033  -7.791  1.00  0.00     0.117 A 
HETATM    6  C3  UNL     1      25.487  17.958  -8.629  1.00  0.00     0.074 A 
HETATM    7  C4  UNL     1      24.495  16.984  -8.655  1.00  0.00     0.147 A 
HETATM    8  O1  UNL     1      23.412  17.089  -7.914  1.00  0.00    -0.318 OA
HETATM    9  C5  UNL     1      23.209  18.109  -7.116  1.00  0.00     0.234 A 
HETATM   10  N3  UNL     1      24.149  19.068  -7.065  1.00  0.00    -0.333 N 
ATOM     11  H3  UNL     1      23.995  19.864  -6.445  1.00  0.00     0.168 HD
ENDROOT
TORSDOF 0
ENDMDL
