MODEL 1
REMARK VINA RESULT: -5.915757186      0.000      0.000
REMARK  2 active torsions:
REMARK  status: ('A' for Active; 'I' for Inactive)
REMARK    1  A    between atoms: O1_1  and  N1_3 
REMARK    2  A    between atoms: N1_3  and  C1_5 
ROOT
HETATM    1  C1  UNL     1      23.696  17.232  -8.051  1.00  0.00     0.124 C 
HETATM    2  C2  UNL     1      23.588  18.253  -7.135  1.00  0.00     0.050 C 
HETATM    3  C3  UNL     1      24.367  19.410  -7.020  1.00  0.00     0.004 C 
HETATM    4  C4  UNL     1      25.474  19.778  -7.772  1.00  0.00     0.001 C 
HETATM    5  C5  UNL     1      26.181  18.948  -8.626  1.00  0.00     0.017 C 
HETATM    6  C6  UNL     1      25.934  17.620  -8.912  1.00  0.00     0.089 C 
HETATM    7  N2  UNL     1      24.841  16.863  -8.686  1.00  0.00    -0.351 N 
ATOM      8  H2  UNL     1      24.877  15.903  -9.031  1.00  0.00     0.166 HD
ENDROOT
BRANCH   1   9
HETATM    9  N1  UNL     1      22.616  16.573  -8.327  1.00  0.00    -0.253 N 
ATOM     10  H1  UNL     1      22.529  16.065  -9.207  1.00  0.00     0.196 HD
BRANCH   9  11
HETATM   11  O1  UNL     1      21.588  16.570  -7.416  1.00  0.00    -0.288 OA
ATOM     12  H1  UNL     1      21.462  15.806  -6.866  1.00  0.00     0.244 HD
ENDBRANCH   9  11
ENDBRANCH   1   9
TORSDOF 2
ENDMDL
MODEL 2
REMARK VINA RESULT: -5.321660103      0.966      1.089
REMARK  2 active torsions:
REMARK  status: ('A' for Active; 'I' for Inactive)
REMARK    1  A    between atoms: O1_1  and  N1_3 
REMARK    2  A    between atoms: N1_3  and  C1_5 
ROOT
HETATM    1  C1  UNL     1      24.050  17.960  -7.771  1.00  0.00     0.124 C 
HETATM    2  C2  UNL     1      24.673  18.783  -6.859  1.00  0.00     0.050 C 
HETATM    3  C3  UNL     1      25.614  19.792  -7.094  1.00  0.00     0.004 C 
HETATM    4  C4  UNL     1      26.188  20.167  -8.299  1.00  0.00     0.001 C 
HETATM    5  C5  UNL     1      26.128  19.447  -9.481  1.00  0.00     0.017 C 
HETATM    6  C6  UNL     1      25.492  18.242  -9.705  1.00  0.00     0.089 C 
HETATM    7  N2  UNL     1      24.563  17.591  -8.976  1.00  0.00    -0.351 N 
ATOM      8  H2  UNL     1      24.203  16.723  -9.373  1.00  0.00     0.166 HD
ENDROOT
BRANCH   1   9
HETATM    9  N1  UNL     1      22.882  17.504  -7.448  1.00  0.00    -0.253 N 
ATOM     10  H1  UNL     1      22.384  17.881  -6.642  1.00  0.00     0.196 HD
BRANCH   9  11
HETATM   11  O1  UNL     1      22.324  16.505  -8.208  1.00  0.00    -0.288 OA
ATOM     12  H1  UNL     1      22.243  16.631  -9.146  1.00  0.00     0.244 HD
ENDBRANCH   9  11
ENDBRANCH   1   9
TORSDOF 2
ENDMDL
MODEL 3
REMARK VINA RESULT: -5.303306301      1.853      2.926
REMARK  2 active torsions:
REMARK  status: ('A' for Active; 'I' for Inactive)
REMARK    1  A    between atoms: O1_1  and  N1_3 
REMARK    2  A    between atoms: N1_3  and  C1_5 
ROOT
HETATM    1  C1  UNL     1      25.533  17.215  -8.831  1.00  0.00     0.124 C 
HETATM    2  C2  UNL     1      25.934  18.524  -8.682  1.00  0.00     0.050 C 
HETATM    3  C3  UNL     1      25.405  19.509  -7.840  1.00  0.00     0.004 C 
HETATM    4  C4  UNL     1      24.311  19.417  -6.993  1.00  0.00     0.001 C 
HETATM    5  C5  UNL     1      23.368  18.401  -6.999  1.00  0.00     0.017 C 
HETATM    6  C6  UNL     1      23.326  17.291  -7.818  1.00  0.00     0.089 C 
HETATM    7  N2  UNL     1      24.275  16.747  -8.608  1.00  0.00    -0.351 N 
ATOM      8  H2  UNL     1      24.020  15.888  -9.094  1.00  0.00     0.166 HD
ENDROOT
BRANCH   1   9
HETATM    9  N1  UNL     1      26.432  16.365  -9.215  1.00  0.00    -0.253 N 
ATOM     10  H1  UNL     1      27.411  16.643  -9.283  1.00  0.00     0.196 HD
BRANCH   9  11
HETATM   11  O1  UNL     1      26.047  15.085  -9.528  1.00  0.00    -0.288 OA
ATOM     12  H1  UNL     1      26.148  14.402  -8.876  1.00  0.00     0.244 HD
ENDBRANCH   9  11
ENDBRANCH   1   9
TORSDOF 2
ENDMDL
MODEL 4
REMARK VINA RESULT: -5.106552329      1.318      2.082
REMARK  2 active torsions:
REMARK  status: ('A' for Active; 'I' for Inactive)
REMARK    1  A    between atoms: O1_1  and  N1_3 
REMARK    2  A    between atoms: N1_3  and  C1_5 
ROOT
HETATM    1  C1  UNL     1      23.312  17.972  -7.441  1.00  0.00     0.124 C 
HETATM    2  C2  UNL     1      23.927  17.193  -8.395  1.00  0.00     0.050 C 
HETATM    3  C3  UNL     1      25.271  17.190  -8.786  1.00  0.00     0.004 C 
HETATM    4  C4  UNL     1      26.296  18.013  -8.344  1.00  0.00     0.001 C 
HETATM    5  C5  UNL     1      26.137  19.174  -7.605  1.00  0.00     0.017 C 
HETATM    6  C6  UNL     1      24.959  19.735  -7.154  1.00  0.00     0.089 C 
HETATM    7  N2  UNL     1      23.719  19.211  -7.056  1.00  0.00    -0.351 N 
ATOM      8  H2  UNL     1      23.006  19.814  -6.645  1.00  0.00     0.166 HD
ENDROOT
BRANCH   1   9
HETATM    9  N1  UNL     1      22.261  17.479  -6.868  1.00  0.00    -0.253 N 
ATOM     10  H1  UNL     1      21.956  17.825  -5.958  1.00  0.00     0.196 HD
BRANCH   9  11
HETATM   11  O1  UNL     1      21.562  16.482  -7.504  1.00  0.00    -0.288 OA
ATOM     12  H1  UNL     1      20.857  16.719  -8.095  1.00  0.00     0.244 HD
ENDBRANCH   9  11
ENDBRANCH   1   9
TORSDOF 2
ENDMDL
MODEL 5
REMARK VINA RESULT: -5.075157709      1.431      2.349
REMARK  2 active torsions:
REMARK  status: ('A' for Active; 'I' for Inactive)
REMARK    1  A    between atoms: O1_1  and  N1_3 
REMARK    2  A    between atoms: N1_3  and  C1_5 
ROOT
HETATM    1  C1  UNL     1      24.572  18.146  -8.461  1.00  0.00     0.124 C 
HETATM    2  C2  UNL     1      25.231  18.454  -9.630  1.00  0.00     0.050 C 
HETATM    3  C3  UNL     1      26.267  19.372  -9.834  1.00  0.00     0.004 C 
HETATM    4  C4  UNL     1      26.841  20.236  -8.913  1.00  0.00     0.001 C 
HETATM    5  C5  UNL     1      26.330  20.538  -7.662  1.00  0.00     0.017 C 
HETATM    6  C6  UNL     1      25.179  20.048  -7.077  1.00  0.00     0.089 C 
HETATM    7  N2  UNL     1      24.413  18.987  -7.404  1.00  0.00    -0.351 N 
ATOM      8  H2  UNL     1      23.624  18.794  -6.788  1.00  0.00     0.166 HD
ENDROOT
BRANCH   1   9
HETATM    9  N1  UNL     1      24.066  16.958  -8.367  1.00  0.00    -0.253 N 
ATOM     10  H1  UNL     1      24.673  16.138  -8.331  1.00  0.00     0.196 HD
BRANCH   9  11
HETATM   11  O1  UNL     1      22.701  16.818  -8.314  1.00  0.00    -0.288 OA
ATOM     12  H1  UNL     1      22.174  17.176  -9.019  1.00  0.00     0.244 HD
ENDBRANCH   9  11
ENDBRANCH   1   9
TORSDOF 2
ENDMDL
