MODEL 1
REMARK VINA RESULT: -4.985893912      0.000      0.000
REMARK  2 active torsions:
REMARK  status: ('A' for Active; 'I' for Inactive)
REMARK    1  A    between atoms: N1_1  and  C1_5 
REMARK    2  A    between atoms: C4_8  and  O1_9 
ROOT
HETATM    1  C1  UNL     1      26.273  18.854  -7.962  1.00  0.00     0.184 C 
HETATM    2  C2  UNL     1      25.172  18.789  -6.924  1.00  0.00     0.040 C 
HETATM    3  C3  UNL     1      23.921  18.446  -7.687  1.00  0.00     0.023 A 
HETATM    4  C4  UNL     1      23.683  17.026  -8.001  1.00  0.00     0.127 A 
HETATM    5  C5  UNL     1      24.328  17.929  -9.030  1.00  0.00     0.023 A 
HETATM    6  C6  UNL     1      25.837  17.979  -9.099  1.00  0.00     0.040 C 
ENDROOT
BRANCH   1   7
HETATM    7  N1  UNL     1      26.606  20.192  -8.351  1.00  0.00    -0.075 N 
ATOM      8  H13 UNL     1      25.853  20.838  -8.111  1.00  0.00     0.274 HD
ATOM      9  H12 UNL     1      27.346  20.569  -7.757  1.00  0.00     0.274 HD
ATOM     10  H11 UNL     1      26.855  20.275  -9.336  1.00  0.00     0.274 HD
ENDBRANCH   1   7
BRANCH   4  11
HETATM   11  O1  UNL     1      22.426  16.535  -8.315  1.00  0.00    -0.395 OA
ATOM     12  H1  UNL     1      21.855  16.144  -7.666  1.00  0.00     0.210 HD
ENDBRANCH   4  11
TORSDOF 2
ENDMDL
MODEL 2
REMARK VINA RESULT: -4.855139569      0.890      1.703
REMARK  2 active torsions:
REMARK  status: ('A' for Active; 'I' for Inactive)
REMARK    1  A    between atoms: N1_1  and  C1_5 
REMARK    2  A    between atoms: C4_8  and  O1_9 
ROOT
HETATM    1  C1  UNL     1      26.160  19.868  -8.325  1.00  0.00     0.184 C 
HETATM    2  C2  UNL     1      26.098  18.721  -9.311  1.00  0.00     0.040 C 
HETATM    3  C3  UNL     1      25.378  17.612  -8.592  1.00  0.00     0.023 A 
HETATM    4  C4  UNL     1      23.905  17.655  -8.578  1.00  0.00     0.127 A 
HETATM    5  C5  UNL     1      24.688  18.206  -7.405  1.00  0.00     0.023 A 
HETATM    6  C6  UNL     1      25.007  19.683  -7.384  1.00  0.00     0.040 C 
ENDROOT
BRANCH   1   7
HETATM    7  N1  UNL     1      27.431  19.988  -7.674  1.00  0.00    -0.075 N 
ATOM      8  H13 UNL     1      27.643  19.147  -7.137  1.00  0.00     0.274 HD
ATOM      9  H12 UNL     1      28.191  19.950  -8.354  1.00  0.00     0.274 HD
ATOM     10  H11 UNL     1      27.507  20.821  -7.090  1.00  0.00     0.274 HD
ENDBRANCH   1   7
BRANCH   4  11
HETATM   11  O1  UNL     1      23.132  16.532  -8.327  1.00  0.00    -0.395 OA
ATOM     12  H1  UNL     1      22.200  16.506  -8.506  1.00  0.00     0.210 HD
ENDBRANCH   4  11
TORSDOF 2
ENDMDL
MODEL 3
REMARK VINA RESULT: -4.685258763      2.660      3.217
REMARK  2 active torsions:
REMARK  status: ('A' for Active; 'I' for Inactive)
REMARK    1  A    between atoms: N1_1  and  C1_5 
REMARK    2  A    between atoms: C4_8  and  O1_9 
ROOT
HETATM    1  C1  UNL     1      24.854  17.765  -9.046  1.00  0.00     0.184 C 
HETATM    2  C2  UNL     1      24.124  18.052  -7.751  1.00  0.00     0.040 C 
HETATM    3  C3  UNL     1      25.089  18.847  -6.914  1.00  0.00     0.023 A 
HETATM    4  C4  UNL     1      25.175  20.296  -7.165  1.00  0.00     0.127 A 
HETATM    5  C5  UNL     1      26.168  19.357  -7.814  1.00  0.00     0.023 A 
HETATM    6  C6  UNL     1      25.875  18.851  -9.208  1.00  0.00     0.040 C 
ENDROOT
BRANCH   1   7
HETATM    7  N1  UNL     1      25.398  16.440  -9.107  1.00  0.00    -0.075 N 
ATOM      8  H13 UNL     1      25.170  15.915  -8.262  1.00  0.00     0.274 HD
ATOM      9  H12 UNL     1      24.899  15.875  -9.796  1.00  0.00     0.274 HD
ATOM     10  H11 UNL     1      26.402  16.425  -9.284  1.00  0.00     0.274 HD
ENDBRANCH   1   7
BRANCH   4  11
HETATM   11  O1  UNL     1      25.687  21.183  -6.232  1.00  0.00    -0.395 OA
ATOM     12  H1  UNL     1      26.562  21.097  -5.874  1.00  0.00     0.210 HD
ENDBRANCH   4  11
TORSDOF 2
ENDMDL
MODEL 4
REMARK VINA RESULT: -4.668447636      1.081      1.117
REMARK  2 active torsions:
REMARK  status: ('A' for Active; 'I' for Inactive)
REMARK    1  A    between atoms: N1_1  and  C1_5 
REMARK    2  A    between atoms: C4_8  and  O1_9 
ROOT
HETATM    1  C1  UNL     1      26.255  18.484  -8.226  1.00  0.00     0.184 C 
HETATM    2  C2  UNL     1      25.531  19.260  -7.146  1.00  0.00     0.040 C 
HETATM    3  C3  UNL     1      24.066  19.054  -7.417  1.00  0.00     0.023 A 
HETATM    4  C4  UNL     1      23.448  17.814  -6.914  1.00  0.00     0.127 A 
HETATM    5  C5  UNL     1      23.929  17.891  -8.347  1.00  0.00     0.023 A 
HETATM    6  C6  UNL     1      25.321  17.397  -8.667  1.00  0.00     0.040 C 
ENDROOT
BRANCH   1   7
HETATM    7  N1  UNL     1      26.732  19.311  -9.295  1.00  0.00    -0.075 N 
ATOM      8  H13 UNL     1      25.958  19.791  -9.755  1.00  0.00     0.274 HD
ATOM      9  H12 UNL     1      27.238  20.119  -8.930  1.00  0.00     0.274 HD
ATOM     10  H11 UNL     1      27.300  18.804  -9.974  1.00  0.00     0.274 HD
ENDBRANCH   1   7
BRANCH   4  11
HETATM   11  O1  UNL     1      22.081  17.687  -6.731  1.00  0.00    -0.395 OA
ATOM     12  H1  UNL     1      21.689  16.914  -6.342  1.00  0.00     0.210 HD
ENDBRANCH   4  11
TORSDOF 2
ENDMDL
MODEL 5
REMARK VINA RESULT: -4.625103183      2.894      3.476
REMARK  2 active torsions:
REMARK  status: ('A' for Active; 'I' for Inactive)
REMARK    1  A    between atoms: N1_1  and  C1_5 
REMARK    2  A    between atoms: C4_8  and  O1_9 
ROOT
HETATM    1  C1  UNL     1      24.192  18.039  -8.587  1.00  0.00     0.184 C 
HETATM    2  C2  UNL     1      24.223  18.755  -7.253  1.00  0.00     0.040 C 
HETATM    3  C3  UNL     1      25.664  18.733  -6.819  1.00  0.00     0.023 A 
HETATM    4  C4  UNL     1      26.557  19.766  -7.372  1.00  0.00     0.127 A 
HETATM    5  C5  UNL     1      26.499  18.396  -8.013  1.00  0.00     0.023 A 
HETATM    6  C6  UNL     1      25.562  18.186  -9.180  1.00  0.00     0.040 C 
ENDROOT
BRANCH   1   7
HETATM    7  N1  UNL     1      23.740  16.683  -8.491  1.00  0.00    -0.075 N 
ATOM      8  H13 UNL     1      22.754  16.647  -8.235  1.00  0.00     0.274 HD
ATOM      9  H12 UNL     1      23.690  16.252  -9.415  1.00  0.00     0.274 HD
ATOM     10  H11 UNL     1      24.302  16.116  -7.856  1.00  0.00     0.274 HD
ENDBRANCH   1   7
BRANCH   4  11
HETATM   11  O1  UNL     1      27.756  20.112  -6.769  1.00  0.00    -0.395 OA
ATOM     12  H1  UNL     1      28.502  20.428  -7.264  1.00  0.00     0.210 HD
ENDBRANCH   4  11
TORSDOF 2
ENDMDL
