MODEL 1
REMARK VINA RESULT: -5.286690742      0.000      0.000
REMARK  2 active torsions:
REMARK  status: ('A' for Active; 'I' for Inactive)
REMARK    1  A    between atoms: O1_1  and  C1_3 
REMARK    2  A    between atoms: C6_8  and  O2_9 
ROOT
HETATM    1  C1  UNL     1      24.489  17.264  -8.450  1.00  0.00     0.169 A 
HETATM    2  C2  UNL     1      25.286  18.016  -9.218  1.00  0.00     0.003 A 
HETATM    3  C3  UNL     1      25.755  18.776  -9.305  1.00  0.00    -0.028 A 
HETATM    4  C4  UNL     1      26.155  19.965  -8.770  1.00  0.00     0.029 A 
HETATM    5  C5  UNL     1      25.259  19.644  -7.409  1.00  0.00     0.038 A 
HETATM    6  C6  UNL     1      24.552  18.394  -7.203  1.00  0.00     0.151 A 
ENDROOT
BRANCH   1   7
HETATM    7  O1  UNL     1      23.178  17.205  -8.798  1.00  0.00    -0.389 OA
ATOM      8  H1  UNL     1      22.710  18.030  -8.852  1.00  0.00     0.210 HD
ENDBRANCH   1   7
BRANCH   6   9
HETATM    9  O2  UNL     1      23.212  18.616  -6.943  1.00  0.00    -0.393 OA
ATOM     10  H2  UNL     1      23.246  19.155  -6.161  1.00  0.00     0.210 HD
ENDBRANCH   6   9
TORSDOF 2
ENDMDL
MODEL 2
REMARK VINA RESULT: -5.247455344      1.881      3.225
REMARK  2 active torsions:
REMARK  status: ('A' for Active; 'I' for Inactive)
REMARK    1  A    between atoms: O1_1  and  C1_3 
REMARK    2  A    between atoms: C6_8  and  O2_9 
ROOT
HETATM    1  C1  UNL     1      25.540  19.190  -7.288  1.00  0.00     0.169 A 
HETATM    2  C2  UNL     1      24.285  18.787  -7.055  1.00  0.00     0.003 A 
HETATM    3  C3  UNL     1      23.626  18.212  -7.253  1.00  0.00    -0.028 A 
HETATM    4  C4  UNL     1      23.190  17.151  -7.991  1.00  0.00     0.029 A 
HETATM    5  C5  UNL     1      24.653  17.105  -8.775  1.00  0.00     0.038 A 
HETATM    6  C6  UNL     1      25.765  17.970  -8.426  1.00  0.00     0.151 A 
ENDROOT
BRANCH   1   7
HETATM    7  O1  UNL     1      25.695  20.345  -7.983  1.00  0.00    -0.389 OA
ATOM      8  H1  UNL     1      26.335  20.964  -7.652  1.00  0.00     0.210 HD
ENDBRANCH   1   7
BRANCH   6   9
HETATM    9  O2  UNL     1      26.211  18.677  -9.528  1.00  0.00    -0.393 OA
ATOM     10  H2  UNL     1      26.852  18.083  -9.902  1.00  0.00     0.210 HD
ENDBRANCH   6   9
TORSDOF 2
ENDMDL
MODEL 3
REMARK VINA RESULT: -5.242225423      1.829      2.646
REMARK  2 active torsions:
REMARK  status: ('A' for Active; 'I' for Inactive)
REMARK    1  A    between atoms: O1_1  and  C1_3 
REMARK    2  A    between atoms: C6_8  and  O2_9 
ROOT
HETATM    1  C1  UNL     1      24.961  17.533  -9.156  1.00  0.00     0.169 A 
HETATM    2  C2  UNL     1      23.842  17.100  -8.564  1.00  0.00     0.003 A 
HETATM    3  C3  UNL     1      23.230  17.224  -7.920  1.00  0.00    -0.028 A 
HETATM    4  C4  UNL     1      22.782  17.967  -6.867  1.00  0.00     0.029 A 
HETATM    5  C5  UNL     1      24.085  18.982  -7.040  1.00  0.00     0.038 A 
HETATM    6  C6  UNL     1      25.051  18.854  -8.116  1.00  0.00     0.151 A 
ENDROOT
BRANCH   1   7
HETATM    7  O1  UNL     1      26.096  16.827  -8.916  1.00  0.00    -0.389 OA
ATOM      8  H1  UNL     1      26.074  16.211  -8.193  1.00  0.00     0.210 HD
ENDBRANCH   1   7
BRANCH   6   9
HETATM    9  O2  UNL     1      26.338  18.749  -7.620  1.00  0.00    -0.393 OA
ATOM     10  H2  UNL     1      26.190  18.738  -6.681  1.00  0.00     0.210 HD
ENDBRANCH   6   9
TORSDOF 2
ENDMDL
MODEL 4
REMARK VINA RESULT: -5.196771485      1.854      2.637
REMARK  2 active torsions:
REMARK  status: ('A' for Active; 'I' for Inactive)
REMARK    1  A    between atoms: O1_1  and  C1_3 
REMARK    2  A    between atoms: C6_8  and  O2_9 
ROOT
HETATM    1  C1  UNL     1      25.720  19.215  -8.754  1.00  0.00     0.169 A 
HETATM    2  C2  UNL     1      25.070  18.090  -9.073  1.00  0.00     0.003 A 
HETATM    3  C3  UNL     1      24.417  17.509  -8.869  1.00  0.00    -0.028 A 
HETATM    4  C4  UNL     1      23.404  17.145  -8.032  1.00  0.00     0.029 A 
HETATM    5  C5  UNL     1      23.729  18.463  -7.077  1.00  0.00     0.038 A 
HETATM    6  C6  UNL     1      24.725  19.462  -7.418  1.00  0.00     0.151 A 
ENDROOT
BRANCH   1   7
HETATM    7  O1  UNL     1      26.968  19.078  -8.236  1.00  0.00    -0.389 OA
ATOM      8  H1  UNL     1      27.098  18.376  -7.610  1.00  0.00     0.210 HD
ENDBRANCH   1   7
BRANCH   6   9
HETATM    9  O2  UNL     1      25.643  19.620  -6.395  1.00  0.00    -0.393 OA
ATOM     10  H2  UNL     1      25.751  18.729  -6.084  1.00  0.00     0.210 HD
ENDBRANCH   6   9
TORSDOF 2
ENDMDL
MODEL 5
REMARK VINA RESULT: -5.032617528      1.452      2.321
REMARK  2 active torsions:
REMARK  status: ('A' for Active; 'I' for Inactive)
REMARK    1  A    between atoms: O1_1  and  C1_3 
REMARK    2  A    between atoms: C6_8  and  O2_9 
ROOT
HETATM    1  C1  UNL     1      23.554  17.556  -8.550  1.00  0.00     0.169 A 
HETATM    2  C2  UNL     1      23.829  18.312  -7.480  1.00  0.00     0.003 A 
HETATM    3  C3  UNL     1      24.453  18.721  -6.982  1.00  0.00    -0.028 A 
HETATM    4  C4  UNL     1      25.769  19.011  -6.775  1.00  0.00     0.029 A 
HETATM    5  C5  UNL     1      26.171  18.107  -8.109  1.00  0.00     0.038 A 
HETATM    6  C6  UNL     1      25.182  17.496  -8.978  1.00  0.00     0.151 A 
ENDROOT
BRANCH   1   7
HETATM    7  O1  UNL     1      23.209  16.264  -8.318  1.00  0.00    -0.389 OA
ATOM      8  H1  UNL     1      23.115  15.701  -9.077  1.00  0.00     0.210 HD
ENDBRANCH   1   7
BRANCH   6   9
HETATM    9  O2  UNL     1      25.401  16.136  -9.103  1.00  0.00    -0.393 OA
ATOM     10  H2  UNL     1      26.164  16.107  -9.668  1.00  0.00     0.210 HD
ENDBRANCH   6   9
TORSDOF 2
ENDMDL
