MODEL 1
REMARK VINA RESULT: -5.210117652      0.000      0.000
REMARK  2 active torsions:
REMARK  status: ('A' for Active; 'I' for Inactive)
REMARK    1  A    between atoms: O1_1  and  C1_3 
REMARK    2  A    between atoms: C6_8  and  O2_9 
ROOT
HETATM    1  C1  UNL     1      23.943  18.554  -7.489  1.00  0.00     0.169 C 
HETATM    2  C2  UNL     1      25.155  19.086  -6.809  1.00  0.00     0.003 C 
HETATM    3  C3  UNL     1      26.281  19.152  -7.508  1.00  0.00    -0.028 C 
HETATM    4  C4  UNL     1      26.306  18.698  -8.945  1.00  0.00     0.029 C 
HETATM    5  C5  UNL     1      25.630  17.322  -8.892  1.00  0.00     0.038 C 
HETATM    6  C6  UNL     1      24.208  17.406  -8.404  1.00  0.00     0.151 C 
ENDROOT
BRANCH   1   7
HETATM    7  O1  UNL     1      22.977  18.162  -6.533  1.00  0.00    -0.389 OA
ATOM      8  H1  UNL     1      22.215  18.727  -6.584  1.00  0.00     0.210 HD
ENDBRANCH   1   7
BRANCH   6   9
HETATM    9  O2  UNL     1      23.371  17.381  -9.513  1.00  0.00    -0.393 OA
ATOM     10  H2  UNL     1      23.264  18.232  -9.922  1.00  0.00     0.210 HD
ENDBRANCH   6   9
TORSDOF 2
ENDMDL
MODEL 2
REMARK VINA RESULT: -5.155687247      2.103      2.705
REMARK  2 active torsions:
REMARK  status: ('A' for Active; 'I' for Inactive)
REMARK    1  A    between atoms: O1_1  and  C1_3 
REMARK    2  A    between atoms: C6_8  and  O2_9 
ROOT
HETATM    1  C1  UNL     1      25.246  19.420  -7.218  1.00  0.00     0.169 C 
HETATM    2  C2  UNL     1      24.015  18.596  -7.356  1.00  0.00     0.003 C 
HETATM    3  C3  UNL     1      24.064  17.533  -8.150  1.00  0.00    -0.028 C 
HETATM    4  C4  UNL     1      25.340  17.191  -8.878  1.00  0.00     0.029 C 
HETATM    5  C5  UNL     1      25.750  18.524  -9.516  1.00  0.00     0.038 C 
HETATM    6  C6  UNL     1      26.014  19.590  -8.486  1.00  0.00     0.151 C 
ENDROOT
BRANCH   1   7
HETATM    7  O1  UNL     1      24.926  20.697  -6.703  1.00  0.00    -0.389 OA
ATOM      8  H1  UNL     1      24.386  21.176  -7.321  1.00  0.00     0.210 HD
ENDBRANCH   1   7
BRANCH   6   9
HETATM    9  O2  UNL     1      27.388  19.667  -8.291  1.00  0.00    -0.393 OA
ATOM     10  H2  UNL     1      27.874  19.814  -9.093  1.00  0.00     0.210 HD
ENDBRANCH   6   9
TORSDOF 2
ENDMDL
MODEL 3
REMARK VINA RESULT: -4.916245292      1.857      3.006
REMARK  2 active torsions:
REMARK  status: ('A' for Active; 'I' for Inactive)
REMARK    1  A    between atoms: O1_1  and  C1_3 
REMARK    2  A    between atoms: C6_8  and  O2_9 
ROOT
HETATM    1  C1  UNL     1      24.930  17.351  -8.800  1.00  0.00     0.169 C 
HETATM    2  C2  UNL     1      23.685  17.160  -8.009  1.00  0.00     0.003 C 
HETATM    3  C3  UNL     1      23.301  18.146  -7.207  1.00  0.00    -0.028 C 
HETATM    4  C4  UNL     1      24.117  19.410  -7.119  1.00  0.00     0.029 C 
HETATM    5  C5  UNL     1      25.545  18.893  -6.908  1.00  0.00     0.038 C 
HETATM    6  C6  UNL     1      26.022  18.053  -8.063  1.00  0.00     0.151 C 
ENDROOT
BRANCH   1   7
HETATM    7  O1  UNL     1      25.416  16.104  -9.257  1.00  0.00    -0.389 OA
ATOM      8  H1  UNL     1      26.148  16.233  -9.849  1.00  0.00     0.210 HD
ENDBRANCH   1   7
BRANCH   6   9
HETATM    9  O2  UNL     1      26.811  18.853  -8.881  1.00  0.00    -0.393 OA
ATOM     10  H2  UNL     1      26.343  19.597  -9.242  1.00  0.00     0.210 HD
ENDBRANCH   6   9
TORSDOF 2
ENDMDL
MODEL 4
REMARK VINA RESULT: -4.731924742      0.577      2.393
REMARK  2 active torsions:
REMARK  status: ('A' for Active; 'I' for Inactive)
REMARK    1  A    between atoms: O1_1  and  C1_3 
REMARK    2  A    between atoms: C6_8  and  O2_9 
ROOT
HETATM    1  C1  UNL     1      24.517  17.780  -8.543  1.00  0.00     0.169 C 
HETATM    2  C2  UNL     1      25.752  18.259  -9.220  1.00  0.00     0.003 C 
HETATM    3  C3  UNL     1      26.618  18.966  -8.504  1.00  0.00    -0.028 C 
HETATM    4  C4  UNL     1      26.337  19.259  -7.052  1.00  0.00     0.029 C 
HETATM    5  C5  UNL     1      24.897  19.784  -7.070  1.00  0.00     0.038 C 
HETATM    6  C6  UNL     1      23.923  18.758  -7.586  1.00  0.00     0.151 C 
ENDROOT
BRANCH   1   7
HETATM    7  O1  UNL     1      23.538  17.428  -9.502  1.00  0.00    -0.389 OA
ATOM      8  H1  UNL     1      23.377  16.491  -9.480  1.00  0.00     0.210 HD
ENDBRANCH   1   7
BRANCH   6   9
HETATM    9  O2  UNL     1      23.314  18.156  -6.492  1.00  0.00    -0.393 OA
ATOM     10  H2  UNL     1      23.505  17.228  -6.418  1.00  0.00     0.210 HD
ENDBRANCH   6   9
TORSDOF 2
ENDMDL
MODEL 5
REMARK VINA RESULT: -4.661947923      1.637      2.286
REMARK  2 active torsions:
REMARK  status: ('A' for Active; 'I' for Inactive)
REMARK    1  A    between atoms: O1_1  and  C1_3 
REMARK    2  A    between atoms: C6_8  and  O2_9 
ROOT
HETATM    1  C1  UNL     1      25.414  20.118  -7.364  1.00  0.00     0.169 C 
HETATM    2  C2  UNL     1      26.568  20.220  -8.298  1.00  0.00     0.003 C 
HETATM    3  C3  UNL     1      26.550  19.470  -9.393  1.00  0.00    -0.028 C 
HETATM    4  C4  UNL     1      25.385  18.552  -9.661  1.00  0.00     0.029 C 
HETATM    5  C5  UNL     1      25.213  17.804  -8.333  1.00  0.00     0.038 C 
HETATM    6  C6  UNL     1      24.884  18.734  -7.195  1.00  0.00     0.151 C 
ENDROOT
BRANCH   1   7
HETATM    7  O1  UNL     1      25.765  20.632  -6.094  1.00  0.00    -0.389 OA
ATOM      8  H1  UNL     1      25.042  20.526  -5.485  1.00  0.00     0.210 HD
ENDBRANCH   1   7
BRANCH   6   9
HETATM    9  O2  UNL     1      23.511  18.692  -6.989  1.00  0.00    -0.393 OA
ATOM     10  H2  UNL     1      23.270  18.600  -6.074  1.00  0.00     0.210 HD
ENDBRANCH   6   9
TORSDOF 2
ENDMDL
