MODEL 1
REMARK VINA RESULT: -3.275666372      0.000      0.000
REMARK  3 active torsions:
REMARK  status: ('A' for Active; 'I' for Inactive)
REMARK    1  A    between atoms: C2_4  and  N2_5 
REMARK    2  A    between atoms: C2_4  and  S1_8 
REMARK    3  A    between atoms: S1_8  and  N3_9 
ROOT
HETATM    1  C1  UNL     1      27.100  19.980  -6.472  1.00  0.00     0.148 C 
HETATM    2  N1  UNL     1      25.801  19.304  -6.608  1.00  0.00    -0.374 N 
ATOM      3  H1  UNL     1      25.142  19.371  -5.833  1.00  0.00     0.161 HD
HETATM    4  C2  UNL     1      25.436  18.613  -7.677  1.00  0.00     0.155 C 
ENDROOT
BRANCH   4   5
HETATM    5  N2  UNL     1      26.200  18.407  -8.833  1.00  0.00    -0.374 N 
HETATM    6  C3  UNL     1      26.146  19.269 -10.000  1.00  0.00     0.148 C 
ATOM      7  H2  UNL     1      26.830  17.605  -8.857  1.00  0.00     0.161 HD
ENDBRANCH   4   5
BRANCH   4   8
HETATM    8  S1  UNL     1      23.811  17.818  -7.760  1.00  0.00     0.015 SA
BRANCH   8   9
HETATM    9  N3  UNL     1      23.195  16.725  -8.369  1.00  0.00    -0.367 N 
ATOM     10  H32 UNL     1      23.414  16.738  -9.364  1.00  0.00     0.164 HD
ATOM     11  H31 UNL     1      22.604  15.931  -8.121  1.00  0.00     0.164 HD
ENDBRANCH   8   9
ENDBRANCH   4   8
TORSDOF 3
ENDMDL
MODEL 2
REMARK VINA RESULT: -3.248858145      0.708      2.412
REMARK  3 active torsions:
REMARK  status: ('A' for Active; 'I' for Inactive)
REMARK    1  A    between atoms: C2_4  and  N2_5 
REMARK    2  A    between atoms: C2_4  and  S1_8 
REMARK    3  A    between atoms: S1_8  and  N3_9 
ROOT
HETATM    1  C1  UNL     1      26.799  19.797 -10.023  1.00  0.00     0.148 C 
HETATM    2  N1  UNL     1      25.729  18.908  -9.544  1.00  0.00    -0.374 N 
ATOM      3  H1  UNL     1      25.353  18.218 -10.194  1.00  0.00     0.161 HD
HETATM    4  C2  UNL     1      25.225  18.950  -8.320  1.00  0.00     0.155 C 
ENDROOT
BRANCH   4   5
HETATM    5  N2  UNL     1      25.607  19.824  -7.294  1.00  0.00    -0.374 N 
HETATM    6  C3  UNL     1      26.631  19.516  -6.312  1.00  0.00     0.148 C 
ATOM      7  H2  UNL     1      25.140  20.728  -7.234  1.00  0.00     0.161 HD
ENDBRANCH   4   5
BRANCH   4   8
HETATM    8  S1  UNL     1      23.912  17.809  -7.817  1.00  0.00     0.015 SA
BRANCH   8   9
HETATM    9  N3  UNL     1      23.175  16.745  -8.337  1.00  0.00    -0.367 N 
ATOM     10  H32 UNL     1      23.268  16.747  -9.352  1.00  0.00     0.164 HD
ATOM     11  H31 UNL     1      22.583  15.981  -8.012  1.00  0.00     0.164 HD
ENDBRANCH   8   9
ENDBRANCH   4   8
TORSDOF 3
ENDMDL
MODEL 3
REMARK VINA RESULT: -3.244472493      2.046      3.680
REMARK  3 active torsions:
REMARK  status: ('A' for Active; 'I' for Inactive)
REMARK    1  A    between atoms: C2_4  and  N2_5 
REMARK    2  A    between atoms: C2_4  and  S1_8 
REMARK    3  A    between atoms: S1_8  and  N3_9 
ROOT
HETATM    1  C1  UNL     1      22.822  16.799  -7.983  1.00  0.00     0.148 C 
HETATM    2  N1  UNL     1      23.870  17.357  -8.851  1.00  0.00    -0.374 N 
ATOM      3  H1  UNL     1      23.888  17.067  -9.828  1.00  0.00     0.161 HD
HETATM    4  C2  UNL     1      24.792  18.214  -8.440  1.00  0.00     0.155 C 
ENDROOT
BRANCH   4   5
HETATM    5  N2  UNL     1      24.932  18.724  -7.142  1.00  0.00    -0.374 N 
HETATM    6  C3  UNL     1      26.197  19.159  -6.579  1.00  0.00     0.148 C 
ATOM      7  H2  UNL     1      24.098  18.793  -6.561  1.00  0.00     0.161 HD
ENDBRANCH   4   5
BRANCH   4   8
HETATM    8  S1  UNL     1      26.042  18.854  -9.584  1.00  0.00     0.015 SA
BRANCH   8   9
HETATM    9  N3  UNL     1      26.407  20.056 -10.189  1.00  0.00    -0.367 N 
ATOM     10  H32 UNL     1      25.779  20.233 -10.973  1.00  0.00     0.164 HD
ATOM     11  H31 UNL     1      27.101  20.797 -10.086  1.00  0.00     0.164 HD
ENDBRANCH   8   9
ENDBRANCH   4   8
TORSDOF 3
ENDMDL
MODEL 4
REMARK VINA RESULT: -3.165030119      1.604      1.604
REMARK  3 active torsions:
REMARK  status: ('A' for Active; 'I' for Inactive)
REMARK    1  A    between atoms: C2_4  and  N2_5 
REMARK    2  A    between atoms: C2_4  and  S1_8 
REMARK    3  A    between atoms: S1_8  and  N3_9 
ROOT
HETATM    1  C1  UNL     1      26.057  20.922  -7.345  1.00  0.00     0.148 C 
HETATM    2  N1  UNL     1      24.932  20.015  -7.076  1.00  0.00    -0.374 N 
ATOM      3  H1  UNL     1      24.279  20.267  -6.333  1.00  0.00     0.161 HD
HETATM    4  C2  UNL     1      24.714  18.889  -7.739  1.00  0.00     0.155 C 
ENDROOT
BRANCH   4   5
HETATM    5  N2  UNL     1      25.496  18.376  -8.782  1.00  0.00    -0.374 N 
HETATM    6  C3  UNL     1      25.799  16.965  -8.944  1.00  0.00     0.148 C 
ATOM      7  H2  UNL     1      25.873  19.030  -9.466  1.00  0.00     0.161 HD
ENDBRANCH   4   5
BRANCH   4   8
HETATM    8  S1  UNL     1      23.296  17.835  -7.341  1.00  0.00     0.015 SA
BRANCH   8   9
HETATM    9  N3  UNL     1      22.153  17.853  -6.541  1.00  0.00    -0.367 N 
ATOM     10  H32 UNL     1      21.991  18.808  -6.223  1.00  0.00     0.164 HD
ATOM     11  H31 UNL     1      21.445  17.211  -6.187  1.00  0.00     0.164 HD
ENDBRANCH   8   9
ENDBRANCH   4   8
TORSDOF 3
ENDMDL
MODEL 5
REMARK VINA RESULT: -3.137789749      1.866      3.244
REMARK  3 active torsions:
REMARK  status: ('A' for Active; 'I' for Inactive)
REMARK    1  A    between atoms: C2_4  and  N2_5 
REMARK    2  A    between atoms: C2_4  and  S1_8 
REMARK    3  A    between atoms: S1_8  and  N3_9 
ROOT
HETATM    1  C1  UNL     1      22.870  17.042  -7.897  1.00  0.00     0.148 C 
HETATM    2  N1  UNL     1      23.723  18.071  -7.283  1.00  0.00    -0.374 N 
ATOM      3  H1  UNL     1      23.491  18.386  -6.341  1.00  0.00     0.161 HD
HETATM    4  C2  UNL     1      24.773  18.613  -7.880  1.00  0.00     0.155 C 
ENDROOT
BRANCH   4   5
HETATM    5  N2  UNL     1      25.243  18.315  -9.165  1.00  0.00    -0.374 N 
HETATM    6  C3  UNL     1      26.140  19.176  -9.916  1.00  0.00     0.148 C 
ATOM      7  H2  UNL     1      24.939  17.444  -9.598  1.00  0.00     0.161 HD
ENDBRANCH   4   5
BRANCH   4   8
HETATM    8  S1  UNL     1      25.771  19.871  -7.042  1.00  0.00     0.015 SA
BRANCH   8   9
HETATM    9  N3  UNL     1      26.874  19.956  -6.192  1.00  0.00    -0.367 N 
ATOM     10  H32 UNL     1      26.543  20.115  -5.241  1.00  0.00     0.164 HD
ATOM     11  H31 UNL     1      27.891  19.909  -6.236  1.00  0.00     0.164 HD
ENDBRANCH   8   9
ENDBRANCH   4   8
TORSDOF 3
ENDMDL
