MODEL 1
REMARK VINA RESULT: -3.791297962      0.000      0.000
REMARK  2 active torsions:
REMARK  status: ('A' for Active; 'I' for Inactive)
REMARK    1  A    between atoms: N1_2  and  C2_4 
REMARK    2  A    between atoms: C2_4  and  N2_6 
ROOT
HETATM    1  N2  UNL     1      24.156  16.957  -8.676  1.00  0.00    -0.270 N 
ATOM      2  H2  UNL     1      24.535  16.246  -9.300  1.00  0.00     0.180 HD
HETATM    3  C3  UNL     1      22.878  16.774  -8.136  1.00  0.00     0.184 C 
HETATM    4  N3  UNL     1      21.818  16.626  -7.675  1.00  0.00    -0.172 NA
ENDROOT
BRANCH   1   5
HETATM    5  C2  UNL     1      24.943  18.105  -8.380  1.00  0.00     0.180 C 
HETATM    6  S1  UNL     1      25.838  18.773  -9.570  1.00  0.00    -0.040 SA
BRANCH   5   7
HETATM    7  N1  UNL     1      24.937  18.647  -7.067  1.00  0.00    -0.371 N 
HETATM    8  C1  UNL     1      26.176  19.175  -6.532  1.00  0.00     0.148 C 
ATOM      9  H1  UNL     1      24.081  18.664  -6.513  1.00  0.00     0.161 HD
ENDBRANCH   5   7
ENDBRANCH   1   5
TORSDOF 2
ENDMDL
MODEL 2
REMARK VINA RESULT: -3.681666974      1.143      1.143
REMARK  2 active torsions:
REMARK  status: ('A' for Active; 'I' for Inactive)
REMARK    1  A    between atoms: N1_2  and  C2_4 
REMARK    2  A    between atoms: C2_4  and  N2_6 
ROOT
HETATM    1  N2  UNL     1      24.219  17.799  -8.161  1.00  0.00    -0.270 N 
ATOM      2  H2  UNL     1      24.151  17.186  -8.973  1.00  0.00     0.180 HD
HETATM    3  C3  UNL     1      23.146  17.858  -7.265  1.00  0.00     0.184 C 
HETATM    4  N3  UNL     1      22.261  17.908  -6.510  1.00  0.00    -0.172 NA
ENDROOT
BRANCH   1   5
HETATM    5  C2  UNL     1      25.403  18.566  -7.974  1.00  0.00     0.180 C 
HETATM    6  S1  UNL     1      26.172  19.159  -9.285  1.00  0.00    -0.040 SA
BRANCH   5   7
HETATM    7  N1  UNL     1      25.891  18.803  -6.660  1.00  0.00    -0.371 N 
HETATM    8  C1  UNL     1      26.761  19.940  -6.442  1.00  0.00     0.148 C 
ATOM      9  H1  UNL     1      25.635  18.187  -5.890  1.00  0.00     0.161 HD
ENDBRANCH   5   7
ENDBRANCH   1   5
TORSDOF 2
ENDMDL
MODEL 3
REMARK VINA RESULT: -3.679126874      1.937      2.110
REMARK  2 active torsions:
REMARK  status: ('A' for Active; 'I' for Inactive)
REMARK    1  A    between atoms: N1_2  and  C2_4 
REMARK    2  A    between atoms: C2_4  and  N2_6 
ROOT
HETATM    1  N2  UNL     1      24.130  17.498  -8.273  1.00  0.00    -0.270 N 
ATOM      2  H2  UNL     1      24.048  16.703  -8.906  1.00  0.00     0.180 HD
HETATM    3  C3  UNL     1      23.118  17.723  -7.333  1.00  0.00     0.184 C 
HETATM    4  N3  UNL     1      22.284  17.913  -6.542  1.00  0.00    -0.172 NA
ENDROOT
BRANCH   1   5
HETATM    5  C2  UNL     1      25.270  18.343  -8.372  1.00  0.00     0.180 C 
HETATM    6  S1  UNL     1      25.897  18.983  -7.008  1.00  0.00    -0.040 SA
BRANCH   5   7
HETATM    7  N1  UNL     1      25.841  18.613  -9.646  1.00  0.00    -0.371 N 
HETATM    8  C1  UNL     1      26.462  19.904  -9.863  1.00  0.00     0.148 C 
ATOM      9  H1  UNL     1      25.813  17.916 -10.389  1.00  0.00     0.161 HD
ENDBRANCH   5   7
ENDBRANCH   1   5
TORSDOF 2
ENDMDL
MODEL 4
REMARK VINA RESULT: -3.678804454      1.286      1.286
REMARK  2 active torsions:
REMARK  status: ('A' for Active; 'I' for Inactive)
REMARK    1  A    between atoms: N1_2  and  C2_4 
REMARK    2  A    between atoms: C2_4  and  N2_6 
ROOT
HETATM    1  N2  UNL     1      23.363  18.291  -6.969  1.00  0.00    -0.270 N 
ATOM      2  H2  UNL     1      23.097  18.821  -6.140  1.00  0.00     0.180 HD
HETATM    3  C3  UNL     1      22.516  17.276  -7.427  1.00  0.00     0.184 C 
HETATM    4  N3  UNL     1      21.812  16.435  -7.820  1.00  0.00    -0.172 NA
ENDROOT
BRANCH   1   5
HETATM    5  C2  UNL     1      24.587  18.607  -7.625  1.00  0.00     0.180 C 
HETATM    6  S1  UNL     1      25.155  17.586  -8.764  1.00  0.00    -0.040 SA
BRANCH   5   7
HETATM    7  N1  UNL     1      25.286  19.795  -7.281  1.00  0.00    -0.371 N 
HETATM    8  C1  UNL     1      26.473  19.683  -6.459  1.00  0.00     0.148 C 
ATOM      9  H1  UNL     1      24.960  20.705  -7.605  1.00  0.00     0.161 HD
ENDBRANCH   5   7
ENDBRANCH   1   5
TORSDOF 2
ENDMDL
MODEL 5
REMARK VINA RESULT: -3.597091931      1.822      2.231
REMARK  2 active torsions:
REMARK  status: ('A' for Active; 'I' for Inactive)
REMARK    1  A    between atoms: N1_2  and  C2_4 
REMARK    2  A    between atoms: C2_4  and  N2_6 
ROOT
HETATM    1  N2  UNL     1      24.157  18.680  -7.101  1.00  0.00    -0.270 N 
ATOM      2  H2  UNL     1      23.768  19.355  -6.443  1.00  0.00     0.180 HD
HETATM    3  C3  UNL     1      23.331  17.665  -7.598  1.00  0.00     0.184 C 
HETATM    4  N3  UNL     1      22.649  16.822  -8.022  1.00  0.00    -0.172 NA
ENDROOT
BRANCH   1   5
HETATM    5  C2  UNL     1      25.521  18.800  -7.486  1.00  0.00     0.180 C 
HETATM    6  S1  UNL     1      26.547  19.607  -6.507  1.00  0.00    -0.040 SA
BRANCH   5   7
HETATM    7  N1  UNL     1      25.965  18.219  -8.705  1.00  0.00    -0.371 N 
HETATM    8  C1  UNL     1      26.108  19.074  -9.865  1.00  0.00     0.148 C 
ATOM      9  H1  UNL     1      26.178  17.223  -8.761  1.00  0.00     0.161 HD
ENDBRANCH   5   7
ENDBRANCH   1   5
TORSDOF 2
ENDMDL
