MODEL 1
REMARK VINA RESULT: -4.966731805      0.000      0.000
REMARK  2 active torsions:
REMARK  status: ('A' for Active; 'I' for Inactive)
REMARK    1  A    between atoms: C1_4  and  O1_5 
REMARK    2  A    between atoms: C1_4  and  N2_7 
ROOT
HETATM    1  N1  UNL     1      22.273  17.860  -6.562  1.00  0.00    -0.365 N 
ATOM      2  H11 UNL     1      22.615  18.619  -5.972  1.00  0.00     0.159 HD
ATOM      3  H12 UNL     1      21.365  17.457  -6.327  1.00  0.00     0.159 HD
HETATM    4  C1  UNL     1      22.901  17.380  -7.564  1.00  0.00     0.212 C 
ENDROOT
BRANCH   4   5
HETATM    5  O1  UNL     1      22.437  16.347  -8.366  1.00  0.00    -0.333 OA
ATOM      6  H1  UNL     1      22.547  15.423  -8.173  1.00  0.00     0.220 HD
ENDBRANCH   4   5
BRANCH   4   7
HETATM    7  N2  UNL     1      24.168  17.941  -7.891  1.00  0.00    -0.348 N 
HETATM    8  C2  UNL     1      25.096  17.351  -8.819  1.00  0.00     0.126 C 
HETATM    9  C3  UNL     1      25.892  18.526  -9.338  1.00  0.00     0.021 C 
HETATM   10  C4  UNL     1      25.823  19.564  -8.245  1.00  0.00     0.021 C 
HETATM   11  C5  UNL     1      24.698  19.172  -7.341  1.00  0.00     0.126 C 
ENDBRANCH   4   7
TORSDOF 2
ENDMDL
MODEL 2
REMARK VINA RESULT: -4.901217705      1.208      1.208
REMARK  2 active torsions:
REMARK  status: ('A' for Active; 'I' for Inactive)
REMARK    1  A    between atoms: C1_4  and  O1_5 
REMARK    2  A    between atoms: C1_4  and  N2_7 
ROOT
HETATM    1  N1  UNL     1      22.745  16.482  -8.266  1.00  0.00    -0.365 N 
ATOM      2  H11 UNL     1      23.278  16.099  -9.048  1.00  0.00     0.159 HD
ATOM      3  H12 UNL     1      21.858  16.032  -8.040  1.00  0.00     0.159 HD
HETATM    4  C1  UNL     1      23.110  17.480  -7.560  1.00  0.00     0.212 C 
ENDROOT
BRANCH   4   5
HETATM    5  O1  UNL     1      22.384  18.001  -6.497  1.00  0.00    -0.333 OA
ATOM      6  H1  UNL     1      22.244  18.927  -6.342  1.00  0.00     0.220 HD
ENDBRANCH   4   5
BRANCH   4   7
HETATM    7  N2  UNL     1      24.347  18.109  -7.876  1.00  0.00    -0.348 N 
HETATM    8  C2  UNL     1      25.320  17.562  -8.785  1.00  0.00     0.126 C 
HETATM    9  C3  UNL     1      26.054  18.775  -9.307  1.00  0.00     0.021 C 
HETATM   10  C4  UNL     1      25.911  19.819  -8.227  1.00  0.00     0.021 C 
HETATM   11  C5  UNL     1      24.799  19.373  -7.333  1.00  0.00     0.126 C 
ENDBRANCH   4   7
TORSDOF 2
ENDMDL
MODEL 3
REMARK VINA RESULT: -4.805478934      0.421      1.452
REMARK  2 active torsions:
REMARK  status: ('A' for Active; 'I' for Inactive)
REMARK    1  A    between atoms: C1_4  and  O1_5 
REMARK    2  A    between atoms: C1_4  and  N2_7 
ROOT
HETATM    1  N1  UNL     1      22.172  17.800  -6.558  1.00  0.00    -0.365 N 
ATOM      2  H11 UNL     1      22.417  18.633  -6.021  1.00  0.00     0.159 HD
ATOM      3  H12 UNL     1      21.329  17.297  -6.283  1.00  0.00     0.159 HD
HETATM    4  C1  UNL     1      22.847  17.349  -7.543  1.00  0.00     0.212 C 
ENDROOT
BRANCH   4   5
HETATM    5  O1  UNL     1      22.515  16.216  -8.273  1.00  0.00    -0.333 OA
ATOM      6  H1  UNL     1      21.706  16.106  -8.760  1.00  0.00     0.220 HD
ENDBRANCH   4   5
BRANCH   4   7
HETATM    7  N2  UNL     1      24.025  18.051  -7.926  1.00  0.00    -0.348 N 
HETATM    8  C2  UNL     1      24.548  19.192  -7.223  1.00  0.00     0.126 C 
HETATM    9  C3  UNL     1      26.029  19.160  -7.525  1.00  0.00     0.021 C 
HETATM   10  C4  UNL     1      26.148  18.436  -8.844  1.00  0.00     0.021 C 
HETATM   11  C5  UNL     1      24.854  17.720  -9.067  1.00  0.00     0.126 C 
ENDBRANCH   4   7
TORSDOF 2
ENDMDL
MODEL 4
REMARK VINA RESULT: -4.745749784      1.307      1.905
REMARK  2 active torsions:
REMARK  status: ('A' for Active; 'I' for Inactive)
REMARK    1  A    between atoms: C1_4  and  O1_5 
REMARK    2  A    between atoms: C1_4  and  N2_7 
ROOT
HETATM    1  N1  UNL     1      22.880  16.531  -8.278  1.00  0.00    -0.365 N 
ATOM      2  H11 UNL     1      23.423  16.227  -9.087  1.00  0.00     0.159 HD
ATOM      3  H12 UNL     1      22.069  15.970  -8.021  1.00  0.00     0.159 HD
HETATM    4  C1  UNL     1      23.145  17.563  -7.574  1.00  0.00     0.212 C 
ENDROOT
BRANCH   4   5
HETATM    5  O1  UNL     1      22.406  17.977  -6.475  1.00  0.00    -0.333 OA
ATOM      6  H1  UNL     1      22.182  17.425  -5.735  1.00  0.00     0.220 HD
ENDBRANCH   4   5
BRANCH   4   7
HETATM    7  N2  UNL     1      24.277  18.347  -7.934  1.00  0.00    -0.348 N 
HETATM    8  C2  UNL     1      24.721  19.505  -7.203  1.00  0.00     0.126 C 
HETATM    9  C3  UNL     1      26.202  19.575  -7.493  1.00  0.00     0.021 C 
HETATM   10  C4  UNL     1      26.376  18.888  -8.826  1.00  0.00     0.021 C 
HETATM   11  C5  UNL     1      25.133  18.095  -9.074  1.00  0.00     0.126 C 
ENDBRANCH   4   7
TORSDOF 2
ENDMDL
MODEL 5
REMARK VINA RESULT: -4.420665662      2.526      3.865
REMARK  2 active torsions:
REMARK  status: ('A' for Active; 'I' for Inactive)
REMARK    1  A    between atoms: C1_4  and  O1_5 
REMARK    2  A    between atoms: C1_4  and  N2_7 
ROOT
HETATM    1  N1  UNL     1      26.205  19.454 -10.121  1.00  0.00    -0.365 N 
ATOM      2  H11 UNL     1      25.477  19.087 -10.734  1.00  0.00     0.159 HD
ATOM      3  H12 UNL     1      26.945  20.007 -10.553  1.00  0.00     0.159 HD
HETATM    4  C1  UNL     1      26.253  19.267  -8.859  1.00  0.00     0.212 C 
ENDROOT
BRANCH   4   5
HETATM    5  O1  UNL     1      27.243  19.767  -8.025  1.00  0.00    -0.333 OA
ATOM      6  H1  UNL     1      27.917  20.379  -8.294  1.00  0.00     0.220 HD
ENDBRANCH   4   5
BRANCH   4   7
HETATM    7  N2  UNL     1      25.220  18.495  -8.257  1.00  0.00    -0.348 N 
HETATM    8  C2  UNL     1      24.641  18.784  -6.972  1.00  0.00     0.126 C 
HETATM    9  C3  UNL     1      23.250  18.201  -7.057  1.00  0.00     0.021 C 
HETATM   10  C4  UNL     1      23.347  17.095  -8.080  1.00  0.00     0.021 C 
HETATM   11  C5  UNL     1      24.612  17.319  -8.845  1.00  0.00     0.126 C 
ENDBRANCH   4   7
TORSDOF 2
ENDMDL
