MODEL 1
REMARK VINA RESULT: -8.040326100      0.000      0.000
REMARK  7 active torsions:
REMARK  status: ('A' for Active; 'I' for Inactive)
REMARK    1  A    between atoms: C3_3  and  O1_4 
REMARK    2  A    between atoms: C7_9  and  O2_10 
REMARK    3  A    between atoms: O2_10  and  C8_11 
REMARK    4  A    between atoms: C8_11  and  C9_13 
REMARK    5  A    between atoms: C10_14  and  C11_15 
REMARK    6  A    between atoms: C10_14  and  C13_17 
REMARK    7  A    between atoms: C24_32  and  C25_33 
ROOT
HETATM    1  C1  UNL     1      19.472 -37.777  -7.021  1.00  0.00     0.024 C 
HETATM    2  C2  UNL     1      20.073 -36.810  -7.718  1.00  0.00    -0.005 C 
HETATM    3  C3  UNL     1      21.527 -36.742  -7.654  1.00  0.00     0.053 C 
HETATM    4  C4  UNL     1      22.151 -36.368  -6.366  1.00  0.00     0.084 C 
HETATM    5  C5  UNL     1      21.795 -35.119  -5.688  1.00  0.00     0.044 C 
HETATM    6  C6  UNL     1      23.029 -34.628  -4.933  1.00  0.00     0.081 C 
HETATM    7  C7  UNL     1      23.841 -34.033  -6.005  1.00  0.00     0.274 C 
HETATM    8  O5  UNL     1      22.998 -33.874  -7.108  1.00  0.00    -0.330 OA
HETATM    9  C17 UNL     1      21.714 -33.908  -6.613  1.00  0.00     0.279 C 
HETATM   10  O6  UNL     1      20.722 -33.923  -7.507  1.00  0.00    -0.326 OA
HETATM   11  C18 UNL     1      19.509 -34.174  -6.956  1.00  0.00     0.295 C 
HETATM   12  O7  UNL     1      18.668 -34.868  -7.774  1.00  0.00    -0.342 OA
HETATM   13  C19 UNL     1      19.172 -35.911  -8.492  1.00  0.00     0.086 C 
HETATM   14  C20 UNL     1      17.915 -36.730  -8.890  1.00  0.00     0.051 C 
HETATM   15  C21 UNL     1      19.748 -35.506  -9.827  1.00  0.00     0.051 C 
HETATM   16  C22 UNL     1      19.486 -34.672  -5.571  1.00  0.00    -0.026 C 
HETATM   17  C23 UNL     1      18.152 -34.635  -4.898  1.00  0.00     0.049 C 
HETATM   18  C24 UNL     1      20.556 -35.146  -4.889  1.00  0.00    -0.056 C 
ENDROOT
BRANCH   7  19
HETATM   19  O2  UNL     1      24.992 -34.617  -6.429  1.00  0.00    -0.286 OA
BRANCH  19  20
HETATM   20  C8  UNL     1      25.611 -34.501  -7.632  1.00  0.00     0.285 C 
HETATM   21  O3  UNL     1      26.330 -33.447  -7.647  1.00  0.00    -0.260 OA
BRANCH  20  22
HETATM   22  C9  UNL     1      25.552 -35.354  -8.786  1.00  0.00     0.092 C 
HETATM   23  C10 UNL     1      26.524 -36.024  -9.344  1.00  0.00    -0.019 C 
BRANCH  23  24
HETATM   24  C11 UNL     1      27.936 -36.055  -8.901  1.00  0.00     0.037 C 
HETATM   25  C12 UNL     1      28.277 -37.441  -8.350  1.00  0.00     0.010 C 
ENDBRANCH  23  24
BRANCH  23  26
HETATM   26  C13 UNL     1      26.219 -36.840 -10.533  1.00  0.00     0.081 A 
HETATM   27  C14 UNL     1      25.149 -37.667 -10.675  1.00  0.00     0.039 A 
HETATM   28  C15 UNL     1      25.247 -38.240 -11.948  1.00  0.00     0.027 A 
HETATM   29  C16 UNL     1      26.389 -37.702 -12.480  1.00  0.00     0.142 A 
HETATM   30  O4  UNL     1      26.926 -36.889 -11.620  1.00  0.00    -0.322 OA
ENDBRANCH  23  26
ENDBRANCH  20  22
ENDBRANCH  19  20
ENDBRANCH   7  19
BRANCH  18  31
HETATM   31  C25 UNL     1      20.365 -35.625  -3.519  1.00  0.00     0.007 C 
HETATM   32  C26 UNL     1      20.735 -37.071  -3.272  1.00  0.00     0.014 C 
HETATM   33  C27 UNL     1      20.935 -34.736  -2.428  1.00  0.00     0.014 C 
ENDBRANCH  18  31
BRANCH   3  34
HETATM   34  O1  UNL     1      22.149 -36.091  -8.715  1.00  0.00    -0.364 OA
ATOM     35  H1  UNL     1      23.016 -36.407  -8.942  1.00  0.00     0.217 HD
ENDBRANCH   3  34
TORSDOF 7
ENDMDL
MODEL 2
REMARK VINA RESULT: -7.880354989      1.678      3.652
REMARK  7 active torsions:
REMARK  status: ('A' for Active; 'I' for Inactive)
REMARK    1  A    between atoms: C3_3  and  O1_4 
REMARK    2  A    between atoms: C7_9  and  O2_10 
REMARK    3  A    between atoms: O2_10  and  C8_11 
REMARK    4  A    between atoms: C8_11  and  C9_13 
REMARK    5  A    between atoms: C10_14  and  C11_15 
REMARK    6  A    between atoms: C10_14  and  C13_17 
REMARK    7  A    between atoms: C24_32  and  C25_33 
ROOT
HETATM    1  C1  UNL     1      19.095 -32.899  -4.969  1.00  0.00     0.024 C 
HETATM    2  C2  UNL     1      20.192 -33.387  -4.384  1.00  0.00    -0.005 C 
HETATM    3  C3  UNL     1      21.460 -33.206  -5.079  1.00  0.00     0.053 C 
HETATM    4  C4  UNL     1      21.667 -33.933  -6.351  1.00  0.00     0.084 C 
HETATM    5  C5  UNL     1      21.530 -35.390  -6.419  1.00  0.00     0.044 C 
HETATM    6  C6  UNL     1      22.500 -35.902  -7.483  1.00  0.00     0.081 C 
HETATM    7  C7  UNL     1      23.791 -35.869  -6.779  1.00  0.00     0.274 C 
HETATM    8  O5  UNL     1      23.503 -35.736  -5.418  1.00  0.00    -0.330 OA
HETATM    9  C17 UNL     1      22.195 -36.134  -5.264  1.00  0.00     0.279 C 
HETATM   10  O6  UNL     1      21.645 -35.953  -4.062  1.00  0.00    -0.326 OA
HETATM   11  C18 UNL     1      20.306 -36.166  -4.048  1.00  0.00     0.295 C 
HETATM   12  O7  UNL     1      19.634 -35.374  -3.165  1.00  0.00    -0.342 OA
HETATM   13  C19 UNL     1      19.983 -34.060  -3.072  1.00  0.00     0.086 C 
HETATM   14  C20 UNL     1      18.757 -33.397  -2.390  1.00  0.00     0.051 C 
HETATM   15  C21 UNL     1      21.098 -33.796  -2.090  1.00  0.00     0.051 C 
HETATM   16  C22 UNL     1      19.624 -36.263  -5.348  1.00  0.00    -0.026 C 
HETATM   17  C23 UNL     1      18.232 -36.805  -5.304  1.00  0.00     0.049 C 
HETATM   18  C24 UNL     1      20.155 -35.906  -6.543  1.00  0.00    -0.056 C 
ENDROOT
BRANCH   7  19
HETATM   19  O2  UNL     1      24.751 -34.965  -7.102  1.00  0.00    -0.286 OA
BRANCH  19  20
HETATM   20  C8  UNL     1      25.405 -34.802  -8.281  1.00  0.00     0.285 C 
HETATM   21  O3  UNL     1      25.932 -33.640  -8.323  1.00  0.00    -0.260 OA
BRANCH  20  22
HETATM   22  C9  UNL     1      25.556 -35.707  -9.385  1.00  0.00     0.092 C 
HETATM   23  C10 UNL     1      26.634 -36.331  -9.775  1.00  0.00    -0.019 C 
BRANCH  23  24
HETATM   24  C11 UNL     1      27.973 -36.244  -9.151  1.00  0.00     0.037 C 
HETATM   25  C12 UNL     1      28.292 -37.550  -8.420  1.00  0.00     0.010 C 
ENDBRANCH  23  24
BRANCH  23  26
HETATM   26  C13 UNL     1      26.543 -37.217 -10.950  1.00  0.00     0.081 A 
HETATM   27  C14 UNL     1      25.448 -37.934 -11.320  1.00  0.00     0.039 A 
HETATM   28  C15 UNL     1      25.796 -38.632 -12.482  1.00  0.00     0.027 A 
HETATM   29  C16 UNL     1      27.097 -38.273 -12.722  1.00  0.00     0.142 A 
HETATM   30  O4  UNL     1      27.494 -37.445 -11.803  1.00  0.00    -0.322 OA
ENDBRANCH  23  26
ENDBRANCH  20  22
ENDBRANCH  19  20
ENDBRANCH   7  19
BRANCH  18  31
HETATM   31  C25 UNL     1      19.338 -36.047  -7.748  1.00  0.00     0.007 C 
HETATM   32  C26 UNL     1      19.219 -34.807  -8.608  1.00  0.00     0.014 C 
HETATM   33  C27 UNL     1      19.639 -37.263  -8.607  1.00  0.00     0.014 C 
ENDBRANCH  18  31
BRANCH   3  34
HETATM   34  O1  UNL     1      22.599 -33.263  -4.282  1.00  0.00    -0.364 OA
ATOM     35  H1  UNL     1      22.929 -32.428  -3.974  1.00  0.00     0.217 HD
ENDBRANCH   3  34
TORSDOF 7
ENDMDL
MODEL 3
REMARK VINA RESULT: -7.844733482      1.939      4.008
REMARK  7 active torsions:
REMARK  status: ('A' for Active; 'I' for Inactive)
REMARK    1  A    between atoms: C3_3  and  O1_4 
REMARK    2  A    between atoms: C7_9  and  O2_10 
REMARK    3  A    between atoms: O2_10  and  C8_11 
REMARK    4  A    between atoms: C8_11  and  C9_13 
REMARK    5  A    between atoms: C10_14  and  C11_15 
REMARK    6  A    between atoms: C10_14  and  C13_17 
REMARK    7  A    between atoms: C24_32  and  C25_33 
ROOT
HETATM    1  C1  UNL     1      18.942 -32.625  -4.594  1.00  0.00     0.024 C 
HETATM    2  C2  UNL     1      19.935 -33.207  -3.917  1.00  0.00    -0.005 C 
HETATM    3  C3  UNL     1      21.289 -33.019  -4.420  1.00  0.00     0.053 C 
HETATM    4  C4  UNL     1      21.645 -33.641  -5.714  1.00  0.00     0.084 C 
HETATM    5  C5  UNL     1      21.476 -35.080  -5.932  1.00  0.00     0.044 C 
HETATM    6  C6  UNL     1      22.564 -35.538  -6.902  1.00  0.00     0.081 C 
HETATM    7  C7  UNL     1      23.749 -35.620  -6.034  1.00  0.00     0.274 C 
HETATM    8  O5  UNL     1      23.284 -35.592  -4.716  1.00  0.00    -0.330 OA
HETATM    9  C17 UNL     1      21.956 -35.948  -4.773  1.00  0.00     0.279 C 
HETATM   10  O6  UNL     1      21.255 -35.849  -3.641  1.00  0.00    -0.326 OA
HETATM   11  C18 UNL     1      19.921 -36.007  -3.823  1.00  0.00     0.295 C 
HETATM   12  O7  UNL     1      19.159 -35.267  -2.968  1.00  0.00    -0.342 OA
HETATM   13  C19 UNL     1      19.531 -33.981  -2.710  1.00  0.00     0.086 C 
HETATM   14  C20 UNL     1      18.245 -33.329  -2.138  1.00  0.00     0.051 C 
HETATM   15  C21 UNL     1      20.512 -33.850  -1.571  1.00  0.00     0.051 C 
HETATM   16  C22 UNL     1      19.418 -35.963  -5.205  1.00  0.00    -0.026 C 
HETATM   17  C23 UNL     1      18.017 -36.449  -5.394  1.00  0.00     0.049 C 
HETATM   18  C24 UNL     1      20.115 -35.527  -6.282  1.00  0.00    -0.056 C 
ENDROOT
BRANCH   7  19
HETATM   19  O2  UNL     1      24.770 -34.732  -6.144  1.00  0.00    -0.286 OA
BRANCH  19  20
HETATM   20  C8  UNL     1      25.541 -34.450  -7.226  1.00  0.00     0.285 C 
HETATM   21  O3  UNL     1      25.407 -33.221  -7.542  1.00  0.00    -0.260 OA
BRANCH  20  22
HETATM   22  C9  UNL     1      26.410 -35.303  -7.987  1.00  0.00     0.092 C 
HETATM   23  C10 UNL     1      26.139 -35.963  -9.080  1.00  0.00    -0.019 C 
BRANCH  23  24
HETATM   24  C11 UNL     1      24.844 -35.979  -9.797  1.00  0.00     0.037 C 
HETATM   25  C12 UNL     1      24.163 -37.336  -9.607  1.00  0.00     0.010 C 
ENDBRANCH  23  24
BRANCH  23  26
HETATM   26  C13 UNL     1      27.204 -36.782  -9.686  1.00  0.00     0.081 A 
HETATM   27  C14 UNL     1      28.153 -37.480  -9.004  1.00  0.00     0.039 A 
HETATM   28  C15 UNL     1      28.956 -38.110  -9.961  1.00  0.00     0.027 A 
HETATM   29  C16 UNL     1      28.416 -37.735 -11.164  1.00  0.00     0.142 A 
HETATM   30  O4  UNL     1      27.394 -36.960 -10.957  1.00  0.00    -0.322 OA
ENDBRANCH  23  26
ENDBRANCH  20  22
ENDBRANCH  19  20
ENDBRANCH   7  19
BRANCH  18  31
HETATM   31  C25 UNL     1      19.464 -35.529  -7.592  1.00  0.00     0.007 C 
HETATM   32  C26 UNL     1      19.396 -34.188  -8.293  1.00  0.00     0.014 C 
HETATM   33  C27 UNL     1      19.928 -36.609  -8.554  1.00  0.00     0.014 C 
ENDBRANCH  18  31
BRANCH   3  34
HETATM   34  O1  UNL     1      22.309 -33.192  -3.489  1.00  0.00    -0.364 OA
ATOM     35  H1  UNL     1      22.801 -34.002  -3.561  1.00  0.00     0.217 HD
ENDBRANCH   3  34
TORSDOF 7
ENDMDL
MODEL 4
REMARK VINA RESULT: -7.722767449      1.534      3.178
REMARK  7 active torsions:
REMARK  status: ('A' for Active; 'I' for Inactive)
REMARK    1  A    between atoms: C3_3  and  O1_4 
REMARK    2  A    between atoms: C7_9  and  O2_10 
REMARK    3  A    between atoms: O2_10  and  C8_11 
REMARK    4  A    between atoms: C8_11  and  C9_13 
REMARK    5  A    between atoms: C10_14  and  C11_15 
REMARK    6  A    between atoms: C10_14  and  C13_17 
REMARK    7  A    between atoms: C24_32  and  C25_33 
ROOT
HETATM    1  C1  UNL     1      18.672 -34.035  -6.986  1.00  0.00     0.024 C 
HETATM    2  C2  UNL     1      19.535 -33.825  -5.989  1.00  0.00    -0.005 C 
HETATM    3  C3  UNL     1      20.898 -33.453  -6.348  1.00  0.00     0.053 C 
HETATM    4  C4  UNL     1      21.740 -34.462  -7.026  1.00  0.00     0.084 C 
HETATM    5  C5  UNL     1      21.971 -35.779  -6.427  1.00  0.00     0.044 C 
HETATM    6  C6  UNL     1      23.366 -36.244  -6.843  1.00  0.00     0.081 C 
HETATM    7  C7  UNL     1      24.239 -35.475  -5.944  1.00  0.00     0.274 C 
HETATM    8  O5  UNL     1      23.423 -34.967  -4.928  1.00  0.00    -0.330 OA
HETATM    9  C17 UNL     1      22.284 -35.739  -4.934  1.00  0.00     0.279 C 
HETATM   10  O6  UNL     1      21.285 -35.348  -4.140  1.00  0.00    -0.326 OA
HETATM   11  C18 UNL     1      20.131 -36.025  -4.359  1.00  0.00     0.295 C 
HETATM   12  O7  UNL     1      19.009 -35.277  -4.155  1.00  0.00    -0.342 OA
HETATM   13  C19 UNL     1      18.990 -33.993  -4.613  1.00  0.00     0.086 C 
HETATM   14  C20 UNL     1      17.481 -33.636  -4.655  1.00  0.00     0.051 C 
HETATM   15  C21 UNL     1      19.547 -32.990  -3.632  1.00  0.00     0.051 C 
HETATM   16  C22 UNL     1      20.048 -36.841  -5.581  1.00  0.00    -0.026 C 
HETATM   17  C23 UNL     1      18.908 -37.807  -5.631  1.00  0.00     0.049 C 
HETATM   18  C24 UNL     1      20.906 -36.778  -6.627  1.00  0.00    -0.056 C 
ENDROOT
BRANCH   7  19
HETATM   19  O2  UNL     1      25.020 -34.465  -6.407  1.00  0.00    -0.286 OA
BRANCH  19  20
HETATM   20  C8  UNL     1      25.632 -34.347  -7.613  1.00  0.00     0.285 C 
HETATM   21  O3  UNL     1      26.341 -33.286  -7.634  1.00  0.00    -0.260 OA
BRANCH  20  22
HETATM   22  C9  UNL     1      25.576 -35.203  -8.764  1.00  0.00     0.092 C 
HETATM   23  C10 UNL     1      26.535 -35.923  -9.281  1.00  0.00    -0.019 C 
BRANCH  23  24
HETATM   24  C11 UNL     1      27.926 -36.018  -8.785  1.00  0.00     0.037 C 
HETATM   25  C12 UNL     1      28.232 -37.460  -8.372  1.00  0.00     0.010 C 
ENDBRANCH  23  24
BRANCH  23  26
HETATM   26  C13 UNL     1      26.236 -36.730 -10.478  1.00  0.00     0.081 A 
HETATM   27  C14 UNL     1      25.210 -37.615 -10.602  1.00  0.00     0.039 A 
HETATM   28  C15 UNL     1      25.297 -38.156 -11.890  1.00  0.00     0.027 A 
HETATM   29  C16 UNL     1      26.389 -37.542 -12.448  1.00  0.00     0.142 A 
HETATM   30  O4  UNL     1      26.907 -36.717 -11.588  1.00  0.00    -0.322 OA
ENDBRANCH  23  26
ENDBRANCH  20  22
ENDBRANCH  19  20
ENDBRANCH   7  19
BRANCH  18  31
HETATM   31  C25 UNL     1      20.676 -37.647  -7.782  1.00  0.00     0.007 C 
HETATM   32  C26 UNL     1      20.630 -36.952  -9.126  1.00  0.00     0.014 C 
HETATM   33  C27 UNL     1      21.547 -38.888  -7.854  1.00  0.00     0.014 C 
ENDBRANCH  18  31
BRANCH   3  34
HETATM   34  O1  UNL     1      21.620 -32.782  -5.365  1.00  0.00    -0.364 OA
ATOM     35  H1  UNL     1      21.283 -31.930  -5.114  1.00  0.00     0.217 HD
ENDBRANCH   3  34
TORSDOF 7
ENDMDL
MODEL 5
REMARK VINA RESULT: -7.628581587      1.750      2.607
REMARK  7 active torsions:
REMARK  status: ('A' for Active; 'I' for Inactive)
REMARK    1  A    between atoms: C3_3  and  O1_4 
REMARK    2  A    between atoms: C7_9  and  O2_10 
REMARK    3  A    between atoms: O2_10  and  C8_11 
REMARK    4  A    between atoms: C8_11  and  C9_13 
REMARK    5  A    between atoms: C10_14  and  C11_15 
REMARK    6  A    between atoms: C10_14  and  C13_17 
REMARK    7  A    between atoms: C24_32  and  C25_33 
ROOT
HETATM    1  C1  UNL     1      19.954 -37.076  -5.774  1.00  0.00     0.024 C 
HETATM    2  C2  UNL     1      20.237 -35.931  -6.398  1.00  0.00    -0.005 C 
HETATM    3  C3  UNL     1      21.304 -35.953  -7.390  1.00  0.00     0.053 C 
HETATM    4  C4  UNL     1      22.688 -36.180  -6.920  1.00  0.00     0.084 C 
HETATM    5  C5  UNL     1      23.290 -35.318  -5.899  1.00  0.00     0.044 C 
HETATM    6  C6  UNL     1      24.790 -35.238  -6.179  1.00  0.00     0.081 C 
HETATM    7  C7  UNL     1      24.855 -34.281  -7.293  1.00  0.00     0.274 C 
HETATM    8  O5  UNL     1      23.614 -33.640  -7.346  1.00  0.00    -0.330 OA
HETATM    9  C17 UNL     1      23.036 -33.828  -6.111  1.00  0.00     0.279 C 
HETATM   10  O6  UNL     1      21.771 -33.428  -5.969  1.00  0.00    -0.326 OA
HETATM   11  C18 UNL     1      21.207 -33.839  -4.806  1.00  0.00     0.295 C 
HETATM   12  O7  UNL     1      19.870 -34.092  -4.904  1.00  0.00    -0.342 OA
HETATM   13  C19 UNL     1      19.412 -34.755  -6.003  1.00  0.00     0.086 C 
HETATM   14  C20 UNL     1      18.019 -35.281  -5.566  1.00  0.00     0.051 C 
HETATM   15  C21 UNL     1      19.082 -33.850  -7.165  1.00  0.00     0.051 C 
HETATM   16  C22 UNL     1      21.920 -34.871  -4.038  1.00  0.00    -0.026 C 
HETATM   17  C23 UNL     1      21.446 -35.068  -2.634  1.00  0.00     0.049 C 
HETATM   18  C24 UNL     1      22.942 -35.630  -4.501  1.00  0.00    -0.056 C 
ENDROOT
BRANCH   7  19
HETATM   19  O2  UNL     1      25.183 -34.677  -8.550  1.00  0.00    -0.286 OA
BRANCH  19  20
HETATM   20  C8  UNL     1      25.739 -35.848  -8.956  1.00  0.00     0.285 C 
HETATM   21  O3  UNL     1      26.984 -35.853  -8.674  1.00  0.00    -0.260 OA
BRANCH  20  22
HETATM   22  C9  UNL     1      25.139 -36.977  -9.607  1.00  0.00     0.092 C 
HETATM   23  C10 UNL     1      25.465 -37.517 -10.750  1.00  0.00    -0.019 C 
BRANCH  23  24
HETATM   24  C11 UNL     1      26.553 -37.073 -11.652  1.00  0.00     0.037 C 
HETATM   25  C12 UNL     1      27.825 -37.874 -11.364  1.00  0.00     0.010 C 
ENDBRANCH  23  24
BRANCH  23  26
HETATM   26  C13 UNL     1      24.695 -38.682 -11.220  1.00  0.00     0.081 A 
HETATM   27  C14 UNL     1      23.349 -38.843 -11.103  1.00  0.00     0.039 A 
HETATM   28  C15 UNL     1      23.040 -40.082 -11.676  1.00  0.00     0.027 A 
HETATM   29  C16 UNL     1      24.246 -40.577 -12.099  1.00  0.00     0.142 A 
HETATM   30  O4  UNL     1      25.186 -39.727 -11.813  1.00  0.00    -0.322 OA
ENDBRANCH  23  26
ENDBRANCH  20  22
ENDBRANCH  19  20
ENDBRANCH   7  19
BRANCH  18  31
HETATM   31  C25 UNL     1      23.536 -36.631  -3.615  1.00  0.00     0.007 C 
HETATM   32  C26 UNL     1      23.176 -38.070  -3.917  1.00  0.00     0.014 C 
HETATM   33  C27 UNL     1      25.030 -36.495  -3.378  1.00  0.00     0.014 C 
ENDBRANCH  18  31
BRANCH   3  34
HETATM   34  O1  UNL     1      21.263 -34.941  -8.345  1.00  0.00    -0.364 OA
ATOM     35  H1  UNL     1      22.106 -34.617  -8.639  1.00  0.00     0.217 HD
ENDBRANCH   3  34
TORSDOF 7
ENDMDL
