MODEL 1
REMARK VINA RESULT: -8.423189132      0.000      0.000
REMARK  6 active torsions:
REMARK  status: ('A' for Active; 'I' for Inactive)
REMARK    1  A    between atoms: O1_2  and  C2_3 
REMARK    2  A    between atoms: C4_5  and  O2_6 
REMARK    3  A    between atoms: C18_20  and  C19_21 
REMARK    4  A    between atoms: C21_23  and  O3_24 
REMARK    5  A    between atoms: C23_26  and  O4_27 
REMARK    6  A    between atoms: C24_29  and  O5_30 
ROOT
HETATM    1  C2  UNL     1      19.841 -34.135  -7.625  1.00  0.00     0.071 A 
HETATM    2  C3  UNL     1      19.474 -34.850  -8.767  1.00  0.00     0.074 A 
HETATM    3  C4  UNL     1      20.334 -35.693  -9.426  1.00  0.00     0.078 A 
HETATM    4  C6  UNL     1      21.635 -35.822  -8.901  1.00  0.00    -0.004 A 
HETATM    5  C7  UNL     1      22.011 -35.134  -7.793  1.00  0.00    -0.033 A 
HETATM    6  C8  UNL     1      21.115 -34.282  -7.141  1.00  0.00     0.045 A 
HETATM    7  C9  UNL     1      23.366 -35.217  -7.205  1.00  0.00     0.008 C 
HETATM    8  C10 UNL     1      23.286 -36.063  -5.958  1.00  0.00     0.025 C 
HETATM    9  C11 UNL     1      23.877 -33.837  -6.820  1.00  0.00     0.025 C 
HETATM   10  C12 UNL     1      24.326 -35.870  -8.132  1.00  0.00    -0.035 A 
HETATM   11  C13 UNL     1      25.667 -35.732  -7.814  1.00  0.00     0.048 A 
HETATM   12  C14 UNL     1      26.599 -36.295  -8.632  1.00  0.00     0.105 A 
HETATM   13  C15 UNL     1      26.209 -36.980  -9.746  1.00  0.00     0.105 A 
HETATM   14  C16 UNL     1      24.886 -37.119 -10.061  1.00  0.00     0.048 A 
HETATM   15  C17 UNL     1      23.928 -36.557  -9.246  1.00  0.00    -0.035 A 
HETATM   16  C18 UNL     1      22.532 -36.729  -9.599  1.00  0.00     0.088 C 
HETATM   17  O6  UNL     1      27.396 -37.417 -10.348  1.00  0.00    -0.323 OA
HETATM   18  C27 UNL     1      28.466 -37.252  -9.464  1.00  0.00     0.352 C 
HETATM   19  O7  UNL     1      27.997 -36.295  -8.532  1.00  0.00    -0.323 OA
ENDROOT
BRANCH  16  20
HETATM   20  C19 UNL     1      22.055 -38.128  -9.636  1.00  0.00    -0.040 A 
HETATM   21  C20 UNL     1      21.665 -38.745  -8.473  1.00  0.00     0.048 A 
HETATM   22  C21 UNL     1      21.239 -40.067  -8.415  1.00  0.00     0.104 A 
HETATM   23  C23 UNL     1      21.195 -40.813  -9.570  1.00  0.00     0.133 A 
HETATM   24  C24 UNL     1      21.586 -40.206 -10.750  1.00  0.00     0.104 A 
HETATM   25  C26 UNL     1      22.007 -38.887 -10.780  1.00  0.00     0.048 A 
BRANCH  22  26
HETATM   26  O3  UNL     1      20.861 -40.620  -7.216  1.00  0.00    -0.353 OA
HETATM   27  C22 UNL     1      21.148 -40.090  -5.964  1.00  0.00     0.210 C 
ENDBRANCH  22  26
BRANCH  23  28
HETATM   28  O4  UNL     1      20.772 -42.156  -9.569  1.00  0.00    -0.356 OA
ATOM     29  H4  UNL     1      20.401 -42.564 -10.342  1.00  0.00     0.218 HD
ENDBRANCH  23  28
BRANCH  24  30
HETATM   30  O5  UNL     1      21.539 -40.977 -11.927  1.00  0.00    -0.353 OA
HETATM   31  C25 UNL     1      20.658 -40.546 -12.975  1.00  0.00     0.210 C 
ENDBRANCH  24  30
ENDBRANCH  16  20
BRANCH   3  32
HETATM   32  O2  UNL     1      20.042 -36.426 -10.552  1.00  0.00    -0.355 OA
HETATM   33  C5  UNL     1      18.696 -36.803 -10.764  1.00  0.00     0.210 C 
ENDBRANCH   3  32
BRANCH   1  34
HETATM   34  O1  UNL     1      18.930 -33.306  -7.012  1.00  0.00    -0.356 OA
HETATM   35  C1  UNL     1      18.860 -33.273  -5.605  1.00  0.00     0.210 C 
ENDBRANCH   1  34
TORSDOF 6
ENDMDL
MODEL 2
REMARK VINA RESULT: -8.335634358      0.230      2.230
REMARK  6 active torsions:
REMARK  status: ('A' for Active; 'I' for Inactive)
REMARK    1  A    between atoms: O1_2  and  C2_3 
REMARK    2  A    between atoms: C4_5  and  O2_6 
REMARK    3  A    between atoms: C18_20  and  C19_21 
REMARK    4  A    between atoms: C21_23  and  O3_24 
REMARK    5  A    between atoms: C23_26  and  O4_27 
REMARK    6  A    between atoms: C24_29  and  O5_30 
ROOT
HETATM    1  C2  UNL     1      19.853 -34.144  -7.321  1.00  0.00     0.071 A 
HETATM    2  C3  UNL     1      19.434 -34.892  -8.423  1.00  0.00     0.074 A 
HETATM    3  C4  UNL     1      20.270 -35.738  -9.110  1.00  0.00     0.078 A 
HETATM    4  C6  UNL     1      21.601 -35.835  -8.657  1.00  0.00    -0.004 A 
HETATM    5  C7  UNL     1      22.026 -35.114  -7.589  1.00  0.00    -0.033 A 
HETATM    6  C8  UNL     1      21.154 -34.259  -6.908  1.00  0.00     0.045 A 
HETATM    7  C9  UNL     1      23.414 -35.162  -7.076  1.00  0.00     0.008 C 
HETATM    8  C10 UNL     1      23.418 -35.978  -5.807  1.00  0.00     0.025 C 
HETATM    9  C11 UNL     1      23.923 -33.765  -6.754  1.00  0.00     0.025 C 
HETATM   10  C12 UNL     1      24.330 -35.823  -8.040  1.00  0.00    -0.035 A 
HETATM   11  C13 UNL     1      25.685 -35.657  -7.802  1.00  0.00     0.048 A 
HETATM   12  C14 UNL     1      26.579 -36.226  -8.657  1.00  0.00     0.105 A 
HETATM   13  C15 UNL     1      26.138 -36.945  -9.731  1.00  0.00     0.105 A 
HETATM   14  C16 UNL     1      24.802 -37.111  -9.967  1.00  0.00     0.048 A 
HETATM   15  C17 UNL     1      23.882 -36.543  -9.113  1.00  0.00    -0.035 A 
HETATM   16  C18 UNL     1      22.471 -36.745  -9.382  1.00  0.00     0.088 C 
HETATM   17  O6  UNL     1      27.297 -37.379 -10.389  1.00  0.00    -0.323 OA
HETATM   18  C27 UNL     1      28.412 -37.175  -9.570  1.00  0.00     0.352 C 
HETATM   19  O7  UNL     1      27.980 -36.203  -8.637  1.00  0.00    -0.323 OA
ENDROOT
BRANCH  16  20
HETATM   20  C19 UNL     1      22.017 -38.151  -9.358  1.00  0.00    -0.040 A 
HETATM   21  C20 UNL     1      21.945 -38.865 -10.529  1.00  0.00     0.048 A 
HETATM   22  C21 UNL     1      21.496 -40.178 -10.598  1.00  0.00     0.104 A 
HETATM   23  C23 UNL     1      21.099 -40.817  -9.447  1.00  0.00     0.133 A 
HETATM   24  C24 UNL     1      21.165 -40.112  -8.258  1.00  0.00     0.104 A 
HETATM   25  C26 UNL     1      21.617 -38.804  -8.217  1.00  0.00     0.048 A 
BRANCH  22  26
HETATM   26  O3  UNL     1      21.452 -40.832 -11.805  1.00  0.00    -0.353 OA
HETATM   27  C22 UNL     1      20.669 -40.458 -12.891  1.00  0.00     0.210 C 
ENDBRANCH  22  26
BRANCH  23  28
HETATM   28  O4  UNL     1      20.635 -42.146  -9.458  1.00  0.00    -0.356 OA
ATOM     29  H4  UNL     1      20.760 -42.726  -8.717  1.00  0.00     0.218 HD
ENDBRANCH  23  28
BRANCH  24  30
HETATM   30  O5  UNL     1      20.756 -40.773  -7.083  1.00  0.00    -0.353 OA
HETATM   31  C25 UNL     1      21.266 -40.290  -5.831  1.00  0.00     0.210 C 
ENDBRANCH  24  30
ENDBRANCH  16  20
BRANCH   3  32
HETATM   32  O2  UNL     1      19.927 -36.503 -10.200  1.00  0.00    -0.355 OA
HETATM   33  C5  UNL     1      18.596 -36.423 -10.670  1.00  0.00     0.210 C 
ENDBRANCH   3  32
BRANCH   1  34
HETATM   34  O1  UNL     1      18.965 -33.313  -6.678  1.00  0.00    -0.356 OA
HETATM   35  C1  UNL     1      18.951 -33.270  -5.269  1.00  0.00     0.210 C 
ENDBRANCH   1  34
TORSDOF 6
ENDMDL
MODEL 3
REMARK VINA RESULT: -8.142083732      1.519      5.615
REMARK  6 active torsions:
REMARK  status: ('A' for Active; 'I' for Inactive)
REMARK    1  A    between atoms: O1_2  and  C2_3 
REMARK    2  A    between atoms: C4_5  and  O2_6 
REMARK    3  A    between atoms: C18_20  and  C19_21 
REMARK    4  A    between atoms: C21_23  and  O3_24 
REMARK    5  A    between atoms: C23_26  and  O4_27 
REMARK    6  A    between atoms: C24_29  and  O5_30 
ROOT
HETATM    1  C2  UNL     1      21.083 -41.452 -10.034  1.00  0.00     0.071 A 
HETATM    2  C3  UNL     1      20.734 -40.784  -8.858  1.00  0.00     0.074 A 
HETATM    3  C4  UNL     1      21.285 -39.581  -8.494  1.00  0.00     0.078 A 
HETATM    4  C6  UNL     1      22.240 -39.021  -9.365  1.00  0.00    -0.004 A 
HETATM    5  C7  UNL     1      22.594 -39.657 -10.512  1.00  0.00    -0.033 A 
HETATM    6  C8  UNL     1      22.016 -40.882 -10.859  1.00  0.00     0.045 A 
HETATM    7  C9  UNL     1      23.600 -39.127 -11.458  1.00  0.00     0.008 C 
HETATM    8  C10 UNL     1      22.871 -38.576 -12.659  1.00  0.00     0.025 C 
HETATM    9  C11 UNL     1      24.539 -40.228 -11.926  1.00  0.00     0.025 C 
HETATM   10  C12 UNL     1      24.384 -38.016 -10.858  1.00  0.00    -0.035 A 
HETATM   11  C13 UNL     1      25.537 -37.652 -11.534  1.00  0.00     0.048 A 
HETATM   12  C14 UNL     1      26.308 -36.651 -11.029  1.00  0.00     0.105 A 
HETATM   13  C15 UNL     1      25.945 -36.022  -9.873  1.00  0.00     0.105 A 
HETATM   14  C16 UNL     1      24.807 -36.379  -9.204  1.00  0.00     0.048 A 
HETATM   15  C17 UNL     1      24.013 -37.390  -9.700  1.00  0.00    -0.035 A 
HETATM   16  C18 UNL     1      22.806 -37.740  -8.976  1.00  0.00     0.088 C 
HETATM   17  O6  UNL     1      26.941 -35.064  -9.641  1.00  0.00    -0.323 OA
HETATM   18  C27 UNL     1      27.732 -34.916 -10.784  1.00  0.00     0.352 C 
HETATM   19  O7  UNL     1      27.504 -36.106 -11.516  1.00  0.00    -0.323 OA
ENDROOT
BRANCH  16  20
HETATM   20  C19 UNL     1      21.805 -36.659  -8.853  1.00  0.00    -0.040 A 
HETATM   21  C20 UNL     1      21.857 -35.801  -7.782  1.00  0.00     0.048 A 
HETATM   22  C21 UNL     1      20.935 -34.783  -7.574  1.00  0.00     0.104 A 
HETATM   23  C23 UNL     1      19.911 -34.604  -8.474  1.00  0.00     0.133 A 
HETATM   24  C24 UNL     1      19.845 -35.461  -9.559  1.00  0.00     0.104 A 
HETATM   25  C26 UNL     1      20.776 -36.468  -9.743  1.00  0.00     0.048 A 
BRANCH  22  26
HETATM   26  O3  UNL     1      21.049 -33.960  -6.480  1.00  0.00    -0.353 OA
HETATM   27  C22 UNL     1      22.139 -33.920  -5.618  1.00  0.00     0.210 C 
ENDBRANCH  22  26
BRANCH  23  28
HETATM   28  O4  UNL     1      18.950 -33.589  -8.312  1.00  0.00    -0.356 OA
ATOM     29  H4  UNL     1      19.112 -32.828  -7.767  1.00  0.00     0.218 HD
ENDBRANCH  23  28
BRANCH  24  30
HETATM   30  O5  UNL     1      18.793 -35.272 -10.476  1.00  0.00    -0.353 OA
HETATM   31  C25 UNL     1      18.036 -36.425 -10.873  1.00  0.00     0.210 C 
ENDBRANCH  24  30
ENDBRANCH  16  20
BRANCH   3  32
HETATM   32  O2  UNL     1      20.990 -38.869  -7.355  1.00  0.00    -0.355 OA
HETATM   33  C5  UNL     1      21.161 -39.517  -6.110  1.00  0.00     0.210 C 
ENDBRANCH   3  32
BRANCH   1  34
HETATM   34  O1  UNL     1      20.492 -42.657 -10.340  1.00  0.00    -0.356 OA
HETATM   35  C1  UNL     1      21.302 -43.789 -10.561  1.00  0.00     0.210 C 
ENDBRANCH   1  34
TORSDOF 6
ENDMDL
MODEL 4
REMARK VINA RESULT: -8.113024779      1.508      5.952
REMARK  6 active torsions:
REMARK  status: ('A' for Active; 'I' for Inactive)
REMARK    1  A    between atoms: O1_2  and  C2_3 
REMARK    2  A    between atoms: C4_5  and  O2_6 
REMARK    3  A    between atoms: C18_20  and  C19_21 
REMARK    4  A    between atoms: C21_23  and  O3_24 
REMARK    5  A    between atoms: C23_26  and  O4_27 
REMARK    6  A    between atoms: C24_29  and  O5_30 
ROOT
HETATM    1  C2  UNL     1      20.940 -41.490  -9.944  1.00  0.00     0.071 A 
HETATM    2  C3  UNL     1      20.641 -40.843  -8.743  1.00  0.00     0.074 A 
HETATM    3  C4  UNL     1      21.224 -39.657  -8.370  1.00  0.00     0.078 A 
HETATM    4  C6  UNL     1      22.159 -39.093  -9.261  1.00  0.00    -0.004 A 
HETATM    5  C7  UNL     1      22.464 -39.708 -10.432  1.00  0.00    -0.033 A 
HETATM    6  C8  UNL     1      21.855 -40.916 -10.786  1.00  0.00     0.045 A 
HETATM    7  C9  UNL     1      23.448 -39.173 -11.399  1.00  0.00     0.008 C 
HETATM    8  C10 UNL     1      22.689 -38.584 -12.563  1.00  0.00     0.025 C 
HETATM    9  C11 UNL     1      24.352 -40.279 -11.922  1.00  0.00     0.025 C 
HETATM   10  C12 UNL     1      24.269 -38.089 -10.801  1.00  0.00    -0.035 A 
HETATM   11  C13 UNL     1      25.405 -37.728 -11.507  1.00  0.00     0.048 A 
HETATM   12  C14 UNL     1      26.209 -36.751 -11.006  1.00  0.00     0.105 A 
HETATM   13  C15 UNL     1      25.895 -36.143  -9.825  1.00  0.00     0.105 A 
HETATM   14  C16 UNL     1      24.774 -36.496  -9.127  1.00  0.00     0.048 A 
HETATM   15  C17 UNL     1      23.947 -37.484  -9.618  1.00  0.00    -0.035 A 
HETATM   16  C18 UNL     1      22.759 -37.830  -8.862  1.00  0.00     0.088 C 
HETATM   17  O6  UNL     1      26.914 -35.207  -9.606  1.00  0.00    -0.323 OA
HETATM   18  C27 UNL     1      27.670 -35.046 -10.771  1.00  0.00     0.352 C 
HETATM   19  O7  UNL     1      27.398 -36.215 -11.521  1.00  0.00    -0.323 OA
ENDROOT
BRANCH  16  20
HETATM   20  C19 UNL     1      21.781 -36.737  -8.682  1.00  0.00    -0.040 A 
HETATM   21  C20 UNL     1      20.786 -36.553  -9.609  1.00  0.00     0.048 A 
HETATM   22  C21 UNL     1      19.849 -35.529  -9.533  1.00  0.00     0.104 A 
HETATM   23  C23 UNL     1      19.902 -34.644  -8.482  1.00  0.00     0.133 A 
HETATM   24  C24 UNL     1      20.899 -34.815  -7.538  1.00  0.00     0.104 A 
HETATM   25  C26 UNL     1      21.820 -35.844  -7.638  1.00  0.00     0.048 A 
BRANCH  22  26
HETATM   26  O3  UNL     1      18.878 -35.406 -10.497  1.00  0.00    -0.353 OA
HETATM   27  C22 UNL     1      18.022 -36.421 -10.905  1.00  0.00     0.210 C 
ENDBRANCH  22  26
BRANCH  23  28
HETATM   28  O4  UNL     1      18.979 -33.588  -8.355  1.00  0.00    -0.356 OA
ATOM     29  H4  UNL     1      18.281 -33.454  -8.985  1.00  0.00     0.218 HD
ENDBRANCH  23  28
BRANCH  24  30
HETATM   30  O5  UNL     1      20.946 -33.903  -6.466  1.00  0.00    -0.353 OA
HETATM   31  C25 UNL     1      22.135 -33.877  -5.661  1.00  0.00     0.210 C 
ENDBRANCH  24  30
ENDBRANCH  16  20
BRANCH   3  32
HETATM   32  O2  UNL     1      20.979 -38.967  -7.207  1.00  0.00    -0.355 OA
HETATM   33  C5  UNL     1      21.188 -39.642  -5.982  1.00  0.00     0.210 C 
ENDBRANCH   3  32
BRANCH   1  34
HETATM   34  O1  UNL     1      20.319 -42.677 -10.256  1.00  0.00    -0.356 OA
HETATM   35  C1  UNL     1      20.825 -43.467 -11.309  1.00  0.00     0.210 C 
ENDBRANCH   1  34
TORSDOF 6
ENDMDL
MODEL 5
REMARK VINA RESULT: -7.937157199      2.195      7.012
REMARK  6 active torsions:
REMARK  status: ('A' for Active; 'I' for Inactive)
REMARK    1  A    between atoms: O1_2  and  C2_3 
REMARK    2  A    between atoms: C4_5  and  O2_6 
REMARK    3  A    between atoms: C18_20  and  C19_21 
REMARK    4  A    between atoms: C21_23  and  O3_24 
REMARK    5  A    between atoms: C23_26  and  O4_27 
REMARK    6  A    between atoms: C24_29  and  O5_30 
ROOT
HETATM    1  C2  UNL     1      26.045 -37.613 -10.608  1.00  0.00     0.071 A 
HETATM    2  C3  UNL     1      26.038 -36.604  -9.642  1.00  0.00     0.074 A 
HETATM    3  C4  UNL     1      24.884 -36.129  -9.071  1.00  0.00     0.078 A 
HETATM    4  C6  UNL     1      23.670 -36.706  -9.497  1.00  0.00    -0.004 A 
HETATM    5  C7  UNL     1      23.658 -37.686 -10.436  1.00  0.00    -0.033 A 
HETATM    6  C8  UNL     1      24.848 -38.151 -11.002  1.00  0.00     0.045 A 
HETATM    7  C9  UNL     1      22.416 -38.318 -10.935  1.00  0.00     0.008 C 
HETATM    8  C10 UNL     1      22.309 -39.692 -10.319  1.00  0.00     0.025 C 
HETATM    9  C11 UNL     1      22.452 -38.468 -12.448  1.00  0.00     0.025 C 
HETATM   10  C12 UNL     1      21.211 -37.548 -10.532  1.00  0.00    -0.035 A 
HETATM   11  C13 UNL     1      20.034 -37.876 -11.187  1.00  0.00     0.048 A 
HETATM   12  C14 UNL     1      18.896 -37.197 -10.876  1.00  0.00     0.105 A 
HETATM   13  C15 UNL     1      18.923 -36.211  -9.932  1.00  0.00     0.105 A 
HETATM   14  C16 UNL     1      20.081 -35.887  -9.284  1.00  0.00     0.048 A 
HETATM   15  C17 UNL     1      21.244 -36.562  -9.586  1.00  0.00    -0.035 A 
HETATM   16  C18 UNL     1      22.456 -36.205  -8.874  1.00  0.00     0.088 C 
HETATM   17  O6  UNL     1      17.609 -35.729  -9.861  1.00  0.00    -0.323 OA
HETATM   18  C27 UNL     1      16.746 -36.601 -10.532  1.00  0.00     0.352 C 
HETATM   19  O7  UNL     1      17.600 -37.336 -11.389  1.00  0.00    -0.323 OA
ENDROOT
BRANCH  16  20
HETATM   20  C19 UNL     1      22.413 -36.402  -7.410  1.00  0.00    -0.040 A 
HETATM   21  C20 UNL     1      22.177 -37.653  -6.897  1.00  0.00     0.048 A 
HETATM   22  C21 UNL     1      22.086 -37.917  -5.536  1.00  0.00     0.104 A 
HETATM   23  C23 UNL     1      22.238 -36.887  -4.637  1.00  0.00     0.133 A 
HETATM   24  C24 UNL     1      22.476 -35.619  -5.137  1.00  0.00     0.104 A 
HETATM   25  C26 UNL     1      22.562 -35.384  -6.499  1.00  0.00     0.048 A 
BRANCH  22  26
HETATM   26  O3  UNL     1      21.849 -39.196  -5.093  1.00  0.00    -0.353 OA
HETATM   27  C22 UNL     1      21.179 -40.180  -5.810  1.00  0.00     0.210 C 
ENDBRANCH  22  26
BRANCH  23  28
HETATM   28  O4  UNL     1      22.154 -37.098  -3.247  1.00  0.00    -0.356 OA
ATOM     29  H4  UNL     1      21.336 -37.327  -2.824  1.00  0.00     0.218 HD
ENDBRANCH  23  28
BRANCH  24  30
HETATM   30  O5  UNL     1      22.630 -34.570  -4.211  1.00  0.00    -0.353 OA
HETATM   31  C25 UNL     1      21.546 -33.641  -4.065  1.00  0.00     0.210 C 
ENDBRANCH  24  30
ENDBRANCH  16  20
BRANCH   3  32
HETATM   32  O2  UNL     1      24.801 -35.142  -8.117  1.00  0.00    -0.355 OA
HETATM   33  C5  UNL     1      25.730 -34.078  -8.188  1.00  0.00     0.210 C 
ENDBRANCH   3  32
BRANCH   1  34
HETATM   34  O1  UNL     1      27.238 -38.044 -11.142  1.00  0.00    -0.356 OA
HETATM   35  C1  UNL     1      28.450 -37.571 -10.599  1.00  0.00     0.210 C 
ENDBRANCH   1  34
TORSDOF 6
ENDMDL
