MODEL 1
REMARK VINA RESULT: -8.009265704      0.000      0.000
REMARK  6 active torsions:
REMARK  status: ('A' for Active; 'I' for Inactive)
REMARK    1  A    between atoms: C6_8  and  O3_9 
REMARK    2  A    between atoms: O3_9  and  C7_10 
REMARK    3  A    between atoms: C14_19  and  O6_20 
REMARK    4  A    between atoms: C17_25  and  C19_27 
REMARK    5  A    between atoms: C19_27  and  C20_28 
REMARK    6  A    between atoms: C20_28  and  C21_29 
ROOT
HETATM    1  C1  UNL     1      19.689 -33.915  -8.368  1.00  0.00     0.023 C 
HETATM    2  C2  UNL     1      20.065 -35.129  -7.979  1.00  0.00     0.010 C 
HETATM    3  C3  UNL     1      19.304 -36.234  -7.359  1.00  0.00     0.221 C 
HETATM    4  C4  UNL     1      17.995 -36.611  -7.950  1.00  0.00     0.087 C 
HETATM    5  O1  UNL     1      19.112 -36.116  -6.002  1.00  0.00    -0.196 OA
HETATM    6  O2  UNL     1      18.613 -37.192  -5.494  1.00  0.00    -0.235 OA
HETATM    7  C5  UNL     1      19.180 -37.308  -4.210  1.00  0.00     0.242 C 
HETATM    8  C6  UNL     1      20.443 -36.435  -4.128  1.00  0.00     0.158 C 
HETATM    9  C9  UNL     1      21.497 -37.067  -4.983  1.00  0.00     0.036 C 
HETATM   10  C10 UNL     1      22.463 -36.253  -5.674  1.00  0.00     0.022 C 
HETATM   11  C11 UNL     1      22.206 -35.459  -6.912  1.00  0.00     0.044 C 
HETATM   12  C12 UNL     1      21.848 -34.050  -6.393  1.00  0.00     0.026 C 
HETATM   13  C13 UNL     1      23.611 -35.232  -7.424  1.00  0.00     0.101 A 
HETATM   14  O5  UNL     1      24.365 -34.183  -7.126  1.00  0.00    -0.289 OA
HETATM   15  C14 UNL     1      25.526 -34.196  -7.666  1.00  0.00     0.185 A 
HETATM   16  C15 UNL     1      25.632 -35.341  -8.417  1.00  0.00     0.103 A 
HETATM   17  C16 UNL     1      24.390 -35.988  -8.245  1.00  0.00     0.105 A 
HETATM   18  O7  UNL     1      24.015 -37.202  -8.821  1.00  0.00    -0.337 OA
HETATM   19  C17 UNL     1      22.749 -37.461  -9.426  1.00  0.00     0.071 C 
HETATM   20  C18 UNL     1      22.243 -38.680  -8.667  1.00  0.00     0.047 C 
HETATM   21  C23 UNL     1      21.849 -36.273  -9.316  1.00  0.00     0.057 C 
HETATM   22  C24 UNL     1      20.790 -36.389 -10.328  1.00  0.00     0.016 C 
HETATM   23  C25 UNL     1      21.332 -35.967  -7.947  1.00  0.00     0.112 C 
HETATM   24  O9  UNL     1      20.417 -36.973  -7.593  1.00  0.00    -0.332 OA
ENDROOT
BRANCH  19  25
HETATM   25  C19 UNL     1      22.980 -37.813 -10.863  1.00  0.00     0.046 C 
BRANCH  25  26
HETATM   26  C20 UNL     1      23.838 -38.942 -11.227  1.00  0.00     0.081 C 
BRANCH  26  27
HETATM   27  C21 UNL     1      25.116 -38.735 -11.890  1.00  0.00     0.123 C 
HETATM   28  C22 UNL     1      25.929 -37.476 -11.637  1.00  0.00     0.091 C 
HETATM   29  O8  UNL     1      25.627 -39.504 -12.664  1.00  0.00    -0.298 OA
ENDBRANCH  26  27
ENDBRANCH  25  26
ENDBRANCH  19  25
BRANCH  15  30
HETATM   30  O6  UNL     1      26.563 -33.256  -7.564  1.00  0.00    -0.341 OA
ATOM     31  H6  UNL     1      26.863 -32.621  -8.204  1.00  0.00     0.220 HD
ENDBRANCH  15  30
BRANCH   8  32
HETATM   32  O3  UNL     1      20.795 -36.358  -2.747  1.00  0.00    -0.314 OA
BRANCH  32  33
HETATM   33  C7  UNL     1      20.959 -35.181  -2.070  1.00  0.00     0.255 C 
HETATM   34  C8  UNL     1      21.599 -33.962  -2.597  1.00  0.00     0.126 C 
HETATM   35  O4  UNL     1      20.524 -35.132  -0.881  1.00  0.00    -0.266 OA
ENDBRANCH  32  33
ENDBRANCH   8  32
TORSDOF 6
ENDMDL
MODEL 2
REMARK VINA RESULT: -7.624346760      3.015      7.208
REMARK  6 active torsions:
REMARK  status: ('A' for Active; 'I' for Inactive)
REMARK    1  A    between atoms: C6_8  and  O3_9 
REMARK    2  A    between atoms: O3_9  and  C7_10 
REMARK    3  A    between atoms: C14_19  and  O6_20 
REMARK    4  A    between atoms: C17_25  and  C19_27 
REMARK    5  A    between atoms: C19_27  and  C20_28 
REMARK    6  A    between atoms: C20_28  and  C21_29 
ROOT
HETATM    1  C1  UNL     1      21.393 -41.264  -8.773  1.00  0.00     0.023 C 
HETATM    2  C2  UNL     1      21.013 -40.090  -9.266  1.00  0.00     0.010 C 
HETATM    3  C3  UNL     1      19.674 -39.560  -9.599  1.00  0.00     0.221 C 
HETATM    4  C4  UNL     1      18.581 -39.723  -8.607  1.00  0.00     0.087 C 
HETATM    5  O1  UNL     1      19.176 -39.966 -10.815  1.00  0.00    -0.196 OA
HETATM    6  O2  UNL     1      18.100 -39.325 -11.130  1.00  0.00    -0.235 OA
HETATM    7  C5  UNL     1      18.141 -39.172 -12.528  1.00  0.00     0.242 C 
HETATM    8  C6  UNL     1      19.581 -39.385 -13.025  1.00  0.00     0.158 C 
HETATM    9  C9  UNL     1      20.402 -38.220 -12.569  1.00  0.00     0.036 C 
HETATM   10  C10 UNL     1      21.793 -38.390 -12.237  1.00  0.00     0.022 C 
HETATM   11  C11 UNL     1      22.319 -39.007 -10.983  1.00  0.00     0.044 C 
HETATM   12  C12 UNL     1      22.544 -40.489 -11.353  1.00  0.00     0.026 C 
HETATM   13  C13 UNL     1      23.742 -38.492 -10.967  1.00  0.00     0.101 A 
HETATM   14  O5  UNL     1      24.781 -39.123 -11.497  1.00  0.00    -0.289 OA
HETATM   15  C14 UNL     1      25.894 -38.503 -11.373  1.00  0.00     0.185 A 
HETATM   16  C15 UNL     1      25.655 -37.329 -10.701  1.00  0.00     0.103 A 
HETATM   17  C16 UNL     1      24.266 -37.347 -10.451  1.00  0.00     0.105 A 
HETATM   18  O7  UNL     1      23.544 -36.357  -9.785  1.00  0.00    -0.337 OA
HETATM   19  C17 UNL     1      22.547 -36.603  -8.794  1.00  0.00     0.071 C 
HETATM   20  C18 UNL     1      21.325 -35.880  -9.343  1.00  0.00     0.047 C 
HETATM   21  C23 UNL     1      22.335 -38.070  -8.598  1.00  0.00     0.057 C 
HETATM   22  C24 UNL     1      21.697 -38.283  -7.292  1.00  0.00     0.016 C 
HETATM   23  C25 UNL     1      21.654 -38.788  -9.717  1.00  0.00     0.112 C 
HETATM   24  O9  UNL     1      20.312 -38.372  -9.748  1.00  0.00    -0.332 OA
ENDROOT
BRANCH  19  25
HETATM   25  C19 UNL     1      22.989 -35.961  -7.515  1.00  0.00     0.046 C 
BRANCH  25  26
HETATM   26  C20 UNL     1      24.402 -35.653  -7.284  1.00  0.00     0.081 C 
BRANCH  26  27
HETATM   27  C21 UNL     1      24.908 -34.295  -7.409  1.00  0.00     0.123 C 
HETATM   28  C22 UNL     1      25.851 -33.917  -8.540  1.00  0.00     0.091 C 
HETATM   29  O8  UNL     1      24.641 -33.385  -6.665  1.00  0.00    -0.298 OA
ENDBRANCH  26  27
ENDBRANCH  25  26
ENDBRANCH  19  25
BRANCH  15  30
HETATM   30  O6  UNL     1      27.173 -38.879 -11.813  1.00  0.00    -0.341 OA
ATOM     31  H6  UNL     1      27.961 -39.034 -11.306  1.00  0.00     0.220 HD
ENDBRANCH  15  30
BRANCH   8  32
HETATM   32  O3  UNL     1      19.506 -39.514 -14.444  1.00  0.00    -0.314 OA
BRANCH  32  33
HETATM   33  C7  UNL     1      20.071 -40.545 -15.143  1.00  0.00     0.255 C 
HETATM   34  C8  UNL     1      20.393 -41.880 -14.607  1.00  0.00     0.126 C 
HETATM   35  O4  UNL     1      20.344 -40.336 -16.362  1.00  0.00    -0.266 OA
ENDBRANCH  32  33
ENDBRANCH   8  32
TORSDOF 6
ENDMDL
MODEL 3
REMARK VINA RESULT: -7.155592380      1.202      1.276
REMARK  6 active torsions:
REMARK  status: ('A' for Active; 'I' for Inactive)
REMARK    1  A    between atoms: C6_8  and  O3_9 
REMARK    2  A    between atoms: O3_9  and  C7_10 
REMARK    3  A    between atoms: C14_19  and  O6_20 
REMARK    4  A    between atoms: C17_25  and  C19_27 
REMARK    5  A    between atoms: C19_27  and  C20_28 
REMARK    6  A    between atoms: C20_28  and  C21_29 
ROOT
HETATM    1  C1  UNL     1      19.533 -34.509  -9.124  1.00  0.00     0.023 C 
HETATM    2  C2  UNL     1      19.826 -35.746  -8.735  1.00  0.00     0.010 C 
HETATM    3  C3  UNL     1      18.997 -36.788  -8.094  1.00  0.00     0.221 C 
HETATM    4  C4  UNL     1      17.653 -37.070  -8.657  1.00  0.00     0.087 C 
HETATM    5  O1  UNL     1      18.843 -36.651  -6.734  1.00  0.00    -0.196 OA
HETATM    6  O2  UNL     1      18.276 -37.685  -6.210  1.00  0.00    -0.235 OA
HETATM    7  C5  UNL     1      18.858 -37.837  -4.938  1.00  0.00     0.242 C 
HETATM    8  C6  UNL     1      20.185 -37.060  -4.885  1.00  0.00     0.158 C 
HETATM    9  C9  UNL     1      21.171 -37.772  -5.758  1.00  0.00     0.036 C 
HETATM   10  C10 UNL     1      22.180 -37.036  -6.473  1.00  0.00     0.022 C 
HETATM   11  C11 UNL     1      21.957 -36.230  -7.711  1.00  0.00     0.044 C 
HETATM   12  C12 UNL     1      21.716 -34.796  -7.192  1.00  0.00     0.026 C 
HETATM   13  C13 UNL     1      23.365 -36.111  -8.252  1.00  0.00     0.101 A 
HETATM   14  O5  UNL     1      24.201 -35.119  -7.975  1.00  0.00    -0.289 OA
HETATM   15  C14 UNL     1      25.346 -35.221  -8.538  1.00  0.00     0.185 A 
HETATM   16  C15 UNL     1      25.352 -36.374  -9.285  1.00  0.00     0.103 A 
HETATM   17  C16 UNL     1      24.068 -36.925  -9.084  1.00  0.00     0.105 A 
HETATM   18  O7  UNL     1      23.593 -38.110  -9.645  1.00  0.00    -0.337 OA
HETATM   19  C17 UNL     1      22.298 -38.278 -10.223  1.00  0.00     0.071 C 
HETATM   20  C18 UNL     1      21.719 -39.453  -9.447  1.00  0.00     0.047 C 
HETATM   21  C23 UNL     1      21.491 -37.025 -10.101  1.00  0.00     0.057 C 
HETATM   22  C24 UNL     1      20.407 -37.067 -11.091  1.00  0.00     0.016 C 
HETATM   23  C25 UNL     1      21.027 -36.676  -8.725  1.00  0.00     0.112 C 
HETATM   24  O9  UNL     1      20.047 -37.610  -8.346  1.00  0.00    -0.332 OA
ENDROOT
BRANCH  19  25
HETATM   25  C19 UNL     1      22.473 -38.652 -11.662  1.00  0.00     0.046 C 
BRANCH  25  26
HETATM   26  C20 UNL     1      23.714 -38.334 -12.372  1.00  0.00     0.081 C 
BRANCH  26  27
HETATM   27  C21 UNL     1      24.913 -39.138 -12.192  1.00  0.00     0.123 C 
HETATM   28  C22 UNL     1      26.294 -38.517 -12.326  1.00  0.00     0.091 C 
HETATM   29  O8  UNL     1      24.925 -40.314 -11.932  1.00  0.00    -0.298 OA
ENDBRANCH  26  27
ENDBRANCH  25  26
ENDBRANCH  19  25
BRANCH  15  30
HETATM   30  O6  UNL     1      26.452 -34.360  -8.463  1.00  0.00    -0.341 OA
ATOM     31  H6  UNL     1      26.781 -33.747  -9.109  1.00  0.00     0.220 HD
ENDBRANCH  15  30
BRANCH   8  32
HETATM   32  O3  UNL     1      20.569 -37.004  -3.512  1.00  0.00    -0.314 OA
BRANCH  32  33
HETATM   33  C7  UNL     1      21.656 -36.310  -3.056  1.00  0.00     0.255 C 
HETATM   34  C8  UNL     1      21.780 -34.843  -2.986  1.00  0.00     0.126 C 
HETATM   35  O4  UNL     1      22.649 -36.989  -2.659  1.00  0.00    -0.266 OA
ENDBRANCH  32  33
ENDBRANCH   8  32
TORSDOF 6
ENDMDL
MODEL 4
REMARK VINA RESULT: -7.131520934      1.868      5.085
REMARK  6 active torsions:
REMARK  status: ('A' for Active; 'I' for Inactive)
REMARK    1  A    between atoms: C6_8  and  O3_9 
REMARK    2  A    between atoms: O3_9  and  C7_10 
REMARK    3  A    between atoms: C14_19  and  O6_20 
REMARK    4  A    between atoms: C17_25  and  C19_27 
REMARK    5  A    between atoms: C19_27  and  C20_28 
REMARK    6  A    between atoms: C20_28  and  C21_29 
ROOT
HETATM    1  C1  UNL     1      22.263 -37.950  -5.070  1.00  0.00     0.023 C 
HETATM    2  C2  UNL     1      22.113 -36.763  -5.649  1.00  0.00     0.010 C 
HETATM    3  C3  UNL     1      21.231 -35.623  -5.324  1.00  0.00     0.221 C 
HETATM    4  C4  UNL     1      21.153 -35.167  -3.913  1.00  0.00     0.087 C 
HETATM    5  O1  UNL     1      19.937 -35.744  -5.778  1.00  0.00    -0.196 OA
HETATM    6  O2  UNL     1      19.275 -34.646  -5.632  1.00  0.00    -0.235 OA
HETATM    7  C5  UNL     1      18.403 -34.574  -6.735  1.00  0.00     0.242 C 
HETATM    8  C6  UNL     1      18.901 -35.518  -7.843  1.00  0.00     0.158 C 
HETATM    9  C9  UNL     1      20.159 -34.938  -8.411  1.00  0.00     0.036 C 
HETATM   10  C10 UNL     1      21.205 -35.798  -8.900  1.00  0.00     0.022 C 
HETATM   11  C11 UNL     1      22.168 -36.564  -8.054  1.00  0.00     0.044 C 
HETATM   12  C12 UNL     1      21.518 -37.956  -7.903  1.00  0.00     0.026 C 
HETATM   13  C13 UNL     1      23.270 -36.864  -9.047  1.00  0.00     0.101 A 
HETATM   14  O5  UNL     1      23.338 -37.958  -9.795  1.00  0.00    -0.289 OA
HETATM   15  C14 UNL     1      24.355 -38.004 -10.571  1.00  0.00     0.185 A 
HETATM   16  C15 UNL     1      25.090 -36.860 -10.378  1.00  0.00     0.103 A 
HETATM   17  C16 UNL     1      24.372 -36.146  -9.395  1.00  0.00     0.105 A 
HETATM   18  O7  UNL     1      24.729 -34.907  -8.863  1.00  0.00    -0.337 OA
HETATM   19  C17 UNL     1      24.681 -34.571  -7.476  1.00  0.00     0.071 C 
HETATM   20  C18 UNL     1      23.796 -33.333  -7.448  1.00  0.00     0.047 C 
HETATM   21  C23 UNL     1      24.145 -35.708  -6.667  1.00  0.00     0.057 C 
HETATM   22  C24 UNL     1      24.552 -35.523  -5.268  1.00  0.00     0.016 C 
HETATM   23  C25 UNL     1      22.688 -35.997  -6.829  1.00  0.00     0.112 C 
HETATM   24  O9  UNL     1      21.967 -34.945  -6.239  1.00  0.00    -0.332 OA
ENDROOT
BRANCH  19  25
HETATM   25  C19 UNL     1      26.067 -34.219  -7.032  1.00  0.00     0.046 C 
BRANCH  25  26
HETATM   26  C20 UNL     1      27.076 -33.788  -8.002  1.00  0.00     0.081 C 
BRANCH  26  27
HETATM   27  C21 UNL     1      27.776 -34.750  -8.839  1.00  0.00     0.123 C 
HETATM   28  C22 UNL     1      28.205 -34.386 -10.251  1.00  0.00     0.091 C 
HETATM   29  O8  UNL     1      28.069 -35.871  -8.508  1.00  0.00    -0.298 OA
ENDBRANCH  26  27
ENDBRANCH  25  26
ENDBRANCH  19  25
BRANCH  15  30
HETATM   30  O6  UNL     1      24.730 -39.002 -11.484  1.00  0.00    -0.341 OA
ATOM     31  H6  UNL     1      25.254 -39.781 -11.340  1.00  0.00     0.220 HD
ENDBRANCH  15  30
BRANCH   8  32
HETATM   32  O3  UNL     1      17.840 -35.628  -8.790  1.00  0.00    -0.314 OA
BRANCH  32  33
HETATM   33  C7  UNL     1      17.805 -36.566  -9.785  1.00  0.00     0.255 C 
HETATM   34  C8  UNL     1      18.208 -37.978  -9.657  1.00  0.00     0.126 C 
HETATM   35  O4  UNL     1      17.390 -36.189 -10.921  1.00  0.00    -0.266 OA
ENDBRANCH  32  33
ENDBRANCH   8  32
TORSDOF 6
ENDMDL
MODEL 5
REMARK VINA RESULT: -7.128930848      2.320      5.322
REMARK  6 active torsions:
REMARK  status: ('A' for Active; 'I' for Inactive)
REMARK    1  A    between atoms: C6_8  and  O3_9 
REMARK    2  A    between atoms: O3_9  and  C7_10 
REMARK    3  A    between atoms: C14_19  and  O6_20 
REMARK    4  A    between atoms: C17_25  and  C19_27 
REMARK    5  A    between atoms: C19_27  and  C20_28 
REMARK    6  A    between atoms: C20_28  and  C21_29 
ROOT
HETATM    1  C1  UNL     1      22.333 -37.805  -5.988  1.00  0.00     0.023 C 
HETATM    2  C2  UNL     1      22.404 -36.774  -6.824  1.00  0.00     0.010 C 
HETATM    3  C3  UNL     1      21.800 -35.427  -6.765  1.00  0.00     0.221 C 
HETATM    4  C4  UNL     1      21.898 -34.661  -5.497  1.00  0.00     0.087 C 
HETATM    5  O1  UNL     1      20.487 -35.363  -7.172  1.00  0.00    -0.196 OA
HETATM    6  O2  UNL     1      20.078 -34.143  -7.278  1.00  0.00    -0.235 OA
HETATM    7  C5  UNL     1      19.181 -34.132  -8.363  1.00  0.00     0.242 C 
HETATM    8  C6  UNL     1      19.408 -35.385  -9.226  1.00  0.00     0.158 C 
HETATM    9  C9  UNL     1      20.725 -35.234  -9.921  1.00  0.00     0.036 C 
HETATM   10  C10 UNL     1      21.539 -36.387 -10.204  1.00  0.00     0.022 C 
HETATM   11  C11 UNL     1      22.365 -37.136  -9.211  1.00  0.00     0.044 C 
HETATM   12  C12 UNL     1      21.447 -38.283  -8.739  1.00  0.00     0.026 C 
HETATM   13  C13 UNL     1      23.322 -37.882 -10.114  1.00  0.00     0.101 A 
HETATM   14  O5  UNL     1      23.118 -39.103 -10.590  1.00  0.00    -0.289 OA
HETATM   15  C14 UNL     1      24.057 -39.541 -11.340  1.00  0.00     0.185 A 
HETATM   16  C15 UNL     1      25.025 -38.570 -11.422  1.00  0.00     0.103 A 
HETATM   17  C16 UNL     1      24.529 -37.516 -10.625  1.00  0.00     0.105 A 
HETATM   18  O7  UNL     1      25.167 -36.298 -10.395  1.00  0.00    -0.337 OA
HETATM   19  C17 UNL     1      25.269 -35.658  -9.123  1.00  0.00     0.071 C 
HETATM   20  C18 UNL     1      24.666 -34.283  -9.375  1.00  0.00     0.047 C 
HETATM   21  C23 UNL     1      24.552 -36.441  -8.070  1.00  0.00     0.057 C 
HETATM   22  C24 UNL     1      25.066 -36.040  -6.753  1.00  0.00     0.016 C 
HETATM   23  C25 UNL     1      23.060 -36.436  -8.152  1.00  0.00     0.112 C 
HETATM   24  O9  UNL     1      22.610 -35.147  -7.816  1.00  0.00    -0.332 OA
ENDROOT
BRANCH  19  25
HETATM   25  C19 UNL     1      26.720 -35.524  -8.780  1.00  0.00     0.046 C 
BRANCH  25  26
HETATM   26  C20 UNL     1      27.749 -36.111  -9.642  1.00  0.00     0.081 C 
BRANCH  26  27
HETATM   27  C21 UNL     1      28.290 -37.434  -9.377  1.00  0.00     0.123 C 
HETATM   28  C22 UNL     1      28.655 -37.858  -7.964  1.00  0.00     0.091 C 
HETATM   29  O8  UNL     1      28.492 -38.280 -10.213  1.00  0.00    -0.298 OA
ENDBRANCH  26  27
ENDBRANCH  25  26
ENDBRANCH  19  25
BRANCH  15  30
HETATM   30  O6  UNL     1      24.163 -40.775 -12.001  1.00  0.00    -0.341 OA
ATOM     31  H6  UNL     1      24.793 -41.055 -12.655  1.00  0.00     0.220 HD
ENDBRANCH  15  30
BRANCH   8  32
HETATM   32  O3  UNL     1      18.296 -35.471 -10.117  1.00  0.00    -0.314 OA
BRANCH  32  33
HETATM   33  C7  UNL     1      17.457 -36.549 -10.181  1.00  0.00     0.255 C 
HETATM   34  C8  UNL     1      17.869 -37.962 -10.275  1.00  0.00     0.126 C 
HETATM   35  O4  UNL     1      16.212 -36.316 -10.160  1.00  0.00    -0.266 OA
ENDBRANCH  32  33
ENDBRANCH   8  32
TORSDOF 6
ENDMDL
