MODEL 1
REMARK VINA RESULT: -5.710695454      0.000      0.000
REMARK  5 active torsions:
REMARK  status: ('A' for Active; 'I' for Inactive)
REMARK    1  A    between atoms: C2_2  and  N1_3 
REMARK    2  A    between atoms: N1_3  and  C3_5 
REMARK    3  A    between atoms: N2_9  and  C7_10 
REMARK    4  A    between atoms: C7_10  and  C8_11 
REMARK    5  A    between atoms: C8_11  and  N3_12 
ROOT
HETATM    1  C3  UNL     1      57.505 360.001  87.665  1.00  0.00     0.321 C 
HETATM    2  C4  UNL     1      59.012 360.182  87.655  1.00  0.00     0.059 C 
HETATM    3  C5  UNL     1      59.392 359.804  86.252  1.00  0.00     0.034 C 
HETATM    4  C6  UNL     1      58.332 358.813  85.867  1.00  0.00     0.275 C 
HETATM    5  N2  UNL     1      57.146 359.145  86.588  1.00  0.00     0.112 N 
ENDROOT
BRANCH   5   6
HETATM    6  C7  UNL     1      56.078 359.564  85.755  1.00  0.00     0.302 C 
BRANCH   6   7
HETATM    7  C8  UNL     1      55.801 358.731  84.553  1.00  0.00     0.260 C 
BRANCH   7   8
HETATM    8  N3  UNL     1      56.179 359.334  83.296  1.00  0.00    -0.078 N 
ATOM      9  H33 UNL     1      55.627 360.174  83.127  1.00  0.00     0.274 HD
ATOM     10  H32 UNL     1      57.110 359.746  83.368  1.00  0.00     0.274 HD
ATOM     11  H31 UNL     1      56.130 358.711  82.490  1.00  0.00     0.274 HD
ENDBRANCH   7   8
ENDBRANCH   6   7
ENDBRANCH   5   6
BRANCH   1  12
HETATM   12  N1  UNL     1      57.164 359.420  88.941  1.00  0.00    -0.371 N 
ATOM     13  H1  UNL     1      57.439 358.464  89.163  1.00  0.00     0.161 HD
BRANCH  12  14
HETATM   14  C2  UNL     1      56.439 360.201  89.885  1.00  0.00     0.074 C 
HETATM   15  C1  UNL     1      56.130 361.443  89.533  1.00  0.00     0.029 C 
ENDBRANCH  12  14
ENDBRANCH   1  12
TORSDOF 5
ENDMDL
MODEL 2
REMARK VINA RESULT: -5.501361242      1.303      4.047
REMARK  5 active torsions:
REMARK  status: ('A' for Active; 'I' for Inactive)
REMARK    1  A    between atoms: C2_2  and  N1_3 
REMARK    2  A    between atoms: N1_3  and  C3_5 
REMARK    3  A    between atoms: N2_9  and  C7_10 
REMARK    4  A    between atoms: C7_10  and  C8_11 
REMARK    5  A    between atoms: C8_11  and  N3_12 
ROOT
HETATM    1  C3  UNL     1      56.911 359.052  86.581  1.00  0.00     0.321 C 
HETATM    2  C4  UNL     1      57.658 358.261  85.522  1.00  0.00     0.059 C 
HETATM    3  C5  UNL     1      59.098 358.505  85.867  1.00  0.00     0.034 C 
HETATM    4  C6  UNL     1      59.071 359.862  86.508  1.00  0.00     0.275 C 
HETATM    5  N2  UNL     1      57.795 360.023  87.126  1.00  0.00     0.112 N 
ENDROOT
BRANCH   5   6
HETATM    6  C7  UNL     1      57.860 360.121  88.539  1.00  0.00     0.302 C 
BRANCH   6   7
HETATM    7  C8  UNL     1      56.621 360.556  89.238  1.00  0.00     0.260 C 
BRANCH   7   8
HETATM    8  N3  UNL     1      56.269 359.767  90.397  1.00  0.00    -0.078 N 
ATOM      9  H33 UNL     1      55.423 360.135  90.831  1.00  0.00     0.274 HD
ATOM     10  H32 UNL     1      55.935 358.847  90.109  1.00  0.00     0.274 HD
ATOM     11  H31 UNL     1      57.010 359.673  91.091  1.00  0.00     0.274 HD
ENDBRANCH   7   8
ENDBRANCH   6   7
ENDBRANCH   5   6
BRANCH   1  12
HETATM   12  N1  UNL     1      55.785 359.668  85.925  1.00  0.00    -0.371 N 
ATOM     13  H1  UNL     1      55.395 360.541  86.279  1.00  0.00     0.161 HD
BRANCH  12  14
HETATM   14  C2  UNL     1      55.224 359.041  84.776  1.00  0.00     0.074 C 
HETATM   15  C1  UNL     1      53.911 359.144  84.611  1.00  0.00     0.029 C 
ENDBRANCH  12  14
ENDBRANCH   1  12
TORSDOF 5
ENDMDL
MODEL 3
REMARK VINA RESULT: -5.266506306      1.967      4.500
REMARK  5 active torsions:
REMARK  status: ('A' for Active; 'I' for Inactive)
REMARK    1  A    between atoms: C2_2  and  N1_3 
REMARK    2  A    between atoms: N1_3  and  C3_5 
REMARK    3  A    between atoms: N2_9  and  C7_10 
REMARK    4  A    between atoms: C7_10  and  C8_11 
REMARK    5  A    between atoms: C8_11  and  N3_12 
ROOT
HETATM    1  C3  UNL     1      56.455 358.386  85.041  1.00  0.00     0.321 C 
HETATM    2  C4  UNL     1      55.343 359.394  85.271  1.00  0.00     0.059 C 
HETATM    3  C5  UNL     1      55.916 360.301  86.320  1.00  0.00     0.034 C 
HETATM    4  C6  UNL     1      56.851 359.402  87.076  1.00  0.00     0.275 C 
HETATM    5  N2  UNL     1      57.321 358.407  86.168  1.00  0.00     0.112 N 
ENDROOT
BRANCH   5   6
HETATM    6  C7  UNL     1      58.714 358.489  85.914  1.00  0.00     0.302 C 
BRANCH   6   7
HETATM    7  C8  UNL     1      59.331 359.840  85.997  1.00  0.00     0.260 C 
BRANCH   7   8
HETATM    8  N3  UNL     1      59.294 360.600  84.769  1.00  0.00    -0.078 N 
ATOM      9  H33 UNL     1      58.349 360.941  84.593  1.00  0.00     0.274 HD
ATOM     10  H32 UNL     1      59.782 361.488  84.889  1.00  0.00     0.274 HD
ATOM     11  H31 UNL     1      59.651 360.108  83.950  1.00  0.00     0.274 HD
ENDBRANCH   7   8
ENDBRANCH   6   7
ENDBRANCH   5   6
BRANCH   1  12
HETATM   12  N1  UNL     1      55.825 357.100  84.879  1.00  0.00    -0.371 N 
ATOM     13  H1  UNL     1      55.864 356.407  85.627  1.00  0.00     0.161 HD
BRANCH  12  14
HETATM   14  C2  UNL     1      55.147 356.808  83.661  1.00  0.00     0.074 C 
HETATM   15  C1  UNL     1      53.838 356.599  83.734  1.00  0.00     0.029 C 
ENDBRANCH  12  14
ENDBRANCH   1  12
TORSDOF 5
ENDMDL
MODEL 4
REMARK VINA RESULT: -5.166725331      1.368      4.295
REMARK  5 active torsions:
REMARK  status: ('A' for Active; 'I' for Inactive)
REMARK    1  A    between atoms: C2_2  and  N1_3 
REMARK    2  A    between atoms: N1_3  and  C3_5 
REMARK    3  A    between atoms: N2_9  and  C7_10 
REMARK    4  A    between atoms: C7_10  and  C8_11 
REMARK    5  A    between atoms: C8_11  and  N3_12 
ROOT
HETATM    1  C3  UNL     1      56.226 358.933  85.999  1.00  0.00     0.321 C 
HETATM    2  C4  UNL     1      57.230 357.889  85.547  1.00  0.00     0.059 C 
HETATM    3  C5  UNL     1      58.427 358.169  86.409  1.00  0.00     0.034 C 
HETATM    4  C6  UNL     1      58.315 359.641  86.679  1.00  0.00     0.275 C 
HETATM    5  N2  UNL     1      56.930 359.983  86.650  1.00  0.00     0.112 N 
ENDROOT
BRANCH   5   6
HETATM    6  C7  UNL     1      56.431 360.420  87.904  1.00  0.00     0.302 C 
BRANCH   6   7
HETATM    7  C8  UNL     1      57.178 359.977  89.112  1.00  0.00     0.260 C 
BRANCH   7   8
HETATM    8  N3  UNL     1      56.354 359.692  90.264  1.00  0.00    -0.078 N 
ATOM      9  H33 UNL     1      56.003 360.559  90.670  1.00  0.00     0.274 HD
ATOM     10  H32 UNL     1      55.476 359.264  89.973  1.00  0.00     0.274 HD
ATOM     11  H31 UNL     1      56.803 359.124  90.982  1.00  0.00     0.274 HD
ENDBRANCH   7   8
ENDBRANCH   6   7
ENDBRANCH   5   6
BRANCH   1  12
HETATM   12  N1  UNL     1      55.550 359.402  84.815  1.00  0.00    -0.371 N 
ATOM     13  H1  UNL     1      56.052 359.948  84.116  1.00  0.00     0.161 HD
BRANCH  12  14
HETATM   14  C2  UNL     1      54.171 359.092  84.636  1.00  0.00     0.074 C 
HETATM   15  C1  UNL     1      53.881 357.899  84.134  1.00  0.00     0.029 C 
ENDBRANCH  12  14
ENDBRANCH   1  12
TORSDOF 5
ENDMDL
MODEL 5
REMARK VINA RESULT: -5.112008928      1.455      1.623
REMARK  5 active torsions:
REMARK  status: ('A' for Active; 'I' for Inactive)
REMARK    1  A    between atoms: C2_2  and  N1_3 
REMARK    2  A    between atoms: N1_3  and  C3_5 
REMARK    3  A    between atoms: N2_9  and  C7_10 
REMARK    4  A    between atoms: C7_10  and  C8_11 
REMARK    5  A    between atoms: C8_11  and  N3_12 
ROOT
HETATM    1  C3  UNL     1      56.905 359.942  86.388  1.00  0.00     0.321 C 
HETATM    2  C4  UNL     1      58.297 359.566  86.860  1.00  0.00     0.059 C 
HETATM    3  C5  UNL     1      58.600 358.324  86.074  1.00  0.00     0.034 C 
HETATM    4  C6  UNL     1      57.243 357.724  85.846  1.00  0.00     0.275 C 
HETATM    5  N2  UNL     1      56.298 358.793  85.812  1.00  0.00     0.112 N 
ENDROOT
BRANCH   5   6
HETATM    6  C7  UNL     1      55.675 358.953  84.548  1.00  0.00     0.302 C 
BRANCH   6   7
HETATM    7  C8  UNL     1      54.229 358.611  84.467  1.00  0.00     0.260 C 
BRANCH   7   8
HETATM    8  N3  UNL     1      53.931 357.412  83.716  1.00  0.00    -0.078 N 
ATOM      9  H33 UNL     1      54.321 357.478  82.777  1.00  0.00     0.274 HD
ATOM     10  H32 UNL     1      54.471 356.626  84.078  1.00  0.00     0.274 HD
ATOM     11  H31 UNL     1      52.941 357.170  83.672  1.00  0.00     0.274 HD
ENDBRANCH   7   8
ENDBRANCH   6   7
ENDBRANCH   5   6
BRANCH   1  12
HETATM   12  N1  UNL     1      56.180 360.399  87.549  1.00  0.00    -0.371 N 
ATOM     13  H1  UNL     1      55.199 360.667  87.473  1.00  0.00     0.161 HD
BRANCH  12  14
HETATM   14  C2  UNL     1      56.852 360.470  88.802  1.00  0.00     0.074 C 
HETATM   15  C1  UNL     1      56.354 361.301  89.708  1.00  0.00     0.029 C 
ENDBRANCH  12  14
ENDBRANCH   1  12
TORSDOF 5
ENDMDL
