MODEL 1
REMARK VINA RESULT: -5.199760930      0.000      0.000
REMARK  5 active torsions:
REMARK  status: ('A' for Active; 'I' for Inactive)
REMARK    1  A    between atoms: C1_1  and  C2_2 
REMARK    2  A    between atoms: C1_1  and  N2_9 
REMARK    3  A    between atoms: C2_2  and  N1_3 
REMARK    4  A    between atoms: N1_3  and  C3_6 
REMARK    5  A    between atoms: N2_9  and  C6_11 
ROOT
HETATM    1  C2  UNL     1      57.560 358.606  87.140  1.00  0.00     0.277 C 
ENDROOT
BRANCH   1   2
HETATM    2  C1  UNL     1      57.589 358.275  85.667  1.00  0.00     0.083 C 
BRANCH   2   3
HETATM    3  N2  UNL     1      56.426 357.614  85.231  1.00  0.00    -0.396 N 
ATOM      4  H2  UNL     1      56.211 356.684  85.590  1.00  0.00     0.159 HD
BRANCH   3   5
HETATM    5  C6  UNL     1      55.552 358.221  84.306  1.00  0.00     0.081 A 
HETATM    6  C7  UNL     1      54.260 358.826  84.629  1.00  0.00     0.027 A 
HETATM    7  C8  UNL     1      54.241 357.418  84.091  1.00  0.00     0.027 A 
ENDBRANCH   3   5
ENDBRANCH   2   3
ENDBRANCH   1   2
BRANCH   1   8
HETATM    8  N1  UNL     1      56.838 359.858  87.386  1.00  0.00    -0.067 N 
ATOM      9  H12 UNL     1      56.993 360.555  86.658  1.00  0.00     0.278 HD
ATOM     10  H11 UNL     1      55.829 359.764  87.269  1.00  0.00     0.278 HD
BRANCH   8  11
HETATM   11  C3  UNL     1      57.208 360.325  88.694  1.00  0.00     0.186 A 
HETATM   12  C4  UNL     1      56.224 361.320  89.303  1.00  0.00     0.035 A 
HETATM   13  C5  UNL     1      56.483 359.988  89.929  1.00  0.00     0.035 A 
ENDBRANCH   8  11
ENDBRANCH   1   8
TORSDOF 5
ENDMDL
MODEL 2
REMARK VINA RESULT: -5.195898948      0.191      4.865
REMARK  5 active torsions:
REMARK  status: ('A' for Active; 'I' for Inactive)
REMARK    1  A    between atoms: C1_1  and  C2_2 
REMARK    2  A    between atoms: C1_1  and  N2_9 
REMARK    3  A    between atoms: C2_2  and  N1_3 
REMARK    4  A    between atoms: N1_3  and  C3_6 
REMARK    5  A    between atoms: N2_9  and  C6_11 
ROOT
HETATM    1  C2  UNL     1      57.424 358.307  85.643  1.00  0.00     0.277 C 
ENDROOT
BRANCH   1   2
HETATM    2  C1  UNL     1      57.556 358.553  87.128  1.00  0.00     0.083 C 
BRANCH   2   3
HETATM    3  N2  UNL     1      56.971 359.765  87.537  1.00  0.00    -0.396 N 
ATOM      4  H2  UNL     1      56.357 360.268  86.897  1.00  0.00     0.159 HD
BRANCH   3   5
HETATM    5  C6  UNL     1      57.223 360.294  88.819  1.00  0.00     0.081 A 
HETATM    6  C7  UNL     1      56.412 360.049  90.012  1.00  0.00     0.027 A 
HETATM    7  C8  UNL     1      56.161 361.335  89.266  1.00  0.00     0.027 A 
ENDBRANCH   3   5
ENDBRANCH   2   3
ENDBRANCH   1   2
BRANCH   1   8
HETATM    8  N1  UNL     1      56.223 357.521  85.343  1.00  0.00    -0.067 N 
ATOM      9  H12 UNL     1      56.436 356.575  85.029  1.00  0.00     0.278 HD
ATOM     10  H11 UNL     1      55.694 357.270  86.178  1.00  0.00     0.278 HD
BRANCH   8  11
HETATM   11  C3  UNL     1      55.444 358.264  84.390  1.00  0.00     0.186 A 
HETATM   12  C4  UNL     1      54.056 357.684  84.131  1.00  0.00     0.035 A 
HETATM   13  C5  UNL     1      54.242 359.041  84.730  1.00  0.00     0.035 A 
ENDBRANCH   8  11
ENDBRANCH   1   8
TORSDOF 5
ENDMDL
MODEL 3
REMARK VINA RESULT: -5.019289464      0.862      1.107
REMARK  5 active torsions:
REMARK  status: ('A' for Active; 'I' for Inactive)
REMARK    1  A    between atoms: C1_1  and  C2_2 
REMARK    2  A    between atoms: C1_1  and  N2_9 
REMARK    3  A    between atoms: C2_2  and  N1_3 
REMARK    4  A    between atoms: N1_3  and  C3_6 
REMARK    5  A    between atoms: N2_9  and  C6_11 
ROOT
HETATM    1  C2  UNL     1      58.093 359.551  86.720  1.00  0.00     0.277 C 
ENDROOT
BRANCH   1   2
HETATM    2  C1  UNL     1      57.917 358.054  86.635  1.00  0.00     0.083 C 
BRANCH   2   3
HETATM    3  N2  UNL     1      56.706 357.678  86.026  1.00  0.00    -0.396 N 
ATOM      4  H2  UNL     1      56.223 356.838  86.343  1.00  0.00     0.159 HD
BRANCH   3   5
HETATM    5  C6  UNL     1      56.152 358.447  84.983  1.00  0.00     0.081 A 
HETATM    6  C7  UNL     1      54.887 359.180  85.048  1.00  0.00     0.027 A 
HETATM    7  C8  UNL     1      54.859 357.825  84.389  1.00  0.00     0.027 A 
ENDBRANCH   3   5
ENDBRANCH   2   3
ENDBRANCH   1   2
BRANCH   1   8
HETATM    8  N1  UNL     1      58.119 360.001  88.116  1.00  0.00    -0.067 N 
ATOM      9  H12 UNL     1      58.564 359.330  88.741  1.00  0.00     0.278 HD
ATOM     10  H11 UNL     1      58.763 360.777  88.271  1.00  0.00     0.278 HD
BRANCH   8  11
HETATM   11  C3  UNL     1      56.768 360.312  88.498  1.00  0.00     0.186 A 
HETATM   12  C4  UNL     1      56.441 359.985  89.953  1.00  0.00     0.035 A 
HETATM   13  C5  UNL     1      56.399 361.385  89.433  1.00  0.00     0.035 A 
ENDBRANCH   8  11
ENDBRANCH   1   8
TORSDOF 5
ENDMDL
MODEL 4
REMARK VINA RESULT: -4.996720627      1.006      4.660
REMARK  5 active torsions:
REMARK  status: ('A' for Active; 'I' for Inactive)
REMARK    1  A    between atoms: C1_1  and  C2_2 
REMARK    2  A    between atoms: C1_1  and  N2_9 
REMARK    3  A    between atoms: C2_2  and  N1_3 
REMARK    4  A    between atoms: N1_3  and  C3_6 
REMARK    5  A    between atoms: N2_9  and  C6_11 
ROOT
HETATM    1  C2  UNL     1      57.897 359.643  85.408  1.00  0.00     0.277 C 
ENDROOT
BRANCH   1   2
HETATM    2  C1  UNL     1      57.576 359.009  86.741  1.00  0.00     0.083 C 
BRANCH   2   3
HETATM    3  N2  UNL     1      57.668 359.913  87.814  1.00  0.00    -0.396 N 
ATOM      4  H2  UNL     1      58.586 360.222  88.135  1.00  0.00     0.159 HD
BRANCH   3   5
HETATM    5  C6  UNL     1      56.509 360.398  88.453  1.00  0.00     0.081 A 
HETATM    6  C7  UNL     1      56.476 361.456  89.463  1.00  0.00     0.027 A 
HETATM    7  C8  UNL     1      56.448 360.034  89.961  1.00  0.00     0.027 A 
ENDBRANCH   3   5
ENDBRANCH   2   3
ENDBRANCH   1   2
BRANCH   1   8
HETATM    8  N1  UNL     1      56.733 359.615  84.517  1.00  0.00    -0.067 N 
ATOM      9  H12 UNL     1      56.368 360.544  84.312  1.00  0.00     0.278 HD
ATOM     10  H11 UNL     1      56.972 359.350  83.561  1.00  0.00     0.278 HD
BRANCH   8  11
HETATM   11  C3  UNL     1      55.752 358.747  85.109  1.00  0.00     0.186 A 
HETATM   12  C4  UNL     1      54.311 359.093  84.743  1.00  0.00     0.035 A 
HETATM   13  C5  UNL     1      54.930 357.790  84.352  1.00  0.00     0.035 A 
ENDBRANCH   8  11
ENDBRANCH   1   8
TORSDOF 5
ENDMDL
MODEL 5
REMARK VINA RESULT: -4.994545329      0.985      1.367
REMARK  5 active torsions:
REMARK  status: ('A' for Active; 'I' for Inactive)
REMARK    1  A    between atoms: C1_1  and  C2_2 
REMARK    2  A    between atoms: C1_1  and  N2_9 
REMARK    3  A    between atoms: C2_2  and  N1_3 
REMARK    4  A    between atoms: N1_3  and  C3_6 
REMARK    5  A    between atoms: N2_9  and  C6_11 
ROOT
HETATM    1  C2  UNL     1      57.977 358.945  86.964  1.00  0.00     0.277 C 
ENDROOT
BRANCH   1   2
HETATM    2  C1  UNL     1      58.111 359.559  85.591  1.00  0.00     0.083 C 
BRANCH   2   3
HETATM    3  N2  UNL     1      57.007 359.291  84.761  1.00  0.00    -0.396 N 
ATOM      4  H2  UNL     1      56.998 359.649  83.806  1.00  0.00     0.159 HD
BRANCH   3   5
HETATM    5  C6  UNL     1      55.915 358.534  85.231  1.00  0.00     0.081 A 
HETATM    6  C7  UNL     1      54.993 357.765  84.395  1.00  0.00     0.027 A 
HETATM    7  C8  UNL     1      54.541 359.135  84.830  1.00  0.00     0.027 A 
ENDBRANCH   3   5
ENDBRANCH   2   3
ENDBRANCH   1   2
BRANCH   1   8
HETATM    8  N1  UNL     1      58.078 359.968  88.011  1.00  0.00    -0.067 N 
ATOM      9  H12 UNL     1      58.691 359.692  88.778  1.00  0.00     0.278 HD
ATOM     10  H11 UNL     1      58.599 360.792  87.712  1.00  0.00     0.278 HD
BRANCH   8  11
HETATM   11  C3  UNL     1      56.743 360.278  88.446  1.00  0.00     0.186 A 
HETATM   12  C4  UNL     1      56.483 359.979  89.921  1.00  0.00     0.035 A 
HETATM   13  C5  UNL     1      56.409 361.368  89.375  1.00  0.00     0.035 A 
ENDBRANCH   8  11
ENDBRANCH   1   8
TORSDOF 5
ENDMDL
