MODEL 1
REMARK VINA RESULT: -5.427494775      0.000      0.000
REMARK  4 active torsions:
REMARK  status: ('A' for Active; 'I' for Inactive)
REMARK    1  A    between atoms: N1_2  and  C2_5 
REMARK    2  A    between atoms: C2_5  and  C3_6 
REMARK    3  A    between atoms: C3_6  and  N2_7 
REMARK    4  A    between atoms: N2_7  and  C4_10 
ROOT
HETATM    1  N2  UNL     1      56.363 358.123  85.494  1.00  0.00    -0.069 N 
ATOM      2  H21 UNL     1      56.743 357.770  84.616  1.00  0.00     0.277 HD
ATOM      3  H22 UNL     1      55.819 357.307  85.777  1.00  0.00     0.277 HD
ENDROOT
BRANCH   1   4
HETATM    4  C3  UNL     1      55.506 359.268  85.268  1.00  0.00     0.260 C 
BRANCH   4   5
HETATM    5  C2  UNL     1      54.291 358.766  84.508  1.00  0.00     0.259 C 
BRANCH   5   6
HETATM    6  N1  UNL     1      54.690 357.634  83.641  1.00  0.00    -0.077 N 
HETATM    7  C1  UNL     1      53.560 356.721  83.613  1.00  0.00     0.267 C 
ATOM      8  H12 UNL     1      55.561 357.190  83.930  1.00  0.00     0.276 HD
ATOM      9  H11 UNL     1      54.998 357.924  82.713  1.00  0.00     0.276 HD
ENDBRANCH   5   6
ENDBRANCH   4   5
ENDBRANCH   1   4
BRANCH   1  10
HETATM   10  C4  UNL     1      57.407 358.400  86.437  1.00  0.00     0.186 C 
HETATM   11  C5  UNL     1      58.757 358.664  85.890  1.00  0.00     0.033 C 
HETATM   12  C6  UNL     1      59.246 359.959  86.558  1.00  0.00     0.002 C 
HETATM   13  C7  UNL     1      58.424 359.946  87.828  1.00  0.00     0.002 C 
HETATM   14  C8  UNL     1      57.037 359.624  87.250  1.00  0.00     0.033 C 
ENDBRANCH   1  10
TORSDOF 4
ENDMDL
MODEL 2
REMARK VINA RESULT: -5.421481490      0.873      1.201
REMARK  4 active torsions:
REMARK  status: ('A' for Active; 'I' for Inactive)
REMARK    1  A    between atoms: N1_2  and  C2_5 
REMARK    2  A    between atoms: C2_5  and  C3_6 
REMARK    3  A    between atoms: C3_6  and  N2_7 
REMARK    4  A    between atoms: N2_7  and  C4_10 
ROOT
HETATM    1  N2  UNL     1      56.741 357.367  85.922  1.00  0.00    -0.069 N 
ATOM      2  H21 UNL     1      57.124 356.571  85.412  1.00  0.00     0.277 HD
ATOM      3  H22 UNL     1      56.094 356.872  86.536  1.00  0.00     0.277 HD
ENDROOT
BRANCH   1   4
HETATM    4  C3  UNL     1      56.034 358.265  85.034  1.00  0.00     0.260 C 
BRANCH   4   5
HETATM    5  C2  UNL     1      55.184 357.401  84.119  1.00  0.00     0.259 C 
BRANCH   5   6
HETATM    6  N1  UNL     1      53.849 358.019  83.961  1.00  0.00    -0.077 N 
HETATM    7  C1  UNL     1      53.897 359.285  84.671  1.00  0.00     0.267 C 
ATOM      8  H12 UNL     1      53.085 357.415  84.262  1.00  0.00     0.276 HD
ATOM      9  H11 UNL     1      53.560 358.113  82.987  1.00  0.00     0.276 HD
ENDBRANCH   5   6
ENDBRANCH   4   5
ENDBRANCH   1   4
BRANCH   1  10
HETATM   10  C4  UNL     1      57.761 358.035  86.677  1.00  0.00     0.186 C 
HETATM   11  C5  UNL     1      58.935 358.538  85.929  1.00  0.00     0.033 C 
HETATM   12  C6  UNL     1      59.126 360.001  86.361  1.00  0.00     0.002 C 
HETATM   13  C7  UNL     1      58.462 359.981  87.719  1.00  0.00     0.002 C 
HETATM   14  C8  UNL     1      57.160 359.240  87.374  1.00  0.00     0.033 C 
ENDBRANCH   1  10
TORSDOF 4
ENDMDL
MODEL 3
REMARK VINA RESULT: -5.346472855      1.627      4.784
REMARK  4 active torsions:
REMARK  status: ('A' for Active; 'I' for Inactive)
REMARK    1  A    between atoms: N1_2  and  C2_5 
REMARK    2  A    between atoms: C2_5  and  C3_6 
REMARK    3  A    between atoms: C3_6  and  N2_7 
REMARK    4  A    between atoms: N2_7  and  C4_10 
ROOT
HETATM    1  N2  UNL     1      57.507 358.349  85.069  1.00  0.00    -0.069 N 
ATOM      2  H21 UNL     1      57.917 357.662  84.436  1.00  0.00     0.277 HD
ATOM      3  H22 UNL     1      57.678 359.195  84.524  1.00  0.00     0.277 HD
ENDROOT
BRANCH   1   4
HETATM    4  C3  UNL     1      58.220 358.388  86.329  1.00  0.00     0.260 C 
BRANCH   4   5
HETATM    5  C2  UNL     1      58.883 359.752  86.417  1.00  0.00     0.259 C 
BRANCH   5   6
HETATM    6  N1  UNL     1      58.835 360.231  87.817  1.00  0.00    -0.077 N 
HETATM    7  C1  UNL     1      57.559 359.794  88.356  1.00  0.00     0.267 C 
ATOM      8  H12 UNL     1      58.990 361.235  87.906  1.00  0.00     0.276 HD
ATOM      9  H11 UNL     1      59.634 359.929  88.374  1.00  0.00     0.276 HD
ENDBRANCH   5   6
ENDBRANCH   4   5
ENDBRANCH   1   4
BRANCH   1  10
HETATM   10  C4  UNL     1      56.103 358.120  85.243  1.00  0.00     0.186 C 
HETATM   11  C5  UNL     1      55.238 359.312  85.391  1.00  0.00     0.033 C 
HETATM   12  C6  UNL     1      54.077 359.128  84.399  1.00  0.00     0.002 C 
HETATM   13  C7  UNL     1      54.067 357.622  84.258  1.00  0.00     0.002 C 
HETATM   14  C8  UNL     1      55.567 357.359  84.046  1.00  0.00     0.033 C 
ENDBRANCH   1  10
TORSDOF 4
ENDMDL
MODEL 4
REMARK VINA RESULT: -5.340362665      1.472      5.048
REMARK  4 active torsions:
REMARK  status: ('A' for Active; 'I' for Inactive)
REMARK    1  A    between atoms: N1_2  and  C2_5 
REMARK    2  A    between atoms: C2_5  and  C3_6 
REMARK    3  A    between atoms: C3_6  and  N2_7 
REMARK    4  A    between atoms: N2_7  and  C4_10 
ROOT
HETATM    1  N2  UNL     1      56.267 359.145  83.938  1.00  0.00    -0.069 N 
ATOM      2  H21 UNL     1      56.871 358.758  83.213  1.00  0.00     0.277 HD
ATOM      3  H22 UNL     1      55.802 359.871  83.394  1.00  0.00     0.277 HD
ENDROOT
BRANCH   1   4
HETATM    4  C3  UNL     1      57.047 359.718  85.016  1.00  0.00     0.260 C 
BRANCH   4   5
HETATM    5  C2  UNL     1      57.714 358.562  85.739  1.00  0.00     0.259 C 
BRANCH   5   6
HETATM    6  N1  UNL     1      59.184 358.710  85.650  1.00  0.00    -0.077 N 
HETATM    7  C1  UNL     1      59.498 360.019  86.195  1.00  0.00     0.267 C 
ATOM      8  H12 UNL     1      59.548 358.566  84.708  1.00  0.00     0.276 HD
ATOM      9  H11 UNL     1      59.694 357.951  86.101  1.00  0.00     0.276 HD
ENDBRANCH   5   6
ENDBRANCH   4   5
ENDBRANCH   1   4
BRANCH   1  10
HETATM   10  C4  UNL     1      55.328 358.166  84.404  1.00  0.00     0.186 C 
HETATM   11  C5  UNL     1      53.900 358.555  84.419  1.00  0.00     0.033 C 
HETATM   12  C6  UNL     1      53.138 357.419  83.716  1.00  0.00     0.002 C 
HETATM   13  C7  UNL     1      54.091 356.266  83.936  1.00  0.00     0.002 C 
HETATM   14  C8  UNL     1      55.418 356.930  83.532  1.00  0.00     0.033 C 
ENDBRANCH   1  10
TORSDOF 4
ENDMDL
MODEL 5
REMARK VINA RESULT: -5.322585020      1.441      4.653
REMARK  4 active torsions:
REMARK  status: ('A' for Active; 'I' for Inactive)
REMARK    1  A    between atoms: N1_2  and  C2_5 
REMARK    2  A    between atoms: C2_5  and  C3_6 
REMARK    3  A    between atoms: C3_6  and  N2_7 
REMARK    4  A    between atoms: N2_7  and  C4_10 
ROOT
HETATM    1  N2  UNL     1      56.929 357.283  85.106  1.00  0.00    -0.069 N 
ATOM      2  H21 UNL     1      56.837 356.269  85.162  1.00  0.00     0.277 HD
ATOM      3  H22 UNL     1      57.832 357.339  84.634  1.00  0.00     0.277 HD
ENDROOT
BRANCH   1   4
HETATM    4  C3  UNL     1      56.993 357.876  86.425  1.00  0.00     0.260 C 
BRANCH   4   5
HETATM    5  C2  UNL     1      58.455 358.180  86.701  1.00  0.00     0.259 C 
BRANCH   5   6
HETATM    6  N1  UNL     1      59.106 358.630  85.450  1.00  0.00    -0.077 N 
HETATM    7  C1  UNL     1      59.023 360.080  85.444  1.00  0.00     0.267 C 
ATOM      8  H12 UNL     1      58.714 358.200  84.613  1.00  0.00     0.276 HD
ATOM      9  H11 UNL     1      60.056 358.279  85.340  1.00  0.00     0.276 HD
ENDBRANCH   5   6
ENDBRANCH   4   5
ENDBRANCH   1   4
BRANCH   1  10
HETATM   10  C4  UNL     1      55.889 357.853  84.300  1.00  0.00     0.186 C 
HETATM   11  C5  UNL     1      54.918 356.918  83.690  1.00  0.00     0.033 C 
HETATM   12  C6  UNL     1      53.522 357.469  84.022  1.00  0.00     0.002 C 
HETATM   13  C7  UNL     1      53.842 358.932  84.230  1.00  0.00     0.002 C 
HETATM   14  C8  UNL     1      55.073 358.814  85.142  1.00  0.00     0.033 C 
ENDBRANCH   1  10
TORSDOF 4
ENDMDL
