MODEL 1
REMARK VINA RESULT: -5.648410890      0.000      0.000
REMARK  4 active torsions:
REMARK  status: ('A' for Active; 'I' for Inactive)
REMARK    1  A    between atoms: O1_2  and  C2_3 
REMARK    2  A    between atoms: C2_3  and  C3_4 
REMARK    3  A    between atoms: C3_4  and  N1_5 
REMARK    4  A    between atoms: N1_5  and  C4_7 
ROOT
HETATM    1  N1  UNL     1      57.600 359.461  86.036  1.00  0.00    -0.415 N 
ATOM      2  H1  UNL     1      58.371 360.078  85.782  1.00  0.00     0.153 HD
ENDROOT
BRANCH   1   3
HETATM    3  C3  UNL     1      57.486 358.933  87.346  1.00  0.00     0.140 C 
BRANCH   3   4
HETATM    4  C2  UNL     1      57.899 359.975  88.378  1.00  0.00     0.186 C 
BRANCH   4   5
HETATM    5  O1  UNL     1      57.019 360.034  89.449  1.00  0.00    -0.394 OA
HETATM    6  C1  UNL     1      56.326 361.212  89.535  1.00  0.00     0.201 C 
ENDBRANCH   4   5
ENDBRANCH   3   4
ENDBRANCH   1   3
BRANCH   1   7
HETATM    7  C4  UNL     1      56.608 359.102  85.094  1.00  0.00     0.076 C 
HETATM    8  C5  UNL     1      56.154 357.668  85.133  1.00  0.00     0.024 C 
HETATM    9  C6  UNL     1      54.872 357.770  84.292  1.00  0.00     0.002 C 
HETATM   10  C7  UNL     1      54.227 359.065  84.764  1.00  0.00     0.002 C 
HETATM   11  C8  UNL     1      55.311 359.822  85.454  1.00  0.00     0.024 C 
ENDBRANCH   1   7
TORSDOF 4
ENDMDL
MODEL 2
REMARK VINA RESULT: -5.639016245      1.936      2.465
REMARK  4 active torsions:
REMARK  status: ('A' for Active; 'I' for Inactive)
REMARK    1  A    between atoms: O1_2  and  C2_3 
REMARK    2  A    between atoms: C2_3  and  C3_4 
REMARK    3  A    between atoms: C3_4  and  N1_5 
REMARK    4  A    between atoms: N1_5  and  C4_7 
ROOT
HETATM    1  N1  UNL     1      57.459 357.913  85.144  1.00  0.00    -0.415 N 
ATOM      2  H1  UNL     1      57.889 357.396  84.378  1.00  0.00     0.153 HD
ENDROOT
BRANCH   1   3
HETATM    3  C3  UNL     1      58.248 358.519  86.153  1.00  0.00     0.140 C 
BRANCH   3   4
HETATM    4  C2  UNL     1      59.079 359.654  85.569  1.00  0.00     0.186 C 
BRANCH   4   5
HETATM    5  O1  UNL     1      59.709 360.405  86.551  1.00  0.00    -0.394 OA
HETATM    6  C1  UNL     1      59.097 360.346  87.775  1.00  0.00     0.201 C 
ENDBRANCH   4   5
ENDBRANCH   3   4
ENDBRANCH   1   3
BRANCH   1   7
HETATM    7  C4  UNL     1      56.054 358.051  85.237  1.00  0.00     0.076 C 
HETATM    8  C5  UNL     1      55.498 359.392  84.842  1.00  0.00     0.024 C 
HETATM    9  C6  UNL     1      54.011 359.034  84.701  1.00  0.00     0.002 C 
HETATM   10  C7  UNL     1      54.024 357.682  84.004  1.00  0.00     0.002 C 
HETATM   11  C8  UNL     1      55.406 357.152  84.187  1.00  0.00     0.024 C 
ENDBRANCH   1   7
TORSDOF 4
ENDMDL
MODEL 3
REMARK VINA RESULT: -5.622603824      2.683      4.808
REMARK  4 active torsions:
REMARK  status: ('A' for Active; 'I' for Inactive)
REMARK    1  A    between atoms: O1_2  and  C2_3 
REMARK    2  A    between atoms: C2_3  and  C3_4 
REMARK    3  A    between atoms: C3_4  and  N1_5 
REMARK    4  A    between atoms: N1_5  and  C4_7 
ROOT
HETATM    1  N1  UNL     1      56.494 359.439  84.335  1.00  0.00    -0.415 N 
ATOM      2  H1  UNL     1      56.625 359.865  83.418  1.00  0.00     0.153 HD
ENDROOT
BRANCH   1   3
HETATM    3  C3  UNL     1      55.631 358.329  84.513  1.00  0.00     0.140 C 
BRANCH   3   4
HETATM    4  C2  UNL     1      54.176 358.778  84.486  1.00  0.00     0.186 C 
BRANCH   4   5
HETATM    5  O1  UNL     1      53.373 357.915  83.753  1.00  0.00    -0.394 OA
HETATM    6  C1  UNL     1      53.846 356.631  83.692  1.00  0.00     0.201 C 
ENDBRANCH   4   5
ENDBRANCH   3   4
ENDBRANCH   1   3
BRANCH   1   7
HETATM    7  C4  UNL     1      57.169 359.935  85.476  1.00  0.00     0.076 C 
HETATM    8  C5  UNL     1      57.079 359.086  86.714  1.00  0.00     0.024 C 
HETATM    9  C6  UNL     1      58.199 359.717  87.554  1.00  0.00     0.002 C 
HETATM   10  C7  UNL     1      59.319 359.956  86.552  1.00  0.00     0.002 C 
HETATM   11  C8  UNL     1      58.672 359.894  85.210  1.00  0.00     0.024 C 
ENDBRANCH   1   7
TORSDOF 4
ENDMDL
MODEL 4
REMARK VINA RESULT: -5.522688437      2.427      2.979
REMARK  4 active torsions:
REMARK  status: ('A' for Active; 'I' for Inactive)
REMARK    1  A    between atoms: O1_2  and  C2_3 
REMARK    2  A    between atoms: C2_3  and  C3_4 
REMARK    3  A    between atoms: C3_4  and  N1_5 
REMARK    4  A    between atoms: N1_5  and  C4_7 
ROOT
HETATM    1  N1  UNL     1      57.522 358.002  85.232  1.00  0.00    -0.415 N 
ATOM      2  H1  UNL     1      57.994 357.701  84.380  1.00  0.00     0.153 HD
ENDROOT
BRANCH   1   3
HETATM    3  C3  UNL     1      58.255 358.347  86.394  1.00  0.00     0.140 C 
BRANCH   3   4
HETATM    4  C2  UNL     1      58.903 359.715  86.227  1.00  0.00     0.186 C 
BRANCH   4   5
HETATM    5  O1  UNL     1      59.410 359.906  84.950  1.00  0.00    -0.394 OA
HETATM    6  C1  UNL     1      58.798 360.914  84.253  1.00  0.00     0.201 C 
ENDBRANCH   4   5
ENDBRANCH   3   4
ENDBRANCH   1   3
BRANCH   1   7
HETATM    7  C4  UNL     1      56.111 358.088  85.296  1.00  0.00     0.076 C 
HETATM    8  C5  UNL     1      55.514 359.405  84.879  1.00  0.00     0.024 C 
HETATM    9  C6  UNL     1      54.044 358.992  84.710  1.00  0.00     0.002 C 
HETATM   10  C7  UNL     1      54.121 357.635  84.024  1.00  0.00     0.002 C 
HETATM   11  C8  UNL     1      55.518 357.159  84.239  1.00  0.00     0.024 C 
ENDBRANCH   1   7
TORSDOF 4
ENDMDL
MODEL 5
REMARK VINA RESULT: -5.513223060      1.102      1.701
REMARK  4 active torsions:
REMARK  status: ('A' for Active; 'I' for Inactive)
REMARK    1  A    between atoms: O1_2  and  C2_3 
REMARK    2  A    between atoms: C2_3  and  C3_4 
REMARK    3  A    between atoms: C3_4  and  N1_5 
REMARK    4  A    between atoms: N1_5  and  C4_7 
ROOT
HETATM    1  N1  UNL     1      57.466 358.220  85.442  1.00  0.00    -0.415 N 
ATOM      2  H1  UNL     1      58.004 358.143  84.579  1.00  0.00     0.153 HD
ENDROOT
BRANCH   1   3
HETATM    3  C3  UNL     1      58.109 358.290  86.703  1.00  0.00     0.140 C 
BRANCH   3   4
HETATM    4  C2  UNL     1      58.517 359.724  87.012  1.00  0.00     0.186 C 
BRANCH   4   5
HETATM    5  O1  UNL     1      58.395 360.027  88.361  1.00  0.00    -0.394 OA
HETATM    6  C1  UNL     1      57.105 360.010  88.821  1.00  0.00     0.201 C 
ENDBRANCH   4   5
ENDBRANCH   3   4
ENDBRANCH   1   3
BRANCH   1   7
HETATM    7  C4  UNL     1      56.052 358.259  85.422  1.00  0.00     0.076 C 
HETATM    8  C5  UNL     1      55.437 359.551  84.958  1.00  0.00     0.024 C 
HETATM    9  C6  UNL     1      53.994 359.088  84.708  1.00  0.00     0.002 C 
HETATM   10  C7  UNL     1      54.156 357.729  84.041  1.00  0.00     0.002 C 
HETATM   11  C8  UNL     1      55.553 357.302  84.343  1.00  0.00     0.024 C 
ENDBRANCH   1   7
TORSDOF 4
ENDMDL
