MODEL 1
REMARK VINA RESULT: -5.924226941      0.000      0.000
REMARK  4 active torsions:
REMARK  status: ('A' for Active; 'I' for Inactive)
REMARK    1  A    between atoms: C2_2  and  C3_3 
REMARK    2  A    between atoms: C3_3  and  O1_4 
REMARK    3  A    between atoms: O1_4  and  N1_5 
REMARK    4  A    between atoms: N1_5  and  C4_7 
ROOT
HETATM    1  C4  UNL     1      57.959 358.555  86.449  1.00  0.00     0.143 A 
HETATM    2  C5  UNL     1      59.001 358.705  85.560  1.00  0.00     0.139 A 
HETATM    3  N2  UNL     1      59.743 359.753  86.005  1.00  0.00    -0.358 N 
ATOM      4  H2  UNL     1      60.587 360.116  85.562  1.00  0.00     0.166 HD
HETATM    5  C6  UNL     1      59.174 360.233  87.133  1.00  0.00     0.184 A 
HETATM    6  N3  UNL     1      58.081 359.496  87.401  1.00  0.00    -0.331 N 
HETATM    7  C7  UNL     1      57.163 359.649  88.512  1.00  0.00     0.158 C 
ENDROOT
BRANCH   1   8
HETATM    8  N1  UNL     1      56.941 357.563  86.349  1.00  0.00    -0.249 N 
ATOM      9  H1  UNL     1      56.823 356.899  87.113  1.00  0.00     0.196 HD
BRANCH   8  10
HETATM   10  O1  UNL     1      56.128 357.473  85.280  1.00  0.00    -0.275 OA
BRANCH  10  11
HETATM   11  C3  UNL     1      55.455 358.688  85.140  1.00  0.00     0.228 C 
BRANCH  11  12
HETATM   12  C2  UNL     1      54.217 358.401  84.375  1.00  0.00    -0.009 C 
HETATM   13  C1  UNL     1      53.970 357.199  83.909  1.00  0.00     0.009 C 
ENDBRANCH  11  12
ENDBRANCH  10  11
ENDBRANCH   8  10
ENDBRANCH   1   8
TORSDOF 4
ENDMDL
MODEL 2
REMARK VINA RESULT: -5.919131837      1.182      1.189
REMARK  4 active torsions:
REMARK  status: ('A' for Active; 'I' for Inactive)
REMARK    1  A    between atoms: C2_2  and  C3_3 
REMARK    2  A    between atoms: C3_3  and  O1_4 
REMARK    3  A    between atoms: O1_4  and  N1_5 
REMARK    4  A    between atoms: N1_5  and  C4_7 
ROOT
HETATM    1  C4  UNL     1      57.502 359.512  86.097  1.00  0.00     0.143 A 
HETATM    2  C5  UNL     1      58.513 359.637  85.170  1.00  0.00     0.139 A 
HETATM    3  N2  UNL     1      59.625 360.013  85.855  1.00  0.00    -0.358 N 
ATOM      4  H2  UNL     1      60.544 360.187  85.450  1.00  0.00     0.166 HD
HETATM    5  C6  UNL     1      59.307 360.117  87.165  1.00  0.00     0.184 A 
HETATM    6  N3  UNL     1      58.005 359.809  87.308  1.00  0.00    -0.331 N 
HETATM    7  C7  UNL     1      57.232 359.786  88.535  1.00  0.00     0.158 C 
ENDROOT
BRANCH   1   8
HETATM    8  N1  UNL     1      56.162 359.132  85.795  1.00  0.00    -0.249 N 
ATOM      9  H1  UNL     1      55.834 358.211  86.082  1.00  0.00     0.196 HD
BRANCH   8  10
HETATM   10  O1  UNL     1      55.315 359.949  85.142  1.00  0.00    -0.275 OA
BRANCH  10  11
HETATM   11  C3  UNL     1      54.200 359.203  84.757  1.00  0.00     0.228 C 
BRANCH  11  12
HETATM   12  C2  UNL     1      54.692 357.846  84.419  1.00  0.00    -0.009 C 
HETATM   13  C1  UNL     1      53.924 356.980  83.799  1.00  0.00     0.009 C 
ENDBRANCH  11  12
ENDBRANCH  10  11
ENDBRANCH   8  10
ENDBRANCH   1   8
TORSDOF 4
ENDMDL
MODEL 3
REMARK VINA RESULT: -5.587925335      1.742      4.690
REMARK  4 active torsions:
REMARK  status: ('A' for Active; 'I' for Inactive)
REMARK    1  A    between atoms: C2_2  and  C3_3 
REMARK    2  A    between atoms: C3_3  and  O1_4 
REMARK    3  A    between atoms: O1_4  and  N1_5 
REMARK    4  A    between atoms: N1_5  and  C4_7 
ROOT
HETATM    1  C4  UNL     1      55.878 358.424  84.989  1.00  0.00     0.143 A 
HETATM    2  C5  UNL     1      55.539 359.664  85.484  1.00  0.00     0.139 A 
HETATM    3  N2  UNL     1      54.256 359.898  85.102  1.00  0.00    -0.358 N 
ATOM      4  H2  UNL     1      53.715 360.736  85.315  1.00  0.00     0.166 HD
HETATM    5  C6  UNL     1      53.819 358.834  84.393  1.00  0.00     0.184 A 
HETATM    6  N3  UNL     1      54.816 357.933  84.326  1.00  0.00    -0.331 N 
HETATM    7  C7  UNL     1      54.797 356.642  83.668  1.00  0.00     0.158 C 
ENDROOT
BRANCH   1   8
HETATM    8  N1  UNL     1      57.144 357.795  85.165  1.00  0.00    -0.249 N 
ATOM      9  H1  UNL     1      57.480 357.154  84.447  1.00  0.00     0.196 HD
BRANCH   8  10
HETATM   10  O1  UNL     1      57.913 358.019  86.246  1.00  0.00    -0.275 OA
BRANCH  10  11
HETATM   11  C3  UNL     1      58.979 358.834  85.864  1.00  0.00     0.228 C 
BRANCH  11  12
HETATM   12  C2  UNL     1      59.013 359.965  86.822  1.00  0.00    -0.009 C 
HETATM   13  C1  UNL     1      58.307 359.940  87.929  1.00  0.00     0.009 C 
ENDBRANCH  11  12
ENDBRANCH  10  11
ENDBRANCH   8  10
ENDBRANCH   1   8
TORSDOF 4
ENDMDL
MODEL 4
REMARK VINA RESULT: -5.564595598      1.707      2.366
REMARK  4 active torsions:
REMARK  status: ('A' for Active; 'I' for Inactive)
REMARK    1  A    between atoms: C2_2  and  C3_3 
REMARK    2  A    between atoms: C3_3  and  O1_4 
REMARK    3  A    between atoms: O1_4  and  N1_5 
REMARK    4  A    between atoms: N1_5  and  C4_7 
ROOT
HETATM    1  C4  UNL     1      56.950 359.352  85.508  1.00  0.00     0.143 A 
HETATM    2  C5  UNL     1      57.061 358.331  86.426  1.00  0.00     0.139 A 
HETATM    3  N2  UNL     1      58.389 358.161  86.660  1.00  0.00    -0.358 N 
ATOM      4  H2  UNL     1      58.799 357.478  87.296  1.00  0.00     0.166 HD
HETATM    5  C6  UNL     1      59.075 359.051  85.908  1.00  0.00     0.184 A 
HETATM    6  N3  UNL     1      58.188 359.779  85.204  1.00  0.00    -0.331 N 
HETATM    7  C7  UNL     1      58.470 360.849  84.267  1.00  0.00     0.158 C 
ENDROOT
BRANCH   1   8
HETATM    8  N1  UNL     1      55.720 359.849  84.988  1.00  0.00    -0.249 N 
ATOM      9  H1  UNL     1      55.295 360.667  85.424  1.00  0.00     0.196 HD
BRANCH   8  10
HETATM   10  O1  UNL     1      55.100 359.276  83.940  1.00  0.00    -0.275 OA
BRANCH  10  11
HETATM   11  C3  UNL     1      53.909 358.709  84.395  1.00  0.00     0.228 C 
BRANCH  11  12
HETATM   12  C2  UNL     1      53.933 357.284  83.985  1.00  0.00    -0.009 C 
HETATM   13  C1  UNL     1      55.039 356.719  83.559  1.00  0.00     0.009 C 
ENDBRANCH  11  12
ENDBRANCH  10  11
ENDBRANCH   8  10
ENDBRANCH   1   8
TORSDOF 4
ENDMDL
MODEL 5
REMARK VINA RESULT: -5.543834366      1.882      4.558
REMARK  4 active torsions:
REMARK  status: ('A' for Active; 'I' for Inactive)
REMARK    1  A    between atoms: C2_2  and  C3_3 
REMARK    2  A    between atoms: C3_3  and  O1_4 
REMARK    3  A    between atoms: O1_4  and  N1_5 
REMARK    4  A    between atoms: N1_5  and  C4_7 
ROOT
HETATM    1  C4  UNL     1      55.543 357.721  84.658  1.00  0.00     0.143 A 
HETATM    2  C5  UNL     1      54.751 356.854  83.938  1.00  0.00     0.139 A 
HETATM    3  N2  UNL     1      53.574 357.496  83.716  1.00  0.00    -0.358 N 
ATOM      4  H2  UNL     1      52.776 357.117  83.207  1.00  0.00     0.166 HD
HETATM    5  C6  UNL     1      53.640 358.721  84.283  1.00  0.00     0.184 A 
HETATM    6  N3  UNL     1      54.849 358.855  84.859  1.00  0.00    -0.331 N 
HETATM    7  C7  UNL     1      55.362 360.002  85.581  1.00  0.00     0.158 C 
ENDROOT
BRANCH   1   8
HETATM    8  N1  UNL     1      56.868 357.437  85.100  1.00  0.00    -0.249 N 
ATOM      9  H1  UNL     1      57.630 357.466  84.424  1.00  0.00     0.196 HD
BRANCH   8  10
HETATM   10  O1  UNL     1      57.147 357.131  86.381  1.00  0.00    -0.275 OA
BRANCH  10  11
HETATM   11  C3  UNL     1      57.846 358.199  86.943  1.00  0.00     0.228 C 
BRANCH  11  12
HETATM   12  C2  UNL     1      58.822 358.653  85.922  1.00  0.00    -0.009 C 
HETATM   13  C1  UNL     1      59.258 359.891  85.902  1.00  0.00     0.009 C 
ENDBRANCH  11  12
ENDBRANCH  10  11
ENDBRANCH   8  10
ENDBRANCH   1   8
TORSDOF 4
ENDMDL
