MODEL 1
REMARK VINA RESULT: -10.116748423      0.000      0.000
REMARK  3 active torsions:
REMARK  status: ('A' for Active; 'I' for Inactive)
REMARK    1  A    between atoms: N1_1  and  C1_4 
REMARK    2  A    between atoms: C6_9  and  C7_10 
REMARK    3  A    between atoms: C7_10  and  N2_11 
ROOT
HETATM    1  N2  UNL     1       6.580 -15.951 -15.028  1.00  0.00    -0.386 N 
HETATM    2  C8  UNL     1       6.006 -15.333 -13.894  1.00  0.00     0.149 C 
HETATM    3  C9  UNL     1       5.525 -13.942 -14.303  1.00  0.00     0.252 C 
HETATM    4  N3  UNL     1       5.302 -13.140 -13.104  1.00  0.00    -0.072 N 
ATOM      5  H31 UNL     1       5.821 -13.500 -12.304  1.00  0.00     0.277 HD
ATOM      6  H32 UNL     1       4.358 -13.258 -12.738  1.00  0.00     0.277 HD
HETATM    7  C10 UNL     1       5.613 -11.733 -13.369  1.00  0.00     0.251 C 
HETATM    8  C11 UNL     1       4.860 -10.884 -12.406  1.00  0.00     0.148 C 
HETATM    9  N4  UNL     1       3.987  -9.925 -13.025  1.00  0.00    -0.379 N 
ATOM     10  H4  UNL     1       2.987 -10.081 -12.902  1.00  0.00     0.160 HD
HETATM   11  C12 UNL     1       4.312  -8.914 -13.702  1.00  0.00     0.114 C 
HETATM   12  N5  UNL     1       3.392  -7.999 -14.290  1.00  0.00    -0.086 NA
HETATM   13  C13 UNL     1       5.746  -8.608 -13.934  1.00  0.00     0.304 C 
HETATM   14  N6  UNL     1       5.974  -8.735 -15.361  1.00  0.00    -0.069 N 
ATOM     15  H61 UNL     1       5.333  -8.140 -15.884  1.00  0.00     0.277 HD
ATOM     16  H62 UNL     1       5.669  -9.648 -15.696  1.00  0.00     0.277 HD
HETATM   17  C14 UNL     1       7.329  -8.480 -15.745  1.00  0.00     0.234 C 
HETATM   18  C15 UNL     1       8.254  -9.643 -15.441  1.00  0.00     0.055 C 
HETATM   19  C16 UNL     1       8.069 -10.771 -16.436  1.00  0.00     0.234 C 
HETATM   20  N7  UNL     1       9.371 -11.351 -16.677  1.00  0.00    -0.073 N 
ATOM     21  H71 UNL     1       9.798 -11.667 -15.806  1.00  0.00     0.277 HD
ATOM     22  H72 UNL     1      10.047 -10.636 -16.943  1.00  0.00     0.277 HD
HETATM   23  C17 UNL     1       9.334 -12.415 -17.650  1.00  0.00     0.259 C 
HETATM   24  C18 UNL     1       8.417 -13.541 -17.246  1.00  0.00     0.259 C 
HETATM   25  N8  UNL     1       8.954 -14.293 -16.114  1.00  0.00    -0.072 N 
ATOM     26  H81 UNL     1       8.638 -13.906 -15.224  1.00  0.00     0.277 HD
ATOM     27  H82 UNL     1       9.957 -14.140 -16.005  1.00  0.00     0.277 HD
HETATM   28  C19 UNL     1       8.639 -15.709 -16.224  1.00  0.00     0.252 C 
HETATM   29  C20 UNL     1       7.963 -16.237 -14.975  1.00  0.00     0.149 C 
ENDROOT
BRANCH   1  30
HETATM   30  C7  UNL     1       5.768 -16.802 -15.801  1.00  0.00     0.097 C 
BRANCH  30  31
HETATM   31  C6  UNL     1       5.847 -18.248 -15.510  1.00  0.00    -0.020 A 
HETATM   32  C5  UNL     1       6.849 -19.053 -15.994  1.00  0.00     0.026 A 
HETATM   33  C4  UNL     1       6.926 -20.403 -15.719  1.00  0.00    -0.009 A 
HETATM   34  C3  UNL     1       7.944 -21.186 -16.220  1.00  0.00     0.017 A 
HETATM   35  C23 UNL     1       5.978 -21.000 -14.932  1.00  0.00     0.044 A 
HETATM   36  C2  UNL     1       7.977 -22.535 -15.916  1.00  0.00     0.049 A 
HETATM   37  C1  UNL     1       7.008 -23.107 -15.119  1.00  0.00     0.099 A 
HETATM   38  N9  UNL     1       6.028 -22.325 -14.644  1.00  0.00    -0.342 N 
ATOM     39  H9  UNL     1       5.305 -22.735 -14.053  1.00  0.00     0.167 HD
HETATM   40  C22 UNL     1       4.950 -20.215 -14.425  1.00  0.00     0.031 A 
HETATM   41  C21 UNL     1       4.893 -18.850 -14.717  1.00  0.00     0.015 A 
BRANCH  37  42
HETATM   42  N1  UNL     1       7.052 -24.388 -14.840  1.00  0.00    -0.385 N 
ATOM     43  H12 UNL     1       6.908 -25.092 -15.563  1.00  0.00     0.157 HD
ATOM     44  H11 UNL     1       7.234 -24.700 -13.887  1.00  0.00     0.157 HD
ENDBRANCH  37  42
ENDBRANCH  30  31
ENDBRANCH   1  30
TORSDOF 3
ENDMDL
MODEL 2
REMARK VINA RESULT: -10.077182601      2.562      4.021
REMARK  3 active torsions:
REMARK  status: ('A' for Active; 'I' for Inactive)
REMARK    1  A    between atoms: N1_1  and  C1_4 
REMARK    2  A    between atoms: C6_9  and  C7_10 
REMARK    3  A    between atoms: C7_10  and  N2_11 
ROOT
HETATM    1  N2  UNL     1       5.682 -14.879 -14.051  1.00  0.00    -0.386 N 
HETATM    2  C8  UNL     1       4.326 -15.155 -13.759  1.00  0.00     0.149 C 
HETATM    3  C9  UNL     1       3.496 -13.939 -14.166  1.00  0.00     0.252 C 
HETATM    4  N3  UNL     1       2.186 -14.017 -13.528  1.00  0.00    -0.072 N 
ATOM      5  H31 UNL     1       2.199 -14.620 -12.705  1.00  0.00     0.277 HD
ATOM      6  H32 UNL     1       1.520 -14.546 -14.091  1.00  0.00     0.277 HD
HETATM    7  C10 UNL     1       1.692 -12.675 -13.214  1.00  0.00     0.251 C 
HETATM    8  C11 UNL     1       0.206 -12.716 -13.130  1.00  0.00     0.148 C 
HETATM    9  N4  UNL     1      -0.459 -11.824 -14.039  1.00  0.00    -0.379 N 
ATOM     10  H4  UNL     1      -0.988 -12.262 -14.793  1.00  0.00     0.160 HD
HETATM   11  C12 UNL     1      -0.467 -10.565 -14.013  1.00  0.00     0.114 C 
HETATM   12  N5  UNL     1      -1.151  -9.737 -14.949  1.00  0.00    -0.086 NA
HETATM   13  C13 UNL     1       0.276  -9.841 -12.951  1.00  0.00     0.304 C 
HETATM   14  N6  UNL     1       1.332  -9.097 -13.613  1.00  0.00    -0.069 N 
ATOM     15  H61 UNL     1       0.947  -8.491 -14.338  1.00  0.00     0.277 HD
ATOM     16  H62 UNL     1       1.900  -9.714 -14.193  1.00  0.00     0.277 HD
HETATM   17  C14 UNL     1       2.152  -8.350 -12.711  1.00  0.00     0.234 C 
HETATM   18  C15 UNL     1       3.155  -9.217 -11.974  1.00  0.00     0.055 C 
HETATM   19  C16 UNL     1       4.310  -9.610 -12.871  1.00  0.00     0.234 C 
HETATM   20  N7  UNL     1       5.505  -9.620 -12.058  1.00  0.00    -0.073 N 
ATOM     21  H71 UNL     1       5.400 -10.247 -11.261  1.00  0.00     0.277 HD
ATOM     22  H72 UNL     1       5.615  -8.737 -11.559  1.00  0.00     0.277 HD
HETATM   23  C17 UNL     1       6.691  -9.938 -12.814  1.00  0.00     0.259 C 
HETATM   24  C18 UNL     1       6.606 -11.283 -13.489  1.00  0.00     0.259 C 
HETATM   25  N8  UNL     1       6.660 -12.375 -12.521  1.00  0.00    -0.072 N 
ATOM     26  H81 UNL     1       5.727 -12.637 -12.200  1.00  0.00     0.277 HD
ATOM     27  H82 UNL     1       7.052 -12.068 -11.631  1.00  0.00     0.277 HD
HETATM   28  C19 UNL     1       7.381 -13.520 -13.056  1.00  0.00     0.252 C 
HETATM   29  C20 UNL     1       6.572 -14.797 -12.957  1.00  0.00     0.149 C 
ENDROOT
BRANCH   1  30
HETATM   30  C7  UNL     1       6.200 -15.329 -15.280  1.00  0.00     0.097 C 
BRANCH  30  31
HETATM   31  C6  UNL     1       6.683 -16.724 -15.331  1.00  0.00    -0.020 A 
HETATM   32  C5  UNL     1       5.873 -17.804 -15.076  1.00  0.00     0.026 A 
HETATM   33  C4  UNL     1       6.323 -19.107 -15.128  1.00  0.00    -0.009 A 
HETATM   34  C3  UNL     1       5.486 -20.172 -14.866  1.00  0.00     0.017 A 
HETATM   35  C23 UNL     1       7.628 -19.373 -15.445  1.00  0.00     0.044 A 
HETATM   36  C2  UNL     1       5.984 -21.461 -14.931  1.00  0.00     0.049 A 
HETATM   37  C1  UNL     1       7.304 -21.696 -15.254  1.00  0.00     0.099 A 
HETATM   38  N9  UNL     1       8.097 -20.645 -15.504  1.00  0.00    -0.342 N 
ATOM     39  H9  UNL     1       9.076 -20.805 -15.744  1.00  0.00     0.167 HD
HETATM   40  C22 UNL     1       8.474 -18.304 -15.709  1.00  0.00     0.031 A 
HETATM   41  C21 UNL     1       7.997 -16.992 -15.650  1.00  0.00     0.015 A 
BRANCH  37  42
HETATM   42  N1  UNL     1       7.762 -22.923 -15.311  1.00  0.00    -0.385 N 
ATOM     43  H12 UNL     1       8.488 -23.247 -14.672  1.00  0.00     0.157 HD
ATOM     44  H11 UNL     1       7.396 -23.578 -16.001  1.00  0.00     0.157 HD
ENDBRANCH  37  42
ENDBRANCH  30  31
ENDBRANCH   1  30
TORSDOF 3
ENDMDL
MODEL 3
REMARK VINA RESULT: -9.804692039      0.858      1.411
REMARK  3 active torsions:
REMARK  status: ('A' for Active; 'I' for Inactive)
REMARK    1  A    between atoms: N1_1  and  C1_4 
REMARK    2  A    between atoms: C6_9  and  C7_10 
REMARK    3  A    between atoms: C7_10  and  N2_11 
ROOT
HETATM    1  N2  UNL     1       7.280 -16.095 -15.105  1.00  0.00    -0.386 N 
HETATM    2  C8  UNL     1       6.858 -15.593 -13.853  1.00  0.00     0.149 C 
HETATM    3  C9  UNL     1       6.176 -14.246 -14.087  1.00  0.00     0.252 C 
HETATM    4  N3  UNL     1       6.091 -13.526 -12.820  1.00  0.00    -0.072 N 
ATOM      5  H31 UNL     1       6.777 -13.862 -12.145  1.00  0.00     0.277 HD
ATOM      6  H32 UNL     1       5.243 -13.763 -12.305  1.00  0.00     0.277 HD
HETATM    7  C10 UNL     1       6.208 -12.083 -13.047  1.00  0.00     0.251 C 
HETATM    8  C11 UNL     1       5.557 -11.364 -11.918  1.00  0.00     0.148 C 
HETATM    9  N4  UNL     1       4.496 -10.481 -12.317  1.00  0.00    -0.379 N 
ATOM     10  H4  UNL     1       3.555 -10.750 -12.033  1.00  0.00     0.160 HD
HETATM   11  C12 UNL     1       4.592  -9.412 -12.976  1.00  0.00     0.114 C 
HETATM   12  N5  UNL     1       3.496  -8.579 -13.339  1.00  0.00    -0.086 NA
HETATM   13  C13 UNL     1       5.924  -8.941 -13.433  1.00  0.00     0.304 C 
HETATM   14  N6  UNL     1       5.906  -8.981 -14.883  1.00  0.00    -0.069 N 
ATOM     15  H61 UNL     1       5.125  -8.437 -15.250  1.00  0.00     0.277 HD
ATOM     16  H62 UNL     1       5.639  -9.907 -15.216  1.00  0.00     0.277 HD
HETATM   17  C14 UNL     1       7.138  -8.563 -15.478  1.00  0.00     0.234 C 
HETATM   18  C15 UNL     1       8.215  -9.630 -15.411  1.00  0.00     0.055 C 
HETATM   19  C16 UNL     1       7.969 -10.727 -16.427  1.00  0.00     0.234 C 
HETATM   20  N7  UNL     1       9.258 -11.151 -16.924  1.00  0.00    -0.073 N 
ATOM     21  H71 UNL     1       9.863 -11.455 -16.161  1.00  0.00     0.277 HD
ATOM     22  H72 UNL     1       9.801 -10.355 -17.258  1.00  0.00     0.277 HD
HETATM   23  C17 UNL     1       9.155 -12.169 -17.940  1.00  0.00     0.259 C 
HETATM   24  C18 UNL     1       8.442 -13.405 -17.454  1.00  0.00     0.259 C 
HETATM   25  N8  UNL     1       9.244 -14.142 -16.481  1.00  0.00    -0.072 N 
ATOM     26  H81 UNL     1       9.055 -13.831 -15.527  1.00  0.00     0.277 HD
ATOM     27  H82 UNL     1      10.230 -13.885 -16.537  1.00  0.00     0.277 HD
HETATM   28  C19 UNL     1       9.058 -15.578 -16.621  1.00  0.00     0.252 C 
HETATM   29  C20 UNL     1       8.672 -16.230 -15.310  1.00  0.00     0.149 C 
ENDROOT
BRANCH   1  30
HETATM   30  C7  UNL     1       6.432 -16.996 -15.777  1.00  0.00     0.097 C 
BRANCH  30  31
HETATM   31  C6  UNL     1       6.773 -18.430 -15.686  1.00  0.00    -0.020 A 
HETATM   32  C5  UNL     1       5.970 -19.350 -15.057  1.00  0.00     0.026 A 
HETATM   33  C4  UNL     1       6.286 -20.690 -14.975  1.00  0.00    -0.009 A 
HETATM   34  C3  UNL     1       5.459 -21.590 -14.336  1.00  0.00     0.017 A 
HETATM   35  C23 UNL     1       7.444 -21.159 -15.534  1.00  0.00     0.044 A 
HETATM   36  C2  UNL     1       5.820 -22.924 -14.281  1.00  0.00     0.049 A 
HETATM   37  C1  UNL     1       6.993 -23.367 -14.854  1.00  0.00     0.099 A 
HETATM   38  N9  UNL     1       7.781 -22.472 -15.469  1.00  0.00    -0.342 N 
ATOM     39  H9  UNL     1       8.652 -22.786 -15.897  1.00  0.00     0.167 HD
HETATM   40  C22 UNL     1       8.281 -20.256 -16.178  1.00  0.00     0.031 A 
HETATM   41  C21 UNL     1       7.940 -18.903 -16.248  1.00  0.00     0.015 A 
BRANCH  37  42
HETATM   42  N1  UNL     1       7.323 -24.634 -14.793  1.00  0.00    -0.385 N 
ATOM     43  H12 UNL     1       8.277 -24.942 -14.977  1.00  0.00     0.157 HD
ATOM     44  H11 UNL     1       6.624 -25.337 -14.556  1.00  0.00     0.157 HD
ENDBRANCH  37  42
ENDBRANCH  30  31
ENDBRANCH   1  30
TORSDOF 3
ENDMDL
MODEL 4
REMARK VINA RESULT: -9.752678185      2.174      3.370
REMARK  3 active torsions:
REMARK  status: ('A' for Active; 'I' for Inactive)
REMARK    1  A    between atoms: N1_1  and  C1_4 
REMARK    2  A    between atoms: C6_9  and  C7_10 
REMARK    3  A    between atoms: C7_10  and  N2_11 
ROOT
HETATM    1  N2  UNL     1       7.714 -17.445 -15.527  1.00  0.00    -0.386 N 
HETATM    2  C8  UNL     1       6.885 -16.431 -14.993  1.00  0.00     0.149 C 
HETATM    3  C9  UNL     1       6.979 -15.211 -15.906  1.00  0.00     0.252 C 
HETATM    4  N3  UNL     1       6.474 -14.040 -15.195  1.00  0.00    -0.072 N 
ATOM      5  H31 UNL     1       6.500 -14.169 -14.184  1.00  0.00     0.277 HD
ATOM      6  H32 UNL     1       5.466 -13.933 -15.307  1.00  0.00     0.277 HD
HETATM    7  C10 UNL     1       7.201 -12.839 -15.612  1.00  0.00     0.251 C 
HETATM    8  C11 UNL     1       6.344 -11.648 -15.364  1.00  0.00     0.148 C 
HETATM    9  N4  UNL     1       6.078 -10.860 -16.537  1.00  0.00    -0.379 N 
ATOM     10  H4  UNL     1       5.115 -10.863 -16.872  1.00  0.00     0.160 HD
HETATM   11  C12 UNL     1       6.895 -10.168 -17.199  1.00  0.00     0.114 C 
HETATM   12  N5  UNL     1       6.565  -9.407 -18.357  1.00  0.00    -0.086 NA
HETATM   13  C13 UNL     1       8.320 -10.106 -16.786  1.00  0.00     0.304 C 
HETATM   14  N6  UNL     1       9.091 -10.718 -17.852  1.00  0.00    -0.069 N 
ATOM     15  H61 UNL     1       8.897 -10.264 -18.745  1.00  0.00     0.277 HD
ATOM     16  H62 UNL     1       8.742 -11.654 -18.058  1.00  0.00     0.277 HD
HETATM   17  C14 UNL     1      10.497 -10.745 -17.592  1.00  0.00     0.234 C 
HETATM   18  C15 UNL     1      10.892 -11.833 -16.611  1.00  0.00     0.055 C 
HETATM   19  C16 UNL     1      10.875 -13.200 -17.266  1.00  0.00     0.234 C 
HETATM   20  N7  UNL     1      11.971 -13.959 -16.708  1.00  0.00    -0.073 N 
ATOM     21  H71 UNL     1      11.899 -14.013 -15.692  1.00  0.00     0.277 HD
ATOM     22  H72 UNL     1      12.849 -13.445 -16.783  1.00  0.00     0.277 HD
HETATM   23  C17 UNL     1      12.090 -15.273 -17.288  1.00  0.00     0.259 C 
HETATM   24  C18 UNL     1      10.844 -16.102 -17.111  1.00  0.00     0.259 C 
HETATM   25  N8  UNL     1      10.651 -16.491 -15.716  1.00  0.00    -0.072 N 
ATOM     26  H81 UNL     1      10.093 -15.803 -15.209  1.00  0.00     0.277 HD
ATOM     27  H82 UNL     1      11.517 -16.416 -15.182  1.00  0.00     0.277 HD
HETATM   28  C19 UNL     1      10.075 -17.824 -15.614  1.00  0.00     0.252 C 
HETATM   29  C20 UNL     1       8.829 -17.839 -14.753  1.00  0.00     0.149 C 
ENDROOT
BRANCH   1  30
HETATM   30  C7  UNL     1       7.124 -18.413 -16.360  1.00  0.00     0.097 C 
BRANCH  30  31
HETATM   31  C6  UNL     1       6.689 -19.671 -15.719  1.00  0.00    -0.020 A 
HETATM   32  C5  UNL     1       5.571 -19.757 -14.926  1.00  0.00     0.026 A 
HETATM   33  C4  UNL     1       5.163 -20.933 -14.330  1.00  0.00    -0.009 A 
HETATM   34  C3  UNL     1       4.035 -20.989 -13.538  1.00  0.00     0.017 A 
HETATM   35  C23 UNL     1       5.881 -22.084 -14.517  1.00  0.00     0.044 A 
HETATM   36  C2  UNL     1       3.667 -22.192 -12.963  1.00  0.00     0.049 A 
HETATM   37  C1  UNL     1       4.410 -23.334 -13.170  1.00  0.00     0.099 A 
HETATM   38  N9  UNL     1       5.502 -23.255 -13.944  1.00  0.00    -0.342 N 
ATOM     39  H9  UNL     1       6.061 -24.093 -14.105  1.00  0.00     0.167 HD
HETATM   40  C22 UNL     1       7.017 -22.033 -15.313  1.00  0.00     0.031 A 
HETATM   41  C21 UNL     1       7.411 -20.831 -15.906  1.00  0.00     0.015 A 
BRANCH  37  42
HETATM   42  N1  UNL     1       4.049 -24.468 -12.618  1.00  0.00    -0.385 N 
ATOM     43  H12 UNL     1       3.098 -24.613 -12.281  1.00  0.00     0.157 HD
ATOM     44  H11 UNL     1       4.721 -25.228 -12.517  1.00  0.00     0.157 HD
ENDBRANCH  37  42
ENDBRANCH  30  31
ENDBRANCH   1  30
TORSDOF 3
ENDMDL
MODEL 5
REMARK VINA RESULT: -9.611643122      1.089      1.796
REMARK  3 active torsions:
REMARK  status: ('A' for Active; 'I' for Inactive)
REMARK    1  A    between atoms: N1_1  and  C1_4 
REMARK    2  A    between atoms: C6_9  and  C7_10 
REMARK    3  A    between atoms: C7_10  and  N2_11 
ROOT
HETATM    1  N2  UNL     1       7.245 -16.418 -15.214  1.00  0.00    -0.386 N 
HETATM    2  C8  UNL     1       6.694 -15.875 -14.031  1.00  0.00     0.149 C 
HETATM    3  C9  UNL     1       6.154 -14.483 -14.353  1.00  0.00     0.252 C 
HETATM    4  N3  UNL     1       5.951 -13.748 -13.109  1.00  0.00    -0.072 N 
ATOM      5  H31 UNL     1       6.510 -14.128 -12.346  1.00  0.00     0.277 HD
ATOM      6  H32 UNL     1       5.025 -13.916 -12.715  1.00  0.00     0.277 HD
HETATM    7  C10 UNL     1       6.206 -12.320 -13.314  1.00  0.00     0.251 C 
HETATM    8  C11 UNL     1       5.462 -11.545 -12.284  1.00  0.00     0.148 C 
HETATM    9  N4  UNL     1       4.536 -10.587 -12.823  1.00  0.00    -0.379 N 
ATOM     10  H4  UNL     1       3.547 -10.784 -12.672  1.00  0.00     0.160 HD
HETATM   11  C12 UNL     1       4.802  -9.534 -13.460  1.00  0.00     0.114 C 
HETATM   12  N5  UNL     1       3.833  -8.624 -13.969  1.00  0.00    -0.086 NA
HETATM   13  C13 UNL     1       6.216  -9.169 -13.728  1.00  0.00     0.304 C 
HETATM   14  N6  UNL     1       6.395  -9.219 -15.167  1.00  0.00    -0.069 N 
ATOM     15  H61 UNL     1       5.715  -8.621 -15.637  1.00  0.00     0.277 HD
ATOM     16  H62 UNL     1       6.107 -10.125 -15.536  1.00  0.00     0.277 HD
HETATM   17  C14 UNL     1       7.725  -8.900 -15.586  1.00  0.00     0.234 C 
HETATM   18  C15 UNL     1       8.698 -10.044 -15.374  1.00  0.00     0.055 C 
HETATM   19  C16 UNL     1       8.512 -11.127 -16.416  1.00  0.00     0.234 C 
HETATM   20  N7  UNL     1       9.822 -11.651 -16.733  1.00  0.00    -0.073 N 
ATOM     21  H71 UNL     1      10.291 -11.993 -15.895  1.00  0.00     0.277 HD
ATOM     22  H72 UNL     1      10.464 -10.901 -16.987  1.00  0.00     0.277 HD
HETATM   23  C17 UNL     1       9.783 -12.667 -17.755  1.00  0.00     0.259 C 
HETATM   24  C18 UNL     1       8.919 -13.842 -17.375  1.00  0.00     0.259 C 
HETATM   25  N8  UNL     1       9.522 -14.628 -16.302  1.00  0.00    -0.072 N 
ATOM     26  H81 UNL     1       9.227 -14.297 -15.383  1.00  0.00     0.277 HD
ATOM     27  H82 UNL     1      10.522 -14.447 -16.222  1.00  0.00     0.277 HD
HETATM   28  C19 UNL     1       9.248 -16.048 -16.470  1.00  0.00     0.252 C 
HETATM   29  C20 UNL     1       8.637 -16.658 -15.226  1.00  0.00     0.149 C 
ENDROOT
BRANCH   1  30
HETATM   30  C7  UNL     1       6.432 -17.258 -15.999  1.00  0.00     0.097 C 
BRANCH  30  31
HETATM   31  C6  UNL     1       6.240 -18.641 -15.518  1.00  0.00    -0.020 A 
HETATM   32  C5  UNL     1       5.156 -19.026 -14.767  1.00  0.00     0.026 A 
HETATM   33  C4  UNL     1       4.974 -20.319 -14.321  1.00  0.00    -0.009 A 
HETATM   34  C3  UNL     1       3.875 -20.676 -13.569  1.00  0.00     0.017 A 
HETATM   35  C23 UNL     1       5.894 -21.286 -14.622  1.00  0.00     0.044 A 
HETATM   36  C2  UNL     1       3.737 -21.986 -13.145  1.00  0.00     0.049 A 
HETATM   37  C1  UNL     1       4.681 -22.938 -13.464  1.00  0.00     0.099 A 
HETATM   38  N9  UNL     1       5.741 -22.566 -14.197  1.00  0.00    -0.342 N 
ATOM     39  H9  UNL     1       6.447 -23.261 -14.441  1.00  0.00     0.167 HD
HETATM   40  C22 UNL     1       7.003 -20.931 -15.379  1.00  0.00     0.031 A 
HETATM   41  C21 UNL     1       7.166 -19.616 -15.820  1.00  0.00     0.015 A 
BRANCH  37  42
HETATM   42  N1  UNL     1       4.537 -24.175 -13.055  1.00  0.00    -0.385 N 
ATOM     43  H12 UNL     1       5.320 -24.829 -13.063  1.00  0.00     0.157 HD
ATOM     44  H11 UNL     1       3.633 -24.505 -12.719  1.00  0.00     0.157 HD
ENDBRANCH  37  42
ENDBRANCH  30  31
ENDBRANCH   1  30
TORSDOF 3
ENDMDL
