MODEL 1
REMARK VINA RESULT: -8.442230884      0.000      0.000
REMARK  2 active torsions:
REMARK  status: ('A' for Active; 'I' for Inactive)
REMARK       I    between atoms: C2_2  and  N1_4 
REMARK    1  A    between atoms: N1_4  and  C3_6 
REMARK    2  A    between atoms: C15_29  and  C16_30 
ROOT
HETATM    1  C3  UNL     1       4.289 -15.150 -14.735  1.00  0.00     0.176 C 
HETATM    2  C4  UNL     1       5.010 -14.309 -13.727  1.00  0.00     0.036 C 
HETATM    3  C5  UNL     1       4.965 -12.852 -13.973  1.00  0.00     0.030 C 
HETATM    4  C6  UNL     1       6.359 -12.267 -14.140  1.00  0.00     0.232 C 
HETATM    5  N2  UNL     1       6.483 -11.760 -15.487  1.00  0.00    -0.075 N 
ATOM      6  H21 UNL     1       5.590 -11.808 -15.978  1.00  0.00     0.277 HD
ATOM      7  H22 UNL     1       7.028 -12.397 -16.067  1.00  0.00     0.277 HD
HETATM    8  C7  UNL     1       7.029 -10.422 -15.539  1.00  0.00     0.233 C 
HETATM    9  C8  UNL     1       8.177 -10.432 -16.527  1.00  0.00     0.055 C 
HETATM   10  C9  UNL     1       9.402  -9.911 -15.783  1.00  0.00     0.234 C 
HETATM   11  N3  UNL     1      10.563 -10.363 -16.524  1.00  0.00    -0.073 N 
ATOM     12  H31 UNL     1      11.341  -9.706 -16.472  1.00  0.00     0.277 HD
ATOM     13  H32 UNL     1      10.420 -10.331 -17.533  1.00  0.00     0.277 HD
HETATM   14  C10 UNL     1      10.922 -11.689 -16.054  1.00  0.00     0.259 C 
HETATM   15  C11 UNL     1      11.550 -12.482 -17.170  1.00  0.00     0.259 C 
HETATM   16  N4  UNL     1      10.856 -13.752 -17.350  1.00  0.00    -0.073 N 
ATOM     17  H41 UNL     1      10.759 -13.992 -18.336  1.00  0.00     0.277 HD
ATOM     18  H42 UNL     1       9.867 -13.679 -17.110  1.00  0.00     0.277 HD
HETATM   19  C12 UNL     1      11.514 -14.813 -16.600  1.00  0.00     0.233 C 
HETATM   20  C13 UNL     1      11.029 -16.124 -17.142  1.00  0.00     0.045 C 
HETATM   21  C14 UNL     1      10.072 -16.788 -16.190  1.00  0.00     0.132 C 
HETATM   22  N5  UNL     1       8.771 -16.133 -16.256  1.00  0.00    -0.146 NA
HETATM   23  N6  UNL     1       8.088 -16.479 -15.083  1.00  0.00    -0.122 NA
HETATM   24  C15 UNL     1       6.749 -16.931 -15.320  1.00  0.00     0.201 C 
HETATM   25  N7  UNL     1       6.047 -16.162 -16.320  1.00  0.00    -0.339 N 
ATOM     26  H7  UNL     1       6.315 -16.288 -17.295  1.00  0.00     0.164 HD
HETATM   27  C21 UNL     1       5.007 -15.243 -16.028  1.00  0.00     0.241 C 
HETATM   28  O3  UNL     1       4.668 -14.446 -16.934  1.00  0.00    -0.271 OA
ENDROOT
BRANCH  24  29
HETATM   29  C16 UNL     1       6.823 -18.369 -15.808  1.00  0.00     0.049 C 
HETATM   30  C17 UNL     1       5.522 -19.036 -15.349  1.00  0.00     0.012 C 
HETATM   31  C18 UNL     1       5.821 -20.518 -15.216  1.00  0.00     0.027 C 
HETATM   32  C19 UNL     1       6.935 -20.840 -16.193  1.00  0.00     0.167 C 
HETATM   33  O2  UNL     1       8.136 -20.317 -15.751  1.00  0.00    -0.391 OA
HETATM   34  C20 UNL     1       8.000 -19.073 -15.168  1.00  0.00     0.175 C 
ENDBRANCH  24  29
BRANCH   1  35
HETATM   35  N1  UNL     1       2.948 -14.744 -14.989  1.00  0.00    -0.348 N 
HETATM   36  C2  UNL     1       1.901 -15.541 -15.454  1.00  0.00     0.214 C 
HETATM   37  C1  UNL     1       0.524 -15.048 -15.697  1.00  0.00     0.117 C 
HETATM   38  O1  UNL     1       2.122 -16.756 -15.688  1.00  0.00    -0.274 OA
ATOM     39  H1  UNL     1       2.729 -13.764 -14.811  1.00  0.00     0.163 HD
ENDBRANCH   1  35
TORSDOF 2
ENDMDL
MODEL 2
REMARK VINA RESULT: -8.038805743      1.680      1.923
REMARK  2 active torsions:
REMARK  status: ('A' for Active; 'I' for Inactive)
REMARK       I    between atoms: C2_2  and  N1_4 
REMARK    1  A    between atoms: N1_4  and  C3_6 
REMARK    2  A    between atoms: C15_29  and  C16_30 
ROOT
HETATM    1  C3  UNL     1       3.424 -16.623 -14.926  1.00  0.00     0.176 C 
HETATM    2  C4  UNL     1       3.825 -15.430 -14.115  1.00  0.00     0.036 C 
HETATM    3  C5  UNL     1       3.452 -14.120 -14.692  1.00  0.00     0.030 C 
HETATM    4  C6  UNL     1       4.673 -13.248 -14.942  1.00  0.00     0.232 C 
HETATM    5  N2  UNL     1       4.793 -13.028 -16.365  1.00  0.00    -0.075 N 
ATOM      6  H21 UNL     1       3.986 -13.407 -16.861  1.00  0.00     0.277 HD
ATOM      7  H22 UNL     1       5.525 -13.614 -16.764  1.00  0.00     0.277 HD
HETATM    8  C7  UNL     1       5.001 -11.638 -16.706  1.00  0.00     0.233 C 
HETATM    9  C8  UNL     1       6.203 -11.566 -17.626  1.00  0.00     0.055 C 
HETATM   10  C9  UNL     1       7.193 -10.602 -16.981  1.00  0.00     0.234 C 
HETATM   11  N3  UNL     1       8.492 -10.891 -17.558  1.00  0.00    -0.073 N 
ATOM     12  H31 UNL     1       9.080 -10.061 -17.633  1.00  0.00     0.277 HD
ATOM     13  H32 UNL     1       8.437 -11.114 -18.552  1.00  0.00     0.277 HD
HETATM   14  C10 UNL     1       9.115 -11.948 -16.783  1.00  0.00     0.259 C 
HETATM   15  C11 UNL     1      10.015 -12.774 -17.665  1.00  0.00     0.259 C 
HETATM   16  N4  UNL     1       9.668 -14.187 -17.570  1.00  0.00    -0.073 N 
ATOM     17  H41 UNL     1       9.721 -14.650 -18.477  1.00  0.00     0.277 HD
ATOM     18  H42 UNL     1       8.673 -14.320 -17.387  1.00  0.00     0.277 HD
HETATM   19  C12 UNL     1      10.491 -14.858 -16.574  1.00  0.00     0.233 C 
HETATM   20  C13 UNL     1      10.388 -16.335 -16.815  1.00  0.00     0.045 C 
HETATM   21  C14 UNL     1       9.538 -17.001 -15.769  1.00  0.00     0.132 C 
HETATM   22  N5  UNL     1       8.128 -16.731 -16.027  1.00  0.00    -0.146 NA
HETATM   23  N6  UNL     1       7.446 -16.979 -14.830  1.00  0.00    -0.122 NA
HETATM   24  C15 UNL     1       6.283 -17.798 -15.001  1.00  0.00     0.201 C 
HETATM   25  N7  UNL     1       5.510 -17.468 -16.174  1.00  0.00    -0.339 N 
ATOM     26  H7  UNL     1       5.888 -17.727 -17.085  1.00  0.00     0.164 HD
HETATM   27  C21 UNL     1       4.257 -16.805 -16.137  1.00  0.00     0.241 C 
HETATM   28  O3  UNL     1       3.819 -16.334 -17.214  1.00  0.00    -0.271 OA
ENDROOT
BRANCH  24  29
HETATM   29  C16 UNL     1       6.745 -19.240 -15.142  1.00  0.00     0.049 C 
HETATM   30  C17 UNL     1       7.085 -19.430 -16.623  1.00  0.00     0.012 C 
HETATM   31  C18 UNL     1       6.906 -20.908 -16.921  1.00  0.00     0.027 C 
HETATM   32  C19 UNL     1       7.164 -21.659 -15.630  1.00  0.00     0.167 C 
HETATM   33  O2  UNL     1       6.123 -21.470 -14.740  1.00  0.00    -0.391 OA
HETATM   34  C20 UNL     1       5.624 -20.183 -14.760  1.00  0.00     0.175 C 
ENDBRANCH  24  29
BRANCH   1  35
HETATM   35  N1  UNL     1       2.053 -16.638 -15.311  1.00  0.00    -0.348 N 
HETATM   36  C2  UNL     1       1.099 -17.607 -14.993  1.00  0.00     0.214 C 
HETATM   37  C1  UNL     1      -0.316 -17.556 -15.432  1.00  0.00     0.117 C 
HETATM   38  O1  UNL     1       1.446 -18.591 -14.293  1.00  0.00    -0.274 OA
ATOM     39  H1  UNL     1       1.732 -15.855 -15.882  1.00  0.00     0.163 HD
ENDBRANCH   1  35
TORSDOF 2
ENDMDL
MODEL 3
REMARK VINA RESULT: -7.566709946      2.454      5.998
REMARK  2 active torsions:
REMARK  status: ('A' for Active; 'I' for Inactive)
REMARK       I    between atoms: C2_2  and  N1_4 
REMARK    1  A    between atoms: N1_4  and  C3_6 
REMARK    2  A    between atoms: C15_29  and  C16_30 
ROOT
HETATM    1  C3  UNL     1       8.919 -14.763 -17.216  1.00  0.00     0.176 C 
HETATM    2  C4  UNL     1       8.242 -13.833 -18.175  1.00  0.00     0.036 C 
HETATM    3  C5  UNL     1       8.732 -12.438 -18.153  1.00  0.00     0.030 C 
HETATM    4  C6  UNL     1       7.622 -11.458 -17.802  1.00  0.00     0.232 C 
HETATM    5  N2  UNL     1       7.947 -10.829 -16.543  1.00  0.00    -0.075 N 
ATOM      6  H21 UNL     1       8.882 -11.098 -16.233  1.00  0.00     0.277 HD
ATOM      7  H22 UNL     1       7.398 -11.230 -15.783  1.00  0.00     0.277 HD
HETATM    8  C7  UNL     1       7.808  -9.391 -16.577  1.00  0.00     0.233 C 
HETATM    9  C8  UNL     1       6.955  -8.984 -15.393  1.00  0.00     0.055 C 
HETATM   10  C9  UNL     1       5.779  -8.188 -15.952  1.00  0.00     0.234 C 
HETATM   11  N3  UNL     1       4.738  -8.219 -14.943  1.00  0.00    -0.073 N 
ATOM     12  H31 UNL     1       4.175  -7.368 -14.936  1.00  0.00     0.277 HD
ATOM     13  H32 UNL     1       5.110  -8.148 -13.996  1.00  0.00     0.277 HD
HETATM   14  C10 UNL     1       3.940  -9.415 -15.141  1.00  0.00     0.259 C 
HETATM   15  C11 UNL     1       3.392  -9.895 -13.822  1.00  0.00     0.259 C 
HETATM   16  N4  UNL     1       3.741 -11.294 -13.602  1.00  0.00    -0.073 N 
ATOM     17  H41 UNL     1       3.991 -11.471 -12.629  1.00  0.00     0.277 HD
ATOM     18  H42 UNL     1       4.632 -11.534 -14.037  1.00  0.00     0.277 HD
HETATM   19  C12 UNL     1       2.670 -12.172 -14.052  1.00  0.00     0.233 C 
HETATM   20  C13 UNL     1       2.894 -13.520 -13.432  1.00  0.00     0.045 C 
HETATM   21  C14 UNL     1       3.395 -14.510 -14.448  1.00  0.00     0.132 C 
HETATM   22  N5  UNL     1       4.805 -14.263 -14.730  1.00  0.00    -0.146 NA
HETATM   23  N6  UNL     1       5.085 -14.887 -15.952  1.00  0.00    -0.122 NA
HETATM   24  C15 UNL     1       6.270 -15.691 -15.918  1.00  0.00     0.201 C 
HETATM   25  N7  UNL     1       7.361 -15.084 -15.193  1.00  0.00    -0.339 N 
ATOM     26  H7  UNL     1       7.297 -15.045 -14.176  1.00  0.00     0.164 HD
HETATM   27  C21 UNL     1       8.515 -14.537 -15.809  1.00  0.00     0.241 C 
HETATM   28  O3  UNL     1       9.252 -13.803 -15.109  1.00  0.00    -0.271 OA
ENDROOT
BRANCH  24  29
HETATM   29  C16 UNL     1       5.925 -17.000 -15.225  1.00  0.00     0.049 C 
HETATM   30  C17 UNL     1       7.065 -17.967 -15.561  1.00  0.00     0.012 C 
HETATM   31  C18 UNL     1       6.482 -19.366 -15.480  1.00  0.00     0.027 C 
HETATM   32  C19 UNL     1       5.340 -19.318 -14.483  1.00  0.00     0.167 C 
HETATM   33  O2  UNL     1       4.258 -18.643 -15.015  1.00  0.00    -0.391 OA
HETATM   34  C20 UNL     1       4.624 -17.548 -15.772  1.00  0.00     0.175 C 
ENDBRANCH  24  29
BRANCH   1  35
HETATM   35  N1  UNL     1      10.341 -14.749 -17.289  1.00  0.00    -0.348 N 
HETATM   36  C2  UNL     1      11.218 -15.729 -16.819  1.00  0.00     0.214 C 
HETATM   37  C1  UNL     1      12.694 -15.646 -16.929  1.00  0.00     0.117 C 
HETATM   38  O1  UNL     1      10.742 -16.751 -16.264  1.00  0.00    -0.274 OA
ATOM     39  H1  UNL     1      10.766 -13.935 -17.732  1.00  0.00     0.163 HD
ENDBRANCH   1  35
TORSDOF 2
ENDMDL
MODEL 4
REMARK VINA RESULT: -7.135600670      2.498      5.708
REMARK  2 active torsions:
REMARK  status: ('A' for Active; 'I' for Inactive)
REMARK       I    between atoms: C2_2  and  N1_4 
REMARK    1  A    between atoms: N1_4  and  C3_6 
REMARK    2  A    between atoms: C15_29  and  C16_30 
ROOT
HETATM    1  C3  UNL     1       4.542 -12.266 -16.987  1.00  0.00     0.176 C 
HETATM    2  C4  UNL     1       5.622 -12.129 -15.958  1.00  0.00     0.036 C 
HETATM    3  C5  UNL     1       6.982 -11.909 -16.496  1.00  0.00     0.030 C 
HETATM    4  C6  UNL     1       7.941 -13.009 -16.065  1.00  0.00     0.232 C 
HETATM    5  N2  UNL     1       8.373 -13.726 -17.242  1.00  0.00    -0.075 N 
ATOM      6  H21 UNL     1       8.031 -13.273 -18.090  1.00  0.00     0.277 HD
ATOM      7  H22 UNL     1       7.889 -14.619 -17.323  1.00  0.00     0.277 HD
HETATM    8  C7  UNL     1       9.806 -13.910 -17.298  1.00  0.00     0.233 C 
HETATM    9  C8  UNL     1      10.072 -15.379 -17.552  1.00  0.00     0.055 C 
HETATM   10  C9  UNL     1      10.979 -15.864 -16.426  1.00  0.00     0.234 C 
HETATM   11  N3  UNL     1      10.842 -17.306 -16.373  1.00  0.00    -0.073 N 
ATOM     12  H31 UNL     1      11.703 -17.770 -16.081  1.00  0.00     0.277 HD
ATOM     13  H32 UNL     1      10.765 -17.726 -17.299  1.00  0.00     0.277 HD
HETATM   14  C10 UNL     1       9.715 -17.631 -15.518  1.00  0.00     0.259 C 
HETATM   15  C11 UNL     1       9.072 -18.915 -15.975  1.00  0.00     0.259 C 
HETATM   16  N4  UNL     1       7.646 -18.721 -16.203  1.00  0.00    -0.073 N 
ATOM     17  H41 UNL     1       7.324 -19.224 -17.029  1.00  0.00     0.277 HD
ATOM     18  H42 UNL     1       7.439 -17.771 -16.511  1.00  0.00     0.277 HD
HETATM   19  C12 UNL     1       6.878 -19.082 -15.019  1.00  0.00     0.233 C 
HETATM   20  C13 UNL     1       5.449 -19.262 -15.439  1.00  0.00     0.045 C 
HETATM   21  C14 UNL     1       4.596 -18.113 -14.976  1.00  0.00     0.132 C 
HETATM   22  N5  UNL     1       4.830 -16.947 -15.819  1.00  0.00    -0.146 NA
HETATM   23  N6  UNL     1       4.375 -15.834 -15.101  1.00  0.00    -0.122 NA
HETATM   24  C15 UNL     1       3.534 -14.969 -15.873  1.00  0.00     0.201 C 
HETATM   25  N7  UNL     1       3.994 -14.769 -17.226  1.00  0.00    -0.339 N 
ATOM     26  H7  UNL     1       3.890 -15.540 -17.886  1.00  0.00     0.164 HD
HETATM   27  C21 UNL     1       4.581 -13.567 -17.695  1.00  0.00     0.241 C 
HETATM   28  O3  UNL     1       5.183 -13.606 -18.794  1.00  0.00    -0.271 OA
ENDROOT
BRANCH  24  29
HETATM   29  C16 UNL     1       2.153 -15.602 -15.941  1.00  0.00     0.049 C 
HETATM   30  C17 UNL     1       1.973 -16.064 -17.391  1.00  0.00     0.012 C 
HETATM   31  C18 UNL     1       0.479 -16.076 -17.658  1.00  0.00     0.027 C 
HETATM   32  C19 UNL     1      -0.211 -16.327 -16.332  1.00  0.00     0.167 C 
HETATM   33  O2  UNL     1      -0.126 -15.212 -15.520  1.00  0.00    -0.391 OA
HETATM   34  C20 UNL     1       1.094 -14.572 -15.609  1.00  0.00     0.175 C 
ENDBRANCH  24  29
BRANCH   1  35
HETATM   35  N1  UNL     1       4.517 -11.222 -17.955  1.00  0.00    -0.348 N 
HETATM   36  C2  UNL     1       3.783 -10.035 -17.895  1.00  0.00     0.214 C 
HETATM   37  C1  UNL     1       3.805  -8.990 -18.945  1.00  0.00     0.117 C 
HETATM   38  O1  UNL     1       3.053  -9.826 -16.894  1.00  0.00    -0.274 OA
ATOM     39  H1  UNL     1       5.097 -11.356 -18.783  1.00  0.00     0.163 HD
ENDBRANCH   1  35
TORSDOF 2
ENDMDL
MODEL 5
REMARK VINA RESULT: -6.944483398      2.902      7.157
REMARK  2 active torsions:
REMARK  status: ('A' for Active; 'I' for Inactive)
REMARK       I    between atoms: C2_2  and  N1_4 
REMARK    1  A    between atoms: N1_4  and  C3_6 
REMARK    2  A    between atoms: C15_29  and  C16_30 
ROOT
HETATM    1  C3  UNL     1       8.129 -14.922 -15.176  1.00  0.00     0.176 C 
HETATM    2  C4  UNL     1       7.579 -14.559 -13.831  1.00  0.00     0.036 C 
HETATM    3  C5  UNL     1       6.167 -14.936 -13.604  1.00  0.00     0.030 C 
HETATM    4  C6  UNL     1       5.304 -13.721 -13.299  1.00  0.00     0.232 C 
HETATM    5  N2  UNL     1       4.338 -13.568 -14.362  1.00  0.00    -0.075 N 
ATOM      6  H21 UNL     1       4.381 -14.356 -15.009  1.00  0.00     0.277 HD
ATOM      7  H22 UNL     1       4.610 -12.817 -14.996  1.00  0.00     0.277 HD
HETATM    8  C7  UNL     1       2.990 -13.370 -13.878  1.00  0.00     0.233 C 
HETATM    9  C8  UNL     1       2.427 -12.146 -14.571  1.00  0.00     0.055 C 
HETATM   10  C9  UNL     1       1.979 -11.187 -13.474  1.00  0.00     0.234 C 
HETATM   11  N3  UNL     1       1.906  -9.870 -14.076  1.00  0.00    -0.073 N 
ATOM     12  H31 UNL     1       1.172  -9.292 -13.666  1.00  0.00     0.277 HD
ATOM     13  H32 UNL     1       1.546  -9.895 -15.030  1.00  0.00     0.277 HD
HETATM   14  C10 UNL     1       3.216  -9.251 -13.992  1.00  0.00     0.259 C 
HETATM   15  C11 UNL     1       3.424  -8.318 -15.156  1.00  0.00     0.259 C 
HETATM   16  N4  UNL     1       4.656  -8.647 -15.863  1.00  0.00    -0.073 N 
ATOM     17  H41 UNL     1       4.544  -8.565 -16.874  1.00  0.00     0.277 HD
ATOM     18  H42 UNL     1       4.865  -9.645 -15.813  1.00  0.00     0.277 HD
HETATM   19  C12 UNL     1       5.766  -7.840 -15.376  1.00  0.00     0.233 C 
HETATM   20  C13 UNL     1       6.867  -7.916 -16.392  1.00  0.00     0.045 C 
HETATM   21  C14 UNL     1       7.996  -8.784 -15.908  1.00  0.00     0.132 C 
HETATM   22  N5  UNL     1       7.625 -10.190 -16.017  1.00  0.00    -0.146 NA
HETATM   23  N6  UNL     1       8.489 -10.899 -15.174  1.00  0.00    -0.122 NA
HETATM   24  C15 UNL     1       9.076 -12.046 -15.801  1.00  0.00     0.201 C 
HETATM   25  N7  UNL     1       8.154 -12.793 -16.622  1.00  0.00    -0.339 N 
ATOM     26  H7  UNL     1       7.871 -12.388 -17.514  1.00  0.00     0.164 HD
HETATM   27  C21 UNL     1       7.618 -14.056 -16.263  1.00  0.00     0.241 C 
HETATM   28  O3  UNL     1       6.631 -14.473 -16.916  1.00  0.00    -0.271 OA
ENDROOT
BRANCH  24  29
HETATM   29  C16 UNL     1      10.205 -11.560 -16.697  1.00  0.00     0.049 C 
HETATM   30  C17 UNL     1       9.578 -11.329 -18.075  1.00  0.00     0.012 C 
HETATM   31  C18 UNL     1      10.695 -11.495 -19.090  1.00  0.00     0.027 C 
HETATM   32  C19 UNL     1      11.990 -11.120 -18.396  1.00  0.00     0.167 C 
HETATM   33  O2  UNL     1      12.353 -12.094 -17.485  1.00  0.00    -0.391 OA
HETATM   34  C20 UNL     1      11.276 -12.624 -16.804  1.00  0.00     0.175 C 
ENDBRANCH  24  29
BRANCH   1  35
HETATM   35  N1  UNL     1       7.926 -16.283 -15.546  1.00  0.00    -0.348 N 
HETATM   36  C2  UNL     1       8.857 -17.322 -15.477  1.00  0.00     0.214 C 
HETATM   37  C1  UNL     1       8.574 -18.720 -15.881  1.00  0.00     0.117 C 
HETATM   38  O1  UNL     1      10.011 -17.073 -15.047  1.00  0.00    -0.274 OA
ATOM     39  H1  UNL     1       7.001 -16.524 -15.899  1.00  0.00     0.163 HD
ENDBRANCH   1  35
TORSDOF 2
ENDMDL
