MODEL 1
REMARK VINA RESULT: -9.521711382      0.000      0.000
REMARK  2 active torsions:
REMARK  status: ('A' for Active; 'I' for Inactive)
REMARK    1  A    between atoms: C3_4  and  C4_5 
REMARK    2  A    between atoms: C4_5  and  N2_6 
REMARK       I    between atoms: N2_6  and  C5_8 
REMARK       I    between atoms: C5_8  and  N3_10 
ROOT
HETATM    1  N1  UNL     1       8.723 -22.442 -16.413  1.00  0.00    -0.191 NA
HETATM    2  C1  UNL     1       7.795 -22.019 -15.846  1.00  0.00     0.102 C 
HETATM    3  C2  UNL     1       6.638 -21.532 -15.137  1.00  0.00     0.088 A 
HETATM    4  C3  UNL     1       6.163 -20.233 -15.244  1.00  0.00     0.050 A 
HETATM    5  N7  UNL     1       5.017 -20.222 -14.495  1.00  0.00    -0.342 N 
ATOM      6  H7  UNL     1       4.413 -19.411 -14.365  1.00  0.00     0.167 HD
HETATM    7  C16 UNL     1       4.799 -21.451 -13.950  1.00  0.00     0.127 A 
HETATM    8  N8  UNL     1       3.855 -21.949 -13.132  1.00  0.00    -0.293 N 
ATOM      9  H8  UNL     1       3.100 -21.341 -12.815  1.00  0.00     0.172 HD
HETATM   10  C17 UNL     1       3.881 -23.233 -12.721  1.00  0.00     0.328 A 
HETATM   11  O3  UNL     1       2.976 -23.707 -11.943  1.00  0.00    -0.247 OA
HETATM   12  N9  UNL     1       4.870 -24.100 -13.116  1.00  0.00    -0.275 N 
ATOM     13  H9  UNL     1       4.887 -25.072 -12.810  1.00  0.00     0.173 HD
HETATM   14  C18 UNL     1       5.815 -23.596 -13.926  1.00  0.00     0.265 A 
HETATM   15  O4  UNL     1       6.734 -24.342 -14.314  1.00  0.00    -0.267 OA
HETATM   16  C19 UNL     1       5.812 -22.301 -14.352  1.00  0.00     0.099 A 
ENDROOT
BRANCH   4  17
HETATM   17  C4  UNL     1       6.829 -19.018 -15.779  1.00  0.00     0.183 C 
BRANCH  17  18
HETATM   18  N2  UNL     1       6.620 -17.848 -14.993  1.00  0.00    -0.337 N 
HETATM   19  C5  UNL     1       7.305 -16.639 -15.146  1.00  0.00     0.324 C 
HETATM   20  O1  UNL     1       8.283 -16.578 -15.946  1.00  0.00    -0.247 OA
HETATM   21  N3  UNL     1       6.936 -15.472 -14.438  1.00  0.00    -0.286 N 
HETATM   22  C6  UNL     1       5.611 -15.392 -13.820  1.00  0.00     0.179 C 
HETATM   23  C15 UNL     1       7.908 -14.424 -14.282  1.00  0.00     0.233 C 
HETATM   24  C7  UNL     1       4.812 -14.216 -14.374  1.00  0.00     0.075 C 
HETATM   25  N4  UNL     1       4.133 -13.398 -13.456  1.00  0.00    -0.401 N 
HETATM   26  C8  UNL     1       4.031 -12.009 -13.787  1.00  0.00     0.120 C 
ATOM     27  H4  UNL     1       3.733 -13.775 -12.596  1.00  0.00     0.158 HD
HETATM   28  C9  UNL     1       3.843 -11.671 -15.222  1.00  0.00     0.047 C 
HETATM   29  C10 UNL     1       4.883 -10.635 -15.620  1.00  0.00     0.234 C 
HETATM   30  N5  UNL     1       5.126 -10.617 -17.034  1.00  0.00    -0.074 N 
HETATM   31  C11 UNL     1       6.442  -9.991 -17.308  1.00  0.00     0.251 C 
ATOM     32  H52 UNL     1       5.048 -11.546 -17.449  1.00  0.00     0.277 HD
ATOM     33  H51 UNL     1       4.370 -10.163 -17.547  1.00  0.00     0.277 HD
HETATM   34  C12 UNL     1       7.514 -11.035 -17.438  1.00  0.00     0.141 C 
HETATM   35  N6  UNL     1       8.568 -10.824 -16.507  1.00  0.00    -0.418 N 
HETATM   36  C13 UNL     1       9.363 -12.017 -16.181  1.00  0.00     0.140 C 
ATOM     37  H6  UNL     1       8.759  -9.911 -16.095  1.00  0.00     0.153 HD
HETATM   38  C14 UNL     1       8.409 -13.149 -16.092  1.00  0.00     0.195 C 
HETATM   39  O2  UNL     1       8.770 -14.234 -15.346  1.00  0.00    -0.345 OA
ATOM     40  H2  UNL     1       5.914 -17.897 -14.258  1.00  0.00     0.164 HD
ENDBRANCH  17  18
ENDBRANCH   4  17
TORSDOF 2
ENDMDL
MODEL 2
REMARK VINA RESULT: -9.400801250      1.542      2.665
REMARK  2 active torsions:
REMARK  status: ('A' for Active; 'I' for Inactive)
REMARK    1  A    between atoms: C3_4  and  C4_5 
REMARK    2  A    between atoms: C4_5  and  N2_6 
REMARK       I    between atoms: N2_6  and  C5_8 
REMARK       I    between atoms: C5_8  and  N3_10 
ROOT
HETATM    1  N1  UNL     1       2.977 -19.422 -13.402  1.00  0.00    -0.191 NA
HETATM    2  C1  UNL     1       3.952 -19.681 -13.988  1.00  0.00     0.102 C 
HETATM    3  C2  UNL     1       5.161 -20.035 -14.691  1.00  0.00     0.088 A 
HETATM    4  C3  UNL     1       5.921 -19.127 -15.414  1.00  0.00     0.050 A 
HETATM    5  N7  UNL     1       7.009 -19.845 -15.833  1.00  0.00    -0.342 N 
ATOM      6  H7  UNL     1       7.774 -19.471 -16.392  1.00  0.00     0.167 HD
HETATM    7  C16 UNL     1       6.920 -21.132 -15.395  1.00  0.00     0.127 A 
HETATM    8  N8  UNL     1       7.694 -22.221 -15.553  1.00  0.00    -0.293 N 
ATOM      9  H8  UNL     1       8.553 -22.146 -16.097  1.00  0.00     0.172 HD
HETATM   10  C17 UNL     1       7.361 -23.409 -15.009  1.00  0.00     0.328 A 
HETATM   11  O3  UNL     1       8.103 -24.447 -15.160  1.00  0.00    -0.247 OA
HETATM   12  N9  UNL     1       6.218 -23.571 -14.266  1.00  0.00    -0.275 N 
ATOM     13  H9  UNL     1       5.969 -24.468 -13.850  1.00  0.00     0.173 HD
HETATM   14  C18 UNL     1       5.445 -22.483 -14.117  1.00  0.00     0.265 A 
HETATM   15  O4  UNL     1       4.398 -22.576 -13.450  1.00  0.00    -0.267 OA
HETATM   16  C19 UNL     1       5.759 -21.272 -14.661  1.00  0.00     0.099 A 
ENDROOT
BRANCH   4  17
HETATM   17  C4  UNL     1       5.569 -17.771 -15.905  1.00  0.00     0.183 C 
BRANCH  17  18
HETATM   18  N2  UNL     1       5.749 -16.739 -14.939  1.00  0.00    -0.337 N 
HETATM   19  C5  UNL     1       6.719 -15.734 -15.001  1.00  0.00     0.324 C 
HETATM   20  O1  UNL     1       7.607 -15.785 -15.899  1.00  0.00    -0.247 OA
HETATM   21  N3  UNL     1       6.738 -14.651 -14.092  1.00  0.00    -0.286 N 
HETATM   22  C6  UNL     1       5.538 -14.347 -13.307  1.00  0.00     0.179 C 
HETATM   23  C15 UNL     1       7.965 -13.925 -13.908  1.00  0.00     0.233 C 
HETATM   24  C7  UNL     1       5.043 -12.930 -13.583  1.00  0.00     0.075 C 
HETATM   25  N4  UNL     1       4.687 -12.138 -12.478  1.00  0.00    -0.401 N 
HETATM   26  C8  UNL     1       4.935 -10.733 -12.591  1.00  0.00     0.120 C 
ATOM     27  H4  UNL     1       4.273 -12.543 -11.639  1.00  0.00     0.158 HD
HETATM   28  C9  UNL     1       4.728 -10.116 -13.928  1.00  0.00     0.047 C 
HETATM   29  C10 UNL     1       5.972  -9.324 -14.298  1.00  0.00     0.234 C 
HETATM   30  N5  UNL     1       6.093  -9.125 -15.714  1.00  0.00    -0.074 N 
HETATM   31  C11 UNL     1       7.502  -8.815 -16.057  1.00  0.00     0.251 C 
ATOM     32  H52 UNL     1       5.734  -9.919 -16.246  1.00  0.00     0.277 HD
ATOM     33  H51 UNL     1       5.448  -8.414 -16.059  1.00  0.00     0.277 HD
HETATM   34  C12 UNL     1       8.239 -10.057 -16.470  1.00  0.00     0.141 C 
HETATM   35  N6  UNL     1       9.384 -10.282 -15.656  1.00  0.00    -0.418 N 
HETATM   36  C13 UNL     1       9.852 -11.674 -15.607  1.00  0.00     0.140 C 
ATOM     37  H6  UNL     1       9.846  -9.531 -15.144  1.00  0.00     0.153 HD
HETATM   38  C14 UNL     1       8.639 -12.527 -15.564  1.00  0.00     0.195 C 
HETATM   39  O2  UNL     1       8.755 -13.779 -15.034  1.00  0.00    -0.345 OA
ATOM     40  H2  UNL     1       5.119 -16.733 -14.137  1.00  0.00     0.164 HD
ENDBRANCH  17  18
ENDBRANCH   4  17
TORSDOF 2
ENDMDL
MODEL 3
REMARK VINA RESULT: -9.271103726      2.842      4.650
REMARK  2 active torsions:
REMARK  status: ('A' for Active; 'I' for Inactive)
REMARK    1  A    between atoms: C3_4  and  C4_5 
REMARK    2  A    between atoms: C4_5  and  N2_6 
REMARK       I    between atoms: N2_6  and  C5_8 
REMARK       I    between atoms: C5_8  and  N3_10 
ROOT
HETATM    1  N1  UNL     1       8.283 -16.128 -16.206  1.00  0.00    -0.191 NA
HETATM    2  C1  UNL     1       7.581 -16.992 -15.857  1.00  0.00     0.102 C 
HETATM    3  C2  UNL     1       6.735 -18.085 -15.445  1.00  0.00     0.088 A 
HETATM    4  C3  UNL     1       5.451 -17.917 -14.949  1.00  0.00     0.050 A 
HETATM    5  N7  UNL     1       4.979 -19.189 -14.773  1.00  0.00    -0.342 N 
ATOM      6  H7  UNL     1       4.052 -19.424 -14.420  1.00  0.00     0.167 HD
HETATM    7  C16 UNL     1       5.927 -20.097 -15.138  1.00  0.00     0.127 A 
HETATM    8  N8  UNL     1       5.976 -21.441 -15.131  1.00  0.00    -0.293 N 
ATOM      9  H8  UNL     1       5.165 -21.967 -14.806  1.00  0.00     0.172 HD
HETATM   10  C17 UNL     1       7.071 -22.111 -15.545  1.00  0.00     0.328 A 
HETATM   11  O3  UNL     1       7.114 -23.395 -15.540  1.00  0.00    -0.247 OA
HETATM   12  N9  UNL     1       8.192 -21.458 -15.995  1.00  0.00    -0.275 N 
ATOM     13  H9  UNL     1       9.018 -21.965 -16.313  1.00  0.00     0.173 HD
HETATM   14  C18 UNL     1       8.142 -20.116 -15.993  1.00  0.00     0.265 A 
HETATM   15  O4  UNL     1       9.132 -19.477 -16.394  1.00  0.00    -0.267 OA
HETATM   16  C19 UNL     1       7.047 -19.418 -15.576  1.00  0.00     0.099 A 
ENDROOT
BRANCH   4  17
HETATM   17  C4  UNL     1       4.785 -16.695 -14.431  1.00  0.00     0.183 C 
BRANCH  17  18
HETATM   18  N2  UNL     1       5.546 -15.502 -14.602  1.00  0.00    -0.337 N 
HETATM   19  C5  UNL     1       5.019 -14.246 -14.919  1.00  0.00     0.324 C 
HETATM   20  O1  UNL     1       3.794 -14.144 -15.213  1.00  0.00    -0.247 OA
HETATM   21  N3  UNL     1       5.814 -13.077 -14.916  1.00  0.00    -0.286 N 
HETATM   22  C6  UNL     1       7.104 -13.082 -14.222  1.00  0.00     0.179 C 
HETATM   23  C15 UNL     1       5.363 -11.934 -15.665  1.00  0.00     0.233 C 
HETATM   24  C7  UNL     1       7.145 -12.023 -13.124  1.00  0.00     0.075 C 
HETATM   25  N4  UNL     1       8.293 -11.216 -13.040  1.00  0.00    -0.401 N 
HETATM   26  C8  UNL     1       8.097  -9.867 -12.605  1.00  0.00     0.120 C 
ATOM     27  H4  UNL     1       9.218 -11.574 -13.277  1.00  0.00     0.158 HD
HETATM   28  C9  UNL     1       7.062  -9.638 -11.562  1.00  0.00     0.047 C 
HETATM   29  C10 UNL     1       6.127  -8.536 -12.035  1.00  0.00     0.234 C 
HETATM   30  N5  UNL     1       4.849  -8.584 -11.384  1.00  0.00    -0.074 N 
HETATM   31  C11 UNL     1       3.844  -7.857 -12.197  1.00  0.00     0.251 C 
ATOM     32  H52 UNL     1       4.558  -9.541 -11.179  1.00  0.00     0.277 HD
ATOM     33  H51 UNL     1       4.894  -8.236 -10.426  1.00  0.00     0.277 HD
HETATM   34  C12 UNL     1       3.091  -8.803 -13.089  1.00  0.00     0.141 C 
HETATM   35  N6  UNL     1       3.207  -8.436 -14.458  1.00  0.00    -0.418 N 
HETATM   36  C13 UNL     1       2.985  -9.526 -15.418  1.00  0.00     0.140 C 
ATOM     37  H6  UNL     1       3.428  -7.484 -14.753  1.00  0.00     0.153 HD
HETATM   38  C14 UNL     1       3.621 -10.735 -14.840  1.00  0.00     0.195 C 
HETATM   39  O2  UNL     1       3.995 -11.732 -15.694  1.00  0.00    -0.345 OA
ATOM     40  H2  UNL     1       6.557 -15.570 -14.483  1.00  0.00     0.164 HD
ENDBRANCH  17  18
ENDBRANCH   4  17
TORSDOF 2
ENDMDL
MODEL 4
REMARK VINA RESULT: -9.244765248      1.883      2.874
REMARK  2 active torsions:
REMARK  status: ('A' for Active; 'I' for Inactive)
REMARK    1  A    between atoms: C3_4  and  C4_5 
REMARK    2  A    between atoms: C4_5  and  N2_6 
REMARK       I    between atoms: N2_6  and  C5_8 
REMARK       I    between atoms: C5_8  and  N3_10 
ROOT
HETATM    1  N1  UNL     1       3.119 -19.584 -13.393  1.00  0.00    -0.191 NA
HETATM    2  C1  UNL     1       4.069 -19.866 -14.010  1.00  0.00     0.102 C 
HETATM    3  C2  UNL     1       5.246 -20.247 -14.750  1.00  0.00     0.088 A 
HETATM    4  C3  UNL     1       5.964 -19.372 -15.552  1.00  0.00     0.050 A 
HETATM    5  N7  UNL     1       7.037 -20.103 -15.985  1.00  0.00    -0.342 N 
ATOM      6  H7  UNL     1       7.773 -19.752 -16.598  1.00  0.00     0.167 HD
HETATM    7  C16 UNL     1       6.981 -21.366 -15.480  1.00  0.00     0.127 A 
HETATM    8  N8  UNL     1       7.756 -22.457 -15.619  1.00  0.00    -0.293 N 
ATOM      9  H8  UNL     1       8.588 -22.404 -16.206  1.00  0.00     0.172 HD
HETATM   10  C17 UNL     1       7.459 -23.618 -15.001  1.00  0.00     0.328 A 
HETATM   11  O3  UNL     1       8.203 -24.658 -15.134  1.00  0.00    -0.247 OA
HETATM   12  N9  UNL     1       6.353 -23.750 -14.198  1.00  0.00    -0.275 N 
ATOM     13  H9  UNL     1       6.133 -24.627 -13.727  1.00  0.00     0.173 HD
HETATM   14  C18 UNL     1       5.579 -22.661 -14.068  1.00  0.00     0.265 A 
HETATM   15  O4  UNL     1       4.565 -22.727 -13.349  1.00  0.00    -0.267 OA
HETATM   16  C19 UNL     1       5.856 -21.477 -14.685  1.00  0.00     0.099 A 
ENDROOT
BRANCH   4  17
HETATM   17  C4  UNL     1       5.578 -18.044 -16.094  1.00  0.00     0.183 C 
BRANCH  17  18
HETATM   18  N2  UNL     1       5.173 -17.107 -15.100  1.00  0.00    -0.337 N 
HETATM   19  C5  UNL     1       5.964 -16.071 -14.595  1.00  0.00     0.324 C 
HETATM   20  O1  UNL     1       7.183 -16.006 -14.925  1.00  0.00    -0.247 OA
HETATM   21  N3  UNL     1       5.445 -15.083 -13.728  1.00  0.00    -0.286 N 
HETATM   22  C6  UNL     1       3.995 -14.895 -13.634  1.00  0.00     0.179 C 
HETATM   23  C15 UNL     1       6.358 -14.341 -12.901  1.00  0.00     0.233 C 
HETATM   24  C7  UNL     1       3.596 -13.474 -14.023  1.00  0.00     0.075 C 
HETATM   25  N4  UNL     1       2.678 -12.806 -13.195  1.00  0.00    -0.401 N 
HETATM   26  C8  UNL     1       2.841 -11.390 -13.070  1.00  0.00     0.120 C 
ATOM     27  H4  UNL     1       1.933 -13.305 -12.708  1.00  0.00     0.158 HD
HETATM   28  C9  UNL     1       3.281 -10.651 -14.283  1.00  0.00     0.047 C 
HETATM   29  C10 UNL     1       4.479  -9.788 -13.921  1.00  0.00     0.234 C 
HETATM   30  N5  UNL     1       5.274  -9.447 -15.066  1.00  0.00    -0.074 N 
HETATM   31  C11 UNL     1       6.639  -9.060 -14.631  1.00  0.00     0.251 C 
ATOM     32  H52 UNL     1       5.290 -10.195 -15.760  1.00  0.00     0.277 HD
ATOM     33  H51 UNL     1       4.834  -8.726 -15.638  1.00  0.00     0.277 HD
HETATM   34  C12 UNL     1       7.575 -10.232 -14.702  1.00  0.00     0.141 C 
HETATM   35  N6  UNL     1       8.176 -10.501 -13.440  1.00  0.00    -0.418 N 
HETATM   36  C13 UNL     1       8.662 -11.875 -13.259  1.00  0.00     0.140 C 
ATOM     37  H6  UNL     1       8.263  -9.789 -12.714  1.00  0.00     0.153 HD
HETATM   38  C14 UNL     1       7.659 -12.766 -13.891  1.00  0.00     0.195 C 
HETATM   39  O2  UNL     1       7.590 -14.060 -13.463  1.00  0.00    -0.345 OA
ATOM     40  H2  UNL     1       4.228 -17.200 -14.725  1.00  0.00     0.164 HD
ENDBRANCH  17  18
ENDBRANCH   4  17
TORSDOF 2
ENDMDL
MODEL 5
REMARK VINA RESULT: -9.179650424      1.460      1.506
REMARK  2 active torsions:
REMARK  status: ('A' for Active; 'I' for Inactive)
REMARK    1  A    between atoms: C3_4  and  C4_5 
REMARK    2  A    between atoms: C4_5  and  N2_6 
REMARK       I    between atoms: N2_6  and  C5_8 
REMARK       I    between atoms: C5_8  and  N3_10 
ROOT
HETATM    1  N1  UNL     1       8.457 -21.035 -16.500  1.00  0.00    -0.191 NA
HETATM    2  C1  UNL     1       7.485 -20.820 -15.892  1.00  0.00     0.102 C 
HETATM    3  C2  UNL     1       6.279 -20.592 -15.134  1.00  0.00     0.088 A 
HETATM    4  C3  UNL     1       5.578 -19.396 -15.150  1.00  0.00     0.050 A 
HETATM    5  N7  UNL     1       4.470 -19.635 -14.383  1.00  0.00    -0.342 N 
ATOM      6  H7  UNL     1       3.735 -18.954 -14.191  1.00  0.00     0.167 HD
HETATM    7  C16 UNL     1       4.490 -20.913 -13.914  1.00  0.00     0.127 A 
HETATM    8  N8  UNL     1       3.672 -21.621 -13.114  1.00  0.00    -0.293 N 
ATOM      9  H8  UNL     1       2.831 -21.178 -12.746  1.00  0.00     0.172 HD
HETATM   10  C17 UNL     1       3.938 -22.902 -12.786  1.00  0.00     0.328 A 
HETATM   11  O3  UNL     1       3.154 -23.576 -12.024  1.00  0.00    -0.247 OA
HETATM   12  N9  UNL     1       5.055 -23.552 -13.251  1.00  0.00    -0.275 N 
ATOM     13  H9  UNL     1       5.253 -24.522 -13.008  1.00  0.00     0.173 HD
HETATM   14  C18 UNL     1       5.872 -22.839 -14.044  1.00  0.00     0.265 A 
HETATM   15  O4  UNL     1       6.897 -23.383 -14.494  1.00  0.00    -0.267 OA
HETATM   16  C19 UNL     1       5.626 -21.542 -14.385  1.00  0.00     0.099 A 
ENDROOT
BRANCH   4  17
HETATM   17  C4  UNL     1       6.002 -18.051 -15.617  1.00  0.00     0.183 C 
BRANCH  17  18
HETATM   18  N2  UNL     1       5.538 -16.979 -14.801  1.00  0.00    -0.337 N 
HETATM   19  C5  UNL     1       6.297 -15.872 -14.412  1.00  0.00     0.324 C 
HETATM   20  O1  UNL     1       7.533 -15.846 -14.676  1.00  0.00    -0.247 OA
HETATM   21  N3  UNL     1       5.726 -14.770 -13.735  1.00  0.00    -0.286 N 
HETATM   22  C6  UNL     1       4.273 -14.584 -13.757  1.00  0.00     0.179 C 
HETATM   23  C15 UNL     1       6.589 -13.904 -12.978  1.00  0.00     0.233 C 
HETATM   24  C7  UNL     1       3.897 -13.242 -14.377  1.00  0.00     0.075 C 
HETATM   25  N4  UNL     1       2.931 -12.465 -13.714  1.00  0.00    -0.401 N 
HETATM   26  C8  UNL     1       3.086 -11.045 -13.794  1.00  0.00     0.120 C 
ATOM     27  H4  UNL     1       2.159 -12.893 -13.203  1.00  0.00     0.158 HD
HETATM   28  C9  UNL     1       3.596 -10.493 -15.076  1.00  0.00     0.047 C 
HETATM   29  C10 UNL     1       4.770  -9.573 -14.779  1.00  0.00     0.234 C 
HETATM   30  N5  UNL     1       5.632  -9.400 -15.914  1.00  0.00    -0.074 N 
HETATM   31  C11 UNL     1       6.968  -8.940 -15.462  1.00  0.00     0.251 C 
ATOM     32  H52 UNL     1       5.689 -10.244 -16.484  1.00  0.00     0.277 HD
ATOM     33  H51 UNL     1       5.226  -8.777 -16.612  1.00  0.00     0.277 HD
HETATM   34  C12 UNL     1       7.908 -10.100 -15.301  1.00  0.00     0.141 C 
HETATM   35  N6  UNL     1       8.432 -10.170 -13.981  1.00  0.00    -0.418 N 
HETATM   36  C13 UNL     1       8.908 -11.497 -13.566  1.00  0.00     0.140 C 
ATOM     37  H6  UNL     1       8.476  -9.358 -13.366  1.00  0.00     0.153 HD
HETATM   38  C14 UNL     1       7.945 -12.483 -14.116  1.00  0.00     0.195 C 
HETATM   39  O2  UNL     1       7.852 -13.699 -13.502  1.00  0.00    -0.345 OA
ATOM     40  H2  UNL     1       4.573 -17.024 -14.473  1.00  0.00     0.164 HD
ENDBRANCH  17  18
ENDBRANCH   4  17
TORSDOF 2
ENDMDL
