MODEL 1
REMARK VINA RESULT: -9.376265866      0.000      0.000
REMARK  4 active torsions:
REMARK  status: ('A' for Active; 'I' for Inactive)
REMARK    1  A    between atoms: N3_13  and  C7_14 
REMARK    2  A    between atoms: C7_14  and  C8_15 
REMARK    3  A    between atoms: C9_16  and  C10_17 
REMARK    4  A    between atoms: C14_21  and  N4_22 
ROOT
HETATM    1  N1  UNL     1       7.828  -9.325 -11.010  1.00  0.00    -0.389 N 
ATOM      2  H11 UNL     1       7.910  -8.378 -10.641  1.00  0.00     0.157 HD
ATOM      3  H12 UNL     1       8.506 -10.084 -10.943  1.00  0.00     0.157 HD
HETATM    4  C1  UNL     1       6.713  -9.576 -11.658  1.00  0.00     0.070 C 
HETATM    5  C2  UNL     1       6.594 -10.948 -12.193  1.00  0.00     0.077 C 
HETATM    6  C3  UNL     1       7.834 -11.436 -12.910  1.00  0.00     0.035 C 
HETATM    7  C4  UNL     1       8.053 -12.901 -12.712  1.00  0.00     0.233 C 
HETATM    8  N2  UNL     1       8.032 -13.668 -13.942  1.00  0.00    -0.071 N 
ATOM      9  H21 UNL     1       8.356 -14.623 -13.787  1.00  0.00     0.277 HD
ATOM     10  H22 UNL     1       8.758 -13.353 -14.586  1.00  0.00     0.277 HD
HETATM   11  C5  UNL     1       6.729 -13.653 -14.575  1.00  0.00     0.277 C 
HETATM   12  C6  UNL     1       6.482 -14.876 -15.419  1.00  0.00     0.096 C 
HETATM   13  N3  UNL     1       5.177 -14.852 -15.936  1.00  0.00    -0.340 N 
HETATM   14  C17 UNL     1       4.779 -13.807 -16.788  1.00  0.00     0.096 C 
HETATM   15  C18 UNL     1       3.398 -13.263 -16.416  1.00  0.00     0.277 C 
HETATM   16  N8  UNL     1       3.254 -11.877 -16.781  1.00  0.00    -0.069 N 
ATOM     17  H81 UNL     1       2.288 -11.565 -16.678  1.00  0.00     0.277 HD
ATOM     18  H82 UNL     1       3.360 -11.745 -17.787  1.00  0.00     0.277 HD
HETATM   19  C19 UNL     1       4.152 -11.039 -16.049  1.00  0.00     0.260 C 
HETATM   20  C20 UNL     1       3.645  -9.663 -15.783  1.00  0.00     0.259 C 
HETATM   21  N9  UNL     1       3.806  -9.316 -14.375  1.00  0.00    -0.072 N 
ATOM     22  H91 UNL     1       3.632 -10.113 -13.763  1.00  0.00     0.277 HD
ATOM     23  H92 UNL     1       3.057  -8.707 -14.043  1.00  0.00     0.277 HD
HETATM   24  C21 UNL     1       5.137  -8.726 -14.149  1.00  0.00     0.251 C 
HETATM   25  C22 UNL     1       5.175  -7.936 -12.899  1.00  0.00     0.148 C 
HETATM   26  N10 UNL     1       5.779  -8.532 -11.750  1.00  0.00    -0.379 N 
ATOM     27  H10 UNL     1       5.486  -8.137 -10.857  1.00  0.00     0.160 HD
ENDROOT
BRANCH  13  28
HETATM   28  C7  UNL     1       4.218 -15.763 -15.460  1.00  0.00     0.160 C 
BRANCH  28  29
HETATM   29  C8  UNL     1       4.753 -17.132 -15.332  1.00  0.00    -0.054 C 
HETATM   30  C9  UNL     1       5.186 -18.258 -15.235  1.00  0.00    -0.043 C 
BRANCH  30  31
HETATM   31  C10 UNL     1       5.687 -19.610 -15.103  1.00  0.00     0.088 A 
HETATM   32  C11 UNL     1       6.878 -20.013 -15.673  1.00  0.00     0.040 A 
HETATM   33  C12 UNL     1       7.357 -21.298 -15.547  1.00  0.00     0.022 A 
HETATM   34  C13 UNL     1       6.645 -22.236 -14.831  1.00  0.00     0.052 A 
HETATM   35  C14 UNL     1       7.078 -23.535 -14.672  1.00  0.00     0.113 A 
HETATM   36  C16 UNL     1       5.440 -21.816 -14.258  1.00  0.00     0.121 A 
HETATM   37  N5  UNL     1       6.309 -24.403 -13.945  1.00  0.00    -0.338 N 
HETATM   38  C15 UNL     1       5.154 -23.993 -13.397  1.00  0.00     0.183 A 
ATOM     39  H5  UNL     1       6.617 -25.367 -13.817  1.00  0.00     0.168 HD
HETATM   40  N6  UNL     1       4.749 -22.735 -13.560  1.00  0.00    -0.338 N 
ATOM     41  H6  UNL     1       3.868 -22.453 -13.131  1.00  0.00     0.168 HD
HETATM   42  N7  UNL     1       5.018 -20.549 -14.412  1.00  0.00    -0.335 N 
ATOM     43  H7  UNL     1       4.133 -20.284 -13.978  1.00  0.00     0.168 HD
BRANCH  35  44
HETATM   44  N4  UNL     1       8.175 -23.950 -15.184  1.00  0.00    -0.385 N 
ATOM     45  H42 UNL     1       8.950 -24.197 -14.569  1.00  0.00     0.157 HD
ATOM     46  H41 UNL     1       8.298 -24.042 -16.192  1.00  0.00     0.157 HD
ENDBRANCH  35  44
ENDBRANCH  30  31
ENDBRANCH  28  29
ENDBRANCH  13  28
TORSDOF 4
ENDMDL
MODEL 2
REMARK VINA RESULT: -9.070806233      1.331      1.400
REMARK  4 active torsions:
REMARK  status: ('A' for Active; 'I' for Inactive)
REMARK    1  A    between atoms: N3_13  and  C7_14 
REMARK    2  A    between atoms: C7_14  and  C8_15 
REMARK    3  A    between atoms: C9_16  and  C10_17 
REMARK    4  A    between atoms: C14_21  and  N4_22 
ROOT
HETATM    1  N1  UNL     1       8.171  -9.343 -11.924  1.00  0.00    -0.389 N 
ATOM      2  H11 UNL     1       8.370  -8.425 -11.527  1.00  0.00     0.157 HD
ATOM      3  H12 UNL     1       8.831 -10.008 -12.327  1.00  0.00     0.157 HD
HETATM    4  C1  UNL     1       6.904  -9.689 -11.918  1.00  0.00     0.070 C 
HETATM    5  C2  UNL     1       6.614 -11.019 -12.493  1.00  0.00     0.077 C 
HETATM    6  C3  UNL     1       7.307 -11.281 -13.812  1.00  0.00     0.035 C 
HETATM    7  C4  UNL     1       7.701 -12.715 -13.960  1.00  0.00     0.233 C 
HETATM    8  N2  UNL     1       7.078 -13.380 -15.088  1.00  0.00    -0.071 N 
ATOM      9  H21 UNL     1       7.501 -14.293 -15.258  1.00  0.00     0.277 HD
ATOM     10  H22 UNL     1       7.321 -12.923 -15.967  1.00  0.00     0.277 HD
HETATM   11  C5  UNL     1       5.642 -13.489 -14.935  1.00  0.00     0.277 C 
HETATM   12  C6  UNL     1       5.068 -14.664 -15.682  1.00  0.00     0.096 C 
HETATM   13  N3  UNL     1       3.691 -14.774 -15.429  1.00  0.00    -0.340 N 
HETATM   14  C17 UNL     1       2.826 -13.728 -15.793  1.00  0.00     0.096 C 
HETATM   15  C18 UNL     1       1.826 -13.403 -14.682  1.00  0.00     0.277 C 
HETATM   16  N8  UNL     1       1.410 -12.024 -14.724  1.00  0.00    -0.069 N 
ATOM     17  H81 UNL     1       0.631 -11.852 -14.089  1.00  0.00     0.277 HD
ATOM     18  H82 UNL     1       0.950 -11.802 -15.607  1.00  0.00     0.277 HD
HETATM   19  C19 UNL     1       2.498 -11.134 -14.466  1.00  0.00     0.260 C 
HETATM   20  C20 UNL     1       2.117  -9.862 -13.788  1.00  0.00     0.259 C 
HETATM   21  N9  UNL     1       2.983  -9.607 -12.642  1.00  0.00    -0.072 N 
ATOM     22  H91 UNL     1       3.221 -10.465 -12.146  1.00  0.00     0.277 HD
ATOM     23  H92 UNL     1       2.488  -9.130 -11.888  1.00  0.00     0.277 HD
HETATM   24  C21 UNL     1       4.182  -8.865 -13.069  1.00  0.00     0.251 C 
HETATM   25  C22 UNL     1       4.828  -8.176 -11.931  1.00  0.00     0.148 C 
HETATM   26  N10 UNL     1       5.994  -8.774 -11.364  1.00  0.00    -0.379 N 
ATOM     27  H10 UNL     1       6.199  -8.492 -10.405  1.00  0.00     0.160 HD
ENDROOT
BRANCH  13  28
HETATM   28  C7  UNL     1       3.205 -15.839 -14.649  1.00  0.00     0.160 C 
BRANCH  28  29
HETATM   29  C8  UNL     1       3.994 -17.072 -14.823  1.00  0.00    -0.054 C 
HETATM   30  C9  UNL     1       4.641 -18.088 -14.954  1.00  0.00    -0.043 C 
BRANCH  30  31
HETATM   31  C10 UNL     1       5.433 -19.290 -15.105  1.00  0.00     0.088 A 
HETATM   32  C11 UNL     1       6.572 -19.329 -15.884  1.00  0.00     0.040 A 
HETATM   33  C12 UNL     1       7.327 -20.472 -16.027  1.00  0.00     0.022 A 
HETATM   34  C13 UNL     1       6.959 -21.632 -15.381  1.00  0.00     0.052 A 
HETATM   35  C14 UNL     1       7.678 -22.802 -15.488  1.00  0.00     0.113 A 
HETATM   36  C16 UNL     1       5.803 -21.580 -14.594  1.00  0.00     0.121 A 
HETATM   37  N5  UNL     1       7.242 -23.909 -14.811  1.00  0.00    -0.338 N 
HETATM   38  C15 UNL     1       6.132 -23.853 -14.058  1.00  0.00     0.183 A 
ATOM     39  H5  UNL     1       7.765 -24.783 -14.880  1.00  0.00     0.168 HD
HETATM   40  N6  UNL     1       5.448 -22.714 -13.965  1.00  0.00    -0.338 N 
ATOM     41  H6  UNL     1       4.610 -22.702 -13.384  1.00  0.00     0.168 HD
HETATM   42  N7  UNL     1       5.102 -20.438 -14.489  1.00  0.00    -0.335 N 
ATOM     43  H7  UNL     1       4.265 -20.443 -13.904  1.00  0.00     0.168 HD
BRANCH  35  44
HETATM   44  N4  UNL     1       8.738 -22.882 -16.200  1.00  0.00    -0.385 N 
ATOM     45  H42 UNL     1       9.302 -22.045 -16.349  1.00  0.00     0.157 HD
ATOM     46  H41 UNL     1       9.038 -23.760 -16.624  1.00  0.00     0.157 HD
ENDBRANCH  35  44
ENDBRANCH  30  31
ENDBRANCH  28  29
ENDBRANCH  13  28
TORSDOF 4
ENDMDL
MODEL 3
REMARK VINA RESULT: -8.975867132      2.120      2.859
REMARK  4 active torsions:
REMARK  status: ('A' for Active; 'I' for Inactive)
REMARK    1  A    between atoms: N3_13  and  C7_14 
REMARK    2  A    between atoms: C7_14  and  C8_15 
REMARK    3  A    between atoms: C9_16  and  C10_17 
REMARK    4  A    between atoms: C14_21  and  N4_22 
ROOT
HETATM    1  N1  UNL     1       5.577  -7.407 -13.311  1.00  0.00    -0.389 N 
ATOM      2  H11 UNL     1       5.737  -6.407 -13.433  1.00  0.00     0.157 HD
ATOM      3  H12 UNL     1       5.237  -7.890 -12.480  1.00  0.00     0.157 HD
HETATM    4  C1  UNL     1       5.859  -8.149 -14.358  1.00  0.00     0.070 C 
HETATM    5  C2  UNL     1       5.628  -9.597 -14.181  1.00  0.00     0.077 C 
HETATM    6  C3  UNL     1       6.171 -10.151 -12.883  1.00  0.00     0.035 C 
HETATM    7  C4  UNL     1       5.309 -11.243 -12.338  1.00  0.00     0.233 C 
HETATM    8  N2  UNL     1       5.986 -12.520 -12.218  1.00  0.00    -0.071 N 
ATOM      9  H21 UNL     1       5.426 -13.186 -11.686  1.00  0.00     0.277 HD
ATOM     10  H22 UNL     1       6.793 -12.453 -11.597  1.00  0.00     0.277 HD
HETATM   11  C5  UNL     1       6.362 -13.063 -13.507  1.00  0.00     0.277 C 
HETATM   12  C6  UNL     1       6.452 -14.567 -13.497  1.00  0.00     0.096 C 
HETATM   13  N3  UNL     1       6.732 -15.044 -14.787  1.00  0.00    -0.340 N 
HETATM   14  C17 UNL     1       7.925 -14.671 -15.430  1.00  0.00     0.096 C 
HETATM   15  C18 UNL     1       7.686 -14.271 -16.887  1.00  0.00     0.277 C 
HETATM   16  N8  UNL     1       8.663 -13.318 -17.346  1.00  0.00    -0.069 N 
ATOM     17  H81 UNL     1       8.598 -13.176 -18.354  1.00  0.00     0.277 HD
ATOM     18  H82 UNL     1       9.607 -13.701 -17.298  1.00  0.00     0.277 HD
HETATM   19  C19 UNL     1       8.568 -12.079 -16.639  1.00  0.00     0.260 C 
HETATM   20  C20 UNL     1       8.949 -10.875 -17.433  1.00  0.00     0.259 C 
HETATM   21  N9  UNL     1       7.931  -9.837 -17.318  1.00  0.00    -0.072 N 
ATOM     22  H91 UNL     1       6.989 -10.227 -17.294  1.00  0.00     0.277 HD
ATOM     23  H92 UNL     1       7.844  -9.290 -18.175  1.00  0.00     0.277 HD
HETATM   24  C21 UNL     1       8.206  -8.987 -16.146  1.00  0.00     0.251 C 
HETATM   25  C22 UNL     1       7.527  -7.677 -16.254  1.00  0.00     0.148 C 
HETATM   26  N10 UNL     1       6.327  -7.485 -15.503  1.00  0.00    -0.379 N 
ATOM     27  H10 UNL     1       5.714  -6.749 -15.854  1.00  0.00     0.160 HD
ENDROOT
BRANCH  13  28
HETATM   28  C7  UNL     1       5.743 -15.740 -15.506  1.00  0.00     0.160 C 
BRANCH  28  29
HETATM   29  C8  UNL     1       5.856 -17.202 -15.352  1.00  0.00    -0.054 C 
HETATM   30  C9  UNL     1       5.942 -18.402 -15.216  1.00  0.00    -0.043 C 
BRANCH  30  31
HETATM   31  C10 UNL     1       6.063 -19.834 -15.040  1.00  0.00     0.088 A 
HETATM   32  C11 UNL     1       7.082 -20.564 -15.617  1.00  0.00     0.040 A 
HETATM   33  C12 UNL     1       7.198 -21.926 -15.448  1.00  0.00     0.022 A 
HETATM   34  C13 UNL     1       6.281 -22.611 -14.681  1.00  0.00     0.052 A 
HETATM   35  C14 UNL     1       6.351 -23.973 -14.478  1.00  0.00     0.113 A 
HETATM   36  C16 UNL     1       5.253 -21.861 -14.101  1.00  0.00     0.121 A 
HETATM   37  N5  UNL     1       5.399 -24.574 -13.701  1.00  0.00    -0.338 N 
HETATM   38  C15 UNL     1       4.414 -23.848 -13.146  1.00  0.00     0.183 A 
ATOM     39  H5  UNL     1       5.438 -25.581 -13.541  1.00  0.00     0.168 HD
HETATM   40  N6  UNL     1       4.361 -22.533 -13.352  1.00  0.00    -0.338 N 
ATOM     41  H6  UNL     1       3.603 -22.008 -12.918  1.00  0.00     0.168 HD
HETATM   42  N7  UNL     1       5.185 -20.532 -14.298  1.00  0.00    -0.335 N 
ATOM     43  H7  UNL     1       4.419 -20.022 -13.857  1.00  0.00     0.168 HD
BRANCH  35  44
HETATM   44  N4  UNL     1       7.278 -24.687 -14.995  1.00  0.00    -0.385 N 
ATOM     45  H42 UNL     1       8.144 -24.831 -14.476  1.00  0.00     0.157 HD
ATOM     46  H41 UNL     1       7.178 -25.118 -15.914  1.00  0.00     0.157 HD
ENDBRANCH  35  44
ENDBRANCH  30  31
ENDBRANCH  28  29
ENDBRANCH  13  28
TORSDOF 4
ENDMDL
MODEL 4
REMARK VINA RESULT: -8.910959781      1.614      3.335
REMARK  4 active torsions:
REMARK  status: ('A' for Active; 'I' for Inactive)
REMARK    1  A    between atoms: N3_13  and  C7_14 
REMARK    2  A    between atoms: C7_14  and  C8_15 
REMARK    3  A    between atoms: C9_16  and  C10_17 
REMARK    4  A    between atoms: C14_21  and  N4_22 
ROOT
HETATM    1  N1  UNL     1       2.064  -7.765 -13.827  1.00  0.00    -0.389 N 
ATOM      2  H11 UNL     1       2.094  -6.759 -13.666  1.00  0.00     0.157 HD
ATOM      3  H12 UNL     1       1.254  -8.383 -13.780  1.00  0.00     0.157 HD
HETATM    4  C1  UNL     1       3.219  -8.319 -14.117  1.00  0.00     0.070 C 
HETATM    5  C2  UNL     1       3.177  -9.777 -14.350  1.00  0.00     0.077 C 
HETATM    6  C3  UNL     1       2.383 -10.540 -13.312  1.00  0.00     0.035 C 
HETATM    7  C4  UNL     1       1.671 -11.712 -13.906  1.00  0.00     0.233 C 
HETATM    8  N2  UNL     1       2.076 -12.988 -13.348  1.00  0.00    -0.071 N 
ATOM      9  H21 UNL     1       1.452 -13.737 -13.648  1.00  0.00     0.277 HD
ATOM     10  H22 UNL     1       1.903 -13.024 -12.344  1.00  0.00     0.277 HD
HETATM   11  C5  UNL     1       3.457 -13.304 -13.653  1.00  0.00     0.277 C 
HETATM   12  C6  UNL     1       3.717 -14.788 -13.682  1.00  0.00     0.096 C 
HETATM   13  N3  UNL     1       5.044 -15.039 -14.066  1.00  0.00    -0.340 N 
HETATM   14  C17 UNL     1       6.105 -14.558 -13.280  1.00  0.00     0.096 C 
HETATM   15  C18 UNL     1       7.202 -13.918 -14.133  1.00  0.00     0.277 C 
HETATM   16  N8  UNL     1       7.914 -12.897 -13.409  1.00  0.00    -0.069 N 
ATOM     17  H81 UNL     1       8.740 -12.587 -13.921  1.00  0.00     0.277 HD
ATOM     18  H82 UNL     1       8.372 -13.279 -12.581  1.00  0.00     0.277 HD
HETATM   19  C19 UNL     1       7.067 -11.796 -13.073  1.00  0.00     0.260 C 
HETATM   20  C20 UNL     1       7.755 -10.474 -13.012  1.00  0.00     0.259 C 
HETATM   21  N9  UNL     1       7.022  -9.474 -13.780  1.00  0.00    -0.072 N 
ATOM     22  H91 UNL     1       6.619  -9.866 -14.631  1.00  0.00     0.277 HD
ATOM     23  H92 UNL     1       7.645  -8.790 -14.210  1.00  0.00     0.277 HD
HETATM   24  C21 UNL     1       6.001  -8.833 -12.931  1.00  0.00     0.251 C 
HETATM   25  C22 UNL     1       5.580  -7.527 -13.482  1.00  0.00     0.148 C 
HETATM   26  N10 UNL     1       4.336  -7.469 -14.182  1.00  0.00    -0.379 N 
ATOM     27  H10 UNL     1       4.243  -6.687 -14.830  1.00  0.00     0.160 HD
ENDROOT
BRANCH  13  28
HETATM   28  C7  UNL     1       5.313 -15.607 -15.325  1.00  0.00     0.160 C 
BRANCH  28  29
HETATM   29  C8  UNL     1       5.613 -17.048 -15.241  1.00  0.00    -0.054 C 
HETATM   30  C9  UNL     1       5.848 -18.234 -15.168  1.00  0.00    -0.043 C 
BRANCH  30  31
HETATM   31  C10 UNL     1       6.139 -19.648 -15.060  1.00  0.00     0.088 A 
HETATM   32  C11 UNL     1       7.275 -20.210 -15.608  1.00  0.00     0.040 A 
HETATM   33  C12 UNL     1       7.553 -21.555 -15.503  1.00  0.00     0.022 A 
HETATM   34  C13 UNL     1       6.688 -22.393 -14.834  1.00  0.00     0.052 A 
HETATM   35  C14 UNL     1       6.919 -23.745 -14.698  1.00  0.00     0.113 A 
HETATM   36  C16 UNL     1       5.541 -21.811 -14.283  1.00  0.00     0.121 A 
HETATM   37  N5  UNL     1       6.008 -24.505 -14.016  1.00  0.00    -0.338 N 
HETATM   38  C15 UNL     1       4.909 -23.941 -13.489  1.00  0.00     0.183 A 
ATOM     39  H5  UNL     1       6.165 -25.507 -13.907  1.00  0.00     0.168 HD
HETATM   40  N6  UNL     1       4.701 -22.633 -13.629  1.00  0.00    -0.338 N 
ATOM     41  H6  UNL     1       3.858 -22.232 -13.217  1.00  0.00     0.168 HD
HETATM   42  N7  UNL     1       5.317 -20.493 -14.413  1.00  0.00    -0.335 N 
ATOM     43  H7  UNL     1       4.468 -20.108 -13.996  1.00  0.00     0.168 HD
BRANCH  35  44
HETATM   44  N4  UNL     1       7.957 -24.307 -15.192  1.00  0.00    -0.385 N 
ATOM     45  H42 UNL     1       8.880 -23.941 -14.958  1.00  0.00     0.157 HD
ATOM     46  H41 UNL     1       7.890 -25.112 -15.814  1.00  0.00     0.157 HD
ENDBRANCH  35  44
ENDBRANCH  30  31
ENDBRANCH  28  29
ENDBRANCH  13  28
TORSDOF 4
ENDMDL
MODEL 5
REMARK VINA RESULT: -8.900347298      2.652      4.554
REMARK  4 active torsions:
REMARK  status: ('A' for Active; 'I' for Inactive)
REMARK    1  A    between atoms: N3_13  and  C7_14 
REMARK    2  A    between atoms: C7_14  and  C8_15 
REMARK    3  A    between atoms: C9_16  and  C10_17 
REMARK    4  A    between atoms: C14_21  and  N4_22 
ROOT
HETATM    1  N1  UNL     1       2.572 -13.789 -12.890  1.00  0.00    -0.389 N 
ATOM      2  H11 UNL     1       1.557 -13.820 -12.798  1.00  0.00     0.157 HD
ATOM      3  H12 UNL     1       3.256 -13.504 -12.189  1.00  0.00     0.157 HD
HETATM    4  C1  UNL     1       3.036 -14.151 -14.064  1.00  0.00     0.070 C 
HETATM    5  C2  UNL     1       4.507 -14.105 -14.199  1.00  0.00     0.077 C 
HETATM    6  C3  UNL     1       5.132 -12.834 -13.666  1.00  0.00     0.035 C 
HETATM    7  C4  UNL     1       6.473 -13.085 -13.056  1.00  0.00     0.233 C 
HETATM    8  N2  UNL     1       7.556 -12.375 -13.708  1.00  0.00    -0.071 N 
ATOM      9  H21 UNL     1       8.416 -12.432 -13.162  1.00  0.00     0.277 HD
ATOM     10  H22 UNL     1       7.409 -11.367 -13.676  1.00  0.00     0.277 HD
HETATM   11  C5  UNL     1       7.767 -12.830 -15.067  1.00  0.00     0.277 C 
HETATM   12  C6  UNL     1       9.186 -12.629 -15.530  1.00  0.00     0.096 C 
HETATM   13  N3  UNL     1       9.357 -13.165 -16.816  1.00  0.00    -0.340 N 
HETATM   14  C17 UNL     1       8.610 -12.655 -17.893  1.00  0.00     0.096 C 
HETATM   15  C18 UNL     1       8.034 -13.772 -18.765  1.00  0.00     0.277 C 
HETATM   16  N8  UNL     1       6.814 -13.367 -19.414  1.00  0.00    -0.069 N 
ATOM     17  H81 UNL     1       6.521 -14.050 -20.113  1.00  0.00     0.277 HD
ATOM     18  H82 UNL     1       6.967 -12.566 -20.027  1.00  0.00     0.277 HD
HETATM   19  C19 UNL     1       5.771 -13.108 -18.471  1.00  0.00     0.260 C 
HETATM   20  C20 UNL     1       4.395 -13.398 -18.966  1.00  0.00     0.259 C 
HETATM   21  N9  UNL     1       3.659 -14.210 -18.003  1.00  0.00    -0.072 N 
ATOM     22  H91 UNL     1       4.257 -14.901 -17.551  1.00  0.00     0.277 HD
ATOM     23  H92 UNL     1       3.009 -14.850 -18.460  1.00  0.00     0.277 HD
HETATM   24  C21 UNL     1       2.982 -13.342 -17.023  1.00  0.00     0.251 C 
HETATM   25  C22 UNL     1       1.870 -14.049 -16.351  1.00  0.00     0.148 C 
HETATM   26  N10 UNL     1       2.095 -14.543 -15.030  1.00  0.00    -0.379 N 
ATOM     27  H10 UNL     1       1.475 -15.300 -14.742  1.00  0.00     0.160 HD
ENDROOT
BRANCH  13  28
HETATM   28  C7  UNL     1      10.131 -14.325 -16.996  1.00  0.00     0.160 C 
BRANCH  28  29
HETATM   29  C8  UNL     1       9.411 -15.551 -16.603  1.00  0.00    -0.054 C 
HETATM   30  C9  UNL     1       8.816 -16.558 -16.291  1.00  0.00    -0.043 C 
BRANCH  30  31
HETATM   31  C10 UNL     1       8.086 -17.750 -15.915  1.00  0.00     0.088 A 
HETATM   32  C11 UNL     1       6.881 -17.695 -15.244  1.00  0.00     0.040 A 
HETATM   33  C12 UNL     1       6.185 -18.829 -14.887  1.00  0.00     0.022 A 
HETATM   34  C13 UNL     1       6.683 -20.075 -15.198  1.00  0.00     0.052 A 
HETATM   35  C14 UNL     1       6.028 -21.242 -14.866  1.00  0.00     0.113 A 
HETATM   36  C16 UNL     1       7.905 -20.119 -15.878  1.00  0.00     0.121 A 
HETATM   37  N5  UNL     1       6.593 -22.439 -15.214  1.00  0.00    -0.338 N 
HETATM   38  C15 UNL     1       7.766 -22.473 -15.867  1.00  0.00     0.183 A 
ATOM     39  H5  UNL     1       6.120 -23.310 -14.976  1.00  0.00     0.168 HD
HETATM   40  N6  UNL     1       8.386 -21.337 -16.180  1.00  0.00    -0.338 N 
ATOM     41  H6  UNL     1       9.275 -21.395 -16.677  1.00  0.00     0.168 HD
HETATM   42  N7  UNL     1       8.544 -18.981 -16.203  1.00  0.00    -0.335 N 
ATOM     43  H7  UNL     1       9.432 -19.057 -16.699  1.00  0.00     0.168 HD
BRANCH  35  44
HETATM   44  N4  UNL     1       4.910 -21.236 -14.243  1.00  0.00    -0.385 N 
ATOM     45  H42 UNL     1       4.679 -20.445 -13.642  1.00  0.00     0.157 HD
ATOM     46  H41 UNL     1       4.241 -22.000 -14.330  1.00  0.00     0.157 HD
ENDBRANCH  35  44
ENDBRANCH  30  31
ENDBRANCH  28  29
ENDBRANCH  13  28
TORSDOF 4
ENDMDL
