MODEL 1
REMARK VINA RESULT: -8.421681903      0.000      0.000
REMARK  5 active torsions:
REMARK  status: ('A' for Active; 'I' for Inactive)
REMARK    1  A    between atoms: N1_1  and  S1_4 
REMARK    2  A    between atoms: S1_4  and  C1_7 
REMARK    3  A    between atoms: C4_10  and  N2_11 
REMARK    4  A    between atoms: N2_11  and  C5_13 
REMARK    5  A    between atoms: C5_13  and  N3_15 
ROOT
HETATM    1  N3  UNL     1       6.124 -15.542 -14.852  1.00  0.00    -0.266 N 
HETATM    2  C6  UNL     1       6.029 -14.894 -13.577  1.00  0.00     0.153 C 
HETATM    3  C7  UNL     1       7.296 -14.123 -13.232  1.00  0.00     0.049 C 
HETATM    4  C8  UNL     1       7.027 -12.742 -12.739  1.00  0.00     0.234 C 
HETATM    5  N4  UNL     1       7.099 -11.726 -13.777  1.00  0.00    -0.071 N 
ATOM      6  H41 UNL     1       6.725 -10.835 -13.451  1.00  0.00     0.277 HD
ATOM      7  H42 UNL     1       6.434 -11.912 -14.527  1.00  0.00     0.277 HD
HETATM    8  C9  UNL     1       8.425 -11.582 -14.280  1.00  0.00     0.277 C 
HETATM    9  C10 UNL     1       8.497 -11.550 -15.798  1.00  0.00     0.092 C 
HETATM   10  N5  UNL     1       9.416 -12.502 -16.240  1.00  0.00    -0.348 N 
HETATM   11  C11 UNL     1      10.788 -12.223 -16.179  1.00  0.00     0.084 C 
HETATM   12  C12 UNL     1      11.534 -13.167 -17.098  1.00  0.00     0.159 C 
HETATM   13  N6  UNL     1      11.172 -14.526 -16.967  1.00  0.00    -0.413 N 
ATOM     14  H6  UNL     1      11.849 -15.285 -17.045  1.00  0.00     0.153 HD
HETATM   15  C13 UNL     1       9.759 -14.763 -16.714  1.00  0.00     0.161 C 
HETATM   16  C14 UNL     1       9.010 -13.506 -17.154  1.00  0.00     0.205 C 
HETATM   17  N7  UNL     1       7.676 -13.656 -17.460  1.00  0.00    -0.362 N 
ATOM     18  H7  UNL     1       7.354 -13.287 -18.354  1.00  0.00     0.162 HD
HETATM   19  C15 UNL     1       6.738 -14.268 -16.648  1.00  0.00     0.194 C 
HETATM   20  N8  UNL     1       7.146 -15.316 -15.770  1.00  0.00    -0.292 N 
ATOM     21  H8  UNL     1       8.035 -15.813 -15.808  1.00  0.00     0.188 HD
ENDROOT
BRANCH   1  22
HETATM   22  C5  UNL     1       5.083 -16.491 -15.192  1.00  0.00     0.193 C 
HETATM   23  S2  UNL     1       3.642 -16.243 -14.511  1.00  0.00    -0.039 SA
BRANCH  22  24
HETATM   24  N2  UNL     1       5.311 -17.529 -16.088  1.00  0.00    -0.332 N 
ATOM     25  H2  UNL     1       5.186 -17.320 -17.078  1.00  0.00     0.168 HD
BRANCH  24  26
HETATM   26  C4  UNL     1       5.698 -18.845 -15.759  1.00  0.00     0.034 A 
HETATM   27  C3  UNL     1       5.116 -19.614 -14.804  1.00  0.00     0.031 A 
HETATM   28  C2  UNL     1       5.544 -20.921 -14.567  1.00  0.00     0.027 A 
HETATM   29  C1  UNL     1       6.566 -21.495 -15.275  1.00  0.00     0.079 A 
HETATM   30  C17 UNL     1       7.161 -20.722 -16.243  1.00  0.00     0.027 A 
HETATM   31  C16 UNL     1       6.745 -19.444 -16.480  1.00  0.00     0.031 A 
BRANCH  29  32
HETATM   32  S1  UNL     1       7.077 -23.134 -14.952  1.00  0.00     0.256 S 
HETATM   33  O1  UNL     1       5.944 -24.074 -15.178  1.00  0.00    -0.201 OA
HETATM   34  O2  UNL     1       8.255 -23.450 -15.825  1.00  0.00    -0.201 OA
BRANCH  32  35
HETATM   35  N1  UNL     1       7.568 -23.243 -13.316  1.00  0.00    -0.324 N 
ATOM     36  H12 UNL     1       7.302 -22.585 -12.584  1.00  0.00     0.169 HD
ATOM     37  H11 UNL     1       8.161 -24.065 -13.205  1.00  0.00     0.169 HD
ENDBRANCH  32  35
ENDBRANCH  29  32
ENDBRANCH  24  26
ENDBRANCH  22  24
ENDBRANCH   1  22
TORSDOF 5
ENDMDL
MODEL 2
REMARK VINA RESULT: -8.231654761      0.707      1.177
REMARK  5 active torsions:
REMARK  status: ('A' for Active; 'I' for Inactive)
REMARK    1  A    between atoms: N1_1  and  S1_4 
REMARK    2  A    between atoms: S1_4  and  C1_7 
REMARK    3  A    between atoms: C4_10  and  N2_11 
REMARK    4  A    between atoms: N2_11  and  C5_13 
REMARK    5  A    between atoms: C5_13  and  N3_15 
ROOT
HETATM    1  N3  UNL     1       6.223 -15.676 -14.927  1.00  0.00    -0.266 N 
HETATM    2  C6  UNL     1       6.066 -15.046 -13.650  1.00  0.00     0.153 C 
HETATM    3  C7  UNL     1       7.274 -14.197 -13.279  1.00  0.00     0.049 C 
HETATM    4  C8  UNL     1       6.908 -12.841 -12.780  1.00  0.00     0.234 C 
HETATM    5  N4  UNL     1       6.929 -11.814 -13.809  1.00  0.00    -0.071 N 
ATOM      6  H41 UNL     1       6.494 -10.951 -13.482  1.00  0.00     0.277 HD
ATOM      7  H42 UNL     1       6.289 -12.037 -14.571  1.00  0.00     0.277 HD
HETATM    8  C9  UNL     1       8.251 -11.579 -14.290  1.00  0.00     0.277 C 
HETATM    9  C10 UNL     1       8.344 -11.530 -15.806  1.00  0.00     0.092 C 
HETATM   10  N5  UNL     1       9.330 -12.416 -16.240  1.00  0.00    -0.348 N 
HETATM   11  C11 UNL     1      10.680 -12.049 -16.156  1.00  0.00     0.084 C 
HETATM   12  C12 UNL     1      11.500 -12.934 -17.070  1.00  0.00     0.159 C 
HETATM   13  N6  UNL     1      11.225 -14.315 -16.955  1.00  0.00    -0.413 N 
ATOM     14  H6  UNL     1      11.952 -15.028 -17.027  1.00  0.00     0.153 HD
HETATM   15  C13 UNL     1       9.827 -14.645 -16.726  1.00  0.00     0.161 C 
HETATM   16  C14 UNL     1       9.004 -13.437 -17.168  1.00  0.00     0.205 C 
HETATM   17  N7  UNL     1       7.688 -13.671 -17.496  1.00  0.00    -0.362 N 
ATOM     18  H7  UNL     1       7.356 -13.316 -18.393  1.00  0.00     0.162 HD
HETATM   19  C15 UNL     1       6.780 -14.350 -16.704  1.00  0.00     0.194 C 
HETATM   20  N8  UNL     1       7.241 -15.376 -15.827  1.00  0.00    -0.292 N 
ATOM     21  H8  UNL     1       8.162 -15.814 -15.854  1.00  0.00     0.188 HD
ENDROOT
BRANCH   1  22
HETATM   22  C5  UNL     1       5.251 -16.688 -15.291  1.00  0.00     0.193 C 
HETATM   23  S2  UNL     1       3.783 -16.532 -14.643  1.00  0.00    -0.039 SA
BRANCH  22  24
HETATM   24  N2  UNL     1       5.564 -17.709 -16.181  1.00  0.00    -0.332 N 
ATOM     25  H2  UNL     1       5.493 -17.493 -17.175  1.00  0.00     0.168 HD
BRANCH  24  26
HETATM   26  C4  UNL     1       5.971 -19.016 -15.842  1.00  0.00     0.034 A 
HETATM   27  C3  UNL     1       7.083 -19.634 -16.316  1.00  0.00     0.031 A 
HETATM   28  C2  UNL     1       7.429 -20.921 -15.900  1.00  0.00     0.027 A 
HETATM   29  C1  UNL     1       6.673 -21.626 -15.002  1.00  0.00     0.079 A 
HETATM   30  C17 UNL     1       5.545 -21.007 -14.519  1.00  0.00     0.027 A 
HETATM   31  C16 UNL     1       5.204 -19.749 -14.921  1.00  0.00     0.031 A 
BRANCH  29  32
HETATM   32  S1  UNL     1       7.134 -23.236 -14.503  1.00  0.00     0.256 S 
HETATM   33  O1  UNL     1       7.995 -23.863 -15.544  1.00  0.00    -0.201 OA
HETATM   34  O2  UNL     1       7.826 -23.147 -13.176  1.00  0.00    -0.201 OA
BRANCH  32  35
HETATM   35  N1  UNL     1       5.717 -24.178 -14.316  1.00  0.00    -0.324 N 
ATOM     36  H12 UNL     1       5.440 -24.941 -14.934  1.00  0.00     0.169 HD
ATOM     37  H11 UNL     1       5.209 -23.849 -13.495  1.00  0.00     0.169 HD
ENDBRANCH  32  35
ENDBRANCH  29  32
ENDBRANCH  24  26
ENDBRANCH  22  24
ENDBRANCH   1  22
TORSDOF 5
ENDMDL
MODEL 3
REMARK VINA RESULT: -7.844036065      2.408      3.785
REMARK  5 active torsions:
REMARK  status: ('A' for Active; 'I' for Inactive)
REMARK    1  A    between atoms: N1_1  and  S1_4 
REMARK    2  A    between atoms: S1_4  and  C1_7 
REMARK    3  A    between atoms: C4_10  and  N2_11 
REMARK    4  A    between atoms: N2_11  and  C5_13 
REMARK    5  A    between atoms: C5_13  and  N3_15 
ROOT
HETATM    1  N3  UNL     1       6.493 -15.665 -14.802  1.00  0.00    -0.266 N 
HETATM    2  C6  UNL     1       5.108 -16.000 -14.647  1.00  0.00     0.153 C 
HETATM    3  C7  UNL     1       4.370 -14.990 -13.779  1.00  0.00     0.049 C 
HETATM    4  C8  UNL     1       3.076 -14.542 -14.370  1.00  0.00     0.234 C 
HETATM    5  N4  UNL     1       3.177 -13.305 -15.128  1.00  0.00    -0.071 N 
ATOM      6  H41 UNL     1       2.332 -13.133 -15.672  1.00  0.00     0.277 HD
ATOM      7  H42 UNL     1       3.844 -13.392 -15.895  1.00  0.00     0.277 HD
HETATM    8  C9  UNL     1       3.490 -12.197 -14.287  1.00  0.00     0.277 C 
HETATM    9  C10 UNL     1       4.604 -11.318 -14.832  1.00  0.00     0.092 C 
HETATM   10  N5  UNL     1       5.590 -11.159 -13.858  1.00  0.00    -0.348 N 
HETATM   11  C11 UNL     1       5.394 -10.245 -12.815  1.00  0.00     0.084 C 
HETATM   12  C12 UNL     1       6.726  -9.921 -12.172  1.00  0.00     0.159 C 
HETATM   13  N6  UNL     1       7.523 -11.048 -11.869  1.00  0.00    -0.413 N 
ATOM     14  H6  UNL     1       8.103 -11.100 -11.031  1.00  0.00     0.153 HD
HETATM   15  C13 UNL     1       7.456 -12.127 -12.841  1.00  0.00     0.161 C 
HETATM   16  C14 UNL     1       6.929 -11.524 -14.142  1.00  0.00     0.205 C 
HETATM   17  N7  UNL     1       7.224 -12.203 -15.303  1.00  0.00    -0.362 N 
ATOM     18  H7  UNL     1       7.638 -11.671 -16.068  1.00  0.00     0.162 HD
HETATM   19  C15 UNL     1       7.002 -13.553 -15.513  1.00  0.00     0.194 C 
HETATM   20  N8  UNL     1       7.053 -14.453 -14.408  1.00  0.00    -0.292 N 
ATOM     21  H8  UNL     1       7.435 -14.245 -13.486  1.00  0.00     0.188 HD
ENDROOT
BRANCH   1  22
HETATM   22  C5  UNL     1       7.352 -16.662 -15.410  1.00  0.00     0.193 C 
HETATM   23  S2  UNL     1       8.936 -16.475 -15.178  1.00  0.00    -0.039 SA
BRANCH  22  24
HETATM   24  N2  UNL     1       6.828 -17.737 -16.117  1.00  0.00    -0.332 N 
ATOM     25  H2  UNL     1       6.418 -17.534 -17.029  1.00  0.00     0.168 HD
BRANCH  24  26
HETATM   26  C4  UNL     1       6.808 -19.083 -15.696  1.00  0.00     0.034 A 
HETATM   27  C3  UNL     1       7.863 -19.936 -15.758  1.00  0.00     0.031 A 
HETATM   28  C2  UNL     1       7.763 -21.246 -15.287  1.00  0.00     0.027 A 
HETATM   29  C1  UNL     1       6.608 -21.741 -14.744  1.00  0.00     0.079 A 
HETATM   30  C17 UNL     1       5.535 -20.884 -14.679  1.00  0.00     0.027 A 
HETATM   31  C16 UNL     1       5.628 -19.602 -15.137  1.00  0.00     0.031 A 
BRANCH  29  32
HETATM   32  S1  UNL     1       6.517 -23.386 -14.164  1.00  0.00     0.256 S 
HETATM   33  O1  UNL     1       7.440 -23.570 -13.010  1.00  0.00    -0.201 OA
HETATM   34  O2  UNL     1       5.094 -23.691 -13.803  1.00  0.00    -0.201 OA
BRANCH  32  35
HETATM   35  N1  UNL     1       6.995 -24.439 -15.426  1.00  0.00    -0.324 N 
ATOM     36  H12 UNL     1       7.800 -25.064 -15.389  1.00  0.00     0.169 HD
ATOM     37  H11 UNL     1       6.347 -24.333 -16.206  1.00  0.00     0.169 HD
ENDBRANCH  32  35
ENDBRANCH  29  32
ENDBRANCH  24  26
ENDBRANCH  22  24
ENDBRANCH   1  22
TORSDOF 5
ENDMDL
MODEL 4
REMARK VINA RESULT: -7.753569979      2.177      4.120
REMARK  5 active torsions:
REMARK  status: ('A' for Active; 'I' for Inactive)
REMARK    1  A    between atoms: N1_1  and  S1_4 
REMARK    2  A    between atoms: S1_4  and  C1_7 
REMARK    3  A    between atoms: C4_10  and  N2_11 
REMARK    4  A    between atoms: N2_11  and  C5_13 
REMARK    5  A    between atoms: C5_13  and  N3_15 
ROOT
HETATM    1  N3  UNL     1       7.970 -15.015 -15.545  1.00  0.00    -0.266 N 
HETATM    2  C6  UNL     1       8.949 -14.131 -16.105  1.00  0.00     0.153 C 
HETATM    3  C7  UNL     1       8.497 -12.677 -16.061  1.00  0.00     0.049 C 
HETATM    4  C8  UNL     1       9.543 -11.752 -15.539  1.00  0.00     0.234 C 
HETATM    5  N4  UNL     1       9.424 -11.477 -14.116  1.00  0.00    -0.071 N 
ATOM      6  H41 UNL     1      10.254 -11.006 -13.758  1.00  0.00     0.277 HD
ATOM      7  H42 UNL     1       9.478 -12.334 -13.566  1.00  0.00     0.277 HD
HETATM    8  C9  UNL     1       8.238 -10.742 -13.821  1.00  0.00     0.277 C 
HETATM    9  C10 UNL     1       7.455 -11.302 -12.645  1.00  0.00     0.092 C 
HETATM   10  N5  UNL     1       6.130 -11.511 -13.027  1.00  0.00    -0.348 N 
HETATM   11  C11 UNL     1       5.245 -10.426 -13.086  1.00  0.00     0.084 C 
HETATM   12  C12 UNL     1       3.820 -10.938 -13.073  1.00  0.00     0.159 C 
HETATM   13  N6  UNL     1       3.565 -11.996 -13.974  1.00  0.00    -0.413 N 
ATOM     14  H6  UNL     1       2.685 -12.084 -14.482  1.00  0.00     0.153 HD
HETATM   15  C13 UNL     1       4.653 -12.949 -14.124  1.00  0.00     0.161 C 
HETATM   16  C14 UNL     1       5.552 -12.798 -12.898  1.00  0.00     0.205 C 
HETATM   17  N7  UNL     1       6.344 -13.877 -12.574  1.00  0.00    -0.362 N 
ATOM     18  H7  UNL     1       6.310 -14.214 -11.612  1.00  0.00     0.162 HD
HETATM   19  C15 UNL     1       7.182 -14.539 -13.453  1.00  0.00     0.194 C 
HETATM   20  N8  UNL     1       6.848 -14.592 -14.838  1.00  0.00    -0.292 N 
ATOM     21  H8  UNL     1       5.941 -14.360 -15.242  1.00  0.00     0.188 HD
ENDROOT
BRANCH   1  22
HETATM   22  C5  UNL     1       8.176 -16.437 -15.735  1.00  0.00     0.193 C 
HETATM   23  S2  UNL     1       9.683 -16.972 -15.531  1.00  0.00    -0.039 SA
BRANCH  22  24
HETATM   24  N2  UNL     1       7.121 -17.290 -16.036  1.00  0.00    -0.332 N 
ATOM     25  H2  UNL     1       6.354 -16.900 -16.584  1.00  0.00     0.168 HD
BRANCH  24  26
HETATM   26  C4  UNL     1       7.008 -18.643 -15.657  1.00  0.00     0.034 A 
HETATM   27  C3  UNL     1       8.005 -19.561 -15.732  1.00  0.00     0.031 A 
HETATM   28  C2  UNL     1       7.815 -20.876 -15.303  1.00  0.00     0.027 A 
HETATM   29  C1  UNL     1       6.622 -21.310 -14.789  1.00  0.00     0.079 A 
HETATM   30  C17 UNL     1       5.607 -20.386 -14.710  1.00  0.00     0.027 A 
HETATM   31  C16 UNL     1       5.789 -19.101 -15.127  1.00  0.00     0.031 A 
BRANCH  29  32
HETATM   32  S1  UNL     1       6.417 -22.962 -14.261  1.00  0.00     0.256 S 
HETATM   33  O1  UNL     1       7.322 -23.246 -13.113  1.00  0.00    -0.201 OA
HETATM   34  O2  UNL     1       4.976 -23.179 -13.910  1.00  0.00    -0.201 OA
BRANCH  32  35
HETATM   35  N1  UNL     1       6.824 -24.006 -15.556  1.00  0.00    -0.324 N 
ATOM     36  H12 UNL     1       7.719 -24.006 -16.044  1.00  0.00     0.169 HD
ATOM     37  H11 UNL     1       6.029 -24.615 -15.749  1.00  0.00     0.169 HD
ENDBRANCH  32  35
ENDBRANCH  29  32
ENDBRANCH  24  26
ENDBRANCH  22  24
ENDBRANCH   1  22
TORSDOF 5
ENDMDL
MODEL 5
REMARK VINA RESULT: -7.732618480      2.367      4.183
REMARK  5 active torsions:
REMARK  status: ('A' for Active; 'I' for Inactive)
REMARK    1  A    between atoms: N1_1  and  S1_4 
REMARK    2  A    between atoms: S1_4  and  C1_7 
REMARK    3  A    between atoms: C4_10  and  N2_11 
REMARK    4  A    between atoms: N2_11  and  C5_13 
REMARK    5  A    between atoms: C5_13  and  N3_15 
ROOT
HETATM    1  N3  UNL     1       7.703 -15.312 -15.583  1.00  0.00    -0.266 N 
HETATM    2  C6  UNL     1       8.735 -14.321 -15.667  1.00  0.00     0.153 C 
HETATM    3  C7  UNL     1       8.170 -12.907 -15.670  1.00  0.00     0.049 C 
HETATM    4  C8  UNL     1       8.871 -11.992 -14.724  1.00  0.00     0.234 C 
HETATM    5  N4  UNL     1       8.222 -11.883 -13.427  1.00  0.00    -0.071 N 
ATOM      6  H41 UNL     1       8.821 -11.412 -12.750  1.00  0.00     0.277 HD
ATOM      7  H42 UNL     1       8.150 -12.792 -12.969  1.00  0.00     0.277 HD
HETATM    8  C9  UNL     1       6.949 -11.248 -13.528  1.00  0.00     0.277 C 
HETATM    9  C10 UNL     1       5.847 -11.974 -12.774  1.00  0.00     0.092 C 
HETATM   10  N5  UNL     1       4.773 -12.209 -13.633  1.00  0.00    -0.348 N 
HETATM   11  C11 UNL     1       3.877 -11.172 -13.922  1.00  0.00     0.084 C 
HETATM   12  C12 UNL     1       2.595 -11.755 -14.478  1.00  0.00     0.159 C 
HETATM   13  N6  UNL     1       2.778 -12.719 -15.495  1.00  0.00    -0.413 N 
ATOM     14  H6  UNL     1       2.151 -12.796 -16.297  1.00  0.00     0.153 HD
HETATM   15  C13 UNL     1       3.927 -13.592 -15.313  1.00  0.00     0.161 C 
HETATM   16  C14 UNL     1       4.305 -13.531 -13.834  1.00  0.00     0.205 C 
HETATM   17  N7  UNL     1       5.019 -14.596 -13.334  1.00  0.00    -0.362 N 
ATOM     18  H7  UNL     1       4.671 -15.039 -12.484  1.00  0.00     0.162 HD
HETATM   19  C15 UNL     1       6.174 -15.112 -13.895  1.00  0.00     0.194 C 
HETATM   20  N8  UNL     1       6.368 -15.029 -15.305  1.00  0.00    -0.292 N 
ATOM     21  H8  UNL     1       5.651 -14.801 -15.993  1.00  0.00     0.188 HD
ENDROOT
BRANCH   1  22
HETATM   22  C5  UNL     1       8.089 -16.691 -15.802  1.00  0.00     0.193 C 
HETATM   23  S2  UNL     1       9.613 -17.072 -15.435  1.00  0.00    -0.039 SA
BRANCH  22  24
HETATM   24  N2  UNL     1       7.180 -17.635 -16.264  1.00  0.00    -0.332 N 
ATOM     25  H2  UNL     1       6.540 -17.338 -17.000  1.00  0.00     0.168 HD
BRANCH  24  26
HETATM   26  C4  UNL     1       7.057 -18.966 -15.814  1.00  0.00     0.034 A 
HETATM   27  C3  UNL     1       8.053 -19.890 -15.827  1.00  0.00     0.031 A 
HETATM   28  C2  UNL     1       7.852 -21.178 -15.330  1.00  0.00     0.027 A 
HETATM   29  C1  UNL     1       6.652 -21.580 -14.808  1.00  0.00     0.079 A 
HETATM   30  C17 UNL     1       5.639 -20.651 -14.792  1.00  0.00     0.027 A 
HETATM   31  C16 UNL     1       5.831 -19.390 -15.276  1.00  0.00     0.031 A 
BRANCH  29  32
HETATM   32  S1  UNL     1       6.434 -23.202 -14.195  1.00  0.00     0.256 S 
HETATM   33  O1  UNL     1       7.367 -23.446 -13.061  1.00  0.00    -0.201 OA
HETATM   34  O2  UNL     1       5.000 -23.374 -13.792  1.00  0.00    -0.201 OA
BRANCH  32  35
HETATM   35  N1  UNL     1       6.784 -24.314 -15.448  1.00  0.00    -0.324 N 
ATOM     36  H12 UNL     1       6.770 -24.091 -16.443  1.00  0.00     0.169 HD
ATOM     37  H11 UNL     1       7.004 -25.219 -15.033  1.00  0.00     0.169 HD
ENDBRANCH  32  35
ENDBRANCH  29  32
ENDBRANCH  24  26
ENDBRANCH  22  24
ENDBRANCH   1  22
TORSDOF 5
ENDMDL
