MODEL 1
REMARK VINA RESULT: -9.219777971      0.000      0.000
REMARK  3 active torsions:
REMARK  status: ('A' for Active; 'I' for Inactive)
REMARK    1  A    between atoms: N1_1  and  C1_5 
REMARK       I    between atoms: N2_10  and  C6_11 
REMARK       I    between atoms: C6_11  and  N3_13 
REMARK    2  A    between atoms: N3_13  and  C7_15 
REMARK    3  A    between atoms: C7_15  and  C8_16 
REMARK       I    between atoms: C8_16  and  N4_18 
ROOT
HETATM    1  C8  UNL     1      -5.730  16.661 -15.518  1.00  0.00     0.237 C 
HETATM    2  O2  UNL     1      -6.903  16.936 -15.186  1.00  0.00    -0.272 OA
HETATM    3  N4  UNL     1      -5.271  15.327 -15.440  1.00  0.00    -0.348 N 
HETATM    4  C9  UNL     1      -3.926  15.007 -15.813  1.00  0.00     0.153 C 
HETATM    5  C10 UNL     1      -2.986  14.973 -14.628  1.00  0.00     0.252 C 
HETATM    6  N5  UNL     1      -1.809  14.192 -14.963  1.00  0.00    -0.072 N 
ATOM      7  H51 UNL     1      -1.015  14.797 -15.172  1.00  0.00     0.277 HD
ATOM      8  H52 UNL     1      -1.915  13.740 -15.871  1.00  0.00     0.277 HD
HETATM    9  C11 UNL     1      -1.475  13.235 -13.944  1.00  0.00     0.259 C 
HETATM   10  C12 UNL     1      -1.481  11.867 -14.564  1.00  0.00     0.259 C 
HETATM   11  N6  UNL     1      -0.996  10.848 -13.686  1.00  0.00    -0.073 N 
ATOM     12  H61 UNL     1      -0.061  11.084 -13.350  1.00  0.00     0.277 HD
ATOM     13  H62 UNL     1      -0.784   9.999 -14.210  1.00  0.00     0.277 HD
HETATM   14  C13 UNL     1      -1.861  10.551 -12.585  1.00  0.00     0.234 C 
HETATM   15  C14 UNL     1      -2.277   9.102 -12.669  1.00  0.00     0.055 C 
HETATM   16  C15 UNL     1      -3.615   8.951 -13.375  1.00  0.00     0.234 C 
HETATM   17  N7  UNL     1      -4.641   8.916 -12.368  1.00  0.00    -0.073 N 
ATOM     18  H71 UNL     1      -4.792   9.847 -11.980  1.00  0.00     0.277 HD
ATOM     19  H72 UNL     1      -4.307   8.432 -11.535  1.00  0.00     0.277 HD
HETATM   20  C16 UNL     1      -5.876   8.352 -12.811  1.00  0.00     0.259 C 
HETATM   21  C17 UNL     1      -7.095   9.088 -12.371  1.00  0.00     0.259 C 
HETATM   22  N8  UNL     1      -6.838  10.252 -11.575  1.00  0.00    -0.072 N 
ATOM     23  H81 UNL     1      -5.843  10.460 -11.491  1.00  0.00     0.277 HD
ATOM     24  H82 UNL     1      -7.032  10.103 -10.585  1.00  0.00     0.277 HD
HETATM   25  C18 UNL     1      -7.598  11.357 -12.136  1.00  0.00     0.259 C 
HETATM   26  C19 UNL     1      -6.862  12.015 -13.287  1.00  0.00     0.259 C 
HETATM   27  N9  UNL     1      -6.014  13.090 -12.884  1.00  0.00    -0.072 N 
ATOM     28  H91 UNL     1      -5.037  12.859 -13.062  1.00  0.00     0.277 HD
ATOM     29  H92 UNL     1      -5.992  13.165 -11.867  1.00  0.00     0.277 HD
HETATM   30  C20 UNL     1      -6.348  14.350 -13.473  1.00  0.00     0.252 C 
HETATM   31  C21 UNL     1      -6.188  14.290 -14.973  1.00  0.00     0.153 C 
ENDROOT
BRANCH   1  32
HETATM   32  C7  UNL     1      -4.827  17.722 -15.990  1.00  0.00     0.227 C 
BRANCH  32  33
HETATM   33  N3  UNL     1      -5.293  19.050 -15.733  1.00  0.00    -0.334 N 
HETATM   34  C6  UNL     1      -4.678  19.898 -14.780  1.00  0.00     0.320 C 
HETATM   35  N2  UNL     1      -5.165  21.237 -14.546  1.00  0.00    -0.306 N 
HETATM   36  O1  UNL     1      -3.691  19.448 -14.141  1.00  0.00    -0.247 OA
HETATM   37  C1  UNL     1      -6.293  21.677 -15.312  1.00  0.00     0.287 C 
HETATM   38  C5  UNL     1      -4.479  22.020 -13.566  1.00  0.00     0.130 C 
HETATM   39  C2  UNL     1      -6.475  23.173 -15.208  1.00  0.00     0.054 C 
HETATM   40  C3  UNL     1      -5.092  23.791 -15.228  1.00  0.00     0.005 C 
HETATM   41  C4  UNL     1      -4.458  23.492 -13.888  1.00  0.00     0.020 C 
ATOM     42  H3  UNL     1      -6.097  19.398 -16.255  1.00  0.00     0.164 HD
BRANCH  37  43
HETATM   43  N1  UNL     1      -7.537  21.072 -14.878  1.00  0.00    -0.058 N 
ATOM     44  H13 UNL     1      -7.500  20.718 -13.922  1.00  0.00     0.276 HD
ATOM     45  H12 UNL     1      -8.286  21.750 -14.734  1.00  0.00     0.276 HD
ATOM     46  H11 UNL     1      -7.771  20.355 -15.563  1.00  0.00     0.276 HD
ENDBRANCH  37  43
ENDBRANCH  32  33
ENDBRANCH   1  32
TORSDOF 3
ENDMDL
MODEL 2
REMARK VINA RESULT: -8.571234200      1.650      1.753
REMARK  3 active torsions:
REMARK  status: ('A' for Active; 'I' for Inactive)
REMARK    1  A    between atoms: N1_1  and  C1_5 
REMARK       I    between atoms: N2_10  and  C6_11 
REMARK       I    between atoms: C6_11  and  N3_13 
REMARK    2  A    between atoms: N3_13  and  C7_15 
REMARK    3  A    between atoms: C7_15  and  C8_16 
REMARK       I    between atoms: C8_16  and  N4_18 
ROOT
HETATM    1  C8  UNL     1      -5.386  17.170 -15.214  1.00  0.00     0.237 C 
HETATM    2  O2  UNL     1      -6.562  17.572 -15.343  1.00  0.00    -0.272 OA
HETATM    3  N4  UNL     1      -5.085  15.802 -15.398  1.00  0.00    -0.348 N 
HETATM    4  C9  UNL     1      -3.740  15.334 -15.246  1.00  0.00     0.153 C 
HETATM    5  C10 UNL     1      -3.467  14.792 -13.860  1.00  0.00     0.252 C 
HETATM    6  N5  UNL     1      -2.311  13.914 -13.901  1.00  0.00    -0.072 N 
ATOM      7  H51 UNL     1      -1.481  14.382 -13.538  1.00  0.00     0.277 HD
ATOM      8  H52 UNL     1      -2.004  13.757 -14.861  1.00  0.00     0.277 HD
HETATM    9  C11 UNL     1      -2.542  12.669 -13.222  1.00  0.00     0.259 C 
HETATM   10  C12 UNL     1      -2.329  11.551 -14.202  1.00  0.00     0.259 C 
HETATM   11  N6  UNL     1      -2.362  10.256 -13.597  1.00  0.00    -0.073 N 
ATOM     12  H61 UNL     1      -1.683  10.200 -12.838  1.00  0.00     0.277 HD
ATOM     13  H62 UNL     1      -1.974   9.558 -14.231  1.00  0.00     0.277 HD
HETATM   14  C13 UNL     1      -3.656   9.849 -13.139  1.00  0.00     0.234 C 
HETATM   15  C14 UNL     1      -4.058   8.591 -13.870  1.00  0.00     0.055 C 
HETATM   16  C15 UNL     1      -4.917   8.908 -15.084  1.00  0.00     0.234 C 
HETATM   17  N7  UNL     1      -6.295   8.805 -14.686  1.00  0.00    -0.073 N 
ATOM     18  H71 UNL     1      -6.562   9.605 -14.113  1.00  0.00     0.277 HD
ATOM     19  H72 UNL     1      -6.414   8.056 -14.004  1.00  0.00     0.277 HD
HETATM   20  C16 UNL     1      -7.207   8.641 -15.772  1.00  0.00     0.259 C 
HETATM   21  C17 UNL     1      -8.451   9.456 -15.676  1.00  0.00     0.259 C 
HETATM   22  N8  UNL     1      -8.536  10.283 -14.509  1.00  0.00    -0.072 N 
ATOM     23  H81 UNL     1      -7.686  10.258 -13.945  1.00  0.00     0.277 HD
ATOM     24  H82 UNL     1      -9.177   9.912 -13.808  1.00  0.00     0.277 HD
HETATM   25  C18 UNL     1      -8.887  11.628 -14.935  1.00  0.00     0.259 C 
HETATM   26  C19 UNL     1      -7.666  12.414 -15.370  1.00  0.00     0.259 C 
HETATM   27  N9  UNL     1      -7.051  13.147 -14.312  1.00  0.00    -0.072 N 
ATOM     28  H91 UNL     1      -6.117  12.785 -14.122  1.00  0.00     0.277 HD
ATOM     29  H92 UNL     1      -7.503  12.936 -13.422  1.00  0.00     0.277 HD
HETATM   30  C20 UNL     1      -7.005  14.561 -14.528  1.00  0.00     0.252 C 
HETATM   31  C21 UNL     1      -6.166  14.881 -15.742  1.00  0.00     0.153 C 
ENDROOT
BRANCH   1  32
HETATM   32  C7  UNL     1      -4.313  18.118 -14.872  1.00  0.00     0.227 C 
BRANCH  32  33
HETATM   33  N3  UNL     1      -4.715  19.490 -14.882  1.00  0.00    -0.334 N 
HETATM   34  C6  UNL     1      -4.117  20.461 -14.041  1.00  0.00     0.320 C 
HETATM   35  N2  UNL     1      -4.536  21.841 -14.076  1.00  0.00    -0.306 N 
HETATM   36  O1  UNL     1      -3.206  20.082 -13.259  1.00  0.00    -0.247 OA
HETATM   37  C1  UNL     1      -5.580  22.196 -14.992  1.00  0.00     0.287 C 
HETATM   38  C5  UNL     1      -3.874  22.750 -13.191  1.00  0.00     0.130 C 
HETATM   39  C2  UNL     1      -5.678  23.694 -15.157  1.00  0.00     0.054 C 
HETATM   40  C3  UNL     1      -4.262  24.232 -15.172  1.00  0.00     0.005 C 
HETATM   41  C4  UNL     1      -3.742  24.140 -13.756  1.00  0.00     0.020 C 
ATOM     42  H3  UNL     1      -5.458  19.781 -15.517  1.00  0.00     0.164 HD
BRANCH  37  43
HETATM   43  N1  UNL     1      -6.886  21.736 -14.560  1.00  0.00    -0.058 N 
ATOM     44  H13 UNL     1      -7.634  21.987 -15.205  1.00  0.00     0.276 HD
ATOM     45  H12 UNL     1      -6.997  20.723 -14.623  1.00  0.00     0.276 HD
ATOM     46  H11 UNL     1      -7.029  22.098 -13.618  1.00  0.00     0.276 HD
ENDBRANCH  37  43
ENDBRANCH  32  33
ENDBRANCH   1  32
TORSDOF 3
ENDMDL
MODEL 3
REMARK VINA RESULT: -7.977819478      3.254      4.627
REMARK  3 active torsions:
REMARK  status: ('A' for Active; 'I' for Inactive)
REMARK    1  A    between atoms: N1_1  and  C1_5 
REMARK       I    between atoms: N2_10  and  C6_11 
REMARK       I    between atoms: C6_11  and  N3_13 
REMARK    2  A    between atoms: N3_13  and  C7_15 
REMARK    3  A    between atoms: C7_15  and  C8_16 
REMARK       I    between atoms: C8_16  and  N4_18 
ROOT
HETATM    1  C8  UNL     1      -9.071  14.788 -16.176  1.00  0.00     0.237 C 
HETATM    2  O2  UNL     1      -9.789  14.759 -17.198  1.00  0.00    -0.272 OA
HETATM    3  N4  UNL     1      -8.140  13.752 -15.941  1.00  0.00    -0.348 N 
HETATM    4  C9  UNL     1      -7.318  13.777 -14.768  1.00  0.00     0.153 C 
HETATM    5  C10 UNL     1      -7.900  12.962 -13.634  1.00  0.00     0.252 C 
HETATM    6  N5  UNL     1      -6.849  12.618 -12.693  1.00  0.00    -0.072 N 
ATOM      7  H51 UNL     1      -6.888  13.213 -11.865  1.00  0.00     0.277 HD
ATOM      8  H52 UNL     1      -5.933  12.893 -13.049  1.00  0.00     0.277 HD
HETATM    9  C11 UNL     1      -6.867  11.228 -12.332  1.00  0.00     0.259 C 
HETATM   10  C12 UNL     1      -5.535  10.632 -12.689  1.00  0.00     0.259 C 
HETATM   11  N6  UNL     1      -5.373   9.291 -12.218  1.00  0.00    -0.073 N 
ATOM     12  H61 UNL     1      -5.525   9.247 -11.210  1.00  0.00     0.277 HD
ATOM     13  H62 UNL     1      -4.391   9.017 -12.259  1.00  0.00     0.277 HD
HETATM   14  C13 UNL     1      -6.188   8.325 -12.888  1.00  0.00     0.234 C 
HETATM   15  C14 UNL     1      -5.292   7.305 -13.550  1.00  0.00     0.055 C 
HETATM   16  C15 UNL     1      -5.035   7.658 -15.006  1.00  0.00     0.234 C 
HETATM   17  N7  UNL     1      -5.994   6.947 -15.806  1.00  0.00    -0.073 N 
ATOM     18  H71 UNL     1      -6.917   7.373 -15.720  1.00  0.00     0.277 HD
ATOM     19  H72 UNL     1      -6.188   6.031 -15.401  1.00  0.00     0.277 HD
HETATM   20  C16 UNL     1      -5.630   6.818 -17.180  1.00  0.00     0.259 C 
HETATM   21  C17 UNL     1      -6.737   7.056 -18.149  1.00  0.00     0.259 C 
HETATM   22  N8  UNL     1      -7.997   7.385 -17.550  1.00  0.00    -0.072 N 
ATOM     23  H81 UNL     1      -7.936   7.490 -16.537  1.00  0.00     0.277 HD
ATOM     24  H82 UNL     1      -8.657   6.607 -17.568  1.00  0.00     0.277 HD
HETATM   25  C18 UNL     1      -8.512   8.574 -18.208  1.00  0.00     0.259 C 
HETATM   26  C19 UNL     1      -7.930   9.840 -17.612  1.00  0.00     0.259 C 
HETATM   27  N9  UNL     1      -8.699  10.371 -16.534  1.00  0.00    -0.072 N 
ATOM     28  H91 UNL     1      -8.169  10.329 -15.663  1.00  0.00     0.277 HD
ATOM     29  H92 UNL     1      -9.467   9.744 -16.301  1.00  0.00     0.277 HD
HETATM   30  C20 UNL     1      -9.186  11.698 -16.760  1.00  0.00     0.252 C 
HETATM   31  C21 UNL     1      -8.034  12.663 -16.909  1.00  0.00     0.153 C 
ENDROOT
BRANCH   1  32
HETATM   32  C7  UNL     1      -9.193  15.898 -15.218  1.00  0.00     0.227 C 
BRANCH  32  33
HETATM   33  N3  UNL     1      -8.138  16.861 -15.296  1.00  0.00    -0.334 N 
HETATM   34  C6  UNL     1      -8.321  18.139 -15.878  1.00  0.00     0.320 C 
HETATM   35  N2  UNL     1      -7.241  19.095 -15.937  1.00  0.00    -0.306 N 
HETATM   36  O1  UNL     1      -9.457  18.417 -16.344  1.00  0.00    -0.247 OA
HETATM   37  C1  UNL     1      -5.977  18.705 -15.386  1.00  0.00     0.287 C 
HETATM   38  C5  UNL     1      -7.520  20.361 -16.543  1.00  0.00     0.130 C 
HETATM   39  C2  UNL     1      -5.063  19.896 -15.218  1.00  0.00     0.054 C 
HETATM   40  C3  UNL     1      -5.920  21.050 -14.743  1.00  0.00     0.005 C 
HETATM   41  C4  UNL     1      -6.749  21.499 -15.926  1.00  0.00     0.020 C 
ATOM     42  H3  UNL     1      -7.222  16.619 -14.919  1.00  0.00     0.164 HD
BRANCH  37  43
HETATM   43  N1  UNL     1      -5.272  17.750 -16.220  1.00  0.00    -0.058 N 
ATOM     44  H13 UNL     1      -4.475  18.155 -16.709  1.00  0.00     0.276 HD
ATOM     45  H12 UNL     1      -4.754  17.054 -15.684  1.00  0.00     0.276 HD
ATOM     46  H11 UNL     1      -5.964  17.341 -16.848  1.00  0.00     0.276 HD
ENDBRANCH  37  43
ENDBRANCH  32  33
ENDBRANCH   1  32
TORSDOF 3
ENDMDL
MODEL 4
REMARK VINA RESULT: -7.916337757      1.703      4.076
REMARK  3 active torsions:
REMARK  status: ('A' for Active; 'I' for Inactive)
REMARK    1  A    between atoms: N1_1  and  C1_5 
REMARK       I    between atoms: N2_10  and  C6_11 
REMARK       I    between atoms: C6_11  and  N3_13 
REMARK    2  A    between atoms: N3_13  and  C7_15 
REMARK    3  A    between atoms: C7_15  and  C8_16 
REMARK       I    between atoms: C8_16  and  N4_18 
ROOT
HETATM    1  C8  UNL     1      -5.537  16.668 -15.485  1.00  0.00     0.237 C 
HETATM    2  O2  UNL     1      -4.692  17.015 -16.337  1.00  0.00    -0.272 OA
HETATM    3  N4  UNL     1      -5.359  15.465 -14.766  1.00  0.00    -0.348 N 
HETATM    4  C9  UNL     1      -6.327  15.059 -13.792  1.00  0.00     0.153 C 
HETATM    5  C10 UNL     1      -7.352  14.099 -14.356  1.00  0.00     0.252 C 
HETATM    6  N5  UNL     1      -7.974  13.361 -13.272  1.00  0.00    -0.072 N 
ATOM      7  H51 UNL     1      -8.902  13.729 -13.062  1.00  0.00     0.277 HD
ATOM      8  H52 UNL     1      -7.515  13.557 -12.382  1.00  0.00     0.277 HD
HETATM    9  C11 UNL     1      -8.026  11.947 -13.526  1.00  0.00     0.259 C 
HETATM   10  C12 UNL     1      -7.298  11.243 -12.418  1.00  0.00     0.259 C 
HETATM   11  N6  UNL     1      -7.429   9.820 -12.471  1.00  0.00    -0.073 N 
ATOM     12  H61 UNL     1      -8.414   9.554 -12.477  1.00  0.00     0.277 HD
ATOM     13  H62 UNL     1      -7.141   9.403 -11.586  1.00  0.00     0.277 HD
HETATM   14  C13 UNL     1      -6.739   9.201 -13.562  1.00  0.00     0.234 C 
HETATM   15  C14 UNL     1      -5.713   8.242 -13.008  1.00  0.00     0.055 C 
HETATM   16  C15 UNL     1      -4.345   8.895 -12.903  1.00  0.00     0.234 C 
HETATM   17  N7  UNL     1      -3.613   8.577 -14.099  1.00  0.00    -0.073 N 
ATOM     18  H71 UNL     1      -3.966   9.118 -14.888  1.00  0.00     0.277 HD
ATOM     19  H72 UNL     1      -3.842   7.636 -14.417  1.00  0.00     0.277 HD
HETATM   20  C16 UNL     1      -2.199   8.733 -13.978  1.00  0.00     0.259 C 
HETATM   21  C17 UNL     1      -1.538   9.388 -15.143  1.00  0.00     0.259 C 
HETATM   22  N8  UNL     1      -2.427   9.765 -16.202  1.00  0.00    -0.072 N 
ATOM     23  H81 UNL     1      -3.407   9.604 -15.970  1.00  0.00     0.277 HD
ATOM     24  H82 UNL     1      -2.371   9.139 -17.005  1.00  0.00     0.277 HD
HETATM   25  C18 UNL     1      -2.151  11.150 -16.549  1.00  0.00     0.259 C 
HETATM   26  C19 UNL     1      -2.880  12.112 -15.632  1.00  0.00     0.259 C 
HETATM   27  N9  UNL     1      -4.176  12.481 -16.103  1.00  0.00    -0.072 N 
ATOM     28  H91 UNL     1      -4.897  12.135 -15.470  1.00  0.00     0.277 HD
ATOM     29  H92 UNL     1      -4.414  11.954 -16.943  1.00  0.00     0.277 HD
HETATM   30  C20 UNL     1      -4.338  13.884 -16.329  1.00  0.00     0.252 C 
HETATM   31  C21 UNL     1      -4.179  14.648 -15.037  1.00  0.00     0.153 C 
ENDROOT
BRANCH   1  32
HETATM   32  C7  UNL     1      -6.716  17.510 -15.226  1.00  0.00     0.227 C 
BRANCH  32  33
HETATM   33  N3  UNL     1      -6.410  18.872 -14.914  1.00  0.00    -0.334 N 
HETATM   34  C6  UNL     1      -7.050  19.960 -15.559  1.00  0.00     0.320 C 
HETATM   35  N2  UNL     1      -6.728  21.324 -15.219  1.00  0.00    -0.306 N 
HETATM   36  O1  UNL     1      -7.911  19.698 -16.439  1.00  0.00    -0.247 OA
HETATM   37  C1  UNL     1      -5.737  21.542 -14.207  1.00  0.00     0.287 C 
HETATM   38  C5  UNL     1      -7.426  22.356 -15.922  1.00  0.00     0.130 C 
HETATM   39  C2  UNL     1      -5.747  22.975 -13.730  1.00  0.00     0.054 C 
HETATM   40  C3  UNL     1      -7.196  23.410 -13.661  1.00  0.00     0.005 C 
HETATM   41  C4  UNL     1      -7.670  23.586 -15.086  1.00  0.00     0.020 C 
ATOM     42  H3  UNL     1      -5.707  19.068 -14.202  1.00  0.00     0.164 HD
BRANCH  37  43
HETATM   43  N1  UNL     1      -4.391  21.264 -14.671  1.00  0.00    -0.058 N 
ATOM     44  H13 UNL     1      -4.034  20.363 -14.354  1.00  0.00     0.276 HD
ATOM     45  H12 UNL     1      -4.341  21.076 -15.673  1.00  0.00     0.276 HD
ATOM     46  H11 UNL     1      -3.811  22.050 -14.380  1.00  0.00     0.276 HD
ENDBRANCH  37  43
ENDBRANCH  32  33
ENDBRANCH   1  32
TORSDOF 3
ENDMDL
MODEL 5
REMARK VINA RESULT: -7.835658844      4.933      6.849
REMARK  3 active torsions:
REMARK  status: ('A' for Active; 'I' for Inactive)
REMARK    1  A    between atoms: N1_1  and  C1_5 
REMARK       I    between atoms: N2_10  and  C6_11 
REMARK       I    between atoms: C6_11  and  N3_13 
REMARK    2  A    between atoms: N3_13  and  C7_15 
REMARK    3  A    between atoms: C7_15  and  C8_16 
REMARK       I    between atoms: C8_16  and  N4_18 
ROOT
HETATM    1  C8  UNL     1      -7.867  16.536 -15.459  1.00  0.00     0.237 C 
HETATM    2  O2  UNL     1      -6.679  16.227 -15.222  1.00  0.00    -0.272 OA
HETATM    3  N4  UNL     1      -8.835  15.523 -15.639  1.00  0.00    -0.348 N 
HETATM    4  C9  UNL     1     -10.197  15.871 -15.916  1.00  0.00     0.153 C 
HETATM    5  C10 UNL     1     -10.507  15.868 -17.397  1.00  0.00     0.252 C 
HETATM    6  N5  UNL     1     -11.940  15.737 -17.593  1.00  0.00    -0.072 N 
ATOM      7  H51 UNL     1     -12.362  16.635 -17.828  1.00  0.00     0.277 HD
ATOM      8  H52 UNL     1     -12.416  15.558 -16.709  1.00  0.00     0.277 HD
HETATM    9  C11 UNL     1     -12.271  14.737 -18.571  1.00  0.00     0.259 C 
HETATM   10  C12 UNL     1     -13.152  13.713 -17.916  1.00  0.00     0.259 C 
HETATM   11  N6  UNL     1     -13.688  12.758 -18.836  1.00  0.00    -0.073 N 
ATOM     12  H61 UNL     1     -14.189  13.232 -19.588  1.00  0.00     0.277 HD
ATOM     13  H62 UNL     1     -14.459  12.246 -18.408  1.00  0.00     0.277 HD
HETATM   14  C13 UNL     1     -12.724  11.848 -19.375  1.00  0.00     0.234 C 
HETATM   15  C14 UNL     1     -13.114  10.441 -18.993  1.00  0.00     0.055 C 
HETATM   16  C15 UNL     1     -12.393   9.990 -17.733  1.00  0.00     0.234 C 
HETATM   17  N7  UNL     1     -11.213   9.274 -18.135  1.00  0.00    -0.073 N 
ATOM     18  H71 UNL     1     -10.503   9.920 -18.478  1.00  0.00     0.277 HD
ATOM     19  H72 UNL     1     -11.391   8.742 -18.987  1.00  0.00     0.277 HD
HETATM   20  C16 UNL     1     -10.670   8.427 -17.122  1.00  0.00     0.259 C 
HETATM   21  C17 UNL     1      -9.185   8.472 -16.995  1.00  0.00     0.259 C 
HETATM   22  N8  UNL     1      -8.533   9.365 -17.906  1.00  0.00    -0.072 N 
ATOM     23  H81 UNL     1      -9.192   9.910 -18.463  1.00  0.00     0.277 HD
ATOM     24  H82 UNL     1      -8.074   8.877 -18.675  1.00  0.00     0.277 HD
HETATM   25  C18 UNL     1      -7.619  10.199 -17.143  1.00  0.00     0.259 C 
HETATM   26  C19 UNL     1      -8.328  11.389 -16.527  1.00  0.00     0.259 C 
HETATM   27  N9  UNL     1      -8.336  12.545 -17.363  1.00  0.00    -0.072 N 
ATOM     28  H91 UNL     1      -9.289  12.774 -17.647  1.00  0.00     0.277 HD
ATOM     29  H92 UNL     1      -7.931  12.330 -18.274  1.00  0.00     0.277 HD
HETATM   30  C20 UNL     1      -7.696  13.688 -16.788  1.00  0.00     0.252 C 
HETATM   31  C21 UNL     1      -8.423  14.125 -15.538  1.00  0.00     0.153 C 
ENDROOT
BRANCH   1  32
HETATM   32  C7  UNL     1      -8.259  17.951 -15.551  1.00  0.00     0.227 C 
BRANCH  32  33
HETATM   33  N3  UNL     1      -7.238  18.871 -15.153  1.00  0.00    -0.334 N 
HETATM   34  C6  UNL     1      -7.209  20.213 -15.609  1.00  0.00     0.320 C 
HETATM   35  N2  UNL     1      -6.172  21.123 -15.186  1.00  0.00    -0.306 N 
HETATM   36  O1  UNL     1      -8.118  20.588 -16.395  1.00  0.00    -0.247 OA
HETATM   37  C1  UNL     1      -5.172  20.622 -14.290  1.00  0.00     0.287 C 
HETATM   38  C5  UNL     1      -6.225  22.458 -15.697  1.00  0.00     0.130 C 
HETATM   39  C2  UNL     1      -4.367  21.747 -13.684  1.00  0.00     0.054 C 
HETATM   40  C3  UNL     1      -5.333  22.878 -13.394  1.00  0.00     0.005 C 
HETATM   41  C4  UNL     1      -5.707  23.488 -14.726  1.00  0.00     0.020 C 
ATOM     42  H3  UNL     1      -6.506  18.551 -14.520  1.00  0.00     0.164 HD
BRANCH  37  43
HETATM   43  N1  UNL     1      -4.227  19.736 -14.943  1.00  0.00    -0.058 N 
ATOM     44  H13 UNL     1      -4.477  19.522 -15.908  1.00  0.00     0.276 HD
ATOM     45  H12 UNL     1      -3.329  20.178 -15.137  1.00  0.00     0.276 HD
ATOM     46  H11 UNL     1      -4.148  18.906 -14.355  1.00  0.00     0.276 HD
ENDBRANCH  37  43
ENDBRANCH  32  33
ENDBRANCH   1  32
TORSDOF 3
ENDMDL
