MODEL 1
REMARK VINA RESULT: -6.930729461      0.000      0.000
REMARK  2 active torsions:
REMARK  status: ('A' for Active; 'I' for Inactive)
REMARK       I    between atoms: C2_2  and  N1_4 
REMARK    1  A    between atoms: N1_4  and  C3_6 
REMARK    2  A    between atoms: C7_12  and  C8_13 
REMARK       I    between atoms: C8_13  and  N3_15 
ROOT
HETATM    1  C8  UNL     1      -4.496  15.959 -15.787  1.00  0.00     0.253 C 
HETATM    2  O2  UNL     1      -4.528  16.361 -16.984  1.00  0.00    -0.270 OA
HETATM    3  N3  UNL     1      -3.433  15.143 -15.335  1.00  0.00    -0.348 N 
HETATM    4  C9  UNL     1      -2.373  14.778 -16.244  1.00  0.00     0.127 C 
HETATM    5  C10 UNL     1      -2.906  14.173 -17.524  1.00  0.00     0.047 C 
HETATM    6  C11 UNL     1      -2.203  12.878 -17.869  1.00  0.00     0.234 C 
HETATM    7  N4  UNL     1      -0.786  13.029 -17.988  1.00  0.00    -0.075 N 
ATOM      8  H41 UNL     1      -0.328  12.981 -17.078  1.00  0.00     0.277 HD
ATOM      9  H42 UNL     1      -0.531  13.984 -18.242  1.00  0.00     0.277 HD
HETATM   10  C12 UNL     1      -0.228  12.068 -18.914  1.00  0.00     0.233 C 
HETATM   11  C13 UNL     1       0.624  11.077 -18.137  1.00  0.00     0.055 C 
HETATM   12  C14 UNL     1       0.057   9.681 -18.172  1.00  0.00     0.234 C 
HETATM   13  N5  UNL     1      -0.906   9.520 -17.119  1.00  0.00    -0.073 N 
ATOM     14  H51 UNL     1      -1.799   9.205 -17.499  1.00  0.00     0.277 HD
ATOM     15  H52 UNL     1      -1.184  10.430 -16.750  1.00  0.00     0.277 HD
HETATM   16  C15 UNL     1      -0.489   8.660 -16.056  1.00  0.00     0.259 C 
HETATM   17  C16 UNL     1      -0.246   9.454 -14.774  1.00  0.00     0.259 C 
HETATM   18  N6  UNL     1      -1.477  10.160 -14.490  1.00  0.00    -0.072 N 
ATOM     19  H61 UNL     1      -2.273   9.521 -14.482  1.00  0.00     0.277 HD
ATOM     20  H62 UNL     1      -1.750  10.752 -15.275  1.00  0.00     0.277 HD
HETATM   21  C17 UNL     1      -1.409  10.920 -13.266  1.00  0.00     0.251 C 
HETATM   22  C18 UNL     1      -0.683  12.201 -13.386  1.00  0.00     0.141 C 
HETATM   23  N7  UNL     1      -1.438  13.391 -13.303  1.00  0.00    -0.418 N 
ATOM     24  H7  UNL     1      -1.045  14.254 -12.926  1.00  0.00     0.153 HD
HETATM   25  C19 UNL     1      -2.795  13.319 -13.782  1.00  0.00     0.133 C 
HETATM   26  C20 UNL     1      -3.407  14.678 -13.989  1.00  0.00     0.145 C 
ENDROOT
BRANCH   1  27
HETATM   27  C7  UNL     1      -5.617  16.383 -14.902  1.00  0.00     0.246 C 
HETATM   28  C6  UNL     1      -6.458  17.411 -15.403  1.00  0.00    -0.129 C 
HETATM   29  C5  UNL     1      -7.078  18.575 -15.820  1.00  0.00     0.202 C 
HETATM   30  N2  UNL     1      -8.509  18.243 -16.099  1.00  0.00    -0.390 N 
HETATM   31  C4  UNL     1      -9.142  17.335 -15.233  1.00  0.00     0.091 C 
ATOM     32  H2  UNL     1      -9.006  18.659 -16.887  1.00  0.00     0.159 HD
HETATM   33  C3  UNL     1      -9.108  15.867 -15.377  1.00  0.00     0.215 C 
HETATM   34  C21 UNL     1      -7.947  15.092 -14.890  1.00  0.00     0.246 C 
HETATM   35  N8  UNL     1      -6.526  15.197 -14.678  1.00  0.00    -0.337 N 
HETATM   36  O3  UNL     1      -8.291  13.911 -14.522  1.00  0.00    -0.271 OA
ATOM     37  H8  UNL     1      -6.070  14.354 -14.328  1.00  0.00     0.164 HD
BRANCH  33  38
HETATM   38  N1  UNL     1      -9.527  15.458 -16.714  1.00  0.00    -0.344 N 
HETATM   39  C2  UNL     1     -10.819  15.088 -17.076  1.00  0.00     0.214 C 
HETATM   40  C1  UNL     1     -11.125  14.691 -18.464  1.00  0.00     0.117 C 
HETATM   41  O1  UNL     1     -11.736  15.085 -16.226  1.00  0.00    -0.274 OA
ATOM     42  H1  UNL     1      -8.814  15.443 -17.444  1.00  0.00     0.163 HD
ENDBRANCH  33  38
ENDBRANCH   1  27
TORSDOF 2
ENDMDL
MODEL 2
REMARK VINA RESULT: -6.615297831      1.841      2.607
REMARK  2 active torsions:
REMARK  status: ('A' for Active; 'I' for Inactive)
REMARK       I    between atoms: C2_2  and  N1_4 
REMARK    1  A    between atoms: N1_4  and  C3_6 
REMARK    2  A    between atoms: C7_12  and  C8_13 
REMARK       I    between atoms: C8_13  and  N3_15 
ROOT
HETATM    1  C8  UNL     1      -6.295  16.058 -15.105  1.00  0.00     0.253 C 
HETATM    2  O2  UNL     1      -6.204  17.092 -15.826  1.00  0.00    -0.270 OA
HETATM    3  N3  UNL     1      -5.130  15.388 -14.664  1.00  0.00    -0.348 N 
HETATM    4  C9  UNL     1      -3.830  15.896 -15.029  1.00  0.00     0.127 C 
HETATM    5  C10 UNL     1      -3.701  16.108 -16.520  1.00  0.00     0.047 C 
HETATM    6  C11 UNL     1      -2.435  15.488 -17.069  1.00  0.00     0.234 C 
HETATM    7  N4  UNL     1      -1.253  15.979 -16.432  1.00  0.00    -0.075 N 
ATOM      8  H41 UNL     1      -1.064  15.482 -15.562  1.00  0.00     0.277 HD
ATOM      9  H42 UNL     1      -1.395  16.915 -16.051  1.00  0.00     0.277 HD
HETATM   10  C12 UNL     1      -0.116  15.937 -17.324  1.00  0.00     0.233 C 
HETATM   11  C13 UNL     1       0.864  14.890 -16.820  1.00  0.00     0.055 C 
HETATM   12  C14 UNL     1       1.006  13.729 -17.771  1.00  0.00     0.234 C 
HETATM   13  N5  UNL     1      -0.014  12.754 -17.504  1.00  0.00    -0.073 N 
ATOM     14  H51 UNL     1      -0.548  12.557 -18.351  1.00  0.00     0.277 HD
ATOM     15  H52 UNL     1      -0.749  13.159 -16.924  1.00  0.00     0.277 HD
HETATM   16  C15 UNL     1       0.462  11.538 -16.923  1.00  0.00     0.259 C 
HETATM   17  C16 UNL     1      -0.001  11.405 -15.474  1.00  0.00     0.259 C 
HETATM   18  N6  UNL     1      -1.445  11.503 -15.495  1.00  0.00    -0.072 N 
ATOM     19  H61 UNL     1      -1.848  10.843 -16.160  1.00  0.00     0.277 HD
ATOM     20  H62 UNL     1      -1.747  12.376 -15.927  1.00  0.00     0.277 HD
HETATM   21  C17 UNL     1      -2.028  11.343 -14.185  1.00  0.00     0.251 C 
HETATM   22  C18 UNL     1      -1.943  12.545 -13.331  1.00  0.00     0.141 C 
HETATM   23  N7  UNL     1      -3.142  13.237 -13.053  1.00  0.00    -0.418 N 
ATOM     24  H7  UNL     1      -3.281  13.745 -12.179  1.00  0.00     0.153 HD
HETATM   25  C19 UNL     1      -4.159  13.185 -14.073  1.00  0.00     0.133 C 
HETATM   26  C20 UNL     1      -5.238  14.215 -13.865  1.00  0.00     0.145 C 
ENDROOT
BRANCH   1  27
HETATM   27  C7  UNL     1      -7.669  15.597 -14.760  1.00  0.00     0.246 C 
HETATM   28  C6  UNL     1      -8.740  16.372 -15.274  1.00  0.00    -0.129 C 
HETATM   29  C5  UNL     1      -9.723  17.296 -15.577  1.00  0.00     0.202 C 
HETATM   30  N2  UNL     1     -10.645  16.659 -16.568  1.00  0.00    -0.390 N 
HETATM   31  C4  UNL     1     -10.937  15.296 -16.394  1.00  0.00     0.091 C 
ATOM     32  H2  UNL     1     -11.045  17.194 -17.340  1.00  0.00     0.159 HD
HETATM   33  C3  UNL     1     -10.123  14.183 -16.919  1.00  0.00     0.215 C 
HETATM   34  C21 UNL     1      -8.915  13.731 -16.196  1.00  0.00     0.246 C 
HETATM   35  N8  UNL     1      -7.868  14.212 -15.331  1.00  0.00    -0.337 N 
HETATM   36  O3  UNL     1      -8.695  12.480 -16.384  1.00  0.00    -0.271 OA
ATOM     37  H8  UNL     1      -7.163  13.523 -15.067  1.00  0.00     0.164 HD
BRANCH  33  38
HETATM   38  N1  UNL     1      -9.888  14.332 -18.352  1.00  0.00    -0.344 N 
HETATM   39  C2  UNL     1     -10.663  13.764 -19.359  1.00  0.00     0.214 C 
HETATM   40  C1  UNL     1     -10.328  13.985 -20.779  1.00  0.00     0.117 C 
HETATM   41  O1  UNL     1     -11.654  13.058 -19.070  1.00  0.00    -0.274 OA
ATOM     42  H1  UNL     1      -9.090  14.900 -18.639  1.00  0.00     0.163 HD
ENDBRANCH  33  38
ENDBRANCH   1  27
TORSDOF 2
ENDMDL
MODEL 3
REMARK VINA RESULT: -6.592347513      3.360      5.106
REMARK  2 active torsions:
REMARK  status: ('A' for Active; 'I' for Inactive)
REMARK       I    between atoms: C2_2  and  N1_4 
REMARK    1  A    between atoms: N1_4  and  C3_6 
REMARK    2  A    between atoms: C7_12  and  C8_13 
REMARK       I    between atoms: C8_13  and  N3_15 
ROOT
HETATM    1  C8  UNL     1      -3.714  13.114 -13.929  1.00  0.00     0.253 C 
HETATM    2  O2  UNL     1      -2.930  14.084 -13.735  1.00  0.00    -0.270 OA
HETATM    3  N3  UNL     1      -3.496  11.876 -13.280  1.00  0.00    -0.348 N 
HETATM    4  C9  UNL     1      -2.376  11.726 -12.382  1.00  0.00     0.127 C 
HETATM    5  C10 UNL     1      -1.073  12.145 -13.024  1.00  0.00     0.047 C 
HETATM    6  C11 UNL     1       0.007  11.102 -12.839  1.00  0.00     0.234 C 
HETATM    7  N4  UNL     1       0.251  10.791 -11.465  1.00  0.00    -0.075 N 
ATOM      8  H41 UNL     1      -0.412  10.100 -11.115  1.00  0.00     0.277 HD
ATOM      9  H42 UNL     1       0.003  11.571 -10.855  1.00  0.00     0.277 HD
HETATM   10  C12 UNL     1       1.618  10.369 -11.254  1.00  0.00     0.233 C 
HETATM   11  C13 UNL     1       1.624   8.893 -10.886  1.00  0.00     0.055 C 
HETATM   12  C14 UNL     1       2.297   8.043 -11.932  1.00  0.00     0.234 C 
HETATM   13  N5  UNL     1       1.348   7.679 -12.948  1.00  0.00    -0.073 N 
ATOM     14  H51 UNL     1       1.690   7.955 -13.868  1.00  0.00     0.277 HD
ATOM     15  H52 UNL     1       0.518   8.269 -12.885  1.00  0.00     0.277 HD
HETATM   16  C15 UNL     1       0.976   6.299 -12.950  1.00  0.00     0.259 C 
HETATM   17  C16 UNL     1      -0.474   6.123 -12.505  1.00  0.00     0.259 C 
HETATM   18  N6  UNL     1      -1.277   6.933 -13.396  1.00  0.00    -0.072 N 
ATOM     19  H61 UNL     1      -1.074   6.717 -14.372  1.00  0.00     0.277 HD
ATOM     20  H62 UNL     1      -0.975   7.907 -13.378  1.00  0.00     0.277 HD
HETATM   21  C17 UNL     1      -2.689   6.823 -13.122  1.00  0.00     0.251 C 
HETATM   22  C18 UNL     1      -3.146   7.615 -11.962  1.00  0.00     0.141 C 
HETATM   23  N7  UNL     1      -3.960   8.741 -12.218  1.00  0.00    -0.418 N 
ATOM     24  H7  UNL     1      -4.666   9.058 -11.553  1.00  0.00     0.153 HD
HETATM   25  C19 UNL     1      -3.736   9.416 -13.471  1.00  0.00     0.133 C 
HETATM   26  C20 UNL     1      -4.373  10.779 -13.513  1.00  0.00     0.145 C 
ENDROOT
BRANCH   1  27
HETATM   27  C7  UNL     1      -4.854  13.344 -14.861  1.00  0.00     0.246 C 
HETATM   28  C6  UNL     1      -6.033  13.888 -14.289  1.00  0.00    -0.129 C 
HETATM   29  C5  UNL     1      -7.223  14.171 -13.644  1.00  0.00     0.202 C 
HETATM   30  N2  UNL     1      -7.657  15.533 -14.083  1.00  0.00    -0.390 N 
HETATM   31  C4  UNL     1      -7.445  15.875 -15.429  1.00  0.00     0.091 C 
ATOM     32  H2  UNL     1      -8.090  16.188 -13.431  1.00  0.00     0.159 HD
HETATM   33  C3  UNL     1      -6.197  16.450 -15.968  1.00  0.00     0.215 C 
HETATM   34  C21 UNL     1      -5.049  15.578 -16.298  1.00  0.00     0.246 C 
HETATM   35  N8  UNL     1      -4.421  14.340 -15.911  1.00  0.00    -0.337 N 
HETATM   36  O3  UNL     1      -4.350  16.064 -17.259  1.00  0.00    -0.271 OA
ATOM     37  H8  UNL     1      -3.567  14.104 -16.415  1.00  0.00     0.164 HD
BRANCH  33  38
HETATM   38  N1  UNL     1      -5.795  17.635 -15.217  1.00  0.00    -0.344 N 
HETATM   39  C2  UNL     1      -5.815  18.940 -15.698  1.00  0.00     0.214 C 
HETATM   40  C1  UNL     1      -5.383  20.063 -14.843  1.00  0.00     0.117 C 
HETATM   41  O1  UNL     1      -6.199  19.177 -16.865  1.00  0.00    -0.274 OA
ATOM     42  H1  UNL     1      -5.473  17.494 -14.258  1.00  0.00     0.163 HD
ENDBRANCH  33  38
ENDBRANCH   1  27
TORSDOF 2
ENDMDL
MODEL 4
REMARK VINA RESULT: -6.413929041      1.952      2.433
REMARK  2 active torsions:
REMARK  status: ('A' for Active; 'I' for Inactive)
REMARK       I    between atoms: C2_2  and  N1_4 
REMARK    1  A    between atoms: N1_4  and  C3_6 
REMARK    2  A    between atoms: C7_12  and  C8_13 
REMARK       I    between atoms: C8_13  and  N3_15 
ROOT
HETATM    1  C8  UNL     1      -6.391  14.847 -15.076  1.00  0.00     0.253 C 
HETATM    2  O2  UNL     1      -6.062  15.674 -15.972  1.00  0.00    -0.270 OA
HETATM    3  N3  UNL     1      -5.403  14.094 -14.400  1.00  0.00    -0.348 N 
HETATM    4  C9  UNL     1      -4.010  14.281 -14.729  1.00  0.00     0.127 C 
HETATM    5  C10 UNL     1      -3.754  14.149 -16.213  1.00  0.00     0.047 C 
HETATM    6  C11 UNL     1      -2.598  13.217 -16.504  1.00  0.00     0.234 C 
HETATM    7  N4  UNL     1      -1.384  13.620 -15.863  1.00  0.00    -0.075 N 
ATOM      8  H41 UNL     1      -1.345  13.292 -14.898  1.00  0.00     0.277 HD
ATOM      9  H42 UNL     1      -1.369  14.625 -15.689  1.00  0.00     0.277 HD
HETATM   10  C12 UNL     1      -0.224  13.195 -16.614  1.00  0.00     0.233 C 
HETATM   11  C13 UNL     1       0.508  12.124 -15.821  1.00  0.00     0.055 C 
HETATM   12  C14 UNL     1       0.485  10.783 -16.508  1.00  0.00     0.234 C 
HETATM   13  N5  UNL     1      -0.716  10.077 -16.156  1.00  0.00    -0.073 N 
ATOM     14  H51 UNL     1      -1.225   9.801 -16.996  1.00  0.00     0.277 HD
ATOM     15  H52 UNL     1      -1.394  10.716 -15.741  1.00  0.00     0.277 HD
HETATM   16  C15 UNL     1      -0.514   8.947 -15.305  1.00  0.00     0.259 C 
HETATM   17  C16 UNL     1      -1.080   9.205 -13.910  1.00  0.00     0.259 C 
HETATM   18  N6  UNL     1      -2.475   9.544 -14.090  1.00  0.00    -0.072 N 
ATOM     19  H61 UNL     1      -2.955   8.839 -14.649  1.00  0.00     0.277 HD
ATOM     20  H62 UNL     1      -2.581  10.345 -14.713  1.00  0.00     0.277 HD
HETATM   21  C17 UNL     1      -3.156   9.767 -12.838  1.00  0.00     0.251 C 
HETATM   22  C18 UNL     1      -2.897  11.088 -12.232  1.00  0.00     0.141 C 
HETATM   23  N7  UNL     1      -3.958  12.020 -12.213  1.00  0.00    -0.418 N 
ATOM     24  H7  UNL     1      -4.050  12.717 -11.473  1.00  0.00     0.153 HD
HETATM   25  C19 UNL     1      -4.902  11.931 -13.297  1.00  0.00     0.133 C 
HETATM   26  C20 UNL     1      -5.778  13.151 -13.401  1.00  0.00     0.145 C 
ENDROOT
BRANCH   1  27
HETATM   27  C7  UNL     1      -7.846  14.713 -14.783  1.00  0.00     0.246 C 
HETATM   28  C6  UNL     1      -8.678  15.767 -15.239  1.00  0.00    -0.129 C 
HETATM   29  C5  UNL     1      -9.396  16.926 -15.473  1.00  0.00     0.202 C 
HETATM   30  N2  UNL     1     -10.416  16.617 -16.522  1.00  0.00    -0.390 N 
HETATM   31  C4  UNL     1     -11.039  15.359 -16.465  1.00  0.00     0.091 C 
ATOM     32  H2  UNL     1     -10.650  17.293 -17.250  1.00  0.00     0.159 HD
HETATM   33  C3  UNL     1     -10.507  14.124 -17.075  1.00  0.00     0.215 C 
HETATM   34  C21 UNL     1      -9.468  13.332 -16.381  1.00  0.00     0.246 C 
HETATM   35  N8  UNL     1      -8.361  13.470 -15.470  1.00  0.00    -0.337 N 
HETATM   36  O3  UNL     1      -9.557  12.084 -16.671  1.00  0.00    -0.271 OA
ATOM     37  H8  UNL     1      -7.855  12.609 -15.258  1.00  0.00     0.164 HD
BRANCH  33  38
HETATM   38  N1  UNL     1     -10.201  14.324 -18.487  1.00  0.00    -0.344 N 
HETATM   39  C2  UNL     1     -11.097  14.149 -19.538  1.00  0.00     0.214 C 
HETATM   40  C1  UNL     1     -10.672  14.380 -20.933  1.00  0.00     0.117 C 
HETATM   41  O1  UNL     1     -12.274  13.792 -19.311  1.00  0.00    -0.274 OA
ATOM     42  H1  UNL     1      -9.252  14.615 -18.724  1.00  0.00     0.163 HD
ENDBRANCH  33  38
ENDBRANCH   1  27
TORSDOF 2
ENDMDL
MODEL 5
REMARK VINA RESULT: -6.357458686      3.663      5.618
REMARK  2 active torsions:
REMARK  status: ('A' for Active; 'I' for Inactive)
REMARK       I    between atoms: C2_2  and  N1_4 
REMARK    1  A    between atoms: N1_4  and  C3_6 
REMARK    2  A    between atoms: C7_12  and  C8_13 
REMARK       I    between atoms: C8_13  and  N3_15 
ROOT
HETATM    1  C8  UNL     1      -9.013  13.304 -16.086  1.00  0.00     0.253 C 
HETATM    2  O2  UNL     1      -8.532  14.413 -16.453  1.00  0.00    -0.270 OA
HETATM    3  N3  UNL     1      -8.389  12.559 -15.058  1.00  0.00    -0.348 N 
HETATM    4  C9  UNL     1      -7.203  13.075 -14.418  1.00  0.00     0.127 C 
HETATM    5  C10 UNL     1      -6.137  13.458 -15.419  1.00  0.00     0.047 C 
HETATM    6  C11 UNL     1      -4.789  12.876 -15.057  1.00  0.00     0.234 C 
HETATM    7  N4  UNL     1      -4.351  13.260 -13.751  1.00  0.00    -0.075 N 
ATOM      8  H41 UNL     1      -4.751  12.659 -13.031  1.00  0.00     0.277 HD
ATOM      9  H42 UNL     1      -4.764  14.147 -13.463  1.00  0.00     0.277 HD
HETATM   10  C12 UNL     1      -2.907  13.296 -13.668  1.00  0.00     0.233 C 
HETATM   11  C13 UNL     1      -2.441  12.173 -12.755  1.00  0.00     0.055 C 
HETATM   12  C14 UNL     1      -1.639  11.130 -13.491  1.00  0.00     0.234 C 
HETATM   13  N5  UNL     1      -2.522  10.155 -14.068  1.00  0.00    -0.073 N 
ATOM     14  H51 UNL     1      -2.353  10.072 -15.071  1.00  0.00     0.277 HD
ATOM     15  H52 UNL     1      -3.479  10.507 -14.079  1.00  0.00     0.277 HD
HETATM   16  C15 UNL     1      -2.474   8.867 -13.449  1.00  0.00     0.259 C 
HETATM   17  C16 UNL     1      -3.767   8.576 -12.691  1.00  0.00     0.259 C 
HETATM   18  N6  UNL     1      -4.842   8.711 -13.650  1.00  0.00    -0.072 N 
ATOM     19  H61 UNL     1      -4.668   8.144 -14.479  1.00  0.00     0.277 HD
ATOM     20  H62 UNL     1      -4.837   9.636 -14.080  1.00  0.00     0.277 HD
HETATM   21  C17 UNL     1      -6.133   8.411 -13.078  1.00  0.00     0.251 C 
HETATM   22  C18 UNL     1      -6.703   9.502 -12.261  1.00  0.00     0.141 C 
HETATM   23  N7  UNL     1      -7.828  10.185 -12.773  1.00  0.00    -0.418 N 
ATOM     24  H7  UNL     1      -8.538  10.589 -12.162  1.00  0.00     0.153 HD
HETATM   25  C19 UNL     1      -7.916  10.278 -14.208  1.00  0.00     0.133 C 
HETATM   26  C20 UNL     1      -8.925  11.302 -14.658  1.00  0.00     0.145 C 
ENDROOT
BRANCH   1  27
HETATM   27  C7  UNL     1     -10.244  12.839 -16.785  1.00  0.00     0.246 C 
HETATM   28  C6  UNL     1     -11.016  13.839 -17.430  1.00  0.00    -0.129 C 
HETATM   29  C5  UNL     1     -11.854  14.870 -17.813  1.00  0.00     0.202 C 
HETATM   30  N2  UNL     1     -11.978  14.815 -19.303  1.00  0.00    -0.390 N 
HETATM   31  C4  UNL     1     -12.045  13.545 -19.899  1.00  0.00     0.091 C 
ATOM     32  H2  UNL     1     -12.011  15.667 -19.864  1.00  0.00     0.159 HD
HETATM   33  C3  UNL     1     -10.877  12.731 -20.287  1.00  0.00     0.215 C 
HETATM   34  C21 UNL     1     -10.163  11.914 -19.281  1.00  0.00     0.246 C 
HETATM   35  N8  UNL     1      -9.840  11.877 -17.878  1.00  0.00    -0.337 N 
HETATM   36  O3  UNL     1      -9.639  10.868 -19.811  1.00  0.00    -0.271 OA
ATOM     37  H8  UNL     1      -9.258  11.093 -17.581  1.00  0.00     0.164 HD
BRANCH  33  38
HETATM   38  N1  UNL     1      -9.964  13.490 -21.135  1.00  0.00    -0.344 N 
HETATM   39  C2  UNL     1      -9.615  13.161 -22.441  1.00  0.00     0.214 C 
HETATM   40  C1  UNL     1      -8.677  14.008 -23.203  1.00  0.00     0.117 C 
HETATM   41  O1  UNL     1     -10.093  12.141 -22.985  1.00  0.00    -0.274 OA
ATOM     42  H1  UNL     1      -9.546  14.331 -20.736  1.00  0.00     0.163 HD
ENDBRANCH  33  38
ENDBRANCH   1  27
TORSDOF 2
ENDMDL
