MODEL 1
REMARK VINA RESULT: -6.783655783      0.000      0.000
REMARK  2 active torsions:
REMARK  status: ('A' for Active; 'I' for Inactive)
REMARK    1  A    between atoms: C21_40  and  C22_41 
REMARK    2  A    between atoms: C22_41  and  N8_42 
ROOT
HETATM    1  C1  UNL     1      -4.093  17.259 -16.742  1.00  0.00     0.311 C 
HETATM    2  N1  UNL     1      -4.442  17.195 -15.366  1.00  0.00     0.101 N 
HETATM    3  C2  UNL     1      -5.808  17.495 -15.095  1.00  0.00     0.300 C 
HETATM    4  C3  UNL     1      -6.531  18.115 -16.269  1.00  0.00     0.262 C 
HETATM    5  N2  UNL     1      -7.611  18.927 -15.740  1.00  0.00    -0.073 N 
ATOM      6  H21 UNL     1      -7.476  19.913 -15.959  1.00  0.00     0.277 HD
ATOM      7  H22 UNL     1      -7.571  18.982 -14.723  1.00  0.00     0.277 HD
HETATM    8  C4  UNL     1      -8.917  18.455 -16.197  1.00  0.00     0.234 C 
HETATM    9  C5  UNL     1      -9.521  17.496 -15.202  1.00  0.00     0.055 C 
HETATM   10  C6  UNL     1      -9.448  16.066 -15.676  1.00  0.00     0.234 C 
HETATM   11  N3  UNL     1     -10.753  15.487 -15.906  1.00  0.00    -0.073 N 
ATOM     12  H31 UNL     1     -11.475  15.906 -15.319  1.00  0.00     0.277 HD
ATOM     13  H32 UNL     1     -10.825  14.532 -15.554  1.00  0.00     0.277 HD
HETATM   14  C7  UNL     1     -11.062  15.583 -17.320  1.00  0.00     0.259 C 
HETATM   15  C8  UNL     1     -12.154  14.615 -17.718  1.00  0.00     0.259 C 
HETATM   16  N4  UNL     1     -11.955  13.309 -17.117  1.00  0.00    -0.072 N 
ATOM     17  H41 UNL     1     -12.314  13.253 -16.164  1.00  0.00     0.277 HD
ATOM     18  H42 UNL     1     -10.976  13.116 -16.903  1.00  0.00     0.277 HD
HETATM   19  C9  UNL     1     -12.546  12.319 -18.002  1.00  0.00     0.259 C 
HETATM   20  C10 UNL     1     -11.783  10.996 -17.931  1.00  0.00     0.259 C 
HETATM   21  N5  UNL     1     -11.831  10.443 -16.595  1.00  0.00    -0.074 N 
ATOM     22  H51 UNL     1     -11.821   9.422 -16.590  1.00  0.00     0.277 HD
ATOM     23  H52 UNL     1     -12.739  10.574 -16.148  1.00  0.00     0.277 HD
HETATM   24  C11 UNL     1     -10.750  11.011 -15.832  1.00  0.00     0.232 C 
HETATM   25  C12 UNL     1      -9.882   9.909 -15.250  1.00  0.00     0.027 C 
HETATM   26  C13 UNL     1      -8.716  10.496 -14.513  1.00  0.00     0.002 C 
HETATM   27  C14 UNL     1      -8.247   9.497 -13.477  1.00  0.00     0.000 C 
HETATM   28  C15 UNL     1      -7.362  10.153 -12.447  1.00  0.00     0.002 C 
HETATM   29  C16 UNL     1      -5.893   9.903 -12.731  1.00  0.00     0.020 C 
HETATM   30  C17 UNL     1      -5.223  11.157 -13.307  1.00  0.00     0.122 C 
HETATM   31  N6  UNL     1      -4.230  10.755 -14.285  1.00  0.00    -0.360 N 
ATOM     32  H6  UNL     1      -4.418   9.914 -14.831  1.00  0.00     0.162 HD
HETATM   33  C18 UNL     1      -3.019  11.442 -14.537  1.00  0.00     0.235 C 
HETATM   34  O1  UNL     1      -2.008  10.830 -14.975  1.00  0.00    -0.272 OA
HETATM   35  C19 UNL     1      -2.858  12.923 -14.306  1.00  0.00     0.225 C 
HETATM   36  N7  UNL     1      -3.197  13.672 -15.496  1.00  0.00    -0.350 N 
ATOM     37  H7  UNL     1      -2.791  13.347 -16.375  1.00  0.00     0.163 HD
HETATM   38  C20 UNL     1      -4.034  14.808 -15.564  1.00  0.00     0.253 C 
HETATM   39  O2  UNL     1      -4.910  14.819 -16.478  1.00  0.00    -0.271 OA
HETATM   40  C21 UNL     1      -4.003  15.992 -14.687  1.00  0.00     0.338 C 
ENDROOT
BRANCH  40  41
HETATM   41  C22 UNL     1      -2.660  16.205 -14.023  1.00  0.00     0.275 C 
BRANCH  41  42
HETATM   42  N8  UNL     1      -2.362  17.619 -13.843  1.00  0.00    -0.077 N 
ATOM     43  H83 UNL     1      -1.559  17.903 -14.404  1.00  0.00     0.274 HD
ATOM     44  H82 UNL     1      -3.075  18.206 -14.276  1.00  0.00     0.274 HD
ATOM     45  H81 UNL     1      -2.231  17.858 -12.860  1.00  0.00     0.274 HD
ENDBRANCH  41  42
ENDBRANCH  40  41
TORSDOF 2
ENDMDL
MODEL 2
REMARK VINA RESULT: -6.407360918      3.881      6.234
REMARK  2 active torsions:
REMARK  status: ('A' for Active; 'I' for Inactive)
REMARK    1  A    between atoms: C21_40  and  C22_41 
REMARK    2  A    between atoms: C22_41  and  N8_42 
ROOT
HETATM    1  C1  UNL     1      -5.170   8.792 -19.254  1.00  0.00     0.311 C 
HETATM    2  N1  UNL     1      -4.506  10.007 -19.575  1.00  0.00     0.101 N 
HETATM    3  C2  UNL     1      -5.185  10.806 -20.538  1.00  0.00     0.300 C 
HETATM    4  C3  UNL     1      -6.301  10.075 -21.248  1.00  0.00     0.262 C 
HETATM    5  N2  UNL     1      -6.470  10.689 -22.551  1.00  0.00    -0.073 N 
ATOM      6  H21 UNL     1      -6.253  10.033 -23.302  1.00  0.00     0.277 HD
ATOM      7  H22 UNL     1      -5.745  11.383 -22.732  1.00  0.00     0.277 HD
HETATM    8  C4  UNL     1      -7.806  11.259 -22.712  1.00  0.00     0.234 C 
HETATM    9  C5  UNL     1      -7.818  12.718 -22.331  1.00  0.00     0.055 C 
HETATM   10  C6  UNL     1      -8.477  12.948 -20.993  1.00  0.00     0.234 C 
HETATM   11  N3  UNL     1      -9.689  13.729 -21.095  1.00  0.00    -0.073 N 
ATOM     12  H31 UNL     1      -9.680  14.362 -21.895  1.00  0.00     0.277 HD
ATOM     13  H32 UNL     1      -9.764  14.433 -20.361  1.00  0.00     0.277 HD
HETATM   14  C7  UNL     1     -10.824  12.825 -21.116  1.00  0.00     0.259 C 
HETATM   15  C8  UNL     1     -12.109  13.536 -20.755  1.00  0.00     0.259 C 
HETATM   16  N4  UNL     1     -11.926  14.428 -19.625  1.00  0.00    -0.072 N 
ATOM     17  H41 UNL     1     -11.551  15.337 -19.894  1.00  0.00     0.277 HD
ATOM     18  H42 UNL     1     -11.161  14.142 -19.014  1.00  0.00     0.277 HD
HETATM   19  C9  UNL     1     -13.198  14.526 -18.928  1.00  0.00     0.259 C 
HETATM   20  C10 UNL     1     -12.986  14.737 -17.428  1.00  0.00     0.259 C 
HETATM   21  N5  UNL     1     -12.275  15.972 -17.175  1.00  0.00    -0.074 N 
ATOM     22  H51 UNL     1     -12.544  16.408 -16.293  1.00  0.00     0.277 HD
ATOM     23  H52 UNL     1     -12.566  16.727 -17.797  1.00  0.00     0.277 HD
HETATM   24  C11 UNL     1     -10.862  15.704 -17.252  1.00  0.00     0.232 C 
HETATM   25  C12 UNL     1     -10.174  16.135 -15.969  1.00  0.00     0.027 C 
HETATM   26  C13 UNL     1      -8.716  15.794 -16.017  1.00  0.00     0.002 C 
HETATM   27  C14 UNL     1      -7.971  16.724 -15.084  1.00  0.00     0.000 C 
HETATM   28  C15 UNL     1      -6.491  16.717 -15.372  1.00  0.00     0.002 C 
HETATM   29  C16 UNL     1      -5.736  15.831 -14.399  1.00  0.00     0.020 C 
HETATM   30  C17 UNL     1      -5.317  14.514 -15.066  1.00  0.00     0.122 C 
HETATM   31  N6  UNL     1      -5.397  13.444 -14.090  1.00  0.00    -0.360 N 
ATOM     32  H6  UNL     1      -6.123  13.509 -13.377  1.00  0.00     0.162 HD
HETATM   33  C18 UNL     1      -4.543  12.317 -14.054  1.00  0.00     0.235 C 
HETATM   34  O1  UNL     1      -4.307  11.719 -12.970  1.00  0.00    -0.272 OA
HETATM   35  C19 UNL     1      -3.872  11.762 -15.285  1.00  0.00     0.225 C 
HETATM   36  N7  UNL     1      -4.699  10.757 -15.917  1.00  0.00    -0.350 N 
ATOM     37  H7  UNL     1      -5.096  10.041 -15.308  1.00  0.00     0.163 HD
HETATM   38  C20 UNL     1      -5.011  10.669 -17.292  1.00  0.00     0.253 C 
HETATM   39  O2  UNL     1      -6.224  10.469 -17.591  1.00  0.00    -0.271 OA
HETATM   40  C21 UNL     1      -4.077  10.782 -18.427  1.00  0.00     0.338 C 
ENDROOT
BRANCH  40  41
HETATM   41  C22 UNL     1      -2.647  10.452 -18.056  1.00  0.00     0.275 C 
BRANCH  41  42
HETATM   42  N8  UNL     1      -1.749  11.568 -18.316  1.00  0.00    -0.077 N 
ATOM     43  H83 UNL     1      -1.609  11.707 -19.317  1.00  0.00     0.274 HD
ATOM     44  H82 UNL     1      -2.190  12.460 -18.091  1.00  0.00     0.274 HD
ATOM     45  H81 UNL     1      -0.859  11.462 -17.828  1.00  0.00     0.274 HD
ENDBRANCH  41  42
ENDBRANCH  40  41
TORSDOF 2
ENDMDL
MODEL 3
REMARK VINA RESULT: -6.404718185      4.029      8.262
REMARK  2 active torsions:
REMARK  status: ('A' for Active; 'I' for Inactive)
REMARK    1  A    between atoms: C21_40  and  C22_41 
REMARK    2  A    between atoms: C22_41  and  N8_42 
ROOT
HETATM    1  C1  UNL     1     -13.659  14.215 -17.820  1.00  0.00     0.311 C 
HETATM    2  N1  UNL     1     -12.631  14.304 -18.797  1.00  0.00     0.101 N 
HETATM    3  C2  UNL     1     -11.394  14.804 -18.299  1.00  0.00     0.300 C 
HETATM    4  C3  UNL     1     -11.505  15.423 -16.925  1.00  0.00     0.262 C 
HETATM    5  N2  UNL     1     -10.449  16.410 -16.801  1.00  0.00    -0.073 N 
ATOM      6  H21 UNL     1     -10.830  17.351 -16.695  1.00  0.00     0.277 HD
ATOM      7  H22 UNL     1      -9.954  16.538 -17.684  1.00  0.00     0.277 HD
HETATM    8  C4  UNL     1      -9.527  16.084 -15.715  1.00  0.00     0.234 C 
HETATM    9  C5  UNL     1      -8.349  15.294 -16.228  1.00  0.00     0.055 C 
HETATM   10  C6  UNL     1      -8.440  13.835 -15.856  1.00  0.00     0.234 C 
HETATM   11  N3  UNL     1      -7.382  13.420 -14.962  1.00  0.00    -0.073 N 
ATOM     12  H31 UNL     1      -6.534  13.976 -15.076  1.00  0.00     0.277 HD
ATOM     13  H32 UNL     1      -6.990  12.513 -15.215  1.00  0.00     0.277 HD
HETATM   14  C7  UNL     1      -7.886  13.448 -13.602  1.00  0.00     0.259 C 
HETATM   15  C8  UNL     1      -7.035  12.608 -12.676  1.00  0.00     0.259 C 
HETATM   16  N4  UNL     1      -6.682  11.337 -13.282  1.00  0.00    -0.072 N 
ATOM     17  H41 UNL     1      -5.870  11.403 -13.896  1.00  0.00     0.277 HD
ATOM     18  H42 UNL     1      -7.357  11.031 -13.983  1.00  0.00     0.277 HD
HETATM   19  C9  UNL     1      -6.503  10.370 -12.211  1.00  0.00     0.259 C 
HETATM   20  C10 UNL     1      -6.899   8.966 -12.669  1.00  0.00     0.259 C 
HETATM   21  N5  UNL     1      -6.068   8.528 -13.770  1.00  0.00    -0.074 N 
ATOM     22  H51 UNL     1      -5.917   7.519 -13.772  1.00  0.00     0.277 HD
ATOM     23  H52 UNL     1      -5.094   8.813 -13.664  1.00  0.00     0.277 HD
HETATM   24  C11 UNL     1      -6.656   9.003 -14.996  1.00  0.00     0.232 C 
HETATM   25  C12 UNL     1      -6.904   7.843 -15.944  1.00  0.00     0.027 C 
HETATM   26  C13 UNL     1      -7.579   8.323 -17.192  1.00  0.00     0.002 C 
HETATM   27  C14 UNL     1      -7.270   7.353 -18.312  1.00  0.00     0.000 C 
HETATM   28  C15 UNL     1      -7.566   7.961 -19.660  1.00  0.00     0.002 C 
HETATM   29  C16 UNL     1      -8.905   7.495 -20.201  1.00  0.00     0.020 C 
HETATM   30  C17 UNL     1      -9.962   8.600 -20.080  1.00  0.00     0.122 C 
HETATM   31  N6  UNL     1     -11.245   7.995 -19.780  1.00  0.00    -0.360 N 
ATOM     32  H6  UNL     1     -11.246   7.148 -19.212  1.00  0.00     0.162 HD
HETATM   33  C18 UNL     1     -12.496   8.492 -20.217  1.00  0.00     0.235 C 
HETATM   34  O1  UNL     1     -13.477   7.718 -20.382  1.00  0.00    -0.272 OA
HETATM   35  C19 UNL     1     -12.737   9.951 -20.509  1.00  0.00     0.225 C 
HETATM   36  N7  UNL     1     -13.197  10.646 -19.326  1.00  0.00    -0.350 N 
ATOM     37  H7  UNL     1     -13.950  10.203 -18.798  1.00  0.00     0.163 HD
HETATM   38  C20 UNL     1     -12.709  11.875 -18.830  1.00  0.00     0.253 C 
HETATM   39  O2  UNL     1     -12.461  11.933 -17.590  1.00  0.00    -0.271 OA
HETATM   40  C21 UNL     1     -12.454  13.108 -19.597  1.00  0.00     0.338 C 
ENDROOT
BRANCH  40  41
HETATM   41  C22 UNL     1     -13.258  13.190 -20.876  1.00  0.00     0.275 C 
BRANCH  41  42
HETATM   42  N8  UNL     1     -12.404  13.191 -22.055  1.00  0.00    -0.077 N 
ATOM     43  H83 UNL     1     -11.779  13.997 -22.060  1.00  0.00     0.274 HD
ATOM     44  H82 UNL     1     -11.707  12.448 -22.008  1.00  0.00     0.274 HD
ATOM     45  H81 UNL     1     -12.946  13.136 -22.918  1.00  0.00     0.274 HD
ENDBRANCH  41  42
ENDBRANCH  40  41
TORSDOF 2
ENDMDL
MODEL 4
REMARK VINA RESULT: -6.306654707      2.371      9.241
REMARK  2 active torsions:
REMARK  status: ('A' for Active; 'I' for Inactive)
REMARK    1  A    between atoms: C21_40  and  C22_41 
REMARK    2  A    between atoms: C22_41  and  N8_42 
ROOT
HETATM    1  C1  UNL     1      -8.595   8.805 -17.537  1.00  0.00     0.311 C 
HETATM    2  N1  UNL     1      -9.426   9.260 -16.479  1.00  0.00     0.101 N 
HETATM    3  C2  UNL     1      -8.732   9.529 -15.265  1.00  0.00     0.300 C 
HETATM    4  C3  UNL     1      -7.319   8.993 -15.248  1.00  0.00     0.262 C 
HETATM    5  N2  UNL     1      -6.960   8.744 -13.865  1.00  0.00    -0.073 N 
ATOM      6  H21 UNL     1      -6.794   7.752 -13.697  1.00  0.00     0.277 HD
ATOM      7  H22 UNL     1      -7.757   8.879 -13.244  1.00  0.00     0.277 HD
HETATM    8  C4  UNL     1      -5.816   9.554 -13.448  1.00  0.00     0.234 C 
HETATM    9  C5  UNL     1      -6.272  10.841 -12.809  1.00  0.00     0.055 C 
HETATM   10  C6  UNL     1      -6.082  12.026 -13.723  1.00  0.00     0.234 C 
HETATM   11  N3  UNL     1      -5.122  12.978 -13.210  1.00  0.00    -0.073 N 
ATOM     12  H31 UNL     1      -5.070  12.970 -12.191  1.00  0.00     0.277 HD
ATOM     13  H32 UNL     1      -5.427  13.944 -13.328  1.00  0.00     0.277 HD
HETATM   14  C7  UNL     1      -3.836  12.723 -13.833  1.00  0.00     0.259 C 
HETATM   15  C8  UNL     1      -2.918  13.919 -13.724  1.00  0.00     0.259 C 
HETATM   16  N4  UNL     1      -3.618  15.157 -14.011  1.00  0.00    -0.072 N 
ATOM     17  H41 UNL     1      -4.120  15.525 -13.203  1.00  0.00     0.277 HD
ATOM     18  H42 UNL     1      -4.425  15.024 -14.622  1.00  0.00     0.277 HD
HETATM   19  C9  UNL     1      -2.650  16.098 -14.551  1.00  0.00     0.259 C 
HETATM   20  C10 UNL     1      -3.309  17.046 -15.556  1.00  0.00     0.259 C 
HETATM   21  N5  UNL     1      -4.346  17.831 -14.921  1.00  0.00    -0.074 N 
ATOM     22  H51 UNL     1      -4.445  18.759 -15.334  1.00  0.00     0.277 HD
ATOM     23  H52 UNL     1      -4.094  18.125 -13.978  1.00  0.00     0.277 HD
HETATM   24  C11 UNL     1      -5.571  17.075 -14.958  1.00  0.00     0.232 C 
HETATM   25  C12 UNL     1      -6.667  17.882 -15.630  1.00  0.00     0.027 C 
HETATM   26  C13 UNL     1      -7.925  17.074 -15.733  1.00  0.00     0.002 C 
HETATM   27  C14 UNL     1      -9.103  18.020 -15.814  1.00  0.00     0.000 C 
HETATM   28  C15 UNL     1     -10.398  17.307 -15.517  1.00  0.00     0.002 C 
HETATM   29  C16 UNL     1     -11.144  16.952 -16.790  1.00  0.00     0.020 C 
HETATM   30  C17 UNL     1     -11.024  15.454 -17.097  1.00  0.00     0.122 C 
HETATM   31  N6  UNL     1     -10.950  15.272 -18.535  1.00  0.00    -0.360 N 
ATOM     32  H6  UNL     1     -10.485  15.999 -19.079  1.00  0.00     0.162 HD
HETATM   33  C18 UNL     1     -11.472  14.160 -19.238  1.00  0.00     0.235 C 
HETATM   34  O1  UNL     1     -11.839  14.269 -20.438  1.00  0.00    -0.272 OA
HETATM   35  C19 UNL     1     -11.623  12.797 -18.612  1.00  0.00     0.225 C 
HETATM   36  N7  UNL     1     -10.432  12.001 -18.814  1.00  0.00    -0.350 N 
ATOM     37  H7  UNL     1     -10.050  11.979 -19.761  1.00  0.00     0.163 HD
HETATM   38  C20 UNL     1      -9.744  11.252 -17.833  1.00  0.00     0.253 C 
HETATM   39  O2  UNL     1      -8.486  11.376 -17.797  1.00  0.00    -0.271 OA
HETATM   40  C21 UNL     1     -10.331  10.333 -16.840  1.00  0.00     0.338 C 
ENDROOT
BRANCH  40  41
HETATM   41  C22 UNL     1     -11.679   9.787 -17.258  1.00  0.00     0.275 C 
BRANCH  41  42
HETATM   42  N8  UNL     1     -12.120   8.707 -16.387  1.00  0.00    -0.077 N 
ATOM     43  H83 UNL     1     -12.525   7.940 -16.924  1.00  0.00     0.274 HD
ATOM     44  H82 UNL     1     -11.327   8.214 -15.977  1.00  0.00     0.274 HD
ATOM     45  H81 UNL     1     -12.764   9.038 -15.668  1.00  0.00     0.274 HD
ENDBRANCH  41  42
ENDBRANCH  40  41
TORSDOF 2
ENDMDL
MODEL 5
REMARK VINA RESULT: -6.261524064      3.368      8.435
REMARK  2 active torsions:
REMARK  status: ('A' for Active; 'I' for Inactive)
REMARK    1  A    between atoms: C21_40  and  C22_41 
REMARK    2  A    between atoms: C22_41  and  N8_42 
ROOT
HETATM    1  C1  UNL     1      -3.904  10.978 -19.735  1.00  0.00     0.311 C 
HETATM    2  N1  UNL     1      -4.749  10.497 -18.698  1.00  0.00     0.101 N 
HETATM    3  C2  UNL     1      -4.366  10.916 -17.392  1.00  0.00     0.300 C 
HETATM    4  C3  UNL     1      -2.984  11.523 -17.335  1.00  0.00     0.262 C 
HETATM    5  N2  UNL     1      -2.467  11.316 -15.995  1.00  0.00    -0.073 N 
ATOM      6  H21 UNL     1      -1.646  10.712 -16.002  1.00  0.00     0.277 HD
ATOM      7  H22 UNL     1      -3.092  10.728 -15.443  1.00  0.00     0.277 HD
HETATM    8  C4  UNL     1      -2.192  12.582 -15.319  1.00  0.00     0.234 C 
HETATM    9  C5  UNL     1      -3.376  13.022 -14.496  1.00  0.00     0.055 C 
HETATM   10  C6  UNL     1      -4.126  14.160 -15.145  1.00  0.00     0.234 C 
HETATM   11  N3  UNL     1      -4.074  15.378 -14.366  1.00  0.00    -0.073 N 
ATOM     12  H31 UNL     1      -3.968  15.198 -13.368  1.00  0.00     0.277 HD
ATOM     13  H32 UNL     1      -4.974  15.856 -14.329  1.00  0.00     0.277 HD
HETATM   14  C7  UNL     1      -3.018  16.222 -14.894  1.00  0.00     0.259 C 
HETATM   15  C8  UNL     1      -3.192  17.662 -14.468  1.00  0.00     0.259 C 
HETATM   16  N4  UNL     1      -4.574  18.090 -14.583  1.00  0.00    -0.072 N 
ATOM     17  H41 UNL     1      -5.138  17.829 -13.775  1.00  0.00     0.277 HD
ATOM     18  H42 UNL     1      -5.094  17.564 -15.286  1.00  0.00     0.277 HD
HETATM   19  C9  UNL     1      -4.575  19.522 -14.835  1.00  0.00     0.259 C 
HETATM   20  C10 UNL     1      -5.769  19.925 -15.702  1.00  0.00     0.259 C 
HETATM   21  N5  UNL     1      -7.017  19.616 -15.038  1.00  0.00    -0.074 N 
ATOM     22  H51 UNL     1      -7.762  20.272 -15.274  1.00  0.00     0.277 HD
ATOM     23  H52 UNL     1      -6.985  19.800 -14.035  1.00  0.00     0.277 HD
HETATM   24  C11 UNL     1      -7.365  18.252 -15.341  1.00  0.00     0.232 C 
HETATM   25  C12 UNL     1      -8.752  18.186 -15.954  1.00  0.00     0.027 C 
HETATM   26  C13 UNL     1      -9.090  16.777 -16.335  1.00  0.00     0.002 C 
HETATM   27  C14 UNL     1     -10.596  16.629 -16.352  1.00  0.00     0.000 C 
HETATM   28  C15 UNL     1     -11.003  15.177 -16.329  1.00  0.00     0.002 C 
HETATM   29  C16 UNL     1     -11.366  14.676 -17.714  1.00  0.00     0.020 C 
HETATM   30  C17 UNL     1     -10.254  13.789 -18.287  1.00  0.00     0.122 C 
HETATM   31  N6  UNL     1     -10.162  14.011 -19.718  1.00  0.00    -0.360 N 
ATOM     32  H6  UNL     1     -10.373  14.946 -20.065  1.00  0.00     0.162 HD
HETATM   33  C18 UNL     1      -9.803  13.026 -20.668  1.00  0.00     0.235 C 
HETATM   34  O1  UNL     1     -10.215  13.094 -21.857  1.00  0.00    -0.272 OA
HETATM   35  C19 UNL     1      -8.918  11.852 -20.331  1.00  0.00     0.225 C 
HETATM   36  N7  UNL     1      -7.526  12.171 -20.560  1.00  0.00    -0.350 N 
ATOM     37  H7  UNL     1      -7.297  12.615 -21.450  1.00  0.00     0.163 HD
HETATM   38  C20 UNL     1      -6.452  11.930 -19.675  1.00  0.00     0.253 C 
HETATM   39  O2  UNL     1      -5.639  12.882 -19.489  1.00  0.00    -0.271 OA
HETATM   40  C21 UNL     1      -6.166  10.684 -18.938  1.00  0.00     0.338 C 
ENDROOT
BRANCH  40  41
HETATM   41  C22 UNL     1      -6.771   9.458 -19.586  1.00  0.00     0.275 C 
BRANCH  41  42
HETATM   42  N8  UNL     1      -7.706   8.781 -18.699  1.00  0.00    -0.077 N 
ATOM     43  H83 UNL     1      -8.599   9.273 -18.656  1.00  0.00     0.274 HD
ATOM     44  H82 UNL     1      -8.027   7.901 -19.100  1.00  0.00     0.274 HD
ATOM     45  H81 UNL     1      -7.314   8.643 -17.767  1.00  0.00     0.274 HD
ENDBRANCH  41  42
ENDBRANCH  40  41
TORSDOF 2
ENDMDL
