MODEL 1
REMARK VINA RESULT: -9.802795474      0.000      0.000
REMARK  4 active torsions:
REMARK  status: ('A' for Active; 'I' for Inactive)
REMARK    1  A    between atoms: C3_5  and  N2_6 
REMARK       I    between atoms: N2_6  and  C4_8 
REMARK    2  A    between atoms: C4_8  and  C5_10 
REMARK    3  A    between atoms: C5_10  and  O2_11 
REMARK    4  A    between atoms: O2_11  and  C6_12 
REMARK       I    between atoms: C6_12  and  N3_14 
ROOT
HETATM    1  C6  UNL     1      -8.436  16.386 -15.353  1.00  0.00     0.363 C 
HETATM    2  O3  UNL     1      -9.691  16.352 -15.588  1.00  0.00    -0.238 OA
HETATM    3  N3  UNL     1      -7.705  15.182 -15.184  1.00  0.00    -0.325 N 
HETATM    4  C7  UNL     1      -8.422  13.928 -15.287  1.00  0.00     0.155 C 
HETATM    5  C8  UNL     1      -7.578  12.769 -15.699  1.00  0.00     0.252 C 
HETATM    6  N4  UNL     1      -7.353  11.845 -14.575  1.00  0.00    -0.074 N 
ATOM      7  H41 UNL     1      -8.175  11.295 -14.327  1.00  0.00     0.277 HD
ATOM      8  H42 UNL     1      -7.244  12.313 -13.676  1.00  0.00     0.277 HD
HETATM    9  C9  UNL     1      -6.208  11.038 -14.952  1.00  0.00     0.234 C 
HETATM   10  C10 UNL     1      -5.644  10.270 -13.789  1.00  0.00     0.055 C 
HETATM   11  C11 UNL     1      -5.342  11.092 -12.588  1.00  0.00     0.234 C 
HETATM   12  N5  UNL     1      -4.490  12.209 -12.802  1.00  0.00    -0.073 N 
ATOM     13  H51 UNL     1      -4.312  12.695 -11.923  1.00  0.00     0.277 HD
ATOM     14  H52 UNL     1      -4.986  12.941 -13.310  1.00  0.00     0.277 HD
HETATM   15  C12 UNL     1      -3.252  11.892 -13.460  1.00  0.00     0.259 C 
HETATM   16  C13 UNL     1      -2.431  13.139 -13.699  1.00  0.00     0.259 C 
HETATM   17  N6  UNL     1      -3.094  14.357 -13.361  1.00  0.00    -0.072 N 
ATOM     18  H61 UNL     1      -2.665  14.785 -12.540  1.00  0.00     0.277 HD
ATOM     19  H62 UNL     1      -4.025  14.170 -12.989  1.00  0.00     0.277 HD
HETATM   20  C14 UNL     1      -3.162  15.308 -14.461  1.00  0.00     0.251 C 
HETATM   21  C15 UNL     1      -3.617  14.624 -15.706  1.00  0.00     0.141 C 
HETATM   22  N7  UNL     1      -4.451  15.403 -16.561  1.00  0.00    -0.418 N 
ATOM     23  H7  UNL     1      -4.280  15.473 -17.564  1.00  0.00     0.153 HD
HETATM   24  C16 UNL     1      -5.536  16.076 -15.932  1.00  0.00     0.133 C 
HETATM   25  C17 UNL     1      -6.285  15.264 -14.919  1.00  0.00     0.147 C 
ENDROOT
BRANCH   1  26
HETATM   26  O2  UNL     1      -7.796  17.591 -15.263  1.00  0.00    -0.295 OA
BRANCH  26  27
HETATM   27  C5  UNL     1      -8.285  18.810 -15.758  1.00  0.00     0.284 C 
BRANCH  27  28
HETATM   28  C4  UNL     1      -7.301  19.529 -16.567  1.00  0.00     0.260 C 
HETATM   29  N2  UNL     1      -7.284  20.970 -16.491  1.00  0.00    -0.158 N 
ATOM     30  H2  UNL     1      -7.846  21.527 -17.134  1.00  0.00     0.187 HD
HETATM   31  O1  UNL     1      -6.494  18.931 -17.307  1.00  0.00    -0.270 OA
BRANCH  29  32
HETATM   32  C3  UNL     1      -6.543  21.551 -15.592  1.00  0.00     0.688 A 
HETATM   33  N1  UNL     1      -5.478  20.895 -15.117  1.00  0.00    -0.195 N 
HETATM   34  C2  UNL     1      -4.647  21.410 -14.184  1.00  0.00     0.034 A 
ATOM     35  H1  UNL     1      -5.283  19.961 -15.477  1.00  0.00     0.184 HD
HETATM   36  C1  UNL     1      -3.475  20.681 -13.664  1.00  0.00     0.069 C 
HETATM   37  C19 UNL     1      -4.945  22.685 -13.720  1.00  0.00     0.029 A 
HETATM   38  C18 UNL     1      -6.042  23.368 -14.205  1.00  0.00     0.267 A 
HETATM   39  C20 UNL     1      -4.049  23.292 -12.686  1.00  0.00     0.056 C 
HETATM   40  N8  UNL     1      -6.820  22.784 -15.135  1.00  0.00    -0.155 N 
HETATM   41  O4  UNL     1      -6.309  24.529 -13.781  1.00  0.00    -0.267 OA
ATOM     42  H8  UNL     1      -7.631  23.285 -15.498  1.00  0.00     0.187 HD
ENDBRANCH  29  32
ENDBRANCH  27  28
ENDBRANCH  26  27
ENDBRANCH   1  26
TORSDOF 4
ENDMDL
MODEL 2
REMARK VINA RESULT: -9.510776938      1.395      1.913
REMARK  4 active torsions:
REMARK  status: ('A' for Active; 'I' for Inactive)
REMARK    1  A    between atoms: C3_5  and  N2_6 
REMARK       I    between atoms: N2_6  and  C4_8 
REMARK    2  A    between atoms: C4_8  and  C5_10 
REMARK    3  A    between atoms: C5_10  and  O2_11 
REMARK    4  A    between atoms: O2_11  and  C6_12 
REMARK       I    between atoms: C6_12  and  N3_14 
ROOT
HETATM    1  C6  UNL     1      -7.989  15.654 -15.263  1.00  0.00     0.363 C 
HETATM    2  O3  UNL     1      -9.187  15.885 -15.645  1.00  0.00    -0.238 OA
HETATM    3  N3  UNL     1      -7.554  14.324 -15.031  1.00  0.00    -0.325 N 
HETATM    4  C7  UNL     1      -8.501  13.249 -15.239  1.00  0.00     0.155 C 
HETATM    5  C8  UNL     1      -7.878  11.934 -15.570  1.00  0.00     0.252 C 
HETATM    6  N4  UNL     1      -7.987  10.993 -14.443  1.00  0.00    -0.074 N 
ATOM      7  H41 UNL     1      -8.930  10.632 -14.303  1.00  0.00     0.277 HD
ATOM      8  H42 UNL     1      -7.889  11.435 -13.529  1.00  0.00     0.277 HD
HETATM    9  C9  UNL     1      -7.002   9.960 -14.698  1.00  0.00     0.234 C 
HETATM   10  C10 UNL     1      -6.753   9.099 -13.490  1.00  0.00     0.055 C 
HETATM   11  C11 UNL     1      -6.429   9.848 -12.247  1.00  0.00     0.234 C 
HETATM   12  N5  UNL     1      -5.342  10.758 -12.341  1.00  0.00    -0.073 N 
ATOM     13  H51 UNL     1      -5.171  11.202 -11.439  1.00  0.00     0.277 HD
ATOM     14  H52 UNL     1      -5.609  11.575 -12.890  1.00  0.00     0.277 HD
HETATM   15  C12 UNL     1      -4.129  10.182 -12.854  1.00  0.00     0.259 C 
HETATM   16  C13 UNL     1      -3.042  11.225 -12.974  1.00  0.00     0.259 C 
HETATM   17  N6  UNL     1      -3.468  12.558 -12.695  1.00  0.00    -0.072 N 
ATOM     18  H61 UNL     1      -3.059  12.892 -11.822  1.00  0.00     0.277 HD
ATOM     19  H62 UNL     1      -4.455  12.575 -12.437  1.00  0.00     0.277 HD
HETATM   20  C14 UNL     1      -3.204  13.493 -13.778  1.00  0.00     0.251 C 
HETATM   21  C15 UNL     1      -3.643  12.911 -15.080  1.00  0.00     0.141 C 
HETATM   22  N7  UNL     1      -4.187  13.842 -16.013  1.00  0.00    -0.418 N 
ATOM     23  H7  UNL     1      -3.887  13.867 -16.988  1.00  0.00     0.153 HD
HETATM   24  C16 UNL     1      -5.172  14.734 -15.504  1.00  0.00     0.133 C 
HETATM   25  C17 UNL     1      -6.189  14.106 -14.599  1.00  0.00     0.147 C 
ENDROOT
BRANCH   1  26
HETATM   26  O2  UNL     1      -7.125  16.697 -15.078  1.00  0.00    -0.295 OA
BRANCH  26  27
HETATM   27  C5  UNL     1      -7.427  18.051 -15.296  1.00  0.00     0.284 C 
BRANCH  27  28
HETATM   28  C4  UNL     1      -6.450  18.718 -16.157  1.00  0.00     0.260 C 
HETATM   29  N2  UNL     1      -6.597  20.136 -16.377  1.00  0.00    -0.158 N 
ATOM     30  H2  UNL     1      -7.148  20.482 -17.161  1.00  0.00     0.187 HD
HETATM   31  O1  UNL     1      -5.512  18.095 -16.694  1.00  0.00    -0.270 OA
BRANCH  29  32
HETATM   32  C3  UNL     1      -6.017  20.970 -15.562  1.00  0.00     0.688 A 
HETATM   33  N1  UNL     1      -6.529  22.199 -15.429  1.00  0.00    -0.195 N 
HETATM   34  C2  UNL     1      -6.002  23.136 -14.611  1.00  0.00     0.034 A 
ATOM     35  H1  UNL     1      -7.358  22.440 -15.972  1.00  0.00     0.184 HD
HETATM   36  C1  UNL     1      -6.571  24.489 -14.470  1.00  0.00     0.069 C 
HETATM   37  C19 UNL     1      -4.874  22.768 -13.887  1.00  0.00     0.029 A 
HETATM   38  C18 UNL     1      -4.340  21.502 -14.018  1.00  0.00     0.267 A 
HETATM   39  C20 UNL     1      -4.260  23.777 -12.969  1.00  0.00     0.056 C 
HETATM   40  N8  UNL     1      -4.926  20.627 -14.855  1.00  0.00    -0.155 N 
HETATM   41  O4  UNL     1      -3.314  21.172 -13.357  1.00  0.00    -0.267 OA
ATOM     42  H8  UNL     1      -4.536  19.690 -14.956  1.00  0.00     0.187 HD
ENDBRANCH  29  32
ENDBRANCH  27  28
ENDBRANCH  26  27
ENDBRANCH   1  26
TORSDOF 4
ENDMDL
MODEL 3
REMARK VINA RESULT: -9.436314568      0.885      1.462
REMARK  4 active torsions:
REMARK  status: ('A' for Active; 'I' for Inactive)
REMARK    1  A    between atoms: C3_5  and  N2_6 
REMARK       I    between atoms: N2_6  and  C4_8 
REMARK    2  A    between atoms: C4_8  and  C5_10 
REMARK    3  A    between atoms: C5_10  and  O2_11 
REMARK    4  A    between atoms: O2_11  and  C6_12 
REMARK       I    between atoms: C6_12  and  N3_14 
ROOT
HETATM    1  C6  UNL     1      -8.429  16.329 -15.354  1.00  0.00     0.363 C 
HETATM    2  O3  UNL     1      -9.684  16.301 -15.597  1.00  0.00    -0.238 OA
HETATM    3  N3  UNL     1      -7.707  15.121 -15.176  1.00  0.00    -0.325 N 
HETATM    4  C7  UNL     1      -8.430  13.872 -15.277  1.00  0.00     0.155 C 
HETATM    5  C8  UNL     1      -7.590  12.705 -15.679  1.00  0.00     0.252 C 
HETATM    6  N4  UNL     1      -7.377  11.785 -14.550  1.00  0.00    -0.074 N 
ATOM      7  H41 UNL     1      -8.204  11.242 -14.304  1.00  0.00     0.277 HD
ATOM      8  H42 UNL     1      -7.270  12.258 -13.652  1.00  0.00     0.277 HD
HETATM    9  C9  UNL     1      -6.235  10.971 -14.917  1.00  0.00     0.234 C 
HETATM   10  C10 UNL     1      -5.681  10.204 -13.747  1.00  0.00     0.055 C 
HETATM   11  C11 UNL     1      -5.382  11.030 -12.547  1.00  0.00     0.234 C 
HETATM   12  N5  UNL     1      -4.522  12.141 -12.762  1.00  0.00    -0.073 N 
ATOM     13  H51 UNL     1      -4.347  12.630 -11.884  1.00  0.00     0.277 HD
ATOM     14  H52 UNL     1      -5.011  12.874 -13.276  1.00  0.00     0.277 HD
HETATM   15  C12 UNL     1      -3.282  11.814 -13.411  1.00  0.00     0.259 C 
HETATM   16  C13 UNL     1      -2.453  13.055 -13.651  1.00  0.00     0.259 C 
HETATM   17  N6  UNL     1      -3.111  14.279 -13.323  1.00  0.00    -0.072 N 
ATOM     18  H61 UNL     1      -2.684  14.708 -12.501  1.00  0.00     0.277 HD
ATOM     19  H62 UNL     1      -4.045  14.099 -12.954  1.00  0.00     0.277 HD
HETATM   20  C14 UNL     1      -3.167  15.225 -14.427  1.00  0.00     0.251 C 
HETATM   21  C15 UNL     1      -3.619  14.538 -15.672  1.00  0.00     0.141 C 
HETATM   22  N7  UNL     1      -4.443  15.318 -16.535  1.00  0.00    -0.418 N 
ATOM     23  H7  UNL     1      -4.266  15.383 -17.537  1.00  0.00     0.153 HD
HETATM   24  C16 UNL     1      -5.528  16.000 -15.915  1.00  0.00     0.133 C 
HETATM   25  C17 UNL     1      -6.287  15.197 -14.902  1.00  0.00     0.147 C 
ENDROOT
BRANCH   1  26
HETATM   26  O2  UNL     1      -7.783  17.531 -15.266  1.00  0.00    -0.295 OA
BRANCH  26  27
HETATM   27  C5  UNL     1      -8.255  18.747 -15.783  1.00  0.00     0.284 C 
BRANCH  27  28
HETATM   28  C4  UNL     1      -7.256  19.446 -16.592  1.00  0.00     0.260 C 
HETATM   29  N2  UNL     1      -7.171  20.881 -16.473  1.00  0.00    -0.158 N 
ATOM     30  H2  UNL     1      -7.719  21.482 -17.087  1.00  0.00     0.187 HD
HETATM   31  O1  UNL     1      -6.492  18.835 -17.366  1.00  0.00    -0.270 OA
BRANCH  29  32
HETATM   32  C3  UNL     1      -6.385  21.400 -15.574  1.00  0.00     0.688 A 
HETATM   33  N1  UNL     1      -6.640  22.638 -15.135  1.00  0.00    -0.195 N 
HETATM   34  C2  UNL     1      -5.886  23.265 -14.206  1.00  0.00     0.034 A 
ATOM     35  H1  UNL     1      -7.444  23.132 -15.522  1.00  0.00     0.184 HD
HETATM   36  C1  UNL     1      -6.174  24.629 -13.728  1.00  0.00     0.069 C 
HETATM   37  C19 UNL     1      -4.802  22.556 -13.704  1.00  0.00     0.029 A 
HETATM   38  C18 UNL     1      -4.531  21.279 -14.151  1.00  0.00     0.267 A 
HETATM   39  C20 UNL     1      -3.941  23.215 -12.671  1.00  0.00     0.056 C 
HETATM   40  N8  UNL     1      -5.332  20.726 -15.079  1.00  0.00    -0.155 N 
HETATM   41  O4  UNL     1      -3.543  20.638 -13.690  1.00  0.00    -0.267 OA
ATOM     42  H8  UNL     1      -5.138  19.782 -15.413  1.00  0.00     0.187 HD
ENDBRANCH  29  32
ENDBRANCH  27  28
ENDBRANCH  26  27
ENDBRANCH   1  26
TORSDOF 4
ENDMDL
MODEL 4
REMARK VINA RESULT: -9.427732124      2.342      3.655
REMARK  4 active torsions:
REMARK  status: ('A' for Active; 'I' for Inactive)
REMARK    1  A    between atoms: C3_5  and  N2_6 
REMARK       I    between atoms: N2_6  and  C4_8 
REMARK    2  A    between atoms: C4_8  and  C5_10 
REMARK    3  A    between atoms: C5_10  and  O2_11 
REMARK    4  A    between atoms: O2_11  and  C6_12 
REMARK       I    between atoms: C6_12  and  N3_14 
ROOT
HETATM    1  C6  UNL     1      -9.698  16.758 -15.870  1.00  0.00     0.363 C 
HETATM    2  O3  UNL     1     -10.590  17.552 -16.325  1.00  0.00    -0.238 OA
HETATM    3  N3  UNL     1      -9.805  15.360 -16.084  1.00  0.00    -0.325 N 
HETATM    4  C7  UNL     1     -10.946  14.869 -16.828  1.00  0.00     0.155 C 
HETATM    5  C8  UNL     1     -10.715  13.567 -17.520  1.00  0.00     0.252 C 
HETATM    6  N4  UNL     1     -11.447  12.473 -16.860  1.00  0.00    -0.074 N 
ATOM      7  H41 UNL     1     -12.454  12.502 -17.018  1.00  0.00     0.277 HD
ATOM      8  H42 UNL     1     -11.481  12.559 -15.844  1.00  0.00     0.277 HD
HETATM    9  C9  UNL     1     -10.821  11.248 -17.319  1.00  0.00     0.234 C 
HETATM   10  C10 UNL     1     -11.229  10.057 -16.497  1.00  0.00     0.055 C 
HETATM   11  C11 UNL     1     -11.056  10.224 -15.030  1.00  0.00     0.234 C 
HETATM   12  N5  UNL     1      -9.755  10.601 -14.601  1.00  0.00    -0.073 N 
ATOM     13  H51 UNL     1      -9.719  10.663 -13.583  1.00  0.00     0.277 HD
ATOM     14  H52 UNL     1      -9.570  11.575 -14.841  1.00  0.00     0.277 HD
HETATM   15  C12 UNL     1      -8.701   9.755 -15.090  1.00  0.00     0.259 C 
HETATM   16  C13 UNL     1      -7.349  10.255 -14.635  1.00  0.00     0.259 C 
HETATM   17  N6  UNL     1      -7.381  11.508 -13.951  1.00  0.00    -0.072 N 
ATOM     18  H61 UNL     1      -7.158  11.385 -12.963  1.00  0.00     0.277 HD
ATOM     19  H62 UNL     1      -8.339  11.849 -13.868  1.00  0.00     0.277 HD
HETATM   20  C14 UNL     1      -6.524  12.521 -14.550  1.00  0.00     0.251 C 
HETATM   21  C15 UNL     1      -6.730  12.561 -16.027  1.00  0.00     0.141 C 
HETATM   22  N7  UNL     1      -6.645  13.855 -16.620  1.00  0.00    -0.418 N 
ATOM     23  H7  UNL     1      -6.084  14.032 -17.452  1.00  0.00     0.153 HD
HETATM   24  C16 UNL     1      -7.391  14.886 -15.980  1.00  0.00     0.133 C 
HETATM   25  C17 UNL     1      -8.773  14.496 -15.551  1.00  0.00     0.147 C 
ENDROOT
BRANCH   1  26
HETATM   26  O2  UNL     1      -8.635  17.262 -15.172  1.00  0.00    -0.295 OA
BRANCH  26  27
HETATM   27  C5  UNL     1      -8.087  18.544 -15.341  1.00  0.00     0.284 C 
BRANCH  27  28
HETATM   28  C4  UNL     1      -6.627  18.528 -15.430  1.00  0.00     0.260 C 
HETATM   29  N2  UNL     1      -5.975  19.644 -16.071  1.00  0.00    -0.158 N 
ATOM     30  H2  UNL     1      -5.784  19.624 -17.072  1.00  0.00     0.187 HD
HETATM   31  O1  UNL     1      -5.950  17.587 -14.970  1.00  0.00    -0.270 OA
BRANCH  29  32
HETATM   32  C3  UNL     1      -5.633  20.678 -15.357  1.00  0.00     0.688 A 
HETATM   33  N1  UNL     1      -6.386  21.782 -15.423  1.00  0.00    -0.195 N 
HETATM   34  C2  UNL     1      -6.116  22.905 -14.723  1.00  0.00     0.034 A 
ATOM     35  H1  UNL     1      -7.204  21.774 -16.032  1.00  0.00     0.184 HD
HETATM   36  C1  UNL     1      -6.951  24.118 -14.802  1.00  0.00     0.069 C 
HETATM   37  C19 UNL     1      -4.993  22.875 -13.905  1.00  0.00     0.029 A 
HETATM   38  C18 UNL     1      -4.211  21.740 -13.831  1.00  0.00     0.267 A 
HETATM   39  C20 UNL     1      -4.660  24.099 -13.112  1.00  0.00     0.056 C 
HETATM   40  N8  UNL     1      -4.549  20.662 -14.561  1.00  0.00    -0.155 N 
HETATM   41  O4  UNL     1      -3.191  21.717 -13.084  1.00  0.00    -0.267 OA
ATOM     42  H8  UNL     1      -3.975  19.820 -14.510  1.00  0.00     0.187 HD
ENDBRANCH  29  32
ENDBRANCH  27  28
ENDBRANCH  26  27
ENDBRANCH   1  26
TORSDOF 4
ENDMDL
MODEL 5
REMARK VINA RESULT: -9.224893909      3.007      5.078
REMARK  4 active torsions:
REMARK  status: ('A' for Active; 'I' for Inactive)
REMARK    1  A    between atoms: C3_5  and  N2_6 
REMARK       I    between atoms: N2_6  and  C4_8 
REMARK    2  A    between atoms: C4_8  and  C5_10 
REMARK    3  A    between atoms: C5_10  and  O2_11 
REMARK    4  A    between atoms: O2_11  and  C6_12 
REMARK       I    between atoms: C6_12  and  N3_14 
ROOT
HETATM    1  C6  UNL     1      -8.065  15.888 -15.432  1.00  0.00     0.363 C 
HETATM    2  O3  UNL     1      -7.186  15.915 -14.505  1.00  0.00    -0.238 OA
HETATM    3  N3  UNL     1      -8.569  14.650 -15.907  1.00  0.00    -0.325 N 
HETATM    4  C7  UNL     1      -8.060  13.432 -15.313  1.00  0.00     0.155 C 
HETATM    5  C8  UNL     1      -8.995  12.272 -15.389  1.00  0.00     0.252 C 
HETATM    6  N4  UNL     1      -8.527  11.270 -16.361  1.00  0.00    -0.074 N 
ATOM      7  H41 UNL     1      -7.720  10.736 -16.040  1.00  0.00     0.277 HD
ATOM      8  H42 UNL     1      -8.084  11.676 -17.185  1.00  0.00     0.277 HD
HETATM    9  C9  UNL     1      -9.683  10.449 -16.667  1.00  0.00     0.234 C 
HETATM   10  C10 UNL     1      -9.465   9.588 -17.881  1.00  0.00     0.055 C 
HETATM   11  C11 UNL     1      -8.997  10.319 -19.088  1.00  0.00     0.234 C 
HETATM   12  N5  UNL     1      -9.803  11.416 -19.495  1.00  0.00    -0.073 N 
ATOM     13  H51 UNL     1      -9.427  11.838 -20.344  1.00  0.00     0.277 HD
ATOM     14  H52 UNL     1      -9.692  12.198 -18.849  1.00  0.00     0.277 HD
HETATM   15  C12 UNL     1     -11.194  11.099 -19.666  1.00  0.00     0.259 C 
HETATM   16  C13 UNL     1     -11.988  12.328 -20.044  1.00  0.00     0.259 C 
HETATM   17  N6  UNL     1     -11.242  13.545 -20.018  1.00  0.00    -0.072 N 
ATOM     18  H61 UNL     1     -11.104  13.904 -20.963  1.00  0.00     0.277 HD
ATOM     19  H62 UNL     1     -10.271  13.368 -19.761  1.00  0.00     0.277 HD
HETATM   20  C14 UNL     1     -11.823  14.567 -19.160  1.00  0.00     0.251 C 
HETATM   21  C15 UNL     1     -12.191  13.981 -17.838  1.00  0.00     0.141 C 
HETATM   22  N7  UNL     1     -12.010  14.843 -16.717  1.00  0.00    -0.418 N 
ATOM     23  H7  UNL     1     -12.736  14.973 -16.012  1.00  0.00     0.153 HD
HETATM   24  C16 UNL     1     -10.756  15.513 -16.639  1.00  0.00     0.133 C 
HETATM   25  C17 UNL     1      -9.563  14.664 -16.960  1.00  0.00     0.147 C 
ENDROOT
BRANCH   1  26
HETATM   26  O2  UNL     1      -8.519  17.061 -15.968  1.00  0.00    -0.295 OA
BRANCH  26  27
HETATM   27  C5  UNL     1      -8.183  18.346 -15.513  1.00  0.00     0.284 C 
BRANCH  27  28
HETATM   28  C4  UNL     1      -7.321  19.070 -16.447  1.00  0.00     0.260 C 
HETATM   29  N2  UNL     1      -7.536  20.488 -16.607  1.00  0.00    -0.158 N 
ATOM     30  H2  UNL     1      -8.175  20.835 -17.322  1.00  0.00     0.187 HD
HETATM   31  O1  UNL     1      -6.422  18.496 -17.093  1.00  0.00    -0.270 OA
BRANCH  29  32
HETATM   32  C3  UNL     1      -6.905  21.320 -15.829  1.00  0.00     0.688 A 
HETATM   33  N1  UNL     1      -5.790  20.906 -15.216  1.00  0.00    -0.195 N 
HETATM   34  C2  UNL     1      -5.064  21.690 -14.390  1.00  0.00     0.034 A 
ATOM     35  H1  UNL     1      -5.472  19.950 -15.381  1.00  0.00     0.184 HD
HETATM   36  C1  UNL     1      -3.836  21.226 -13.718  1.00  0.00     0.069 C 
HETATM   37  C19 UNL     1      -5.528  22.985 -14.193  1.00  0.00     0.029 A 
HETATM   38  C18 UNL     1      -6.678  23.420 -14.822  1.00  0.00     0.267 A 
HETATM   39  C20 UNL     1      -4.752  23.886 -13.285  1.00  0.00     0.056 C 
HETATM   40  N8  UNL     1      -7.343  22.575 -15.629  1.00  0.00    -0.155 N 
HETATM   41  O4  UNL     1      -7.096  24.599 -14.639  1.00  0.00    -0.267 OA
ATOM     42  H8  UNL     1      -8.193  22.891 -16.097  1.00  0.00     0.187 HD
ENDBRANCH  29  32
ENDBRANCH  27  28
ENDBRANCH  26  27
ENDBRANCH   1  26
TORSDOF 4
ENDMDL
