MODEL 1
REMARK VINA RESULT: -8.048687481      0.000      0.000
REMARK  2 active torsions:
REMARK  status: ('A' for Active; 'I' for Inactive)
REMARK    1  A    between atoms: N5_25  and  C12_26 
REMARK    2  A    between atoms: C12_26  and  C13_27 
ROOT
HETATM    1  O1  UNL     1     -11.830  13.229 -22.754  1.00  0.00    -0.272 OA
HETATM    2  C1  UNL     1     -11.824  12.735 -21.595  1.00  0.00     0.244 C 
HETATM    3  C2  UNL     1     -11.047  11.485 -21.393  1.00  0.00     0.334 C 
HETATM    4  N1  UNL     1     -10.888  10.771 -22.644  1.00  0.00    -0.065 N 
ATOM      5  H11 UNL     1     -10.996  11.394 -23.445  1.00  0.00     0.277 HD
ATOM      6  H12 UNL     1     -11.676  10.148 -22.820  1.00  0.00     0.277 HD
HETATM    7  C3  UNL     1      -9.623  10.055 -22.696  1.00  0.00     0.260 C 
HETATM    8  C4  UNL     1      -8.482  10.999 -23.044  1.00  0.00     0.259 C 
HETATM    9  N2  UNL     1      -7.341  10.618 -22.252  1.00  0.00    -0.072 N 
ATOM     10  H21 UNL     1      -6.881   9.793 -22.637  1.00  0.00     0.277 HD
ATOM     11  H22 UNL     1      -7.625  10.236 -21.350  1.00  0.00     0.277 HD
HETATM   12  C5  UNL     1      -6.405  11.721 -22.091  1.00  0.00     0.259 C 
HETATM   13  C6  UNL     1      -5.285  11.229 -21.196  1.00  0.00     0.259 C 
HETATM   14  N3  UNL     1      -4.523  12.312 -20.653  1.00  0.00    -0.073 N 
ATOM     15  H31 UNL     1      -4.587  13.145 -21.237  1.00  0.00     0.277 HD
ATOM     16  H32 UNL     1      -3.521  12.141 -20.732  1.00  0.00     0.277 HD
HETATM   17  C7  UNL     1      -4.915  12.595 -19.263  1.00  0.00     0.234 C 
HETATM   18  C8  UNL     1      -3.690  13.046 -18.546  1.00  0.00     0.055 C 
HETATM   19  C9  UNL     1      -3.932  13.876 -17.339  1.00  0.00     0.234 C 
HETATM   20  N4  UNL     1      -5.257  13.809 -16.808  1.00  0.00    -0.071 N 
ATOM     21  H41 UNL     1      -5.461  12.917 -16.358  1.00  0.00     0.277 HD
ATOM     22  H42 UNL     1      -5.974  13.760 -17.532  1.00  0.00     0.277 HD
HETATM   23  C10 UNL     1      -5.430  14.950 -15.914  1.00  0.00     0.277 C 
HETATM   24  C11 UNL     1      -6.641  14.780 -15.019  1.00  0.00     0.090 C 
HETATM   25  N5  UNL     1      -7.771  15.464 -15.503  1.00  0.00    -0.366 N 
HETATM   26  C19 UNL     1      -8.795  14.665 -16.091  1.00  0.00     0.155 C 
HETATM   27  C20 UNL     1      -9.768  15.491 -16.891  1.00  0.00     0.252 C 
HETATM   28  N6  UNL     1     -10.562  14.653 -17.784  1.00  0.00    -0.072 N 
ATOM     29  H61 UNL     1     -10.001  13.905 -18.194  1.00  0.00     0.277 HD
ATOM     30  H62 UNL     1     -10.812  15.148 -18.641  1.00  0.00     0.277 HD
HETATM   31  C21 UNL     1     -11.736  14.129 -17.107  1.00  0.00     0.260 C 
HETATM   32  C22 UNL     1     -12.980  14.511 -17.859  1.00  0.00     0.261 C 
HETATM   33  N7  UNL     1     -13.659  13.377 -18.436  1.00  0.00    -0.058 N 
ATOM     34  H71 UNL     1     -14.526  13.666 -18.888  1.00  0.00     0.279 HD
ATOM     35  H72 UNL     1     -14.041  12.776 -17.707  1.00  0.00     0.279 HD
HETATM   36  C23 UNL     1     -12.843  12.623 -19.338  1.00  0.00     0.357 C 
HETATM   37  N8  UNL     1     -12.525  13.348 -20.549  1.00  0.00    -0.336 N 
ATOM     38  H8  UNL     1     -12.815  14.321 -20.642  1.00  0.00     0.164 HD
ENDROOT
BRANCH  25  39
HETATM   39  C12 UNL     1      -8.155  16.660 -14.895  1.00  0.00     0.101 C 
BRANCH  39  40
HETATM   40  C13 UNL     1      -7.491  17.898 -15.285  1.00  0.00    -0.021 A 
HETATM   41  C14 UNL     1      -8.261  18.836 -15.963  1.00  0.00     0.013 A 
HETATM   42  C15 UNL     1      -7.739  20.043 -16.380  1.00  0.00     0.001 A 
HETATM   43  C16 UNL     1      -6.423  20.357 -16.132  1.00  0.00     0.000 A 
HETATM   44  C17 UNL     1      -5.632  19.454 -15.465  1.00  0.00     0.001 A 
HETATM   45  C18 UNL     1      -6.176  18.233 -15.048  1.00  0.00     0.013 A 
ENDBRANCH  39  40
ENDBRANCH  25  39
TORSDOF 2
ENDMDL
MODEL 2
REMARK VINA RESULT: -7.990520148      6.727      9.529
REMARK  2 active torsions:
REMARK  status: ('A' for Active; 'I' for Inactive)
REMARK    1  A    between atoms: N5_25  and  C12_26 
REMARK    2  A    between atoms: C12_26  and  C13_27 
ROOT
HETATM    1  O1  UNL     1       2.081  11.812 -13.573  1.00  0.00    -0.272 OA
HETATM    2  C1  UNL     1       1.472  12.111 -14.634  1.00  0.00     0.244 C 
HETATM    3  C2  UNL     1       0.564  11.085 -15.209  1.00  0.00     0.334 C 
HETATM    4  N1  UNL     1       0.945   9.758 -14.769  1.00  0.00    -0.065 N 
ATOM      5  H11 UNL     1       1.487   9.793 -13.905  1.00  0.00     0.277 HD
ATOM      6  H12 UNL     1       1.650   9.350 -15.383  1.00  0.00     0.277 HD
HETATM    7  C3  UNL     1      -0.211   8.885 -14.635  1.00  0.00     0.260 C 
HETATM    8  C4  UNL     1      -0.940   9.152 -13.328  1.00  0.00     0.259 C 
HETATM    9  N2  UNL     1      -2.354   9.065 -13.588  1.00  0.00    -0.072 N 
ATOM     10  H21 UNL     1      -2.660   8.094 -13.652  1.00  0.00     0.277 HD
ATOM     11  H22 UNL     1      -2.576   9.366 -14.537  1.00  0.00     0.277 HD
HETATM   12  C5  UNL     1      -3.130   9.802 -12.602  1.00  0.00     0.259 C 
HETATM   13  C6  UNL     1      -4.586   9.694 -13.009  1.00  0.00     0.259 C 
HETATM   14  N3  UNL     1      -5.395  10.680 -12.359  1.00  0.00    -0.073 N 
ATOM     15  H31 UNL     1      -4.972  10.996 -11.487  1.00  0.00     0.277 HD
ATOM     16  H32 UNL     1      -6.250  10.273 -11.981  1.00  0.00     0.277 HD
HETATM   17  C7  UNL     1      -5.685  11.808 -13.258  1.00  0.00     0.234 C 
HETATM   18  C8  UNL     1      -7.048  12.303 -12.916  1.00  0.00     0.055 C 
HETATM   19  C9  UNL     1      -7.322  13.713 -13.291  1.00  0.00     0.234 C 
HETATM   20  N4  UNL     1      -6.425  14.275 -14.251  1.00  0.00    -0.071 N 
ATOM     21  H41 UNL     1      -6.557  13.896 -15.188  1.00  0.00     0.277 HD
ATOM     22  H42 UNL     1      -5.460  13.973 -14.118  1.00  0.00     0.277 HD
HETATM   23  C10 UNL     1      -6.579  15.726 -14.198  1.00  0.00     0.277 C 
HETATM   24  C11 UNL     1      -5.966  16.397 -15.410  1.00  0.00     0.090 C 
HETATM   25  N5  UNL     1      -4.676  16.898 -15.157  1.00  0.00    -0.366 N 
HETATM   26  C19 UNL     1      -3.588  16.165 -15.713  1.00  0.00     0.155 C 
HETATM   27  C20 UNL     1      -2.269  16.554 -15.097  1.00  0.00     0.252 C 
HETATM   28  N6  UNL     1      -1.241  15.558 -15.379  1.00  0.00    -0.072 N 
ATOM     29  H61 UNL     1      -1.615  14.610 -15.335  1.00  0.00     0.277 HD
ATOM     30  H62 UNL     1      -0.562  15.494 -14.620  1.00  0.00     0.277 HD
HETATM   31  C21 UNL     1      -0.594  15.819 -16.654  1.00  0.00     0.260 C 
HETATM   32  C22 UNL     1       0.891  15.954 -16.463  1.00  0.00     0.261 C 
HETATM   33  N7  UNL     1       1.637  14.889 -17.087  1.00  0.00    -0.058 N 
ATOM     34  H71 UNL     1       2.640  15.044 -16.986  1.00  0.00     0.279 HD
ATOM     35  H72 UNL     1       1.560  14.940 -18.102  1.00  0.00     0.279 HD
HETATM   36  C23 UNL     1       1.275  13.587 -16.616  1.00  0.00     0.357 C 
HETATM   37  N8  UNL     1       1.651  13.363 -15.237  1.00  0.00    -0.336 N 
ATOM     38  H8  UNL     1       2.052  14.128 -14.695  1.00  0.00     0.164 HD
ENDROOT
BRANCH  25  39
HETATM   39  C12 UNL     1      -4.503  18.271 -14.974  1.00  0.00     0.101 C 
BRANCH  39  40
HETATM   40  C13 UNL     1      -5.523  19.187 -15.474  1.00  0.00    -0.021 A 
HETATM   41  C14 UNL     1      -5.503  20.483 -14.971  1.00  0.00     0.013 A 
HETATM   42  C15 UNL     1      -6.417  21.434 -15.373  1.00  0.00     0.001 A 
HETATM   43  C16 UNL     1      -7.388  21.122 -16.296  1.00  0.00     0.000 A 
HETATM   44  C17 UNL     1      -7.438  19.851 -16.814  1.00  0.00     0.001 A 
HETATM   45  C18 UNL     1      -6.504  18.896 -16.396  1.00  0.00     0.013 A 
ENDBRANCH  39  40
ENDBRANCH  25  39
TORSDOF 2
ENDMDL
MODEL 3
REMARK VINA RESULT: -7.936823352      6.207      7.548
REMARK  2 active torsions:
REMARK  status: ('A' for Active; 'I' for Inactive)
REMARK    1  A    between atoms: N5_25  and  C12_26 
REMARK    2  A    between atoms: C12_26  and  C13_27 
ROOT
HETATM    1  O1  UNL     1      -5.889   7.904 -14.250  1.00  0.00    -0.272 OA
HETATM    2  C1  UNL     1      -5.799   8.874 -13.452  1.00  0.00     0.244 C 
HETATM    3  C2  UNL     1      -4.588   8.937 -12.593  1.00  0.00     0.334 C 
HETATM    4  N1  UNL     1      -4.003   7.621 -12.433  1.00  0.00    -0.065 N 
ATOM      5  H11 UNL     1      -4.280   6.995 -13.189  1.00  0.00     0.277 HD
ATOM      6  H12 UNL     1      -4.424   7.119 -11.650  1.00  0.00     0.277 HD
HETATM    7  C3  UNL     1      -2.556   7.688 -12.303  1.00  0.00     0.260 C 
HETATM    8  C4  UNL     1      -1.900   7.858 -13.664  1.00  0.00     0.259 C 
HETATM    9  N2  UNL     1      -0.799   8.774 -13.510  1.00  0.00    -0.072 N 
ATOM     10  H21 UNL     1       0.009   8.315 -13.089  1.00  0.00     0.277 HD
ATOM     11  H22 UNL     1      -0.988   9.463 -12.782  1.00  0.00     0.277 HD
HETATM   12  C5  UNL     1      -0.449   9.414 -14.769  1.00  0.00     0.259 C 
HETATM   13  C6  UNL     1       0.668  10.395 -14.477  1.00  0.00     0.259 C 
HETATM   14  N3  UNL     1       0.829  11.348 -15.531  1.00  0.00    -0.073 N 
ATOM     15  H31 UNL     1       0.478  10.989 -16.419  1.00  0.00     0.277 HD
ATOM     16  H32 UNL     1       1.810  11.464 -15.786  1.00  0.00     0.277 HD
HETATM   17  C7  UNL     1       0.205  12.635 -15.186  1.00  0.00     0.234 C 
HETATM   18  C8  UNL     1       1.033  13.705 -15.810  1.00  0.00     0.055 C 
HETATM   19  C9  UNL     1       0.328  14.989 -16.054  1.00  0.00     0.234 C 
HETATM   20  N4  UNL     1      -0.890  15.165 -15.327  1.00  0.00    -0.071 N 
ATOM     21  H41 UNL     1      -0.739  15.323 -14.331  1.00  0.00     0.277 HD
ATOM     22  H42 UNL     1      -1.432  14.305 -15.246  1.00  0.00     0.277 HD
HETATM   23  C10 UNL     1      -1.630  16.248 -15.968  1.00  0.00     0.277 C 
HETATM   24  C11 UNL     1      -2.742  16.767 -15.078  1.00  0.00     0.090 C 
HETATM   25  N5  UNL     1      -3.995  16.218 -15.402  1.00  0.00    -0.366 N 
HETATM   26  C19 UNL     1      -4.508  15.231 -14.510  1.00  0.00     0.155 C 
HETATM   27  C20 UNL     1      -5.647  14.456 -15.118  1.00  0.00     0.252 C 
HETATM   28  N6  UNL     1      -5.902  13.225 -14.376  1.00  0.00    -0.072 N 
ATOM     29  H61 UNL     1      -5.035  12.786 -14.069  1.00  0.00     0.277 HD
ATOM     30  H62 UNL     1      -6.246  12.483 -14.986  1.00  0.00     0.277 HD
HETATM   31  C21 UNL     1      -6.805  13.461 -13.262  1.00  0.00     0.260 C 
HETATM   32  C22 UNL     1      -8.003  12.560 -13.366  1.00  0.00     0.261 C 
HETATM   33  N7  UNL     1      -8.063  11.580 -12.309  1.00  0.00    -0.058 N 
ATOM     34  H71 UNL     1      -8.916  11.025 -12.378  1.00  0.00     0.279 HD
ATOM     35  H72 UNL     1      -8.228  12.030 -11.409  1.00  0.00     0.279 HD
HETATM   36  C23 UNL     1      -6.910  10.735 -12.249  1.00  0.00     0.357 C 
HETATM   37  N8  UNL     1      -6.804   9.848 -13.387  1.00  0.00    -0.336 N 
ATOM     38  H8  UNL     1      -7.471   9.932 -14.153  1.00  0.00     0.164 HD
ENDROOT
BRANCH  25  39
HETATM   39  C12 UNL     1      -4.918  16.996 -16.103  1.00  0.00     0.101 C 
BRANCH  39  40
HETATM   40  C13 UNL     1      -5.154  18.371 -15.678  1.00  0.00    -0.021 A 
HETATM   41  C14 UNL     1      -6.282  19.002 -16.192  1.00  0.00     0.013 A 
HETATM   42  C15 UNL     1      -6.606  20.300 -15.858  1.00  0.00     0.001 A 
HETATM   43  C16 UNL     1      -5.811  21.018 -14.995  1.00  0.00     0.000 A 
HETATM   44  C17 UNL     1      -4.688  20.427 -14.468  1.00  0.00     0.001 A 
HETATM   45  C18 UNL     1      -4.372  19.108 -14.816  1.00  0.00     0.013 A 
ENDBRANCH  39  40
ENDBRANCH  25  39
TORSDOF 2
ENDMDL
MODEL 4
REMARK VINA RESULT: -7.584175081      4.057      7.526
REMARK  2 active torsions:
REMARK  status: ('A' for Active; 'I' for Inactive)
REMARK    1  A    between atoms: N5_25  and  C12_26 
REMARK    2  A    between atoms: C12_26  and  C13_27 
ROOT
HETATM    1  O1  UNL     1      -2.992  10.351 -15.266  1.00  0.00    -0.272 OA
HETATM    2  C1  UNL     1      -2.869  11.257 -16.133  1.00  0.00     0.244 C 
HETATM    3  C2  UNL     1      -3.802  11.225 -17.289  1.00  0.00     0.334 C 
HETATM    4  N1  UNL     1      -4.314   9.884 -17.497  1.00  0.00    -0.065 N 
ATOM      5  H11 UNL     1      -4.248   9.324 -16.647  1.00  0.00     0.277 HD
ATOM      6  H12 UNL     1      -3.693   9.338 -18.096  1.00  0.00     0.277 HD
HETATM    7  C3  UNL     1      -5.672   9.903 -18.017  1.00  0.00     0.260 C 
HETATM    8  C4  UNL     1      -6.673  10.155 -16.901  1.00  0.00     0.259 C 
HETATM    9  N2  UNL     1      -7.697  11.027 -17.418  1.00  0.00    -0.072 N 
ATOM     10  H21 UNL     1      -8.358  10.517 -18.004  1.00  0.00     0.277 HD
ATOM     11  H22 UNL     1      -7.321  11.666 -18.119  1.00  0.00     0.277 HD
HETATM   12  C5  UNL     1      -8.378  11.748 -16.353  1.00  0.00     0.259 C 
HETATM   13  C6  UNL     1      -9.381  12.674 -17.011  1.00  0.00     0.259 C 
HETATM   14  N3  UNL     1      -9.826  13.699 -16.117  1.00  0.00    -0.073 N 
ATOM     15  H31 UNL     1      -9.727  13.415 -15.143  1.00  0.00     0.277 HD
ATOM     16  H32 UNL     1     -10.840  13.806 -16.147  1.00  0.00     0.277 HD
HETATM   17  C7  UNL     1      -9.141  14.973 -16.382  1.00  0.00     0.234 C 
HETATM   18  C8  UNL     1     -10.113  16.063 -16.090  1.00  0.00     0.055 C 
HETATM   19  C9  UNL     1      -9.508  17.380 -15.766  1.00  0.00     0.234 C 
HETATM   20  N4  UNL     1      -8.140  17.535 -16.149  1.00  0.00    -0.071 N 
ATOM     21  H41 UNL     1      -8.016  17.614 -17.158  1.00  0.00     0.277 HD
ATOM     22  H42 UNL     1      -7.591  16.686 -16.013  1.00  0.00     0.277 HD
HETATM   23  C10 UNL     1      -7.607  18.681 -15.419  1.00  0.00     0.277 C 
HETATM   24  C11 UNL     1      -6.300  19.164 -16.014  1.00  0.00     0.090 C 
HETATM   25  N5  UNL     1      -5.177  18.674 -15.322  1.00  0.00    -0.366 N 
HETATM   26  C19 UNL     1      -4.437  17.638 -15.962  1.00  0.00     0.155 C 
HETATM   27  C20 UNL     1      -3.499  16.940 -15.011  1.00  0.00     0.252 C 
HETATM   28  N6  UNL     1      -3.045  15.666 -15.558  1.00  0.00    -0.072 N 
ATOM     29  H61 UNL     1      -3.795  15.182 -16.053  1.00  0.00     0.277 HD
ATOM     30  H62 UNL     1      -2.876  14.981 -14.822  1.00  0.00     0.277 HD
HETATM   31  C21 UNL     1      -1.876  15.844 -16.403  1.00  0.00     0.260 C 
HETATM   32  C22 UNL     1      -0.746  14.985 -15.909  1.00  0.00     0.261 C 
HETATM   33  N7  UNL     1      -0.396  13.932 -16.831  1.00  0.00    -0.058 N 
ATOM     34  H71 UNL     1       0.410  13.407 -16.491  1.00  0.00     0.279 HD
ATOM     35  H72 UNL     1       0.004  14.319 -17.686  1.00  0.00     0.279 HD
HETATM   36  C23 UNL     1      -1.484  13.054 -17.133  1.00  0.00     0.357 C 
HETATM   37  N8  UNL     1      -1.889  12.250 -16.001  1.00  0.00    -0.336 N 
ATOM     38  H8  UNL     1      -1.455  12.409 -15.091  1.00  0.00     0.164 HD
ENDROOT
BRANCH  25  39
HETATM   39  C12 UNL     1      -4.483  19.526 -14.461  1.00  0.00     0.101 C 
BRANCH  39  40
HETATM   40  C13 UNL     1      -4.790  20.952 -14.476  1.00  0.00    -0.021 A 
HETATM   41  C14 UNL     1      -4.028  21.766 -13.646  1.00  0.00     0.013 A 
HETATM   42  C15 UNL     1      -4.228  23.129 -13.579  1.00  0.00     0.001 A 
HETATM   43  C16 UNL     1      -5.201  23.730 -14.343  1.00  0.00     0.000 A 
HETATM   44  C17 UNL     1      -5.974  22.956 -15.175  1.00  0.00     0.001 A 
HETATM   45  C18 UNL     1      -5.759  21.574 -15.232  1.00  0.00     0.013 A 
ENDBRANCH  39  40
ENDBRANCH  25  39
TORSDOF 2
ENDMDL
MODEL 5
REMARK VINA RESULT: -7.536860578      3.985      5.089
REMARK  2 active torsions:
REMARK  status: ('A' for Active; 'I' for Inactive)
REMARK    1  A    between atoms: N5_25  and  C12_26 
REMARK    2  A    between atoms: C12_26  and  C13_27 
ROOT
HETATM    1  O1  UNL     1     -10.017   9.973 -16.045  1.00  0.00    -0.272 OA
HETATM    2  C1  UNL     1      -8.868   9.848 -15.544  1.00  0.00     0.244 C 
HETATM    3  C2  UNL     1      -7.868   9.069 -16.320  1.00  0.00     0.334 C 
HETATM    4  N1  UNL     1      -8.526   8.150 -17.227  1.00  0.00    -0.065 N 
ATOM      5  H11 UNL     1      -9.479   8.449 -17.434  1.00  0.00     0.277 HD
ATOM      6  H12 UNL     1      -8.734   7.261 -16.770  1.00  0.00     0.277 HD
HETATM    7  C3  UNL     1      -7.755   7.953 -18.445  1.00  0.00     0.260 C 
HETATM    8  C4  UNL     1      -7.962   9.113 -19.407  1.00  0.00     0.259 C 
HETATM    9  N2  UNL     1      -6.693   9.400 -20.026  1.00  0.00    -0.072 N 
ATOM     10  H21 UNL     1      -6.477   8.726 -20.760  1.00  0.00     0.277 HD
ATOM     11  H22 UNL     1      -5.918   9.202 -19.393  1.00  0.00     0.277 HD
HETATM   12  C5  UNL     1      -6.635  10.766 -20.526  1.00  0.00     0.259 C 
HETATM   13  C6  UNL     1      -5.246  10.975 -21.094  1.00  0.00     0.259 C 
HETATM   14  N3  UNL     1      -4.940  12.363 -21.255  1.00  0.00    -0.073 N 
ATOM     15  H31 UNL     1      -5.785  12.925 -21.350  1.00  0.00     0.277 HD
ATOM     16  H32 UNL     1      -4.524  12.551 -22.168  1.00  0.00     0.277 HD
HETATM   17  C7  UNL     1      -4.086  12.852 -20.162  1.00  0.00     0.234 C 
HETATM   18  C8  UNL     1      -3.188  13.891 -20.737  1.00  0.00     0.055 C 
HETATM   19  C9  UNL     1      -2.648  14.872 -19.762  1.00  0.00     0.234 C 
HETATM   20  N4  UNL     1      -2.731  14.478 -18.390  1.00  0.00    -0.071 N 
ATOM     21  H41 UNL     1      -2.079  13.731 -18.151  1.00  0.00     0.277 HD
ATOM     22  H42 UNL     1      -3.593  13.979 -18.171  1.00  0.00     0.277 HD
HETATM   23  C10 UNL     1      -2.545  15.676 -17.578  1.00  0.00     0.277 C 
HETATM   24  C11 UNL     1      -2.242  15.331 -16.133  1.00  0.00     0.090 C 
HETATM   25  N5  UNL     1      -3.381  15.401 -15.310  1.00  0.00    -0.366 N 
HETATM   26  C19 UNL     1      -3.948  14.160 -14.901  1.00  0.00     0.155 C 
HETATM   27  C20 UNL     1      -5.339  14.327 -14.345  1.00  0.00     0.252 C 
HETATM   28  N6  UNL     1      -6.043  13.050 -14.293  1.00  0.00    -0.072 N 
ATOM     29  H61 UNL     1      -5.838  12.475 -15.110  1.00  0.00     0.277 HD
ATOM     30  H62 UNL     1      -7.047  13.170 -14.433  1.00  0.00     0.277 HD
HETATM   31  C21 UNL     1      -5.756  12.343 -13.056  1.00  0.00     0.260 C 
HETATM   32  C22 UNL     1      -7.035  12.031 -12.331  1.00  0.00     0.261 C 
HETATM   33  N7  UNL     1      -7.313  10.617 -12.265  1.00  0.00    -0.058 N 
ATOM     34  H71 UNL     1      -8.155  10.439 -11.718  1.00  0.00     0.279 HD
ATOM     35  H72 UNL     1      -6.628  10.141 -11.680  1.00  0.00     0.279 HD
HETATM   36  C23 UNL     1      -7.402   9.994 -13.551  1.00  0.00     0.357 C 
HETATM   37  N8  UNL     1      -8.556  10.427 -14.307  1.00  0.00    -0.336 N 
ATOM     38  H8  UNL     1      -9.153  11.165 -13.934  1.00  0.00     0.164 HD
ENDROOT
BRANCH  25  39
HETATM   39  C12 UNL     1      -3.537  16.495 -14.458  1.00  0.00     0.101 C 
BRANCH  39  40
HETATM   40  C13 UNL     1      -4.369  17.614 -14.886  1.00  0.00    -0.021 A 
HETATM   41  C14 UNL     1      -3.979  18.882 -14.468  1.00  0.00     0.013 A 
HETATM   42  C15 UNL     1      -4.688  20.013 -14.814  1.00  0.00     0.001 A 
HETATM   43  C16 UNL     1      -5.818  19.918 -15.593  1.00  0.00     0.000 A 
HETATM   44  C17 UNL     1      -6.233  18.681 -16.024  1.00  0.00     0.001 A 
HETATM   45  C18 UNL     1      -5.503  17.542 -15.664  1.00  0.00     0.013 A 
ENDBRANCH  39  40
ENDBRANCH  25  39
TORSDOF 2
ENDMDL
