MODEL 1
REMARK VINA RESULT: -8.998217188      0.000      0.000
REMARK  8 active torsions:
REMARK  status: ('A' for Active; 'I' for Inactive)
REMARK    1  A    between atoms: C4_7  and  C5_8 
REMARK       I    between atoms: C5_8  and  N3_10 
REMARK    2  A    between atoms: N3_10  and  N4_12 
REMARK       I    between atoms: N4_12  and  C6_14 
REMARK       I    between atoms: C6_14  and  N5_16 
REMARK    3  A    between atoms: N5_16  and  N6_18 
REMARK    4  A    between atoms: N6_18  and  C7_20 
REMARK    5  A    between atoms: N7_21  and  C8_22 
REMARK    6  A    between atoms: C16_33  and  C17_34 
REMARK       I    between atoms: C17_34  and  N9_36 
REMARK    7  A    between atoms: N9_36  and  N10_38 
REMARK    8  A    between atoms: N12_44  and  C19_45 
ROOT
HETATM    1  C7  UNL     1     -16.271   0.594   0.418  1.00  0.00     0.715 A 
HETATM    2  N7  UNL     1     -15.593  -0.371  -0.163  1.00  0.00    -0.107 N 
HETATM    3  C14 UNL     1     -15.396  -0.304  -1.519  1.00  0.00     0.297 A 
HETATM    4  O3  UNL     1     -14.749  -1.219  -2.091  1.00  0.00    -0.264 OA
HETATM    5  C15 UNL     1     -15.876   0.727  -2.287  1.00  0.00     0.149 A 
HETATM    6  N8  UNL     1     -15.862   1.085  -3.581  1.00  0.00    -0.330 N 
ATOM      7  H8  UNL     1     -15.414   0.555  -4.329  1.00  0.00     0.168 HD
HETATM    8  C16 UNL     1     -16.525   2.247  -3.750  1.00  0.00     0.178 A 
HETATM    9  N11 UNL     1     -16.966   2.630  -2.544  1.00  0.00    -0.321 N 
ATOM     10  H11 UNL     1     -17.504   3.476  -2.353  1.00  0.00     0.169 HD
HETATM   11  C18 UNL     1     -16.581   1.708  -1.607  1.00  0.00     0.163 A 
HETATM   12  N12 UNL     1     -16.786   1.664  -0.291  1.00  0.00    -0.128 N 
ENDROOT
BRANCH   1  13
HETATM   13  N6  UNL     1     -16.515   0.658   1.625  1.00  0.00    -0.127 N 
ATOM     14  H6  UNL     1     -17.514   0.795   1.782  1.00  0.00     0.206 HD
BRANCH  13  15
HETATM   15  N5  UNL     1     -15.861   0.603   2.789  1.00  0.00    -0.236 N 
HETATM   16  C6  UNL     1     -14.589   1.264   2.979  1.00  0.00     0.353 C 
HETATM   17  N4  UNL     1     -13.913   1.198   4.206  1.00  0.00    -0.247 N 
HETATM   18  O2  UNL     1     -14.116   1.891   2.024  1.00  0.00    -0.244 OA
ATOM     19  H4  UNL     1     -14.343   0.672   4.967  1.00  0.00     0.192 HD
ATOM     20  H5  UNL     1     -16.271   0.080   3.564  1.00  0.00     0.192 HD
BRANCH  17  21
HETATM   21  N3  UNL     1     -12.675   1.819   4.444  1.00  0.00    -0.259 N 
HETATM   22  C5  UNL     1     -11.451   1.249   4.082  1.00  0.00     0.304 C 
HETATM   23  O1  UNL     1     -11.549   0.099   3.509  1.00  0.00    -0.263 OA
ATOM     24  H3  UNL     1     -12.669   2.729   4.904  1.00  0.00     0.190 HD
BRANCH  22  25
HETATM   25  C4  UNL     1     -10.126   1.779   4.265  1.00  0.00     0.177 A 
HETATM   26  N1  UNL     1      -9.540   2.925   3.909  1.00  0.00    -0.342 N 
HETATM   27  C1  UNL     1     -10.175   3.999   3.176  1.00  0.00     0.157 C 
HETATM   28  C2  UNL     1      -8.238   2.965   4.325  1.00  0.00     0.109 A 
HETATM   29  C3  UNL     1      -8.022   1.788   4.964  1.00  0.00     0.107 A 
HETATM   30  N2  UNL     1      -9.143   1.095   4.924  1.00  0.00    -0.346 N 
ATOM     31  H2  UNL     1      -9.261   0.167   5.331  1.00  0.00     0.167 HD
ENDBRANCH  22  25
ENDBRANCH  17  21
ENDBRANCH  13  15
ENDBRANCH   1  13
BRANCH   2  32
HETATM   32  C8  UNL     1     -15.036  -1.500   0.486  1.00  0.00     0.060 A 
HETATM   33  C9  UNL     1     -13.703  -1.535   0.884  1.00  0.00     0.030 A 
HETATM   34  C10 UNL     1     -13.163  -2.650   1.482  1.00  0.00     0.002 A 
HETATM   35  C11 UNL     1     -13.918  -3.780   1.712  1.00  0.00     0.000 A 
HETATM   36  C12 UNL     1     -15.240  -3.759   1.323  1.00  0.00     0.002 A 
HETATM   37  C13 UNL     1     -15.783  -2.635   0.720  1.00  0.00     0.030 A 
ENDBRANCH   2  32
BRANCH  12  38
HETATM   38  C19 UNL     1     -17.519   2.689   0.358  1.00  0.00     0.059 A 
HETATM   39  C20 UNL     1     -16.906   3.825   0.853  1.00  0.00     0.030 A 
HETATM   40  C21 UNL     1     -17.633   4.814   1.484  1.00  0.00     0.002 A 
HETATM   41  C22 UNL     1     -18.993   4.717   1.651  1.00  0.00     0.000 A 
HETATM   42  C23 UNL     1     -19.628   3.581   1.158  1.00  0.00     0.002 A 
HETATM   43  C24 UNL     1     -18.884   2.586   0.522  1.00  0.00     0.030 A 
ENDBRANCH  12  38
BRANCH   8  44
HETATM   44  C17 UNL     1     -16.721   2.953  -5.027  1.00  0.00     0.303 C 
HETATM   45  O4  UNL     1     -15.951   2.757  -5.995  1.00  0.00    -0.263 OA
HETATM   46  N9  UNL     1     -17.785   3.866  -5.176  1.00  0.00    -0.270 N 
ATOM     47  H9  UNL     1     -18.421   4.037  -4.397  1.00  0.00     0.189 HD
BRANCH  46  48
HETATM   48  N10 UNL     1     -17.972   4.536  -6.386  1.00  0.00    -0.342 N 
ATOM     49 2H10 UNL     1     -17.765   5.534  -6.434  1.00  0.00     0.176 HD
ATOM     50 1H10 UNL     1     -18.309   4.032  -7.206  1.00  0.00     0.176 HD
ENDBRANCH  46  48
ENDBRANCH   8  44
TORSDOF 8
ENDMDL
MODEL 2
REMARK VINA RESULT: -8.973835579      0.154      1.067
REMARK  8 active torsions:
REMARK  status: ('A' for Active; 'I' for Inactive)
REMARK    1  A    between atoms: C4_7  and  C5_8 
REMARK       I    between atoms: C5_8  and  N3_10 
REMARK    2  A    between atoms: N3_10  and  N4_12 
REMARK       I    between atoms: N4_12  and  C6_14 
REMARK       I    between atoms: C6_14  and  N5_16 
REMARK    3  A    between atoms: N5_16  and  N6_18 
REMARK    4  A    between atoms: N6_18  and  C7_20 
REMARK    5  A    between atoms: N7_21  and  C8_22 
REMARK    6  A    between atoms: C16_33  and  C17_34 
REMARK       I    between atoms: C17_34  and  N9_36 
REMARK    7  A    between atoms: N9_36  and  N10_38 
REMARK    8  A    between atoms: N12_44  and  C19_45 
ROOT
HETATM    1  C7  UNL     1     -16.307   0.511   0.294  1.00  0.00     0.715 A 
HETATM    2  N7  UNL     1     -15.589  -0.422  -0.293  1.00  0.00    -0.107 N 
HETATM    3  C14 UNL     1     -15.365  -0.319  -1.641  1.00  0.00     0.297 A 
HETATM    4  O3  UNL     1     -14.680  -1.203  -2.219  1.00  0.00    -0.264 OA
HETATM    5  C15 UNL     1     -15.856   0.715  -2.398  1.00  0.00     0.149 A 
HETATM    6  N8  UNL     1     -15.823   1.102  -3.683  1.00  0.00    -0.330 N 
ATOM      7  H8  UNL     1     -15.344   0.602  -4.432  1.00  0.00     0.168 HD
HETATM    8  C16 UNL     1     -16.514   2.249  -3.841  1.00  0.00     0.178 A 
HETATM    9  N11 UNL     1     -16.992   2.594  -2.638  1.00  0.00    -0.321 N 
ATOM     10  H11 UNL     1     -17.557   3.420  -2.441  1.00  0.00     0.169 HD
HETATM   11  C18 UNL     1     -16.603   1.662  -1.713  1.00  0.00     0.163 A 
HETATM   12  N12 UNL     1     -16.835   1.582  -0.403  1.00  0.00    -0.128 N 
ENDROOT
BRANCH   1  13
HETATM   13  N6  UNL     1     -16.579   0.541   1.497  1.00  0.00    -0.127 N 
ATOM     14  H6  UNL     1     -17.586   0.633   1.633  1.00  0.00     0.206 HD
BRANCH  13  15
HETATM   15  N5  UNL     1     -15.949   0.491   2.673  1.00  0.00    -0.236 N 
HETATM   16  C6  UNL     1     -14.689   1.166   2.890  1.00  0.00     0.353 C 
HETATM   17  N4  UNL     1     -14.037   1.106   4.131  1.00  0.00    -0.247 N 
HETATM   18  O2  UNL     1     -14.203   1.800   1.947  1.00  0.00    -0.244 OA
ATOM     19  H4  UNL     1     -14.476   0.573   4.882  1.00  0.00     0.192 HD
ATOM     20  H5  UNL     1     -16.368  -0.038   3.439  1.00  0.00     0.192 HD
BRANCH  17  21
HETATM   21  N3  UNL     1     -12.811   1.740   4.395  1.00  0.00    -0.259 N 
HETATM   22  C5  UNL     1     -11.577   1.216   4.000  1.00  0.00     0.304 C 
HETATM   23  O1  UNL     1     -11.654   0.094   3.370  1.00  0.00    -0.263 OA
ATOM     24  H3  UNL     1     -12.822   2.626   4.900  1.00  0.00     0.190 HD
BRANCH  22  25
HETATM   25  C4  UNL     1     -10.263   1.764   4.205  1.00  0.00     0.177 A 
HETATM   26  N1  UNL     1      -9.708   2.946   3.923  1.00  0.00    -0.342 N 
HETATM   27  C1  UNL     1     -10.378   4.052   3.272  1.00  0.00     0.157 C 
HETATM   28  C2  UNL     1      -8.402   2.989   4.325  1.00  0.00     0.109 A 
HETATM   29  C3  UNL     1      -8.151   1.776   4.879  1.00  0.00     0.107 A 
HETATM   30  N2  UNL     1      -9.255   1.061   4.804  1.00  0.00    -0.346 N 
ATOM     31  H2  UNL     1      -9.346   0.105   5.148  1.00  0.00     0.167 HD
ENDBRANCH  22  25
ENDBRANCH  17  21
ENDBRANCH  13  15
ENDBRANCH   1  13
BRANCH   2  32
HETATM   32  C8  UNL     1     -15.016  -1.550   0.344  1.00  0.00     0.060 A 
HETATM   33  C9  UNL     1     -15.759  -2.693   0.623  1.00  0.00     0.030 A 
HETATM   34  C10 UNL     1     -15.202  -3.768   1.275  1.00  0.00     0.002 A 
HETATM   35  C11 UNL     1     -13.885  -3.761   1.679  1.00  0.00     0.000 A 
HETATM   36  C12 UNL     1     -13.136  -2.636   1.409  1.00  0.00     0.002 A 
HETATM   37  C13 UNL     1     -13.699  -1.552   0.753  1.00  0.00     0.030 A 
ENDBRANCH   2  32
BRANCH  12  38
HETATM   38  C19 UNL     1     -17.610   2.572   0.251  1.00  0.00     0.059 A 
HETATM   39  C20 UNL     1     -18.980   2.448   0.400  1.00  0.00     0.030 A 
HETATM   40  C21 UNL     1     -19.722   3.422   1.038  1.00  0.00     0.002 A 
HETATM   41  C22 UNL     1     -19.138   4.555   1.552  1.00  0.00     0.000 A 
HETATM   42  C23 UNL     1     -17.761   4.696   1.413  1.00  0.00     0.002 A 
HETATM   43  C24 UNL     1     -17.019   3.706   0.766  1.00  0.00     0.030 A 
ENDBRANCH  12  38
BRANCH   8  44
HETATM   44  C17 UNL     1     -16.702   2.978  -5.107  1.00  0.00     0.303 C 
HETATM   45  O4  UNL     1     -15.871   2.874  -6.039  1.00  0.00    -0.263 OA
HETATM   46  N9  UNL     1     -17.826   3.810  -5.286  1.00  0.00    -0.270 N 
ATOM     47  H9  UNL     1     -18.512   3.906  -4.537  1.00  0.00     0.189 HD
BRANCH  46  48
HETATM   48  N10 UNL     1     -18.005   4.502  -6.485  1.00  0.00    -0.342 N 
ATOM     49 2H10 UNL     1     -17.184   4.859  -6.975  1.00  0.00     0.176 HD
ATOM     50 1H10 UNL     1     -18.942   4.645  -6.861  1.00  0.00     0.176 HD
ENDBRANCH  46  48
ENDBRANCH   8  44
TORSDOF 8
ENDMDL
MODEL 3
REMARK VINA RESULT: -8.031412514      1.641      4.842
REMARK  8 active torsions:
REMARK  status: ('A' for Active; 'I' for Inactive)
REMARK    1  A    between atoms: C4_7  and  C5_8 
REMARK       I    between atoms: C5_8  and  N3_10 
REMARK    2  A    between atoms: N3_10  and  N4_12 
REMARK       I    between atoms: N4_12  and  C6_14 
REMARK       I    between atoms: C6_14  and  N5_16 
REMARK    3  A    between atoms: N5_16  and  N6_18 
REMARK    4  A    between atoms: N6_18  and  C7_20 
REMARK    5  A    between atoms: N7_21  and  C8_22 
REMARK    6  A    between atoms: C16_33  and  C17_34 
REMARK       I    between atoms: C17_34  and  N9_36 
REMARK    7  A    between atoms: N9_36  and  N10_38 
REMARK    8  A    between atoms: N12_44  and  C19_45 
ROOT
HETATM    1  C7  UNL     1     -16.325   0.753   0.358  1.00  0.00     0.715 A 
HETATM    2  N7  UNL     1     -16.822   1.833  -0.204  1.00  0.00    -0.107 N 
HETATM    3  C14 UNL     1     -16.668   1.994  -1.557  1.00  0.00     0.297 A 
HETATM    4  O3  UNL     1     -17.138   3.022  -2.110  1.00  0.00    -0.264 OA
HETATM    5  C15 UNL     1     -16.020   1.075  -2.344  1.00  0.00     0.149 A 
HETATM    6  N8  UNL     1     -15.708   0.930  -3.641  1.00  0.00    -0.330 N 
ATOM      7  H8  UNL     1     -15.945   1.596  -4.377  1.00  0.00     0.168 HD
HETATM    8  C16 UNL     1     -15.036  -0.224  -3.832  1.00  0.00     0.178 A 
HETATM    9  N11 UNL     1     -14.921  -0.818  -2.637  1.00  0.00    -0.321 N 
ATOM     10  H11 UNL     1     -14.459  -1.711  -2.463  1.00  0.00     0.169 HD
HETATM   11  C18 UNL     1     -15.522  -0.039  -1.684  1.00  0.00     0.163 A 
HETATM   12  N12 UNL     1     -15.659  -0.216  -0.371  1.00  0.00    -0.128 N 
ENDROOT
BRANCH   1  13
HETATM   13  N6  UNL     1     -16.397   0.483   1.559  1.00  0.00    -0.127 N 
ATOM     14  H6  UNL     1     -17.180  -0.147   1.738  1.00  0.00     0.206 HD
BRANCH  13  15
HETATM   15  N5  UNL     1     -15.756   0.770   2.695  1.00  0.00    -0.236 N 
HETATM   16  C6  UNL     1     -14.521   1.520   2.702  1.00  0.00     0.353 C 
HETATM   17  N4  UNL     1     -13.857   1.816   3.902  1.00  0.00    -0.247 N 
HETATM   18  O2  UNL     1     -14.066   1.895   1.615  1.00  0.00    -0.244 OA
ATOM     19  H4  UNL     1     -14.271   1.488   4.776  1.00  0.00     0.192 HD
ATOM     20  H5  UNL     1     -16.149   0.451   3.581  1.00  0.00     0.192 HD
BRANCH  17  21
HETATM   21  N3  UNL     1     -12.653   2.538   3.966  1.00  0.00    -0.259 N 
HETATM   22  C5  UNL     1     -11.399   1.929   4.056  1.00  0.00     0.304 C 
HETATM   23  O1  UNL     1     -11.434   0.641   4.078  1.00  0.00    -0.263 OA
ATOM     24  H3  UNL     1     -12.698   3.557   3.946  1.00  0.00     0.190 HD
BRANCH  22  25
HETATM   25  C4  UNL     1     -10.103   2.551   4.126  1.00  0.00     0.177 A 
HETATM   26  N1  UNL     1      -9.129   2.740   3.232  1.00  0.00    -0.342 N 
HETATM   27  C1  UNL     1      -9.163   2.308   1.851  1.00  0.00     0.157 C 
HETATM   28  C2  UNL     1      -8.068   3.399   3.788  1.00  0.00     0.109 A 
HETATM   29  C3  UNL     1      -8.415   3.623   5.080  1.00  0.00     0.107 A 
HETATM   30  N2  UNL     1      -9.617   3.119   5.270  1.00  0.00    -0.346 N 
ATOM     31  H2  UNL     1     -10.121   3.148   6.156  1.00  0.00     0.167 HD
ENDBRANCH  22  25
ENDBRANCH  17  21
ENDBRANCH  13  15
ENDBRANCH   1  13
BRANCH   2  32
HETATM   32  C8  UNL     1     -17.513   2.871   0.466  1.00  0.00     0.060 A 
HETATM   33  C9  UNL     1     -18.893   2.840   0.643  1.00  0.00     0.030 A 
HETATM   34  C10 UNL     1     -19.560   3.871   1.264  1.00  0.00     0.002 A 
HETATM   35  C11 UNL     1     -18.890   4.978   1.738  1.00  0.00     0.000 A 
HETATM   36  C12 UNL     1     -17.523   5.023   1.569  1.00  0.00     0.002 A 
HETATM   37  C13 UNL     1     -16.853   3.984   0.943  1.00  0.00     0.030 A 
ENDBRANCH   2  32
BRANCH  12  38
HETATM   38  C19 UNL     1     -15.126  -1.369   0.258  1.00  0.00     0.059 A 
HETATM   39  C20 UNL     1     -13.798  -1.450   0.634  1.00  0.00     0.030 A 
HETATM   40  C21 UNL     1     -13.294  -2.581   1.244  1.00  0.00     0.002 A 
HETATM   41  C22 UNL     1     -14.083  -3.675   1.505  1.00  0.00     0.000 A 
HETATM   42  C23 UNL     1     -15.423  -3.612   1.135  1.00  0.00     0.002 A 
HETATM   43  C24 UNL     1     -15.923  -2.464   0.519  1.00  0.00     0.030 A 
ENDBRANCH  12  38
BRANCH   8  44
HETATM   44  C17 UNL     1     -14.529  -0.726  -5.120  1.00  0.00     0.303 C 
HETATM   45  O4  UNL     1     -13.659  -0.091  -5.760  1.00  0.00    -0.263 OA
HETATM   46  N9  UNL     1     -15.020  -1.936  -5.652  1.00  0.00    -0.270 N 
ATOM     47  H9  UNL     1     -15.728  -2.464  -5.143  1.00  0.00     0.189 HD
BRANCH  46  48
HETATM   48  N10 UNL     1     -14.540  -2.413  -6.873  1.00  0.00    -0.342 N 
ATOM     49 2H10 UNL     1     -15.200  -2.812  -7.540  1.00  0.00     0.176 HD
ATOM     50 1H10 UNL     1     -13.545  -2.360  -7.090  1.00  0.00     0.176 HD
ENDBRANCH  46  48
ENDBRANCH   8  44
TORSDOF 8
ENDMDL
MODEL 4
REMARK VINA RESULT: -7.981015675      3.551      8.052
REMARK  8 active torsions:
REMARK  status: ('A' for Active; 'I' for Inactive)
REMARK    1  A    between atoms: C4_7  and  C5_8 
REMARK       I    between atoms: C5_8  and  N3_10 
REMARK    2  A    between atoms: N3_10  and  N4_12 
REMARK       I    between atoms: N4_12  and  C6_14 
REMARK       I    between atoms: C6_14  and  N5_16 
REMARK    3  A    between atoms: N5_16  and  N6_18 
REMARK    4  A    between atoms: N6_18  and  C7_20 
REMARK    5  A    between atoms: N7_21  and  C8_22 
REMARK    6  A    between atoms: C16_33  and  C17_34 
REMARK       I    between atoms: C17_34  and  N9_36 
REMARK    7  A    between atoms: N9_36  and  N10_38 
REMARK    8  A    between atoms: N12_44  and  C19_45 
ROOT
HETATM    1  C7  UNL     1     -15.107   1.733  -1.048  1.00  0.00     0.715 A 
HETATM    2  N7  UNL     1     -15.335   1.741  -2.343  1.00  0.00    -0.107 N 
HETATM    3  C14 UNL     1     -15.603   0.548  -2.964  1.00  0.00     0.297 A 
HETATM    4  O3  UNL     1     -15.823   0.537  -4.203  1.00  0.00    -0.264 OA
HETATM    5  C15 UNL     1     -15.643  -0.647  -2.290  1.00  0.00     0.149 A 
HETATM    6  N8  UNL     1     -15.867  -1.938  -2.580  1.00  0.00    -0.330 N 
ATOM      7  H8  UNL     1     -16.080  -2.300  -3.510  1.00  0.00     0.168 HD
HETATM    8  C16 UNL     1     -15.771  -2.689  -1.464  1.00  0.00     0.178 A 
HETATM    9  N11 UNL     1     -15.481  -1.860  -0.452  1.00  0.00    -0.321 N 
ATOM     10  H11 UNL     1     -15.346  -2.139   0.520  1.00  0.00     0.169 HD
HETATM   11  C18 UNL     1     -15.393  -0.579  -0.928  1.00  0.00     0.163 A 
HETATM   12  N12 UNL     1     -15.130   0.568  -0.302  1.00  0.00    -0.128 N 
ENDROOT
BRANCH   1  13
HETATM   13  N6  UNL     1     -14.859   2.731  -0.367  1.00  0.00    -0.127 N 
ATOM     14  H6  UNL     1     -13.893   3.028  -0.506  1.00  0.00     0.206 HD
BRANCH  13  15
HETATM   15  N5  UNL     1     -15.478   3.539   0.497  1.00  0.00    -0.236 N 
HETATM   16  C6  UNL     1     -16.919   3.663   0.524  1.00  0.00     0.353 C 
HETATM   17  N4  UNL     1     -17.558   4.515   1.437  1.00  0.00    -0.247 N 
HETATM   18  O2  UNL     1     -17.572   2.993  -0.284  1.00  0.00    -0.244 OA
ATOM     19  H4  UNL     1     -16.979   5.047   2.087  1.00  0.00     0.192 HD
ATOM     20  H5  UNL     1     -14.920   4.084   1.156  1.00  0.00     0.192 HD
BRANCH  17  21
HETATM   21  N3  UNL     1     -18.952   4.675   1.505  1.00  0.00    -0.259 N 
HETATM   22  C5  UNL     1     -19.568   5.868   1.891  1.00  0.00     0.304 C 
HETATM   23  O1  UNL     1     -18.748   6.818   2.186  1.00  0.00    -0.263 OA
ATOM     24  H3  UNL     1     -19.544   3.881   1.260  1.00  0.00     0.190 HD
BRANCH  22  25
HETATM   25  C4  UNL     1     -20.973   6.159   1.998  1.00  0.00     0.177 A 
HETATM   26  N1  UNL     1     -22.077   5.443   1.768  1.00  0.00    -0.342 N 
HETATM   27  C1  UNL     1     -22.106   4.072   1.306  1.00  0.00     0.157 C 
HETATM   28  C2  UNL     1     -23.203   6.175   2.023  1.00  0.00     0.109 A 
HETATM   29  C3  UNL     1     -22.764   7.393   2.428  1.00  0.00     0.107 A 
HETATM   30  N2  UNL     1     -21.446   7.373   2.409  1.00  0.00    -0.346 N 
ATOM     31  H2  UNL     1     -20.855   8.163   2.669  1.00  0.00     0.167 HD
ENDBRANCH  22  25
ENDBRANCH  17  21
ENDBRANCH  13  15
ENDBRANCH   1  13
BRANCH   2  32
HETATM   32  C8  UNL     1     -15.327   2.884  -3.178  1.00  0.00     0.060 A 
HETATM   33  C9  UNL     1     -14.145   3.423  -3.676  1.00  0.00     0.030 A 
HETATM   34  C10 UNL     1     -14.146   4.555  -4.457  1.00  0.00     0.002 A 
HETATM   35  C11 UNL     1     -15.317   5.204  -4.781  1.00  0.00     0.000 A 
HETATM   36  C12 UNL     1     -16.497   4.682  -4.295  1.00  0.00     0.002 A 
HETATM   37  C13 UNL     1     -16.494   3.541  -3.507  1.00  0.00     0.030 A 
ENDBRANCH   2  32
BRANCH  12  38
HETATM   38  C19 UNL     1     -14.875   0.585   1.092  1.00  0.00     0.059 A 
HETATM   39  C20 UNL     1     -15.897   0.615   2.022  1.00  0.00     0.030 A 
HETATM   40  C21 UNL     1     -15.633   0.632   3.377  1.00  0.00     0.002 A 
HETATM   41  C22 UNL     1     -14.348   0.622   3.863  1.00  0.00     0.000 A 
HETATM   42  C23 UNL     1     -13.305   0.591   2.942  1.00  0.00     0.002 A 
HETATM   43  C24 UNL     1     -13.583   0.574   1.574  1.00  0.00     0.030 A 
ENDBRANCH  12  38
BRANCH   8  44
HETATM   44  C17 UNL     1     -15.952  -4.148  -1.386  1.00  0.00     0.303 C 
HETATM   45  O4  UNL     1     -15.352  -4.825  -0.518  1.00  0.00    -0.263 OA
HETATM   46  N9  UNL     1     -16.808  -4.806  -2.292  1.00  0.00    -0.270 N 
ATOM     47  H9  UNL     1     -17.303  -4.270  -3.005  1.00  0.00     0.189 HD
BRANCH  46  48
HETATM   48  N10 UNL     1     -16.980  -6.190  -2.219  1.00  0.00    -0.342 N 
ATOM     49 2H10 UNL     1     -16.494  -6.783  -2.891  1.00  0.00     0.176 HD
ATOM     50 1H10 UNL     1     -17.581  -6.595  -1.502  1.00  0.00     0.176 HD
ENDBRANCH  46  48
ENDBRANCH   8  44
TORSDOF 8
ENDMDL
MODEL 5
REMARK VINA RESULT: -7.842155391      1.619      1.747
REMARK  8 active torsions:
REMARK  status: ('A' for Active; 'I' for Inactive)
REMARK    1  A    between atoms: C4_7  and  C5_8 
REMARK       I    between atoms: C5_8  and  N3_10 
REMARK    2  A    between atoms: N3_10  and  N4_12 
REMARK       I    between atoms: N4_12  and  C6_14 
REMARK       I    between atoms: C6_14  and  N5_16 
REMARK    3  A    between atoms: N5_16  and  N6_18 
REMARK    4  A    between atoms: N6_18  and  C7_20 
REMARK    5  A    between atoms: N7_21  and  C8_22 
REMARK    6  A    between atoms: C16_33  and  C17_34 
REMARK       I    between atoms: C17_34  and  N9_36 
REMARK    7  A    between atoms: N9_36  and  N10_38 
REMARK    8  A    between atoms: N12_44  and  C19_45 
ROOT
HETATM    1  C7  UNL     1     -16.528  -0.023  -0.876  1.00  0.00     0.715 A 
HETATM    2  N7  UNL     1     -15.874  -0.834  -1.679  1.00  0.00    -0.107 N 
HETATM    3  C14 UNL     1     -15.613  -0.415  -2.958  1.00  0.00     0.297 A 
HETATM    4  O3  UNL     1     -14.988  -1.179  -3.738  1.00  0.00    -0.264 OA
HETATM    5  C15 UNL     1     -16.005   0.812  -3.430  1.00  0.00     0.149 A 
HETATM    6  N8  UNL     1     -15.914   1.505  -4.577  1.00  0.00    -0.330 N 
ATOM      7  H8  UNL     1     -15.460   1.171  -5.427  1.00  0.00     0.168 HD
HETATM    8  C16 UNL     1     -16.509   2.708  -4.442  1.00  0.00     0.178 A 
HETATM    9  N11 UNL     1     -16.984   2.777  -3.191  1.00  0.00    -0.321 N 
ATOM     10  H11 UNL     1     -17.486   3.571  -2.793  1.00  0.00     0.169 HD
HETATM   11  C18 UNL     1     -16.689   1.614  -2.530  1.00  0.00     0.163 A 
HETATM   12  N12 UNL     1     -16.955   1.229  -1.282  1.00  0.00    -0.128 N 
ENDROOT
BRANCH   1  13
HETATM   13  N6  UNL     1     -16.823  -0.272   0.295  1.00  0.00    -0.127 N 
ATOM     14  H6  UNL     1     -17.807  -0.068   0.467  1.00  0.00     0.206 HD
BRANCH  13  15
HETATM   15  N5  UNL     1     -16.237  -0.730   1.405  1.00  0.00    -0.236 N 
HETATM   16  C6  UNL     1     -15.041  -0.119   1.940  1.00  0.00     0.353 C 
HETATM   17  N4  UNL     1     -14.435  -0.609   3.107  1.00  0.00    -0.247 N 
HETATM   18  O2  UNL     1     -14.566   0.850   1.336  1.00  0.00    -0.244 OA
ATOM     19  H4  UNL     1     -14.863  -1.409   3.573  1.00  0.00     0.192 HD
ATOM     20  H5  UNL     1     -16.645  -1.530   1.888  1.00  0.00     0.192 HD
BRANCH  17  21
HETATM   21  N3  UNL     1     -13.271  -0.056   3.668  1.00  0.00    -0.259 N 
HETATM   22  C5  UNL     1     -11.984  -0.496   3.349  1.00  0.00     0.304 C 
HETATM   23  O1  UNL     1     -11.949  -1.459   2.493  1.00  0.00    -0.263 OA
ATOM     24  H3  UNL     1     -13.371   0.704   4.342  1.00  0.00     0.190 HD
BRANCH  22  25
HETATM   25  C4  UNL     1     -10.723  -0.016   3.847  1.00  0.00     0.177 A 
HETATM   26  N1  UNL     1      -9.985   1.066   3.582  1.00  0.00    -0.342 N 
HETATM   27  C1  UNL     1     -10.325   2.100   2.629  1.00  0.00     0.157 C 
HETATM   28  C2  UNL     1      -8.841   1.080   4.332  1.00  0.00     0.109 A 
HETATM   29  C3  UNL     1      -8.887  -0.045   5.088  1.00  0.00     0.107 A 
HETATM   30  N2  UNL     1     -10.001  -0.685   4.795  1.00  0.00    -0.346 N 
ATOM     31  H2  UNL     1     -10.288  -1.566   5.221  1.00  0.00     0.167 HD
ENDBRANCH  22  25
ENDBRANCH  17  21
ENDBRANCH  13  15
ENDBRANCH   1  13
BRANCH   2  32
HETATM   32  C8  UNL     1     -15.405  -2.128  -1.345  1.00  0.00     0.060 A 
HETATM   33  C9  UNL     1     -14.103  -2.347  -0.907  1.00  0.00     0.030 A 
HETATM   34  C10 UNL     1     -13.646  -3.613  -0.620  1.00  0.00     0.002 A 
HETATM   35  C11 UNL     1     -14.459  -4.718  -0.753  1.00  0.00     0.000 A 
HETATM   36  C12 UNL     1     -15.752  -4.516  -1.187  1.00  0.00     0.002 A 
HETATM   37  C13 UNL     1     -16.210  -3.240  -1.476  1.00  0.00     0.030 A 
ENDBRANCH   2  32
BRANCH  12  38
HETATM   38  C19 UNL     1     -17.664   2.083  -0.401  1.00  0.00     0.059 A 
HETATM   39  C20 UNL     1     -17.044   3.125   0.264  1.00  0.00     0.030 A 
HETATM   40  C21 UNL     1     -17.748   3.948   1.120  1.00  0.00     0.002 A 
HETATM   41  C22 UNL     1     -19.090   3.770   1.354  1.00  0.00     0.000 A 
HETATM   42  C23 UNL     1     -19.732   2.727   0.693  1.00  0.00     0.002 A 
HETATM   43  C24 UNL     1     -19.011   1.900  -0.171  1.00  0.00     0.030 A 
ENDBRANCH  12  38
BRANCH   8  44
HETATM   44  C17 UNL     1     -16.611   3.743  -5.484  1.00  0.00     0.303 C 
HETATM   45  O4  UNL     1     -17.526   3.707  -6.339  1.00  0.00    -0.263 OA
HETATM   46  N9  UNL     1     -15.674   4.796  -5.531  1.00  0.00    -0.270 N 
ATOM     47  H9  UNL     1     -14.924   4.840  -4.842  1.00  0.00     0.189 HD
BRANCH  46  48
HETATM   48  N10 UNL     1     -15.770   5.778  -6.519  1.00  0.00    -0.342 N 
ATOM     49 2H10 UNL     1     -15.520   6.738  -6.285  1.00  0.00     0.176 HD
ATOM     50 1H10 UNL     1     -16.085   5.533  -7.458  1.00  0.00     0.176 HD
ENDBRANCH  46  48
ENDBRANCH   8  44
TORSDOF 8
ENDMDL
