MODEL 1
REMARK VINA RESULT: -8.912929964      0.000      0.000
REMARK  7 active torsions:
REMARK  status: ('A' for Active; 'I' for Inactive)
REMARK    1  A    between atoms: N1_2  and  C3_4 
REMARK    2  A    between atoms: N3_8  and  C5_10 
REMARK    3  A    between atoms: C8_13  and  N4_14 
REMARK    4  A    between atoms: C11_22  and  N7_23 
REMARK    5  A    between atoms: N7_23  and  C12_25 
REMARK    6  A    between atoms: C18_39  and  N12_40 
REMARK    7  A    between atoms: C20_47  and  N14_48 
ROOT
HETATM    1  C12 UNL     1     -11.050  -0.410   3.168  1.00  0.00     0.075 A 
HETATM    2  C13 UNL     1      -9.712  -0.299   2.910  1.00  0.00     0.049 A 
HETATM    3  C14 UNL     1      -9.035   0.845   3.311  1.00  0.00     0.092 A 
HETATM    4  N8  UNL     1      -9.686   1.839   3.949  1.00  0.00    -0.351 N 
ATOM      5  H8  UNL     1      -9.178   2.675   4.239  1.00  0.00     0.166 HD
HETATM    6  C15 UNL     1     -10.997   1.732   4.205  1.00  0.00     0.122 A 
HETATM    7  N9  UNL     1     -11.630   2.671   4.819  1.00  0.00    -0.384 N 
ATOM      8  H91 UNL     1     -12.627   2.590   5.013  1.00  0.00     0.157 HD
ATOM      9  H92 UNL     1     -11.111   3.501   5.104  1.00  0.00     0.157 HD
HETATM   10  C16 UNL     1     -11.698   0.611   3.821  1.00  0.00     0.115 A 
HETATM   11  C17 UNL     1     -13.109   0.502   4.105  1.00  0.00     0.105 C 
HETATM   12  N10 UNL     1     -14.246   0.408   4.317  1.00  0.00    -0.191 NA
ENDROOT
BRANCH   1  13
HETATM   13  N7  UNL     1     -11.825  -1.532   2.778  1.00  0.00    -0.189 N 
ATOM     14  H7  UNL     1     -11.891  -2.354   3.378  1.00  0.00     0.184 HD
BRANCH  13  15
HETATM   15  C11 UNL     1     -12.453  -1.486   1.631  1.00  0.00     0.698 A 
HETATM   16  N6  UNL     1     -12.398  -2.534   0.785  1.00  0.00    -0.187 N 
HETATM   17  C10 UNL     1     -13.043  -2.426  -0.384  1.00  0.00     0.215 A 
ATOM     18  H6  UNL     1     -11.883  -3.381   1.027  1.00  0.00     0.185 HD
HETATM   19  N5  UNL     1     -13.720  -1.336  -0.725  1.00  0.00    -0.187 N 
HETATM   20  C9  UNL     1     -13.755  -0.280   0.164  1.00  0.00     0.694 A 
ATOM     21  H5  UNL     1     -14.203  -1.280  -1.622  1.00  0.00     0.185 HD
HETATM   22  N4  UNL     1     -14.405   0.746  -0.189  1.00  0.00    -0.219 N 
HETATM   23  N11 UNL     1     -13.120  -0.366   1.339  1.00  0.00    -0.022 N 
ATOM     24  H4  UNL     1     -14.854   0.705  -1.105  1.00  0.00     0.178 HD
ATOM     25  H11 UNL     1     -13.144   0.411   2.000  1.00  0.00     0.203 HD
BRANCH  22  26
HETATM   26  C8  UNL     1     -14.580   1.947   0.545  1.00  0.00     0.130 C 
HETATM   27  C7  UNL     1     -15.833   1.919   1.386  1.00  0.00     0.030 C 
HETATM   28  C6  UNL     1     -15.903   3.157   2.233  1.00  0.00     0.028 C 
HETATM   29  C5  UNL     1     -15.886   4.365   1.348  1.00  0.00     0.101 C 
HETATM   30  C19 UNL     1     -15.932   3.962  -0.113  1.00  0.00     0.060 C 
HETATM   31  C18 UNL     1     -14.710   3.121  -0.437  1.00  0.00     0.208 C 
BRANCH  29  32
HETATM   32  N3  UNL     1     -16.879   5.286   1.676  1.00  0.00    -0.220 N 
HETATM   33  C4  UNL     1     -18.138   5.278   1.683  1.00  0.00     0.707 A 
HETATM   34  N2  UNL     1     -18.919   4.253   1.334  1.00  0.00    -0.021 N 
HETATM   35  N13 UNL     1     -18.764   6.436   2.057  1.00  0.00    -0.021 N 
HETATM   36  C3  UNL     1     -20.244   4.337   1.345  1.00  0.00     0.708 A 
ATOM     37  H2  UNL     1     -18.483   3.376   1.049  1.00  0.00     0.203 HD
HETATM   38  N15 UNL     1     -20.823   5.477   1.715  1.00  0.00    -0.021 N 
HETATM   39  C20 UNL     1     -20.094   6.577   2.087  1.00  0.00     0.709 A 
ATOM     40  H15 UNL     1     -21.841   5.535   1.721  1.00  0.00     0.203 HD
ATOM     41  H13 UNL     1     -18.187   7.232   2.328  1.00  0.00     0.203 HD
ATOM     42  H3  UNL     1     -16.494   6.180   1.983  1.00  0.00     0.178 HD
BRANCH  36  43
HETATM   43  N1  UNL     1     -20.998   3.200   0.955  1.00  0.00    -0.225 N 
HETATM   44  C1  UNL     1     -20.311   1.942   0.820  1.00  0.00     0.168 C 
HETATM   45  C2  UNL     1     -22.410   3.287   0.694  1.00  0.00     0.168 C 
ENDBRANCH  36  43
BRANCH  39  46
HETATM   46  N14 UNL     1     -20.789   7.754   2.439  1.00  0.00    -0.217 N 
HETATM   47  C21 UNL     1     -20.402   8.578   3.528  1.00  0.00     0.141 C 
HETATM   48  C22 UNL     1     -21.545   9.199   4.265  1.00  0.00     0.020 C 
HETATM   49  C23 UNL     1     -22.890   9.055   3.695  1.00  0.00     0.003 C 
HETATM   50  C24 UNL     1     -23.106   8.061   2.613  1.00  0.00     0.020 C 
HETATM   51  C25 UNL     1     -21.958   8.115   1.640  1.00  0.00     0.141 C 
ENDBRANCH  39  46
ENDBRANCH  29  32
BRANCH  31  52
HETATM   52  N12 UNL     1     -14.789   2.553  -1.763  1.00  0.00    -0.073 N 
ATOM     53 3H12 UNL     1     -14.612   3.233  -2.502  1.00  0.00     0.274 HD
ATOM     54 2H12 UNL     1     -14.015   1.924  -1.977  1.00  0.00     0.274 HD
ATOM     55 1H12 UNL     1     -15.702   2.105  -1.840  1.00  0.00     0.274 HD
ENDBRANCH  31  52
ENDBRANCH  22  26
ENDBRANCH  13  15
ENDBRANCH   1  13
TORSDOF 7
ENDMDL
MODEL 2
REMARK VINA RESULT: -8.876133408      1.913      2.639
REMARK  7 active torsions:
REMARK  status: ('A' for Active; 'I' for Inactive)
REMARK    1  A    between atoms: N1_2  and  C3_4 
REMARK    2  A    between atoms: N3_8  and  C5_10 
REMARK    3  A    between atoms: C8_13  and  N4_14 
REMARK    4  A    between atoms: C11_22  and  N7_23 
REMARK    5  A    between atoms: N7_23  and  C12_25 
REMARK    6  A    between atoms: C18_39  and  N12_40 
REMARK    7  A    between atoms: C20_47  and  N14_48 
ROOT
HETATM    1  C12 UNL     1     -11.761  -1.343   2.499  1.00  0.00     0.075 A 
HETATM    2  C13 UNL     1     -12.431  -1.385   3.691  1.00  0.00     0.049 A 
HETATM    3  C14 UNL     1     -11.912  -0.708   4.787  1.00  0.00     0.092 A 
HETATM    4  N8  UNL     1     -10.760  -0.016   4.682  1.00  0.00    -0.351 N 
ATOM      5  H8  UNL     1     -10.388   0.477   5.494  1.00  0.00     0.166 HD
HETATM    6  C15 UNL     1     -10.101   0.028   3.516  1.00  0.00     0.122 A 
HETATM    7  N9  UNL     1      -9.002   0.690   3.401  1.00  0.00    -0.384 N 
ATOM      8  H91 UNL     1      -8.501   0.723   2.514  1.00  0.00     0.157 HD
ATOM      9  H92 UNL     1      -8.641   1.179   4.220  1.00  0.00     0.157 HD
HETATM   10  C16 UNL     1     -10.589  -0.632   2.410  1.00  0.00     0.115 A 
HETATM   11  C17 UNL     1      -9.875  -0.575   1.156  1.00  0.00     0.105 C 
HETATM   12  N10 UNL     1      -9.305  -0.547   0.146  1.00  0.00    -0.191 NA
ENDROOT
BRANCH   1  13
HETATM   13  N7  UNL     1     -12.205  -2.018   1.335  1.00  0.00    -0.189 N 
ATOM     14  H7  UNL     1     -11.549  -2.273   0.597  1.00  0.00     0.184 HD
BRANCH  13  15
HETATM   15  C11 UNL     1     -13.477  -2.307   1.231  1.00  0.00     0.698 A 
HETATM   16  N6  UNL     1     -13.892  -3.587   1.313  1.00  0.00    -0.187 N 
HETATM   17  C10 UNL     1     -15.204  -3.828   1.179  1.00  0.00     0.215 A 
ATOM     18  H6  UNL     1     -13.230  -4.347   1.471  1.00  0.00     0.185 HD
HETATM   19  N5  UNL     1     -16.087  -2.858   0.971  1.00  0.00    -0.187 N 
HETATM   20  C9  UNL     1     -15.629  -1.558   0.891  1.00  0.00     0.694 A 
ATOM     21  H5  UNL     1     -17.080  -3.069   0.873  1.00  0.00     0.185 HD
HETATM   22  N4  UNL     1     -16.493  -0.657   0.689  1.00  0.00    -0.219 N 
HETATM   23  N11 UNL     1     -14.324  -1.294   1.023  1.00  0.00    -0.022 N 
ATOM     24  H4  UNL     1     -17.461  -0.969   0.606  1.00  0.00     0.178 HD
ATOM     25  H11 UNL     1     -13.980  -0.335   0.966  1.00  0.00     0.203 HD
BRANCH  22  26
HETATM   26  C8  UNL     1     -16.267   0.738   0.566  1.00  0.00     0.130 C 
HETATM   27  C7  UNL     1     -16.183   1.419   1.911  1.00  0.00     0.030 C 
HETATM   28  C6  UNL     1     -15.820   2.864   1.726  1.00  0.00     0.028 C 
HETATM   29  C5  UNL     1     -16.847   3.526   0.860  1.00  0.00     0.101 C 
HETATM   30  C19 UNL     1     -17.985   2.573   0.550  1.00  0.00     0.060 C 
HETATM   31  C18 UNL     1     -17.439   1.370  -0.199  1.00  0.00     0.208 C 
BRANCH  29  32
HETATM   32  N3  UNL     1     -17.296   4.735   1.386  1.00  0.00    -0.220 N 
HETATM   33  C4  UNL     1     -18.423   5.234   1.643  1.00  0.00     0.707 A 
HETATM   34  N2  UNL     1     -19.606   4.647   1.446  1.00  0.00    -0.021 N 
HETATM   35  N13 UNL     1     -18.438   6.507   2.146  1.00  0.00    -0.021 N 
HETATM   36  C3  UNL     1     -20.754   5.257   1.720  1.00  0.00     0.708 A 
ATOM     37  H2  UNL     1     -19.629   3.698   1.072  1.00  0.00     0.203 HD
HETATM   38  N15 UNL     1     -20.734   6.495   2.208  1.00  0.00    -0.021 N 
HETATM   39  C20 UNL     1     -19.563   7.169   2.439  1.00  0.00     0.709 A 
ATOM     40  H15 UNL     1     -21.619   6.957   2.417  1.00  0.00     0.203 HD
ATOM     41  H13 UNL     1     -17.546   6.975   2.304  1.00  0.00     0.203 HD
ATOM     42  H3  UNL     1     -16.529   5.367   1.620  1.00  0.00     0.178 HD
BRANCH  36  43
HETATM   43  N1  UNL     1     -21.965   4.561   1.475  1.00  0.00    -0.225 N 
HETATM   44  C1  UNL     1     -21.894   3.280   0.819  1.00  0.00     0.168 C 
HETATM   45  C2  UNL     1     -23.238   5.107   1.863  1.00  0.00     0.168 C 
ENDBRANCH  36  43
BRANCH  39  46
HETATM   46  N14 UNL     1     -19.636   8.489   2.934  1.00  0.00    -0.217 N 
HETATM   47  C21 UNL     1     -20.816   9.030   3.508  1.00  0.00     0.141 C 
HETATM   48  C22 UNL     1     -21.031  10.481   3.215  1.00  0.00     0.020 C 
HETATM   49  C23 UNL     1     -19.948  11.217   2.552  1.00  0.00     0.003 C 
HETATM   50  C24 UNL     1     -18.840  10.451   1.928  1.00  0.00     0.020 C 
HETATM   51  C25 UNL     1     -18.436   9.317   2.834  1.00  0.00     0.141 C 
ENDBRANCH  39  46
ENDBRANCH  29  32
BRANCH  31  52
HETATM   52  N12 UNL     1     -18.441   0.342  -0.359  1.00  0.00    -0.073 N 
ATOM     53 3H12 UNL     1     -19.129   0.561  -1.079  1.00  0.00     0.274 HD
ATOM     54 2H12 UNL     1     -18.076  -0.511  -0.784  1.00  0.00     0.274 HD
ATOM     55 1H12 UNL     1     -18.856   0.186   0.559  1.00  0.00     0.274 HD
ENDBRANCH  31  52
ENDBRANCH  22  26
ENDBRANCH  13  15
ENDBRANCH   1  13
TORSDOF 7
ENDMDL
MODEL 3
REMARK VINA RESULT: -8.627214784      2.886     11.558
REMARK  7 active torsions:
REMARK  status: ('A' for Active; 'I' for Inactive)
REMARK    1  A    between atoms: N1_2  and  C3_4 
REMARK    2  A    between atoms: N3_8  and  C5_10 
REMARK    3  A    between atoms: C8_13  and  N4_14 
REMARK    4  A    between atoms: C11_22  and  N7_23 
REMARK    5  A    between atoms: N7_23  and  C12_25 
REMARK    6  A    between atoms: C18_39  and  N12_40 
REMARK    7  A    between atoms: C20_47  and  N14_48 
ROOT
HETATM    1  C12 UNL     1     -19.363   3.885   1.231  1.00  0.00     0.075 A 
HETATM    2  C13 UNL     1     -20.324   2.975   0.886  1.00  0.00     0.049 A 
HETATM    3  C14 UNL     1     -21.663   3.332   0.976  1.00  0.00     0.092 A 
HETATM    4  N8  UNL     1     -22.017   4.563   1.398  1.00  0.00    -0.351 N 
ATOM      5  H8  UNL     1     -23.004   4.814   1.461  1.00  0.00     0.166 HD
HETATM    6  C15 UNL     1     -21.078   5.458   1.735  1.00  0.00     0.122 A 
HETATM    7  N9  UNL     1     -21.403   6.638   2.135  1.00  0.00    -0.384 N 
ATOM      8  H91 UNL     1     -20.689   7.319   2.391  1.00  0.00     0.157 HD
ATOM      9  H92 UNL     1     -22.392   6.877   2.192  1.00  0.00     0.157 HD
HETATM   10  C16 UNL     1     -19.742   5.135   1.657  1.00  0.00     0.115 A 
HETATM   11  C17 UNL     1     -18.737   6.108   2.017  1.00  0.00     0.105 C 
HETATM   12  N10 UNL     1     -17.920   6.876   2.316  1.00  0.00    -0.191 NA
ENDROOT
BRANCH   1  13
HETATM   13  N7  UNL     1     -17.975   3.602   1.188  1.00  0.00    -0.189 N 
ATOM     14  H7  UNL     1     -17.313   4.149   1.739  1.00  0.00     0.184 HD
BRANCH  13  15
HETATM   15  C11 UNL     1     -17.563   2.621   0.426  1.00  0.00     0.698 A 
HETATM   16  N6  UNL     1     -18.263   2.274  -0.672  1.00  0.00    -0.187 N 
HETATM   17  C10 UNL     1     -17.807   1.249  -1.405  1.00  0.00     0.215 A 
ATOM     18  H6  UNL     1     -19.112   2.774  -0.936  1.00  0.00     0.185 HD
HETATM   19  N5  UNL     1     -16.705   0.581  -1.084  1.00  0.00    -0.187 N 
HETATM   20  C9  UNL     1     -16.012   0.961   0.048  1.00  0.00     0.694 A 
ATOM     21  H5  UNL     1     -16.378  -0.195  -1.660  1.00  0.00     0.185 HD
HETATM   22  N4  UNL     1     -14.969   0.304   0.330  1.00  0.00    -0.219 N 
HETATM   23  N11 UNL     1     -16.448   1.982   0.794  1.00  0.00    -0.022 N 
ATOM     24  H4  UNL     1     -14.725  -0.454  -0.309  1.00  0.00     0.178 HD
ATOM     25  H11 UNL     1     -15.939   2.269   1.631  1.00  0.00     0.203 HD
BRANCH  22  26
HETATM   26  C8  UNL     1     -14.100   0.502   1.433  1.00  0.00     0.130 C 
HETATM   27  C7  UNL     1     -12.652   0.563   1.011  1.00  0.00     0.030 C 
HETATM   28  C6  UNL     1     -11.792   0.898   2.195  1.00  0.00     0.028 C 
HETATM   29  C5  UNL     1     -11.990  -0.136   3.260  1.00  0.00     0.101 C 
HETATM   30  C19 UNL     1     -12.889  -1.253   2.765  1.00  0.00     0.060 C 
HETATM   31  C18 UNL     1     -14.248  -0.677   2.406  1.00  0.00     0.208 C 
BRANCH  29  32
HETATM   32  N3  UNL     1     -10.787  -0.614   3.777  1.00  0.00    -0.220 N 
HETATM   33  C4  UNL     1      -9.793  -0.095   4.349  1.00  0.00     0.707 A 
HETATM   34  N2  UNL     1      -9.636   1.200   4.633  1.00  0.00    -0.021 N 
HETATM   35  N13 UNL     1      -8.765  -0.934   4.689  1.00  0.00    -0.021 N 
HETATM   36  C3  UNL     1      -8.539   1.669   5.217  1.00  0.00     0.708 A 
ATOM     37  H2  UNL     1     -10.384   1.851   4.392  1.00  0.00     0.203 HD
HETATM   38  N15 UNL     1      -7.558   0.828   5.535  1.00  0.00    -0.021 N 
HETATM   39  C20 UNL     1      -7.639  -0.517   5.278  1.00  0.00     0.709 A 
ATOM     40  H15 UNL     1      -6.719   1.195   5.983  1.00  0.00     0.203 HD
ATOM     41  H13 UNL     1      -8.864  -1.927   4.481  1.00  0.00     0.203 HD
ATOM     42  H3  UNL     1     -10.689  -1.623   3.666  1.00  0.00     0.178 HD
BRANCH  36  43
HETATM   43  N1  UNL     1      -8.454   3.061   5.478  1.00  0.00    -0.225 N 
HETATM   44  C1  UNL     1      -7.872   3.486   6.724  1.00  0.00     0.168 C 
HETATM   45  C2  UNL     1      -8.934   4.034   4.533  1.00  0.00     0.168 C 
ENDBRANCH  36  43
BRANCH  39  46
HETATM   46  N14 UNL     1      -6.541  -1.332   5.624  1.00  0.00    -0.217 N 
HETATM   47  C21 UNL     1      -6.208  -2.516   4.914  1.00  0.00     0.141 C 
HETATM   48  C22 UNL     1      -5.671  -3.616   5.772  1.00  0.00     0.020 C 
HETATM   49  C23 UNL     1      -5.373  -3.310   7.176  1.00  0.00     0.003 C 
HETATM   50  C24 UNL     1      -5.895  -2.049   7.760  1.00  0.00     0.020 C 
HETATM   51  C25 UNL     1      -5.730  -0.926   6.770  1.00  0.00     0.141 C 
ENDBRANCH  39  46
ENDBRANCH  29  32
BRANCH  31  52
HETATM   52  N12 UNL     1     -15.087  -1.656   1.756  1.00  0.00    -0.073 N 
ATOM     53 3H12 UNL     1     -14.617  -2.548   1.600  1.00  0.00     0.274 HD
ATOM     54 2H12 UNL     1     -15.835  -2.006   2.355  1.00  0.00     0.274 HD
ATOM     55 1H12 UNL     1     -15.430  -1.229   0.895  1.00  0.00     0.274 HD
ENDBRANCH  31  52
ENDBRANCH  22  26
ENDBRANCH  13  15
ENDBRANCH   1  13
TORSDOF 7
ENDMDL
MODEL 4
REMARK VINA RESULT: -8.627054058      2.894     11.533
REMARK  7 active torsions:
REMARK  status: ('A' for Active; 'I' for Inactive)
REMARK    1  A    between atoms: N1_2  and  C3_4 
REMARK    2  A    between atoms: N3_8  and  C5_10 
REMARK    3  A    between atoms: C8_13  and  N4_14 
REMARK    4  A    between atoms: C11_22  and  N7_23 
REMARK    5  A    between atoms: N7_23  and  C12_25 
REMARK    6  A    between atoms: C18_39  and  N12_40 
REMARK    7  A    between atoms: C20_47  and  N14_48 
ROOT
HETATM    1  C12 UNL     1     -19.464   4.103   1.380  1.00  0.00     0.075 A 
HETATM    2  C13 UNL     1     -20.407   3.174   1.033  1.00  0.00     0.049 A 
HETATM    3  C14 UNL     1     -21.750   3.524   1.066  1.00  0.00     0.092 A 
HETATM    4  N8  UNL     1     -22.126   4.766   1.435  1.00  0.00    -0.351 N 
ATOM      5  H8  UNL     1     -23.115   5.012   1.455  1.00  0.00     0.166 HD
HETATM    6  C15 UNL     1     -21.204   5.679   1.774  1.00  0.00     0.122 A 
HETATM    7  N9  UNL     1     -21.550   6.869   2.123  1.00  0.00    -0.384 N 
ATOM      8  H91 UNL     1     -20.849   7.563   2.380  1.00  0.00     0.157 HD
ATOM      9  H92 UNL     1     -22.542   7.103   2.138  1.00  0.00     0.157 HD
HETATM   10  C16 UNL     1     -19.864   5.363   1.751  1.00  0.00     0.115 A 
HETATM   11  C17 UNL     1     -18.878   6.354   2.113  1.00  0.00     0.105 C 
HETATM   12  N10 UNL     1     -18.077   7.138   2.414  1.00  0.00    -0.191 NA
ENDROOT
BRANCH   1  13
HETATM   13  N7  UNL     1     -18.073   3.828   1.394  1.00  0.00    -0.189 N 
ATOM     14  H7  UNL     1     -17.430   4.415   1.926  1.00  0.00     0.184 HD
BRANCH  13  15
HETATM   15  C11 UNL     1     -17.634   2.803   0.709  1.00  0.00     0.698 A 
HETATM   16  N6  UNL     1     -18.249   2.435  -0.433  1.00  0.00    -0.187 N 
HETATM   17  C10 UNL     1     -17.770   1.367  -1.084  1.00  0.00     0.215 A 
ATOM     18  H6  UNL     1     -19.052   2.953  -0.789  1.00  0.00     0.185 HD
HETATM   19  N5  UNL     1     -16.726   0.674  -0.642  1.00  0.00    -0.187 N 
HETATM   20  C9  UNL     1     -16.120   1.077   0.532  1.00  0.00     0.694 A 
ATOM     21  H5  UNL     1     -16.381  -0.136  -1.157  1.00  0.00     0.185 HD
HETATM   22  N4  UNL     1     -15.131   0.395   0.930  1.00  0.00    -0.219 N 
HETATM   23  N11 UNL     1     -16.581   2.142   1.198  1.00  0.00    -0.022 N 
ATOM     24  H4  UNL     1     -14.862  -0.396   0.344  1.00  0.00     0.178 HD
ATOM     25  H11 UNL     1     -16.136   2.444   2.065  1.00  0.00     0.203 HD
BRANCH  22  26
HETATM   26  C8  UNL     1     -14.355   0.608   2.097  1.00  0.00     0.130 C 
HETATM   27  C7  UNL     1     -12.948   1.044   1.770  1.00  0.00     0.030 C 
HETATM   28  C6  UNL     1     -12.212   1.375   3.037  1.00  0.00     0.028 C 
HETATM   29  C5  UNL     1     -12.200   0.174   3.932  1.00  0.00     0.101 C 
HETATM   30  C19 UNL     1     -12.817  -1.022   3.234  1.00  0.00     0.060 C 
HETATM   31  C18 UNL     1     -14.260  -0.708   2.884  1.00  0.00     0.208 C 
BRANCH  29  32
HETATM   32  N3  UNL     1     -10.934  -0.104   4.443  1.00  0.00    -0.220 N 
HETATM   33  C4  UNL     1      -9.866  -0.577   3.975  1.00  0.00     0.707 A 
HETATM   34  N2  UNL     1      -9.668  -0.975   2.715  1.00  0.00    -0.021 N 
HETATM   35  N13 UNL     1      -8.818  -0.722   4.843  1.00  0.00    -0.021 N 
HETATM   36  C3  UNL     1      -8.514  -1.490   2.308  1.00  0.00     0.708 A 
ATOM     37  H2  UNL     1     -10.430  -0.881   2.043  1.00  0.00     0.203 HD
HETATM   38  N15 UNL     1      -7.514  -1.618   3.177  1.00  0.00    -0.021 N 
HETATM   39  C20 UNL     1      -7.634  -1.234   4.489  1.00  0.00     0.709 A 
ATOM     40  H15 UNL     1      -6.629  -2.014   2.858  1.00  0.00     0.203 HD
ATOM     41  H13 UNL     1      -8.947  -0.424   5.810  1.00  0.00     0.203 HD
ATOM     42  H3  UNL     1     -10.853   0.133   5.432  1.00  0.00     0.178 HD
BRANCH  36  43
HETATM   43  N1  UNL     1      -8.392  -1.892   0.954  1.00  0.00    -0.225 N 
HETATM   44  C1  UNL     1      -9.591  -2.240   0.236  1.00  0.00     0.168 C 
HETATM   45  C2  UNL     1      -7.112  -1.958   0.301  1.00  0.00     0.168 C 
ENDBRANCH  36  43
BRANCH  39  46
HETATM   46  N14 UNL     1      -6.532  -1.429   5.348  1.00  0.00    -0.217 N 
HETATM   47  C21 UNL     1      -6.399  -2.571   6.181  1.00  0.00     0.141 C 
HETATM   48  C22 UNL     1      -5.763  -2.292   7.506  1.00  0.00     0.020 C 
HETATM   49  C23 UNL     1      -5.188  -0.961   7.727  1.00  0.00     0.003 C 
HETATM   50  C24 UNL     1      -5.527   0.131   6.780  1.00  0.00     0.020 C 
HETATM   51  C25 UNL     1      -5.498  -0.396   5.369  1.00  0.00     0.141 C 
ENDBRANCH  39  46
ENDBRANCH  29  32
BRANCH  31  52
HETATM   52  N12 UNL     1     -14.845  -1.736   2.055  1.00  0.00    -0.073 N 
ATOM     53 3H12 UNL     1     -15.315  -1.366   1.229  1.00  0.00     0.274 HD
ATOM     54 2H12 UNL     1     -14.151  -2.302   1.568  1.00  0.00     0.274 HD
ATOM     55 1H12 UNL     1     -15.461  -2.285   2.654  1.00  0.00     0.274 HD
ENDBRANCH  31  52
ENDBRANCH  22  26
ENDBRANCH  13  15
ENDBRANCH   1  13
TORSDOF 7
ENDMDL
MODEL 5
REMARK VINA RESULT: -8.606694089      1.619      2.305
REMARK  7 active torsions:
REMARK  status: ('A' for Active; 'I' for Inactive)
REMARK    1  A    between atoms: N1_2  and  C3_4 
REMARK    2  A    between atoms: N3_8  and  C5_10 
REMARK    3  A    between atoms: C8_13  and  N4_14 
REMARK    4  A    between atoms: C11_22  and  N7_23 
REMARK    5  A    between atoms: N7_23  and  C12_25 
REMARK    6  A    between atoms: C18_39  and  N12_40 
REMARK    7  A    between atoms: C20_47  and  N14_48 
ROOT
HETATM    1  C12 UNL     1     -11.449  -0.842   2.264  1.00  0.00     0.075 A 
HETATM    2  C13 UNL     1     -10.606   0.056   2.858  1.00  0.00     0.049 A 
HETATM    3  C14 UNL     1     -11.020   0.723   4.004  1.00  0.00     0.092 A 
HETATM    4  N8  UNL     1     -12.240   0.490   4.529  1.00  0.00    -0.351 N 
ATOM      5  H8  UNL     1     -12.534   0.986   5.370  1.00  0.00     0.166 HD
HETATM    6  C15 UNL     1     -13.069  -0.390   3.949  1.00  0.00     0.122 A 
HETATM    7  N9  UNL     1     -14.234  -0.625   4.443  1.00  0.00    -0.384 N 
ATOM      8  H91 UNL     1     -14.865  -1.294   4.002  1.00  0.00     0.157 HD
ATOM      9  H92 UNL     1     -14.516  -0.124   5.285  1.00  0.00     0.157 HD
HETATM   10  C16 UNL     1     -12.688  -1.067   2.812  1.00  0.00     0.115 A 
HETATM   11  C17 UNL     1     -13.585  -2.018   2.198  1.00  0.00     0.105 C 
HETATM   12  N10 UNL     1     -14.301  -2.774   1.687  1.00  0.00    -0.191 NA
ENDROOT
BRANCH   1  13
HETATM   13  N7  UNL     1     -11.118  -1.552   1.083  1.00  0.00    -0.189 N 
ATOM     14  H7  UNL     1     -10.744  -2.500   1.131  1.00  0.00     0.184 HD
BRANCH  13  15
HETATM   15  C11 UNL     1     -11.303  -0.963  -0.071  1.00  0.00     0.698 A 
HETATM   16  N6  UNL     1     -10.883  -1.550  -1.209  1.00  0.00    -0.187 N 
HETATM   17  C10 UNL     1     -11.080  -0.894  -2.360  1.00  0.00     0.215 A 
ATOM     18  H6  UNL     1     -10.430  -2.464  -1.194  1.00  0.00     0.185 HD
HETATM   19  N5  UNL     1     -11.666   0.297  -2.408  1.00  0.00    -0.187 N 
HETATM   20  C9  UNL     1     -12.084   0.872  -1.224  1.00  0.00     0.694 A 
ATOM     21  H5  UNL     1     -11.805   0.776  -3.298  1.00  0.00     0.185 HD
HETATM   22  N4  UNL     1     -12.635   2.008  -1.301  1.00  0.00    -0.219 N 
HETATM   23  N11 UNL     1     -11.898   0.233  -0.062  1.00  0.00    -0.022 N 
ATOM     24  H4  UNL     1     -12.728   2.403  -2.237  1.00  0.00     0.178 HD
ATOM     25  H11 UNL     1     -12.207   0.653   0.815  1.00  0.00     0.203 HD
BRANCH  22  26
HETATM   26  C8  UNL     1     -13.139   2.792  -0.232  1.00  0.00     0.130 C 
HETATM   27  C7  UNL     1     -14.518   2.351   0.194  1.00  0.00     0.030 C 
HETATM   28  C6  UNL     1     -14.949   3.130   1.404  1.00  0.00     0.028 C 
HETATM   29  C5  UNL     1     -14.935   4.592   1.083  1.00  0.00     0.101 C 
HETATM   30  C19 UNL     1     -14.618   4.819  -0.383  1.00  0.00     0.060 C 
HETATM   31  C18 UNL     1     -13.242   4.255  -0.689  1.00  0.00     0.208 C 
BRANCH  29  32
HETATM   32  N3  UNL     1     -16.103   5.241   1.479  1.00  0.00    -0.220 N 
HETATM   33  C4  UNL     1     -17.328   4.950   1.485  1.00  0.00     0.707 A 
HETATM   34  N2  UNL     1     -17.867   3.805   1.058  1.00  0.00    -0.021 N 
HETATM   35  N13 UNL     1     -18.191   5.907   1.947  1.00  0.00    -0.021 N 
HETATM   36  C3  UNL     1     -19.177   3.589   1.075  1.00  0.00     0.708 A 
ATOM     37  H2  UNL     1     -17.251   3.071   0.708  1.00  0.00     0.203 HD
HETATM   38  N15 UNL     1     -19.989   4.540   1.530  1.00  0.00    -0.021 N 
HETATM   39  C20 UNL     1     -19.518   5.744   1.986  1.00  0.00     0.709 A 
ATOM     40  H15 UNL     1     -20.995   4.368   1.541  1.00  0.00     0.203 HD
ATOM     41  H13 UNL     1     -17.802   6.790   2.278  1.00  0.00     0.203 HD
ATOM     42  H3  UNL     1     -15.923   6.172   1.854  1.00  0.00     0.178 HD
BRANCH  36  43
HETATM   43  N1  UNL     1     -19.664   2.345   0.598  1.00  0.00    -0.225 N 
HETATM   44  C1  UNL     1     -21.036   2.271   0.166  1.00  0.00     0.168 C 
HETATM   45  C2  UNL     1     -18.824   1.179   0.544  1.00  0.00     0.168 C 
ENDBRANCH  36  43
BRANCH  39  46
HETATM   46  N14 UNL     1     -20.452   6.706   2.427  1.00  0.00    -0.217 N 
HETATM   47  C21 UNL     1     -21.798   6.734   1.975  1.00  0.00     0.141 C 
HETATM   48  C22 UNL     1     -22.365   8.109   1.823  1.00  0.00     0.020 C 
HETATM   49  C23 UNL     1     -21.572   9.240   2.318  1.00  0.00     0.003 C 
HETATM   50  C24 UNL     1     -20.143   9.018   2.653  1.00  0.00     0.020 C 
HETATM   51  C25 UNL     1     -19.991   7.710   3.383  1.00  0.00     0.141 C 
ENDBRANCH  39  46
ENDBRANCH  29  32
BRANCH  31  52
HETATM   52  N12 UNL     1     -12.960   4.274  -2.105  1.00  0.00    -0.073 N 
ATOM     53 3H12 UNL     1     -13.646   4.803  -2.643  1.00  0.00     0.274 HD
ATOM     54 2H12 UNL     1     -12.144   4.837  -2.344  1.00  0.00     0.274 HD
ATOM     55 1H12 UNL     1     -12.877   3.302  -2.404  1.00  0.00     0.274 HD
ENDBRANCH  31  52
ENDBRANCH  22  26
ENDBRANCH  13  15
ENDBRANCH   1  13
TORSDOF 7
ENDMDL
