MODEL 1
REMARK VINA RESULT: -8.200376064      0.000      0.000
REMARK  7 active torsions:
REMARK  status: ('A' for Active; 'I' for Inactive)
REMARK    1  A    between atoms: C1_2  and  C2_4 
REMARK    2  A    between atoms: N1_6  and  C4_7 
REMARK       I    between atoms: N3_17  and  C11_18 
REMARK    3  A    between atoms: C11_18  and  C12_20 
REMARK       I    between atoms: N4_27  and  C19_28 
REMARK    4  A    between atoms: C19_28  and  C20_30 
REMARK    5  A    between atoms: C20_30  and  O5_31 
REMARK    6  A    between atoms: C20_30  and  N5_33 
REMARK    7  A    between atoms: C29_42  and  C30_43 
ROOT
HETATM    1  C12 UNL     1       3.917  -9.803  13.039  1.00  0.00     0.184 C 
HETATM    2  C13 UNL     1       3.719  -9.442  11.551  1.00  0.00     0.018 C 
HETATM    3  C14 UNL     1       2.991 -10.482  10.780  1.00  0.00     0.007 C 
HETATM    4  C15 UNL     1       3.984 -11.129   9.832  1.00  0.00     0.007 C 
HETATM    5  C16 UNL     1       5.270 -10.899  10.662  1.00  0.00     0.004 C 
HETATM    6  C17 UNL     1       5.091  -9.412  10.866  1.00  0.00     0.013 C 
HETATM    7  C18 UNL     1       5.042 -11.683  11.927  1.00  0.00     0.132 C 
HETATM    8  N4  UNL     1       4.970 -10.793  13.078  1.00  0.00    -0.331 N 
HETATM    9  C19 UNL     1       5.901 -10.986  14.147  1.00  0.00     0.295 C 
HETATM   10  O4  UNL     1       6.778 -11.886  13.950  1.00  0.00    -0.264 OA
ENDROOT
BRANCH   1  11
HETATM   11  C11 UNL     1       2.661 -10.331  13.623  1.00  0.00     0.244 C 
HETATM   12  N3  UNL     1       1.500  -9.560  13.890  1.00  0.00    -0.333 N 
HETATM   13  C2  UNL     1       0.304 -10.178  14.467  1.00  0.00     0.205 C 
HETATM   14  C10 UNL     1       1.462  -8.152  13.612  1.00  0.00     0.146 C 
HETATM   15  C3  UNL     1      -0.822  -9.189  14.384  1.00  0.00     0.153 C 
HETATM   16  N1  UNL     1      -0.528  -7.926  14.954  1.00  0.00    -0.404 N 
HETATM   17  C9  UNL     1       0.704  -7.359  14.691  1.00  0.00     0.137 C 
HETATM   18  O3  UNL     1       2.616 -11.558  13.906  1.00  0.00    -0.271 OA
BRANCH  13  19
HETATM   19  C1  UNL     1       0.560 -10.642  15.850  1.00  0.00     0.198 C 
HETATM   20  O1  UNL     1       0.181 -11.785  16.192  1.00  0.00    -0.646 OA
HETATM   21  O2  UNL     1       1.205  -9.881  16.812  1.00  0.00    -0.646 OA
ENDBRANCH  13  19
BRANCH  16  22
HETATM   22  C4  UNL     1      -1.580  -7.335  15.607  1.00  0.00     0.082 C 
HETATM   23  C5  UNL     1      -1.034  -6.245  16.542  1.00  0.00     0.052 C 
HETATM   24  C6  UNL     1      -0.608  -6.790  17.862  1.00  0.00     0.234 C 
HETATM   25  N2  UNL     1      -1.832  -7.267  18.523  1.00  0.00    -0.075 N 
HETATM   26  C7  UNL     1      -2.257  -8.428  17.789  1.00  0.00     0.234 C 
ATOM     27  H22 UNL     1      -1.713  -7.438  19.522  1.00  0.00     0.277 HD
ATOM     28  H21 UNL     1      -2.554  -6.551  18.605  1.00  0.00     0.277 HD
HETATM   29  C8  UNL     1      -2.554  -8.142  16.357  1.00  0.00     0.052 C 
ENDBRANCH  16  22
ENDBRANCH   1  11
BRANCH   9  30
HETATM   30  C20 UNL     1       5.895 -10.248  15.369  1.00  0.00     0.208 C 
BRANCH  30  31
HETATM   31  O5  UNL     1       5.535 -10.886  16.463  1.00  0.00    -0.342 OA
ATOM     32  H5  UNL     1       6.007 -10.688  17.263  1.00  0.00     0.219 HD
ENDBRANCH  30  31
BRANCH  30  33
HETATM   33  N5  UNL     1       6.219  -8.911  15.622  1.00  0.00    -0.342 N 
HETATM   34  C21 UNL     1       5.429  -8.326  16.727  1.00  0.00     0.126 C 
HETATM   35  C22 UNL     1       4.245  -7.634  16.191  1.00  0.00     0.024 C 
HETATM   36  C23 UNL     1       4.507  -6.220  15.720  1.00  0.00    -0.013 C 
HETATM   37  C24 UNL     1       4.494  -6.163  14.217  1.00  0.00     0.005 C 
HETATM   38  C28 UNL     1       5.732  -5.592  16.328  1.00  0.00     0.005 C 
HETATM   39  C25 UNL     1       5.766  -6.638  13.590  1.00  0.00     0.007 C 
HETATM   40  C26 UNL     1       6.927  -6.828  14.496  1.00  0.00     0.019 C 
HETATM   41  C27 UNL     1       7.017  -5.958  15.680  1.00  0.00     0.007 C 
HETATM   42  C29 UNL     1       7.206  -8.331  14.786  1.00  0.00     0.191 C 
BRANCH  42  43
HETATM   43  C30 UNL     1       8.559  -8.339  15.391  1.00  0.00     0.197 C 
HETATM   44  O6  UNL     1       8.750  -9.033  16.427  1.00  0.00    -0.646 OA
HETATM   45  O7  UNL     1       9.622  -7.621  14.874  1.00  0.00    -0.646 OA
ENDBRANCH  42  43
ENDBRANCH  30  33
ENDBRANCH   9  30
TORSDOF 7
ENDMDL
MODEL 2
REMARK VINA RESULT: -7.609052945      1.209      1.522
REMARK  7 active torsions:
REMARK  status: ('A' for Active; 'I' for Inactive)
REMARK    1  A    between atoms: C1_2  and  C2_4 
REMARK    2  A    between atoms: N1_6  and  C4_7 
REMARK       I    between atoms: N3_17  and  C11_18 
REMARK    3  A    between atoms: C11_18  and  C12_20 
REMARK       I    between atoms: N4_27  and  C19_28 
REMARK    4  A    between atoms: C19_28  and  C20_30 
REMARK    5  A    between atoms: C20_30  and  O5_31 
REMARK    6  A    between atoms: C20_30  and  N5_33 
REMARK    7  A    between atoms: C29_42  and  C30_43 
ROOT
HETATM    1  C12 UNL     1       4.227 -10.364  12.387  1.00  0.00     0.184 C 
HETATM    2  C13 UNL     1       4.263 -10.064  10.873  1.00  0.00     0.018 C 
HETATM    3  C14 UNL     1       4.004 -11.257  10.027  1.00  0.00     0.007 C 
HETATM    4  C15 UNL     1       5.306 -11.621   9.338  1.00  0.00     0.007 C 
HETATM    5  C16 UNL     1       6.286 -11.064  10.399  1.00  0.00     0.004 C 
HETATM    6  C17 UNL     1       5.693  -9.676  10.482  1.00  0.00     0.013 C 
HETATM    7  C18 UNL     1       6.003 -11.882  11.631  1.00  0.00     0.132 C 
HETATM    8  N4  UNL     1       5.465 -11.045  12.693  1.00  0.00    -0.331 N 
HETATM    9  C19 UNL     1       6.168 -10.989  13.938  1.00  0.00     0.295 C 
HETATM   10  O4  UNL     1       7.266 -11.629  13.974  1.00  0.00    -0.264 OA
ENDROOT
BRANCH   1  11
HETATM   11  C11 UNL     1       3.054 -11.202  12.730  1.00  0.00     0.244 C 
HETATM   12  N3  UNL     1       1.862 -10.725  13.334  1.00  0.00    -0.333 N 
HETATM   13  C2  UNL     1       0.754 -11.636  13.630  1.00  0.00     0.205 C 
HETATM   14  C10 UNL     1       1.705  -9.341  13.681  1.00  0.00     0.146 C 
HETATM   15  C3  UNL     1      -0.443 -10.813  14.009  1.00  0.00     0.153 C 
HETATM   16  N1  UNL     1      -0.202  -9.885  15.052  1.00  0.00    -0.404 N 
HETATM   17  C9  UNL     1       0.967  -9.148  15.017  1.00  0.00     0.137 C 
HETATM   18  O3  UNL     1       3.115 -12.432  12.467  1.00  0.00    -0.271 OA
BRANCH  13  19
HETATM   19  C1  UNL     1       1.134 -12.612  14.678  1.00  0.00     0.198 C 
HETATM   20  O1  UNL     1       0.691 -13.782  14.614  1.00  0.00    -0.646 OA
HETATM   21  O2  UNL     1       1.965 -12.314  15.745  1.00  0.00    -0.646 OA
ENDBRANCH  13  19
BRANCH  16  22
HETATM   22  C4  UNL     1      -1.247  -9.723  15.926  1.00  0.00     0.082 C 
HETATM   23  C5  UNL     1      -2.472  -9.225  15.145  1.00  0.00     0.052 C 
HETATM   24  C6  UNL     1      -2.473  -7.744  14.973  1.00  0.00     0.234 C 
HETATM   25  N2  UNL     1      -2.636  -7.175  16.320  1.00  0.00    -0.075 N 
HETATM   26  C7  UNL     1      -1.407  -7.443  17.018  1.00  0.00     0.234 C 
ATOM     27  H22 UNL     1      -2.893  -6.188  16.315  1.00  0.00     0.277 HD
ATOM     28  H21 UNL     1      -3.463  -7.518  16.808  1.00  0.00     0.277 HD
HETATM   29  C8  UNL     1      -1.102  -8.897  17.134  1.00  0.00     0.052 C 
ENDBRANCH  16  22
ENDBRANCH   1  11
BRANCH   9  30
HETATM   30  C20 UNL     1       5.715 -10.280  15.092  1.00  0.00     0.208 C 
BRANCH  30  31
HETATM   31  O5  UNL     1       4.817 -10.868  15.855  1.00  0.00    -0.342 OA
ATOM     32  H5  UNL     1       5.125 -11.303  16.641  1.00  0.00     0.219 HD
ENDBRANCH  30  31
BRANCH  30  33
HETATM   33  N5  UNL     1       6.073  -9.019  15.579  1.00  0.00    -0.342 N 
HETATM   34  C21 UNL     1       5.342  -8.648  16.810  1.00  0.00     0.126 C 
HETATM   35  C22 UNL     1       4.148  -7.857  16.472  1.00  0.00     0.024 C 
HETATM   36  C23 UNL     1       4.411  -6.382  16.266  1.00  0.00    -0.013 C 
HETATM   37  C24 UNL     1       4.332  -6.039  14.804  1.00  0.00     0.005 C 
HETATM   38  C28 UNL     1       5.673  -5.890  16.924  1.00  0.00     0.005 C 
HETATM   39  C25 UNL     1       5.567  -6.397  14.038  1.00  0.00     0.007 C 
HETATM   40  C26 UNL     1       6.764  -6.765  14.836  1.00  0.00     0.019 C 
HETATM   41  C27 UNL     1       6.921  -6.137  16.158  1.00  0.00     0.007 C 
HETATM   42  C29 UNL     1       7.031  -8.298  14.822  1.00  0.00     0.191 C 
BRANCH  42  43
HETATM   43  C30 UNL     1       8.409  -8.431  15.350  1.00  0.00     0.197 C 
HETATM   44  O6  UNL     1       8.627  -9.286  16.252  1.00  0.00    -0.646 OA
HETATM   45  O7  UNL     1       9.468  -7.663  14.902  1.00  0.00    -0.646 OA
ENDBRANCH  42  43
ENDBRANCH  30  33
ENDBRANCH   9  30
TORSDOF 7
ENDMDL
MODEL 3
REMARK VINA RESULT: -7.544371799      1.230      1.392
REMARK  7 active torsions:
REMARK  status: ('A' for Active; 'I' for Inactive)
REMARK    1  A    between atoms: C1_2  and  C2_4 
REMARK    2  A    between atoms: N1_6  and  C4_7 
REMARK       I    between atoms: N3_17  and  C11_18 
REMARK    3  A    between atoms: C11_18  and  C12_20 
REMARK       I    between atoms: N4_27  and  C19_28 
REMARK    4  A    between atoms: C19_28  and  C20_30 
REMARK    5  A    between atoms: C20_30  and  O5_31 
REMARK    6  A    between atoms: C20_30  and  N5_33 
REMARK    7  A    between atoms: C29_42  and  C30_43 
ROOT
HETATM    1  C12 UNL     1       4.185 -10.173  12.601  1.00  0.00     0.184 C 
HETATM    2  C13 UNL     1       4.176  -9.854  11.090  1.00  0.00     0.018 C 
HETATM    3  C14 UNL     1       3.814 -11.018  10.242  1.00  0.00     0.007 C 
HETATM    4  C15 UNL     1       5.064 -11.447   9.495  1.00  0.00     0.007 C 
HETATM    5  C16 UNL     1       6.117 -10.963  10.521  1.00  0.00     0.004 C 
HETATM    6  C17 UNL     1       5.610  -9.544  10.645  1.00  0.00     0.013 C 
HETATM    7  C18 UNL     1       5.838 -11.780  11.754  1.00  0.00     0.132 C 
HETATM    8  N4  UNL     1       5.393 -10.928  12.848  1.00  0.00    -0.331 N 
HETATM    9  C19 UNL     1       6.148 -10.930  14.063  1.00  0.00     0.295 C 
HETATM   10  O4  UNL     1       7.208 -11.633  14.045  1.00  0.00    -0.264 OA
ENDROOT
BRANCH   1  11
HETATM   11  C11 UNL     1       2.980 -10.947  12.983  1.00  0.00     0.244 C 
HETATM   12  N3  UNL     1       1.764 -10.383  13.448  1.00  0.00    -0.333 N 
HETATM   13  C2  UNL     1       0.626 -11.235  13.796  1.00  0.00     0.205 C 
HETATM   14  C10 UNL     1       1.611  -8.963  13.598  1.00  0.00     0.146 C 
HETATM   15  C3  UNL     1      -0.577 -10.358  13.992  1.00  0.00     0.153 C 
HETATM   16  N1  UNL     1      -0.379  -9.302  14.916  1.00  0.00    -0.404 N 
HETATM   17  C9  UNL     1       0.802  -8.587  14.852  1.00  0.00     0.137 C 
HETATM   18  O3  UNL     1       3.035 -12.201  12.889  1.00  0.00    -0.271 OA
BRANCH  13  19
HETATM   19  C1  UNL     1       0.929 -12.067  14.984  1.00  0.00     0.198 C 
HETATM   20  O1  UNL     1       0.270 -13.114  15.183  1.00  0.00    -0.646 OA
HETATM   21  O2  UNL     1       1.912 -11.760  15.910  1.00  0.00    -0.646 OA
ENDBRANCH  13  19
BRANCH  16  22
HETATM   22  C4  UNL     1      -1.470  -9.015  15.697  1.00  0.00     0.082 C 
HETATM   23  C5  UNL     1      -1.060  -9.112  17.174  1.00  0.00     0.052 C 
HETATM   24  C6  UNL     1      -1.137 -10.506  17.695  1.00  0.00     0.234 C 
HETATM   25  N2  UNL     1      -2.561 -10.871  17.681  1.00  0.00    -0.075 N 
HETATM   26  C7  UNL     1      -2.928 -10.998  16.296  1.00  0.00     0.234 C 
ATOM     27  H22 UNL     1      -2.773 -11.702  18.234  1.00  0.00     0.277 HD
ATOM     28  H21 UNL     1      -3.152 -10.222  18.200  1.00  0.00     0.277 HD
HETATM   29  C8  UNL     1      -2.738  -9.739  15.520  1.00  0.00     0.052 C 
ENDBRANCH  16  22
ENDBRANCH   1  11
BRANCH   9  30
HETATM   30  C20 UNL     1       5.785 -10.214  15.243  1.00  0.00     0.208 C 
BRANCH  30  31
HETATM   31  O5  UNL     1       5.025 -10.833  16.122  1.00  0.00    -0.342 OA
ATOM     32  H5  UNL     1       4.642 -10.311  16.818  1.00  0.00     0.219 HD
ENDBRANCH  30  31
BRANCH  30  33
HETATM   33  N5  UNL     1       6.108  -8.915  15.650  1.00  0.00    -0.342 N 
HETATM   34  C21 UNL     1       5.339  -8.473  16.833  1.00  0.00     0.126 C 
HETATM   35  C22 UNL     1       4.141  -7.730  16.411  1.00  0.00     0.024 C 
HETATM   36  C23 UNL     1       4.387  -6.268  16.109  1.00  0.00    -0.013 C 
HETATM   37  C24 UNL     1       4.341  -6.029  14.625  1.00  0.00     0.005 C 
HETATM   38  C28 UNL     1       5.622  -5.709  16.764  1.00  0.00     0.005 C 
HETATM   39  C25 UNL     1       5.601  -6.416  13.918  1.00  0.00     0.007 C 
HETATM   40  C26 UNL     1       6.783  -6.706  14.770  1.00  0.00     0.019 C 
HETATM   41  C27 UNL     1       6.894  -5.985  16.049  1.00  0.00     0.007 C 
HETATM   42  C29 UNL     1       7.075  -8.231  14.869  1.00  0.00     0.191 C 
BRANCH  42  43
HETATM   43  C30 UNL     1       8.440  -8.303  15.441  1.00  0.00     0.197 C 
HETATM   44  O6  UNL     1       8.643  -9.074  16.418  1.00  0.00    -0.646 OA
HETATM   45  O7  UNL     1       9.503  -7.564  14.954  1.00  0.00    -0.646 OA
ENDBRANCH  42  43
ENDBRANCH  30  33
ENDBRANCH   9  30
TORSDOF 7
ENDMDL
MODEL 4
REMARK VINA RESULT: -7.499644866      1.541      2.386
REMARK  7 active torsions:
REMARK  status: ('A' for Active; 'I' for Inactive)
REMARK    1  A    between atoms: C1_2  and  C2_4 
REMARK    2  A    between atoms: N1_6  and  C4_7 
REMARK       I    between atoms: N3_17  and  C11_18 
REMARK    3  A    between atoms: C11_18  and  C12_20 
REMARK       I    between atoms: N4_27  and  C19_28 
REMARK    4  A    between atoms: C19_28  and  C20_30 
REMARK    5  A    between atoms: C20_30  and  O5_31 
REMARK    6  A    between atoms: C20_30  and  N5_33 
REMARK    7  A    between atoms: C29_42  and  C30_43 
ROOT
HETATM    1  C12 UNL     1       4.307  -9.739  13.250  1.00  0.00     0.184 C 
HETATM    2  C13 UNL     1       4.205  -9.928  11.722  1.00  0.00     0.018 C 
HETATM    3  C14 UNL     1       3.769 -11.290  11.321  1.00  0.00     0.007 C 
HETATM    4  C15 UNL     1       4.960 -11.985  10.687  1.00  0.00     0.007 C 
HETATM    5  C16 UNL     1       6.086 -11.234  11.438  1.00  0.00     0.004 C 
HETATM    6  C17 UNL     1       5.612  -9.833  11.121  1.00  0.00     0.013 C 
HETATM    7  C18 UNL     1       5.873 -11.595  12.884  1.00  0.00     0.132 C 
HETATM    8  N4  UNL     1       5.515 -10.418  13.663  1.00  0.00    -0.331 N 
HETATM    9  C19 UNL     1       6.346 -10.053  14.768  1.00  0.00     0.295 C 
HETATM   10  O4  UNL     1       7.391 -10.763  14.922  1.00  0.00    -0.264 OA
ENDROOT
BRANCH   1  11
HETATM   11  C11 UNL     1       3.116 -10.302  13.930  1.00  0.00     0.244 C 
HETATM   12  N3  UNL     1       1.833  -9.694  13.961  1.00  0.00    -0.333 N 
HETATM   13  C2  UNL     1       0.716 -10.334  14.659  1.00  0.00     0.205 C 
HETATM   14  C10 UNL     1       1.591  -8.433  13.319  1.00  0.00     0.146 C 
HETATM   15  C3  UNL     1      -0.544  -9.605  14.295  1.00  0.00     0.153 C 
HETATM   16  N1  UNL     1      -0.489  -8.206  14.516  1.00  0.00    -0.404 N 
HETATM   17  C9  UNL     1       0.652  -7.527  14.135  1.00  0.00     0.137 C 
HETATM   18  O3  UNL     1       3.247 -11.402  14.528  1.00  0.00    -0.271 OA
BRANCH  13  19
HETATM   19  C1  UNL     1       0.955 -10.374  16.120  1.00  0.00     0.198 C 
HETATM   20  O1  UNL     1       0.573 -11.371  16.775  1.00  0.00    -0.646 OA
HETATM   21  O2  UNL     1       1.586  -9.364  16.827  1.00  0.00    -0.646 OA
ENDBRANCH  13  19
BRANCH  16  22
HETATM   22  C4  UNL     1      -1.660  -7.652  14.968  1.00  0.00     0.082 C 
HETATM   23  C5  UNL     1      -1.329  -6.593  16.030  1.00  0.00     0.052 C 
HETATM   24  C6  UNL     1      -1.161  -7.183  17.388  1.00  0.00     0.234 C 
HETATM   25  N2  UNL     1      -2.482  -7.698  17.778  1.00  0.00    -0.075 N 
HETATM   26  C7  UNL     1      -2.733  -8.836  16.934  1.00  0.00     0.234 C 
ATOM     27  H22 UNL     1      -2.559  -7.907  18.774  1.00  0.00     0.277 HD
ATOM     28  H21 UNL     1      -3.219  -6.994  17.741  1.00  0.00     0.277 HD
HETATM   29  C8  UNL     1      -2.747  -8.499  15.482  1.00  0.00     0.052 C 
ENDBRANCH  16  22
ENDBRANCH   1  11
BRANCH   9  30
HETATM   30  C20 UNL     1       6.073  -8.979  15.668  1.00  0.00     0.208 C 
BRANCH  30  31
HETATM   31  O5  UNL     1       5.520  -9.279  16.825  1.00  0.00    -0.342 OA
ATOM     32  H5  UNL     1       5.834  -8.819  17.594  1.00  0.00     0.219 HD
ENDBRANCH  30  31
BRANCH  30  33
HETATM   33  N5  UNL     1       6.299  -7.605  15.534  1.00  0.00    -0.342 N 
HETATM   34  C21 UNL     1       7.584  -7.294  14.871  1.00  0.00     0.126 C 
HETATM   35  C22 UNL     1       8.633  -7.073  15.879  1.00  0.00     0.024 C 
HETATM   36  C23 UNL     1       8.667  -5.672  16.451  1.00  0.00    -0.013 C 
HETATM   37  C24 UNL     1       8.135  -5.673  17.858  1.00  0.00     0.005 C 
HETATM   38  C28 UNL     1       8.017  -4.639  15.570  1.00  0.00     0.005 C 
HETATM   39  C25 UNL     1       6.641  -5.699  17.932  1.00  0.00     0.007 C 
HETATM   40  C26 UNL     1       5.905  -5.444  16.668  1.00  0.00     0.019 C 
HETATM   41  C27 UNL     1       6.538  -4.558  15.677  1.00  0.00     0.007 C 
HETATM   42  C29 UNL     1       5.303  -6.747  16.066  1.00  0.00     0.191 C 
BRANCH  42  43
HETATM   43  C30 UNL     1       4.344  -6.266  15.044  1.00  0.00     0.197 C 
HETATM   44  O6  UNL     1       3.271  -5.728  15.433  1.00  0.00    -0.646 OA
HETATM   45  O7  UNL     1       4.569  -6.379  13.685  1.00  0.00    -0.646 OA
ENDBRANCH  42  43
ENDBRANCH  30  33
ENDBRANCH   9  30
TORSDOF 7
ENDMDL
MODEL 5
REMARK VINA RESULT: -7.466806999      2.654      6.813
REMARK  7 active torsions:
REMARK  status: ('A' for Active; 'I' for Inactive)
REMARK    1  A    between atoms: C1_2  and  C2_4 
REMARK    2  A    between atoms: N1_6  and  C4_7 
REMARK       I    between atoms: N3_17  and  C11_18 
REMARK    3  A    between atoms: C11_18  and  C12_20 
REMARK       I    between atoms: N4_27  and  C19_28 
REMARK    4  A    between atoms: C19_28  and  C20_30 
REMARK    5  A    between atoms: C20_30  and  O5_31 
REMARK    6  A    between atoms: C20_30  and  N5_33 
REMARK    7  A    between atoms: C29_42  and  C30_43 
ROOT
HETATM    1  C12 UNL     1       1.885 -10.324  14.412  1.00  0.00     0.184 C 
HETATM    2  C13 UNL     1       1.152 -11.385  15.260  1.00  0.00     0.018 C 
HETATM    3  C14 UNL     1      -0.051 -11.947  14.594  1.00  0.00     0.007 C 
HETATM    4  C15 UNL     1      -1.269 -11.434  15.339  1.00  0.00     0.007 C 
HETATM    5  C16 UNL     1      -0.670 -10.106  15.863  1.00  0.00     0.004 C 
HETATM    6  C17 UNL     1       0.564 -10.703  16.500  1.00  0.00     0.013 C 
HETATM    7  C18 UNL     1      -0.350  -9.326  14.616  1.00  0.00     0.132 C 
HETATM    8  N4  UNL     1       1.086  -9.121  14.491  1.00  0.00    -0.331 N 
HETATM    9  C19 UNL     1       1.580  -7.780  14.423  1.00  0.00     0.295 C 
HETATM   10  O4  UNL     1       0.703  -6.869  14.562  1.00  0.00    -0.264 OA
ENDROOT
BRANCH   1  11
HETATM   11  C11 UNL     1       2.032 -10.780  13.010  1.00  0.00     0.244 C 
HETATM   12  N3  UNL     1       3.191 -11.398  12.472  1.00  0.00    -0.333 N 
HETATM   13  C2  UNL     1       3.236 -11.818  11.070  1.00  0.00     0.205 C 
HETATM   14  C10 UNL     1       4.357 -11.624  13.279  1.00  0.00     0.146 C 
HETATM   15  C3  UNL     1       4.461 -12.662  10.871  1.00  0.00     0.153 C 
HETATM   16  N1  UNL     1       5.664 -12.048  11.299  1.00  0.00    -0.404 N 
HETATM   17  C9  UNL     1       5.665 -11.378  12.507  1.00  0.00     0.137 C 
HETATM   18  O3  UNL     1       1.057 -10.609  12.232  1.00  0.00    -0.271 OA
BRANCH  13  19
HETATM   19  C1  UNL     1       3.193 -10.647  10.163  1.00  0.00     0.198 C 
HETATM   20  O1  UNL     1       2.586 -10.741   9.071  1.00  0.00    -0.646 OA
HETATM   21  O2  UNL     1       3.790  -9.430  10.445  1.00  0.00    -0.646 OA
ENDBRANCH  13  19
BRANCH  16  22
HETATM   22  C4  UNL     1       6.754 -12.314  10.508  1.00  0.00     0.082 C 
HETATM   23  C5  UNL     1       7.508 -11.001  10.247  1.00  0.00     0.052 C 
HETATM   24  C6  UNL     1       6.942 -10.240   9.097  1.00  0.00     0.234 C 
HETATM   25  N2  UNL     1       7.194 -11.057   7.900  1.00  0.00    -0.075 N 
HETATM   26  C7  UNL     1       6.336 -12.206   8.012  1.00  0.00     0.234 C 
ATOM     27  H22 UNL     1       7.075 -10.545   7.026  1.00  0.00     0.277 HD
ATOM     28  H21 UNL     1       8.177 -11.296   7.772  1.00  0.00     0.277 HD
HETATM   29  C8  UNL     1       6.604 -13.024   9.229  1.00  0.00     0.052 C 
ENDBRANCH  16  22
ENDBRANCH   1  11
BRANCH   9  30
HETATM   30  C20 UNL     1       2.948  -7.430  14.215  1.00  0.00     0.208 C 
BRANCH  30  31
HETATM   31  O5  UNL     1       3.473  -7.698  13.038  1.00  0.00    -0.342 OA
ATOM     32  H5  UNL     1       2.993  -7.418  12.268  1.00  0.00     0.219 HD
ENDBRANCH  30  31
BRANCH  30  33
HETATM   33  N5  UNL     1       3.870  -6.826  15.076  1.00  0.00    -0.342 N 
HETATM   34  C21 UNL     1       4.297  -5.487  14.617  1.00  0.00     0.126 C 
HETATM   35  C22 UNL     1       5.539  -5.593  13.833  1.00  0.00     0.024 C 
HETATM   36  C23 UNL     1       6.802  -5.635  14.665  1.00  0.00    -0.013 C 
HETATM   37  C24 UNL     1       7.377  -7.025  14.666  1.00  0.00     0.005 C 
HETATM   38  C28 UNL     1       6.642  -5.057  16.046  1.00  0.00     0.005 C 
HETATM   39  C25 UNL     1       6.687  -7.957  15.612  1.00  0.00     0.007 C 
HETATM   40  C26 UNL     1       5.753  -7.343  16.591  1.00  0.00     0.019 C 
HETATM   41  C27 UNL     1       6.048  -5.976  17.050  1.00  0.00     0.007 C 
HETATM   42  C29 UNL     1       4.264  -7.582  16.210  1.00  0.00     0.191 C 
BRANCH  42  43
HETATM   43  C30 UNL     1       3.514  -7.223  17.437  1.00  0.00     0.197 C 
HETATM   44  O6  UNL     1       3.746  -7.871  18.494  1.00  0.00    -0.646 OA
HETATM   45  O7  UNL     1       2.570  -6.213  17.477  1.00  0.00    -0.646 OA
ENDBRANCH  42  43
ENDBRANCH  30  33
ENDBRANCH   9  30
TORSDOF 7
ENDMDL
