MODEL 1
REMARK VINA RESULT: -7.126882558      0.000      0.000
REMARK  10 active torsions:
REMARK  status: ('A' for Active; 'I' for Inactive)
REMARK    1  A    between atoms: C2_2  and  C3_3 
REMARK    2  A    between atoms: C3_3  and  C4_4 
REMARK    3  A    between atoms: C5_5  and  O1_6 
REMARK    4  A    between atoms: C7_15  and  C8_16 
REMARK    5  A    between atoms: C11_19  and  O4_20 
REMARK    6  A    between atoms: C12_24  and  C13_25 
REMARK    7  A    between atoms: C13_25  and  C15_27 
REMARK    8  A    between atoms: C17_31  and  C18_32 
REMARK    9  A    between atoms: C21_35  and  O5_36 
REMARK   10  A    between atoms: C25_42  and  O6_43 
ROOT
HETATM    1  C4  UNL     1       5.022 -10.900  10.893  1.00  0.00     0.065 C 
HETATM    2  C5  UNL     1       5.795  -9.748  11.294  1.00  0.00     0.174 C 
HETATM    3  N1  UNL     1       6.235  -9.212  12.503  1.00  0.00    -0.245 N 
ATOM      4  H1  UNL     1       7.245  -9.093  12.586  1.00  0.00     0.182 HD
HETATM    5  S1  UNL     1       5.320  -8.720  13.882  1.00  0.00     0.327 S 
HETATM    6  O2  UNL     1       4.236  -7.713  13.512  1.00  0.00    -0.182 OA
HETATM    7  O3  UNL     1       4.652  -9.889  14.512  1.00  0.00    -0.182 OA
HETATM    8  N2  UNL     1       6.245  -7.973  15.054  1.00  0.00    -0.262 N 
HETATM    9  C6  UNL     1       7.648  -8.277  15.033  1.00  0.00     0.171 C 
HETATM   10  C7  UNL     1       5.698  -7.497  16.252  1.00  0.00     0.077 C 
HETATM   11  C11 UNL     1       4.578  -8.220  16.880  1.00  0.00     0.165 C 
HETATM   12  N3  UNL     1       3.242  -7.982  17.175  1.00  0.00    -0.325 N 
ATOM     13  H3  UNL     1       3.179  -7.595  18.116  1.00  0.00     0.169 HD
HETATM   14  C12 UNL     1       1.933  -8.083  16.639  1.00  0.00     0.087 C 
HETATM   15  N4  UNL     1       1.666  -8.999  15.560  1.00  0.00    -0.345 N 
ATOM     16  H4  UNL     1       1.850  -8.758  14.586  1.00  0.00     0.167 HD
HETATM   17  C17 UNL     1       1.124 -10.275  15.943  1.00  0.00     0.065 C 
HETATM   18  C21 UNL     1       1.665 -11.476  15.331  1.00  0.00     0.166 C 
HETATM   19  N5  UNL     1       1.649 -12.138  14.093  1.00  0.00    -0.331 N 
HETATM   20  C22 UNL     1       1.257 -13.584  14.045  1.00  0.00     0.158 C 
HETATM   21  C23 UNL     1       2.004 -11.680  12.753  1.00  0.00     0.060 C 
HETATM   22  C24 UNL     1       1.704 -10.280  12.413  1.00  0.00     0.073 C 
HETATM   23  C25 UNL     1       3.248 -12.273  12.238  1.00  0.00     0.165 C 
HETATM   24  N6  UNL     1       4.507 -11.854  11.814  1.00  0.00    -0.330 N 
HETATM   25  C26 UNL     1       5.613 -12.652  12.469  1.00  0.00     0.158 C 
ENDROOT
BRANCH  14  26
HETATM   26  C13 UNL     1       1.160  -6.797  16.466  1.00  0.00     0.049 C 
HETATM   27  C14 UNL     1       0.714  -6.406  15.134  1.00  0.00     0.018 C 
BRANCH  26  28
HETATM   28  C15 UNL     1       1.928  -5.620  17.085  1.00  0.00     0.007 C 
HETATM   29  C16 UNL     1       1.091  -4.779  17.986  1.00  0.00     0.006 C 
ENDBRANCH  26  28
ENDBRANCH  14  26
BRANCH  11  30
HETATM   30  O4  UNL     1       5.057  -9.406  17.239  1.00  0.00    -0.345 OA
ATOM     31  H4  UNL     1       4.715 -10.031  16.611  1.00  0.00     0.219 HD
ENDBRANCH  11  30
BRANCH  17  32
HETATM   32  C18 UNL     1      -0.353 -10.282  16.211  1.00  0.00     0.032 C 
HETATM   33  C19 UNL     1      -0.769 -11.642  16.778  1.00  0.00     0.016 C 
HETATM   34  C20 UNL     1      -1.273  -9.961  15.116  1.00  0.00     0.016 C 
ENDBRANCH  17  32
BRANCH  10  35
HETATM   35  C8  UNL     1       5.583  -5.988  16.215  1.00  0.00     0.033 C 
HETATM   36  C9  UNL     1       5.828  -5.469  17.615  1.00  0.00     0.016 C 
HETATM   37  C10 UNL     1       6.730  -5.457  15.390  1.00  0.00     0.016 C 
ENDBRANCH  10  35
BRANCH  18  38
HETATM   38  O5  UNL     1       2.406 -12.181  16.182  1.00  0.00    -0.344 OA
ATOM     39  H5  UNL     1       3.052 -12.716  15.735  1.00  0.00     0.219 HD
ENDBRANCH  18  38
BRANCH  23  40
HETATM   40  O6  UNL     1       3.108 -13.589  12.168  1.00  0.00    -0.344 OA
ATOM     41  H6  UNL     1       3.259 -13.967  13.026  1.00  0.00     0.219 HD
ENDBRANCH  23  40
BRANCH   2  42
HETATM   42  O1  UNL     1       6.182  -9.032  10.251  1.00  0.00    -0.344 OA
ATOM     43  H1  UNL     1       7.037  -9.301   9.938  1.00  0.00     0.219 HD
ENDBRANCH   2  42
BRANCH   1  44
HETATM   44  C3  UNL     1       4.140 -10.546   9.705  1.00  0.00     0.061 C 
BRANCH  44  45
HETATM   45  C2  UNL     1       3.449 -11.667   9.042  1.00  0.00     0.002 C 
HETATM   46  C1  UNL     1       1.941 -11.448   8.922  1.00  0.00     0.005 C 
ENDBRANCH  44  45
ENDBRANCH   1  44
TORSDOF 10
ENDMDL
MODEL 2
REMARK VINA RESULT: -7.004042729      1.397      1.560
REMARK  10 active torsions:
REMARK  status: ('A' for Active; 'I' for Inactive)
REMARK    1  A    between atoms: C2_2  and  C3_3 
REMARK    2  A    between atoms: C3_3  and  C4_4 
REMARK    3  A    between atoms: C5_5  and  O1_6 
REMARK    4  A    between atoms: C7_15  and  C8_16 
REMARK    5  A    between atoms: C11_19  and  O4_20 
REMARK    6  A    between atoms: C12_24  and  C13_25 
REMARK    7  A    between atoms: C13_25  and  C15_27 
REMARK    8  A    between atoms: C17_31  and  C18_32 
REMARK    9  A    between atoms: C21_35  and  O5_36 
REMARK   10  A    between atoms: C25_42  and  O6_43 
ROOT
HETATM    1  C4  UNL     1       6.035 -12.040  10.697  1.00  0.00     0.065 C 
HETATM    2  C5  UNL     1       7.006 -11.049  11.100  1.00  0.00     0.174 C 
HETATM    3  N1  UNL     1       7.422 -10.491  12.307  1.00  0.00    -0.245 N 
ATOM      4  H1  UNL     1       8.416 -10.589  12.513  1.00  0.00     0.182 HD
HETATM    5  S1  UNL     1       6.499  -9.659  13.506  1.00  0.00     0.327 S 
HETATM    6  O2  UNL     1       5.726  -8.486  12.911  1.00  0.00    -0.182 OA
HETATM    7  O3  UNL     1       5.513 -10.574  14.137  1.00  0.00    -0.182 OA
HETATM    8  N2  UNL     1       7.438  -9.007  14.723  1.00  0.00    -0.262 N 
HETATM    9  C6  UNL     1       8.725  -9.612  14.915  1.00  0.00     0.171 C 
HETATM   10  C7  UNL     1       6.887  -8.291  15.793  1.00  0.00     0.077 C 
HETATM   11  C11 UNL     1       5.567  -8.675  16.325  1.00  0.00     0.165 C 
HETATM   12  N3  UNL     1       4.299  -8.117  16.419  1.00  0.00    -0.325 N 
ATOM     13  H3  UNL     1       4.224  -7.623  17.308  1.00  0.00     0.169 HD
HETATM   14  C12 UNL     1       3.070  -7.987  15.724  1.00  0.00     0.087 C 
HETATM   15  N4  UNL     1       2.718  -8.937  14.700  1.00  0.00    -0.345 N 
ATOM     16  H4  UNL     1       3.059  -8.853  13.742  1.00  0.00     0.167 HD
HETATM   17  C17 UNL     1       1.856 -10.012  15.113  1.00  0.00     0.065 C 
HETATM   18  C21 UNL     1       2.168 -11.363  14.681  1.00  0.00     0.166 C 
HETATM   19  N5  UNL     1       2.135 -12.140  13.513  1.00  0.00    -0.331 N 
HETATM   20  C22 UNL     1       1.425 -13.460  13.534  1.00  0.00     0.158 C 
HETATM   21  C23 UNL     1       2.733 -11.924  12.198  1.00  0.00     0.060 C 
HETATM   22  C24 UNL     1       2.805 -10.539  11.704  1.00  0.00     0.073 C 
HETATM   23  C25 UNL     1       3.853 -12.830  11.905  1.00  0.00     0.165 C 
HETATM   24  N6  UNL     1       5.215 -12.749  11.619  1.00  0.00    -0.330 N 
HETATM   25  C26 UNL     1       6.025 -13.691  12.480  1.00  0.00     0.158 C 
ENDROOT
BRANCH  14  26
HETATM   26  C13 UNL     1       2.640  -6.591  15.342  1.00  0.00     0.049 C 
HETATM   27  C14 UNL     1       3.646  -5.625  14.918  1.00  0.00     0.018 C 
BRANCH  26  28
HETATM   28  C15 UNL     1       1.804  -5.959  16.466  1.00  0.00     0.007 C 
HETATM   29  C16 UNL     1       0.335  -6.071  16.242  1.00  0.00     0.006 C 
ENDBRANCH  26  28
ENDBRANCH  14  26
BRANCH  11  30
HETATM   30  O4  UNL     1       5.715  -9.890  16.843  1.00  0.00    -0.345 OA
ATOM     31  H4  UNL     1       5.071  -9.962  17.537  1.00  0.00     0.219 HD
ENDBRANCH  11  30
BRANCH  17  32
HETATM   32  C18 UNL     1       0.398  -9.663  15.181  1.00  0.00     0.032 C 
HETATM   33  C19 UNL     1      -0.141  -9.965  16.583  1.00  0.00     0.016 C 
HETATM   34  C20 UNL     1      -0.523 -10.272  14.216  1.00  0.00     0.016 C 
ENDBRANCH  17  32
BRANCH  10  35
HETATM   35  C8  UNL     1       7.130  -6.807  15.615  1.00  0.00     0.033 C 
HETATM   36  C9  UNL     1       6.767  -6.118  16.912  1.00  0.00     0.016 C 
HETATM   37  C10 UNL     1       8.617  -6.599  15.459  1.00  0.00     0.016 C 
ENDBRANCH  10  35
BRANCH  18  38
HETATM   38  O5  UNL     1       2.626 -12.114  15.679  1.00  0.00    -0.344 OA
ATOM     39  H5  UNL     1       3.386 -12.624  15.424  1.00  0.00     0.219 HD
ENDBRANCH  18  38
BRANCH  23  40
HETATM   40  O6  UNL     1       3.420 -14.082  11.927  1.00  0.00    -0.344 OA
ATOM     41  H6  UNL     1       2.674 -14.166  11.347  1.00  0.00     0.219 HD
ENDBRANCH  23  40
BRANCH   2  42
HETATM   42  O1  UNL     1       7.661 -10.557  10.060  1.00  0.00    -0.344 OA
ATOM     43  H1  UNL     1       8.355  -9.967  10.331  1.00  0.00     0.219 HD
ENDBRANCH   2  42
BRANCH   1  44
HETATM   44  C3  UNL     1       5.396 -11.637   9.376  1.00  0.00     0.061 C 
BRANCH  44  45
HETATM   45  C2  UNL     1       5.200 -12.711   8.386  1.00  0.00     0.002 C 
HETATM   46  C1  UNL     1       3.738 -13.134   8.250  1.00  0.00     0.005 C 
ENDBRANCH  44  45
ENDBRANCH   1  44
TORSDOF 10
ENDMDL
MODEL 3
REMARK VINA RESULT: -6.880615426      2.367      5.849
REMARK  10 active torsions:
REMARK  status: ('A' for Active; 'I' for Inactive)
REMARK    1  A    between atoms: C2_2  and  C3_3 
REMARK    2  A    between atoms: C3_3  and  C4_4 
REMARK    3  A    between atoms: C5_5  and  O1_6 
REMARK    4  A    between atoms: C7_15  and  C8_16 
REMARK    5  A    between atoms: C11_19  and  O4_20 
REMARK    6  A    between atoms: C12_24  and  C13_25 
REMARK    7  A    between atoms: C13_25  and  C15_27 
REMARK    8  A    between atoms: C17_31  and  C18_32 
REMARK    9  A    between atoms: C21_35  and  O5_36 
REMARK   10  A    between atoms: C25_42  and  O6_43 
ROOT
HETATM    1  C4  UNL     1       1.296 -12.583  13.575  1.00  0.00     0.065 C 
HETATM    2  C5  UNL     1       0.116 -12.145  14.284  1.00  0.00     0.174 C 
HETATM    3  N1  UNL     1      -0.544 -10.932  14.472  1.00  0.00    -0.245 N 
ATOM      4  H1  UNL     1      -1.521 -10.917  14.179  1.00  0.00     0.182 HD
HETATM    5  S1  UNL     1       0.051  -9.449  15.127  1.00  0.00     0.327 S 
HETATM    6  O2  UNL     1       0.663  -9.647  16.510  1.00  0.00    -0.182 OA
HETATM    7  O3  UNL     1       1.102  -8.872  14.249  1.00  0.00    -0.182 OA
HETATM    8  N2  UNL     1      -1.136  -8.292  15.323  1.00  0.00    -0.262 N 
HETATM    9  C6  UNL     1      -2.304  -8.447  14.502  1.00  0.00     0.171 C 
HETATM   10  C7  UNL     1      -0.866  -7.020  15.841  1.00  0.00     0.077 C 
HETATM   11  C11 UNL     1       0.425  -6.371  15.547  1.00  0.00     0.165 C 
HETATM   12  N3  UNL     1       1.547  -5.956  16.252  1.00  0.00    -0.325 N 
ATOM     13  H3  UNL     1       1.417  -4.983  16.527  1.00  0.00     0.169 HD
HETATM   14  C12 UNL     1       2.808  -6.396  16.726  1.00  0.00     0.087 C 
HETATM   15  N4  UNL     1       3.454  -7.526  16.110  1.00  0.00    -0.345 N 
ATOM     16  H4  UNL     1       3.226  -8.487  16.365  1.00  0.00     0.167 HD
HETATM   17  C17 UNL     1       4.441  -7.213  15.111  1.00  0.00     0.065 C 
HETATM   18  C21 UNL     1       4.440  -7.966  13.869  1.00  0.00     0.166 C 
HETATM   19  N5  UNL     1       4.763  -9.251  13.404  1.00  0.00    -0.331 N 
HETATM   20  C22 UNL     1       5.695  -9.393  12.239  1.00  0.00     0.158 C 
HETATM   21  C23 UNL     1       4.305 -10.570  13.831  1.00  0.00     0.060 C 
HETATM   22  C24 UNL     1       4.041 -10.765  15.266  1.00  0.00     0.073 C 
HETATM   23  C25 UNL     1       3.416 -11.227  12.861  1.00  0.00     0.165 C 
HETATM   24  N6  UNL     1       2.110 -11.710  12.801  1.00  0.00    -0.330 N 
HETATM   25  C26 UNL     1       1.386 -11.212  11.570  1.00  0.00     0.158 C 
ENDROOT
BRANCH  14  26
HETATM   26  C13 UNL     1       3.017  -6.399  18.222  1.00  0.00     0.049 C 
HETATM   27  C14 UNL     1       1.908  -6.044  19.099  1.00  0.00     0.018 C 
BRANCH  26  28
HETATM   28  C15 UNL     1       4.229  -5.531  18.596  1.00  0.00     0.007 C 
HETATM   29  C16 UNL     1       3.983  -4.653  19.775  1.00  0.00     0.006 C 
ENDBRANCH  26  28
ENDBRANCH  14  26
BRANCH  11  30
HETATM   30  O4  UNL     1       0.440  -6.154  14.236  1.00  0.00    -0.345 OA
ATOM     31  H4  UNL     1       1.154  -5.549  14.076  1.00  0.00     0.219 HD
ENDBRANCH  11  30
BRANCH  17  32
HETATM   32  C18 UNL     1       5.790  -6.835  15.649  1.00  0.00     0.032 C 
HETATM   33  C19 UNL     1       6.361  -5.667  14.839  1.00  0.00     0.016 C 
HETATM   34  C20 UNL     1       6.833  -7.862  15.737  1.00  0.00     0.016 C 
ENDBRANCH  17  32
BRANCH  10  35
HETATM   35  C8  UNL     1      -1.354  -6.918  17.271  1.00  0.00     0.033 C 
HETATM   36  C9  UNL     1      -2.134  -5.628  17.404  1.00  0.00     0.016 C 
HETATM   37  C10 UNL     1      -2.365  -8.017  17.492  1.00  0.00     0.016 C 
ENDBRANCH  10  35
BRANCH  18  38
HETATM   38  O5  UNL     1       4.007  -7.238  12.843  1.00  0.00    -0.344 OA
ATOM     39  H5  UNL     1       3.302  -7.667  12.372  1.00  0.00     0.219 HD
ENDBRANCH  18  38
BRANCH  23  40
HETATM   40  O6  UNL     1       4.067 -11.400  11.719  1.00  0.00    -0.344 OA
ATOM     41  H6  UNL     1       3.831 -12.241  11.348  1.00  0.00     0.219 HD
ENDBRANCH  23  40
BRANCH   2  42
HETATM   42  O1  UNL     1      -0.483 -13.150  14.903  1.00  0.00    -0.344 OA
ATOM     43  H1  UNL     1       0.145 -13.773  15.248  1.00  0.00     0.219 HD
ENDBRANCH   2  42
BRANCH   1  44
HETATM   44  C3  UNL     1       2.010 -13.665  14.371  1.00  0.00     0.061 C 
BRANCH  44  45
HETATM   45  C2  UNL     1       2.363 -14.895  13.638  1.00  0.00     0.002 C 
HETATM   46  C1  UNL     1       2.425 -16.126  14.540  1.00  0.00     0.005 C 
ENDBRANCH  44  45
ENDBRANCH   1  44
TORSDOF 10
ENDMDL
MODEL 4
REMARK VINA RESULT: -6.781064095      1.966      5.830
REMARK  10 active torsions:
REMARK  status: ('A' for Active; 'I' for Inactive)
REMARK    1  A    between atoms: C2_2  and  C3_3 
REMARK    2  A    between atoms: C3_3  and  C4_4 
REMARK    3  A    between atoms: C5_5  and  O1_6 
REMARK    4  A    between atoms: C7_15  and  C8_16 
REMARK    5  A    between atoms: C11_19  and  O4_20 
REMARK    6  A    between atoms: C12_24  and  C13_25 
REMARK    7  A    between atoms: C13_25  and  C15_27 
REMARK    8  A    between atoms: C17_31  and  C18_32 
REMARK    9  A    between atoms: C21_35  and  O5_36 
REMARK   10  A    between atoms: C25_42  and  O6_43 
ROOT
HETATM    1  C4  UNL     1      -0.185 -10.701  15.674  1.00  0.00     0.065 C 
HETATM    2  C5  UNL     1       0.197  -9.830  16.760  1.00  0.00     0.174 C 
HETATM    3  N1  UNL     1       0.835  -8.596  16.874  1.00  0.00    -0.245 N 
ATOM      4  H1  UNL     1       0.302  -7.873  17.358  1.00  0.00     0.182 HD
HETATM    5  S1  UNL     1       2.396  -8.112  16.317  1.00  0.00     0.327 S 
HETATM    6  O2  UNL     1       3.493  -9.039  16.833  1.00  0.00    -0.182 OA
HETATM    7  O3  UNL     1       2.452  -8.132  14.832  1.00  0.00    -0.182 OA
HETATM    8  N2  UNL     1       2.830  -6.580  16.820  1.00  0.00    -0.262 N 
HETATM    9  C6  UNL     1       1.747  -5.705  17.168  1.00  0.00     0.171 C 
HETATM   10  C7  UNL     1       4.056  -5.998  16.478  1.00  0.00     0.077 C 
HETATM   11  C11 UNL     1       4.661  -6.287  15.166  1.00  0.00     0.165 C 
HETATM   12  N3  UNL     1       5.800  -6.914  14.678  1.00  0.00    -0.325 N 
ATOM     13  H3  UNL     1       6.537  -6.217  14.573  1.00  0.00     0.169 HD
HETATM   14  C12 UNL     1       6.307  -8.174  14.273  1.00  0.00     0.087 C 
HETATM   15  N4  UNL     1       5.401  -9.219  13.870  1.00  0.00    -0.345 N 
ATOM     16  H4  UNL     1       4.939  -9.827  14.546  1.00  0.00     0.167 HD
HETATM   17  C17 UNL     1       5.190  -9.351  12.453  1.00  0.00     0.065 C 
HETATM   18  C21 UNL     1       3.836  -9.534  11.963  1.00  0.00     0.166 C 
HETATM   19  N5  UNL     1       2.840 -10.523  11.935  1.00  0.00    -0.331 N 
HETATM   20  C22 UNL     1       2.218 -10.896  10.623  1.00  0.00     0.158 C 
HETATM   21  C23 UNL     1       2.212 -11.285  13.011  1.00  0.00     0.060 C 
HETATM   22  C24 UNL     1       3.054 -11.659  14.159  1.00  0.00     0.073 C 
HETATM   23  C25 UNL     1       0.814 -10.905  13.264  1.00  0.00     0.165 C 
HETATM   24  N6  UNL     1       0.044 -10.388  14.305  1.00  0.00    -0.330 N 
HETATM   25  C26 UNL     1      -0.801  -9.220  13.849  1.00  0.00     0.158 C 
ENDROOT
BRANCH  14  26
HETATM   26  C13 UNL     1       7.468  -8.734  15.061  1.00  0.00     0.049 C 
HETATM   27  C14 UNL     1       7.256  -9.896  15.916  1.00  0.00     0.018 C 
BRANCH  26  28
HETATM   28  C15 UNL     1       8.131  -7.630  15.899  1.00  0.00     0.007 C 
HETATM   29  C16 UNL     1       9.329  -7.034  15.244  1.00  0.00     0.006 C 
ENDBRANCH  26  28
ENDBRANCH  14  26
BRANCH  11  30
HETATM   30  O4  UNL     1       3.839  -5.771  14.257  1.00  0.00    -0.345 OA
ATOM     31  H4  UNL     1       3.329  -6.497  13.919  1.00  0.00     0.219 HD
ENDBRANCH  11  30
BRANCH  17  32
HETATM   32  C18 UNL     1       6.262 -10.104  11.720  1.00  0.00     0.032 C 
HETATM   33  C19 UNL     1       5.997 -10.046  10.213  1.00  0.00     0.016 C 
HETATM   34  C20 UNL     1       6.508 -11.507  12.069  1.00  0.00     0.016 C 
ENDBRANCH  17  32
BRANCH  10  35
HETATM   35  C8  UNL     1       4.996  -6.015  17.665  1.00  0.00     0.033 C 
HETATM   36  C9  UNL     1       6.055  -4.959  17.434  1.00  0.00     0.016 C 
HETATM   37  C10 UNL     1       4.223  -5.541  18.872  1.00  0.00     0.016 C 
ENDBRANCH  10  35
BRANCH  18  38
HETATM   38  O5  UNL     1       3.375  -8.448  11.348  1.00  0.00    -0.344 OA
ATOM     39  H5  UNL     1       2.449  -8.517  11.147  1.00  0.00     0.219 HD
ENDBRANCH  18  38
BRANCH  23  40
HETATM   40  O6  UNL     1       0.097 -11.124  12.171  1.00  0.00    -0.344 OA
ATOM     41  H6  UNL     1      -0.132 -10.292  11.775  1.00  0.00     0.219 HD
ENDBRANCH  23  40
BRANCH   2  42
HETATM   42  O1  UNL     1      -0.151 -10.332  17.934  1.00  0.00    -0.344 OA
ATOM     43  H1  UNL     1      -1.017 -10.044  18.196  1.00  0.00     0.219 HD
ENDBRANCH   2  42
BRANCH   1  44
HETATM   44  C3  UNL     1      -0.009 -12.155  16.085  1.00  0.00     0.061 C 
BRANCH  44  45
HETATM   45  C2  UNL     1      -1.013 -13.108  15.579  1.00  0.00     0.002 C 
HETATM   46  C1  UNL     1      -0.422 -14.140  14.619  1.00  0.00     0.005 C 
ENDBRANCH  44  45
ENDBRANCH   1  44
TORSDOF 10
ENDMDL
MODEL 5
REMARK VINA RESULT: -6.738614241      2.047      5.879
REMARK  10 active torsions:
REMARK  status: ('A' for Active; 'I' for Inactive)
REMARK    1  A    between atoms: C2_2  and  C3_3 
REMARK    2  A    between atoms: C3_3  and  C4_4 
REMARK    3  A    between atoms: C5_5  and  O1_6 
REMARK    4  A    between atoms: C7_15  and  C8_16 
REMARK    5  A    between atoms: C11_19  and  O4_20 
REMARK    6  A    between atoms: C12_24  and  C13_25 
REMARK    7  A    between atoms: C13_25  and  C15_27 
REMARK    8  A    between atoms: C17_31  and  C18_32 
REMARK    9  A    between atoms: C21_35  and  O5_36 
REMARK   10  A    between atoms: C25_42  and  O6_43 
ROOT
HETATM    1  C4  UNL     1      -0.442 -10.591  15.795  1.00  0.00     0.065 C 
HETATM    2  C5  UNL     1      -0.070  -9.715  16.882  1.00  0.00     0.174 C 
HETATM    3  N1  UNL     1       0.602  -8.500  17.000  1.00  0.00    -0.245 N 
ATOM      4  H1  UNL     1       0.076  -7.753  17.454  1.00  0.00     0.182 HD
HETATM    5  S1  UNL     1       2.196  -8.074  16.490  1.00  0.00     0.327 S 
HETATM    6  O2  UNL     1       3.245  -9.026  17.056  1.00  0.00    -0.182 OA
HETATM    7  O3  UNL     1       2.301  -8.119  15.008  1.00  0.00    -0.182 OA
HETATM    8  N2  UNL     1       2.660  -6.548  16.985  1.00  0.00    -0.262 N 
HETATM    9  C6  UNL     1       1.593  -5.635  17.283  1.00  0.00     0.171 C 
HETATM   10  C7  UNL     1       3.915  -6.009  16.678  1.00  0.00     0.077 C 
HETATM   11  C11 UNL     1       4.554  -6.337  15.391  1.00  0.00     0.165 C 
HETATM   12  N3  UNL     1       5.689  -7.007  14.952  1.00  0.00    -0.325 N 
ATOM     13  H3  UNL     1       6.450  -6.335  14.863  1.00  0.00     0.169 HD
HETATM   14  C12 UNL     1       6.170  -8.288  14.583  1.00  0.00     0.087 C 
HETATM   15  N4  UNL     1       5.246  -9.311  14.164  1.00  0.00    -0.345 N 
ATOM     16  H4  UNL     1       4.742  -9.893  14.832  1.00  0.00     0.167 HD
HETATM   17  C17 UNL     1       5.079  -9.458  12.742  1.00  0.00     0.065 C 
HETATM   18  C21 UNL     1       3.737  -9.607  12.209  1.00  0.00     0.166 C 
HETATM   19  N5  UNL     1       2.712 -10.564  12.161  1.00  0.00    -0.331 N 
HETATM   20  C22 UNL     1       2.124 -10.938  10.834  1.00  0.00     0.158 C 
HETATM   21  C23 UNL     1       2.024 -11.290  13.226  1.00  0.00     0.060 C 
HETATM   22  C24 UNL     1       2.815 -11.673  14.406  1.00  0.00     0.073 C 
HETATM   23  C25 UNL     1       0.631 -10.863  13.425  1.00  0.00     0.165 C 
HETATM   24  N6  UNL     1      -0.157 -10.306  14.430  1.00  0.00    -0.330 N 
HETATM   25  C26 UNL     1      -0.949  -9.120  13.929  1.00  0.00     0.158 C 
ENDROOT
BRANCH  14  26
HETATM   26  C13 UNL     1       7.285  -8.871  15.419  1.00  0.00     0.049 C 
HETATM   27  C14 UNL     1       8.668  -8.670  15.005  1.00  0.00     0.018 C 
BRANCH  26  28
HETATM   28  C15 UNL     1       7.059 -10.375  15.642  1.00  0.00     0.007 C 
HETATM   29  C16 UNL     1       6.619 -10.706  17.026  1.00  0.00     0.006 C 
ENDBRANCH  26  28
ENDBRANCH  14  26
BRANCH  11  30
HETATM   30  O4  UNL     1       3.780  -5.810  14.447  1.00  0.00    -0.345 OA
ATOM     31  H4  UNL     1       4.364  -5.377  13.837  1.00  0.00     0.219 HD
ENDBRANCH  11  30
BRANCH  17  32
HETATM   32  C18 UNL     1       6.151 -10.255  12.058  1.00  0.00     0.032 C 
HETATM   33  C19 UNL     1       6.042 -10.074  10.541  1.00  0.00     0.016 C 
HETATM   34  C20 UNL     1       6.243 -11.694  12.323  1.00  0.00     0.016 C 
ENDBRANCH  17  32
BRANCH  10  35
HETATM   35  C8  UNL     1       4.813  -6.037  17.896  1.00  0.00     0.033 C 
HETATM   36  C9  UNL     1       5.909  -5.015  17.689  1.00  0.00     0.016 C 
HETATM   37  C10 UNL     1       4.013  -5.526  19.070  1.00  0.00     0.016 C 
ENDBRANCH  10  35
BRANCH  18  38
HETATM   38  O5  UNL     1       3.331  -8.516  11.563  1.00  0.00    -0.344 OA
ATOM     39  H5  UNL     1       2.875  -7.910  12.135  1.00  0.00     0.219 HD
ENDBRANCH  18  38
BRANCH  23  40
HETATM   40  O6  UNL     1      -0.055 -11.076  12.311  1.00  0.00    -0.344 OA
ATOM     41  H6  UNL     1       0.520 -10.971  11.563  1.00  0.00     0.219 HD
ENDBRANCH  23  40
BRANCH   2  42
HETATM   42  O1  UNL     1      -0.473 -10.188  18.050  1.00  0.00    -0.344 OA
ATOM     43  H1  UNL     1      -1.421 -10.182  18.122  1.00  0.00     0.219 HD
ENDBRANCH   2  42
BRANCH   1  44
HETATM   44  C3  UNL     1      -0.326 -12.044  16.233  1.00  0.00     0.061 C 
BRANCH  44  45
HETATM   45  C2  UNL     1      -1.343 -12.972  15.708  1.00  0.00     0.002 C 
HETATM   46  C1  UNL     1      -0.755 -14.035  14.782  1.00  0.00     0.005 C 
ENDBRANCH  44  45
ENDBRANCH   1  44
TORSDOF 10
ENDMDL
