MODEL 1
REMARK VINA RESULT: -6.200851579      0.000      0.000
REMARK  9 active torsions:
REMARK  status: ('A' for Active; 'I' for Inactive)
REMARK    1  A    between atoms: C2_2  and  C3_3 
REMARK    2  A    between atoms: C3_3  and  C5_5 
REMARK    3  A    between atoms: C7_10  and  C8_11 
REMARK    4  A    between atoms: C12_16  and  O2_17 
REMARK    5  A    between atoms: C16_24  and  C17_25 
REMARK    6  A    between atoms: C17_25  and  O5_26 
REMARK    7  A    between atoms: C22_36  and  O7_37 
REMARK    8  A    between atoms: C23_39  and  C24_40 
REMARK    9  A    between atoms: C28_45  and  O8_46 
ROOT
HETATM    1  C5  UNL     1       1.917 -10.449  13.957  1.00  0.00     0.163 C 
HETATM    2  N1  UNL     1       3.296 -10.338  13.452  1.00  0.00    -0.347 N 
ATOM      3  H1  UNL     1       3.506 -11.035  12.738  1.00  0.00     0.163 HD
HETATM    4  C6  UNL     1       4.355  -9.526  13.714  1.00  0.00     0.241 C 
HETATM    5  O1  UNL     1       4.761  -8.690  12.815  1.00  0.00    -0.271 OA
HETATM    6  C7  UNL     1       5.213  -9.399  14.932  1.00  0.00     0.183 C 
HETATM    7  N2  UNL     1       6.521 -10.024  14.695  1.00  0.00    -0.332 N 
HETATM    8  C11 UNL     1       7.215 -10.533  15.872  1.00  0.00     0.154 C 
HETATM    9  C12 UNL     1       7.162 -10.162  13.436  1.00  0.00     0.261 C 
HETATM   10  O3  UNL     1       6.679 -10.743  12.291  1.00  0.00    -0.304 OA
HETATM   11  C13 UNL     1       6.333 -12.040  12.004  1.00  0.00     0.200 C 
HETATM   12  C14 UNL     1       7.413 -13.083  12.261  1.00  0.00     0.048 C 
HETATM   13  C15 UNL     1       5.802 -12.266  10.650  1.00  0.00     0.180 C 
HETATM   14  O4  UNL     1       5.697 -13.448  10.348  1.00  0.00    -0.293 OA
HETATM   15  C16 UNL     1       5.404 -11.284   9.671  1.00  0.00     0.180 C 
HETATM   16  N3  UNL     1       4.128 -10.636   9.856  1.00  0.00    -0.342 N 
ATOM     17  H3  UNL     1       4.165  -9.655  10.135  1.00  0.00     0.163 HD
HETATM   18  C18 UNL     1       2.828 -11.187   9.701  1.00  0.00     0.264 C 
HETATM   19  O6  UNL     1       1.891 -10.377   9.940  1.00  0.00    -0.266 OA
HETATM   20  C19 UNL     1       2.425 -12.522   9.311  1.00  0.00     0.077 C 
HETATM   21  C20 UNL     1       1.336 -12.507   8.217  1.00  0.00     0.074 C 
HETATM   22  N4  UNL     1       2.177 -13.543  10.308  1.00  0.00    -0.330 N 
HETATM   23  C21 UNL     1       2.429 -14.907   9.678  1.00  0.00     0.158 C 
HETATM   24  C22 UNL     1       1.792 -13.507  11.645  1.00  0.00     0.166 C 
HETATM   25  C23 UNL     1       0.641 -13.177  12.470  1.00  0.00     0.068 C 
HETATM   26  N5  UNL     1       0.936 -12.871  13.852  1.00  0.00    -0.334 N 
HETATM   27  C27 UNL     1       0.425 -13.814  14.892  1.00  0.00     0.158 C 
HETATM   28  C28 UNL     1       1.675 -11.817  14.431  1.00  0.00     0.141 C 
ENDROOT
BRANCH   1  29
HETATM   29  C3  UNL     1       1.602  -9.292  14.816  1.00  0.00     0.012 C 
HETATM   30  C4  UNL     1       1.226  -8.161  13.783  1.00  0.00     0.012 C 
BRANCH  29  31
HETATM   31  C2  UNL     1       0.445  -9.324  15.723  1.00  0.00     0.002 C 
HETATM   32  C1  UNL     1      -0.915  -9.193  15.094  1.00  0.00     0.005 C 
ENDBRANCH  29  31
ENDBRANCH   1  29
BRANCH  28  33
HETATM   33  O8  UNL     1       2.272 -12.019  15.571  1.00  0.00    -0.348 OA
ATOM     34  H8  UNL     1       2.387 -12.949  15.728  1.00  0.00     0.219 HD
ENDBRANCH  28  33
BRANCH   6  35
HETATM   35  C8  UNL     1       5.301  -7.967  15.366  1.00  0.00     0.009 C 
HETATM   36  C9  UNL     1       6.660  -7.373  15.421  1.00  0.00     0.012 C 
HETATM   37  C10 UNL     1       4.491  -7.675  16.621  1.00  0.00     0.012 C 
ENDBRANCH   6  35
BRANCH  25  38
HETATM   38  C24 UNL     1      -0.445 -12.298  11.983  1.00  0.00     0.032 C 
HETATM   39  C25 UNL     1      -1.555 -12.356  13.060  1.00  0.00     0.016 C 
HETATM   40  C26 UNL     1      -1.228 -12.968  10.817  1.00  0.00     0.016 C 
ENDBRANCH  25  38
BRANCH  24  41
HETATM   41  O7  UNL     1       2.792 -13.903  12.401  1.00  0.00    -0.344 OA
ATOM     42  H7  UNL     1       2.469 -14.490  13.075  1.00  0.00     0.219 HD
ENDBRANCH  24  41
BRANCH   9  43
HETATM   43  O2  UNL     1       8.362  -9.655  13.420  1.00  0.00    -0.327 OA
ATOM     44  H2  UNL     1       8.376  -8.733  13.648  1.00  0.00     0.221 HD
ENDBRANCH   9  43
BRANCH  15  45
HETATM   45  C17 UNL     1       6.447 -10.227   9.368  1.00  0.00     0.197 C 
BRANCH  45  46
HETATM   46  O5  UNL     1       6.033  -9.061  10.016  1.00  0.00    -0.398 OA
ATOM     47  H5  UNL     1       6.795  -8.496  10.071  1.00  0.00     0.209 HD
ENDBRANCH  45  46
ENDBRANCH  15  45
TORSDOF 9
ENDMDL
MODEL 2
REMARK VINA RESULT: -5.895558484      1.520      1.767
REMARK  9 active torsions:
REMARK  status: ('A' for Active; 'I' for Inactive)
REMARK    1  A    between atoms: C2_2  and  C3_3 
REMARK    2  A    between atoms: C3_3  and  C5_5 
REMARK    3  A    between atoms: C7_10  and  C8_11 
REMARK    4  A    between atoms: C12_16  and  O2_17 
REMARK    5  A    between atoms: C16_24  and  C17_25 
REMARK    6  A    between atoms: C17_25  and  O5_26 
REMARK    7  A    between atoms: C22_36  and  O7_37 
REMARK    8  A    between atoms: C23_39  and  C24_40 
REMARK    9  A    between atoms: C28_45  and  O8_46 
ROOT
HETATM    1  C5  UNL     1       1.186 -11.074  14.246  1.00  0.00     0.163 C 
HETATM    2  N1  UNL     1       2.382 -10.438  13.669  1.00  0.00    -0.347 N 
ATOM      3  H1  UNL     1       2.913 -11.073  13.074  1.00  0.00     0.163 HD
HETATM    4  C6  UNL     1       2.945  -9.202  13.744  1.00  0.00     0.241 C 
HETATM    5  O1  UNL     1       2.961  -8.439  12.699  1.00  0.00    -0.271 OA
HETATM    6  C7  UNL     1       3.606  -8.495  14.884  1.00  0.00     0.183 C 
HETATM    7  N2  UNL     1       5.063  -8.488  14.698  1.00  0.00    -0.332 N 
HETATM    8  C11 UNL     1       5.867  -8.419  15.912  1.00  0.00     0.154 C 
HETATM    9  C12 UNL     1       5.743  -8.532  13.453  1.00  0.00     0.261 C 
HETATM   10  O3  UNL     1       5.621  -9.454  12.444  1.00  0.00    -0.304 OA
HETATM   11  C13 UNL     1       5.913 -10.794  12.395  1.00  0.00     0.200 C 
HETATM   12  C14 UNL     1       7.338 -11.173  12.777  1.00  0.00     0.048 C 
HETATM   13  C15 UNL     1       5.594 -11.463  11.124  1.00  0.00     0.180 C 
HETATM   14  O4  UNL     1       6.049 -12.596  11.030  1.00  0.00    -0.293 OA
HETATM   15  C16 UNL     1       4.831 -10.951  10.012  1.00  0.00     0.180 C 
HETATM   16  N3  UNL     1       3.393 -10.931  10.141  1.00  0.00    -0.342 N 
ATOM     17  H3  UNL     1       2.970 -10.009  10.249  1.00  0.00     0.163 HD
HETATM   18  C18 UNL     1       2.493 -12.029  10.138  1.00  0.00     0.264 C 
HETATM   19  O6  UNL     1       1.282 -11.706  10.279  1.00  0.00    -0.266 OA
HETATM   20  C19 UNL     1       2.755 -13.446   9.996  1.00  0.00     0.077 C 
HETATM   21  C20 UNL     1       1.820 -14.113   8.964  1.00  0.00     0.074 C 
HETATM   22  N4  UNL     1       2.961 -14.282  11.161  1.00  0.00    -0.330 N 
HETATM   23  C21 UNL     1       3.828 -15.469  10.759  1.00  0.00     0.158 C 
HETATM   24  C22 UNL     1       2.552 -14.199  12.488  1.00  0.00     0.166 C 
HETATM   25  C23 UNL     1       1.345 -14.292  13.296  1.00  0.00     0.068 C 
HETATM   26  N5  UNL     1       1.416 -13.656  14.593  1.00  0.00    -0.334 N 
HETATM   27  C27 UNL     1       1.351 -14.536  15.798  1.00  0.00     0.158 C 
HETATM   28  C28 UNL     1       1.574 -12.300  14.953  1.00  0.00     0.141 C 
ENDROOT
BRANCH   1  29
HETATM   29  C3  UNL     1       0.347 -10.059  14.910  1.00  0.00     0.012 C 
HETATM   30  C4  UNL     1      -1.068 -10.259  14.243  1.00  0.00     0.012 C 
BRANCH  29  31
HETATM   31  C2  UNL     1       0.060 -10.149  16.350  1.00  0.00     0.002 C 
HETATM   32  C1  UNL     1      -0.950  -9.182  16.902  1.00  0.00     0.005 C 
ENDBRANCH  29  31
ENDBRANCH   1  29
BRANCH  28  33
HETATM   33  O8  UNL     1       2.154 -12.013  16.084  1.00  0.00    -0.348 OA
ATOM     34  H8  UNL     1       2.293 -12.800  16.598  1.00  0.00     0.219 HD
ENDBRANCH  28  33
BRANCH   6  35
HETATM   35  C8  UNL     1       3.017  -7.129  15.066  1.00  0.00     0.009 C 
HETATM   36  C9  UNL     1       3.953  -5.982  14.952  1.00  0.00     0.012 C 
HETATM   37  C10 UNL     1       2.124  -7.025  16.295  1.00  0.00     0.012 C 
ENDBRANCH   6  35
BRANCH  25  38
HETATM   38  C24 UNL     1      -0.002 -14.098  12.716  1.00  0.00     0.032 C 
HETATM   39  C25 UNL     1      -1.004 -14.474  13.835  1.00  0.00     0.016 C 
HETATM   40  C26 UNL     1      -0.349 -15.237  11.714  1.00  0.00     0.016 C 
ENDBRANCH  25  38
BRANCH  24  41
HETATM   41  O7  UNL     1       3.593 -13.963  13.256  1.00  0.00    -0.344 OA
ATOM     42  H7  UNL     1       3.302 -13.594  14.082  1.00  0.00     0.219 HD
ENDBRANCH  24  41
BRANCH   9  43
HETATM   43  O2  UNL     1       6.582  -7.546  13.299  1.00  0.00    -0.327 OA
ATOM     44  H2  UNL     1       6.302  -6.924  12.639  1.00  0.00     0.221 HD
ENDBRANCH   9  43
BRANCH  15  45
HETATM   45  C17 UNL     1       5.290  -9.604   9.490  1.00  0.00     0.197 C 
BRANCH  45  46
HETATM   46  O5  UNL     1       4.405  -8.654  10.003  1.00  0.00    -0.398 OA
ATOM     47  H5  UNL     1       4.177  -8.078   9.282  1.00  0.00     0.209 HD
ENDBRANCH  45  46
ENDBRANCH  15  45
TORSDOF 9
ENDMDL
MODEL 3
REMARK VINA RESULT: -5.885751442      2.193      7.274
REMARK  9 active torsions:
REMARK  status: ('A' for Active; 'I' for Inactive)
REMARK    1  A    between atoms: C2_2  and  C3_3 
REMARK    2  A    between atoms: C3_3  and  C5_5 
REMARK    3  A    between atoms: C7_10  and  C8_11 
REMARK    4  A    between atoms: C12_16  and  O2_17 
REMARK    5  A    between atoms: C16_24  and  C17_25 
REMARK    6  A    between atoms: C17_25  and  O5_26 
REMARK    7  A    between atoms: C22_36  and  O7_37 
REMARK    8  A    between atoms: C23_39  and  C24_40 
REMARK    9  A    between atoms: C28_45  and  O8_46 
ROOT
HETATM    1  C5  UNL     1       5.267 -10.899  12.696  1.00  0.00     0.163 C 
HETATM    2  N1  UNL     1       3.988 -11.613  12.848  1.00  0.00    -0.347 N 
ATOM      3  H1  UNL     1       3.423 -11.241  13.612  1.00  0.00     0.163 HD
HETATM    4  C6  UNL     1       3.383 -12.650  12.211  1.00  0.00     0.241 C 
HETATM    5  O1  UNL     1       2.316 -12.440  11.510  1.00  0.00    -0.271 OA
HETATM    6  C7  UNL     1       3.732 -14.103  12.156  1.00  0.00     0.183 C 
HETATM    7  N2  UNL     1       2.814 -14.875  13.005  1.00  0.00    -0.332 N 
HETATM    8  C11 UNL     1       3.336 -16.122  13.552  1.00  0.00     0.154 C 
HETATM    9  C12 UNL     1       1.477 -14.519  13.323  1.00  0.00     0.261 C 
HETATM   10  O3  UNL     1       1.013 -13.355  13.883  1.00  0.00    -0.304 OA
HETATM   11  C13 UNL     1       1.219 -12.794  15.118  1.00  0.00     0.200 C 
HETATM   12  C14 UNL     1       0.883 -13.681  16.310  1.00  0.00     0.048 C 
HETATM   13  C15 UNL     1       0.574 -11.489  15.333  1.00  0.00     0.180 C 
HETATM   14  O4  UNL     1       0.596 -11.108  16.497  1.00  0.00    -0.293 OA
HETATM   15  C16 UNL     1      -0.061 -10.635  14.358  1.00  0.00     0.180 C 
HETATM   16  N3  UNL     1       0.793  -9.855  13.495  1.00  0.00    -0.342 N 
ATOM     17  H3  UNL     1       0.828 -10.152  12.520  1.00  0.00     0.163 HD
HETATM   18  C18 UNL     1       1.592  -8.730  13.829  1.00  0.00     0.264 C 
HETATM   19  O6  UNL     1       2.247  -8.254  12.861  1.00  0.00    -0.266 OA
HETATM   20  C19 UNL     1       1.762  -8.055  15.099  1.00  0.00     0.077 C 
HETATM   21  C20 UNL     1       1.632  -6.522  14.967  1.00  0.00     0.074 C 
HETATM   22  N4  UNL     1       2.829  -8.431  16.002  1.00  0.00    -0.330 N 
HETATM   23  C21 UNL     1       2.405  -8.088  17.425  1.00  0.00     0.158 C 
HETATM   24  C22 UNL     1       4.077  -9.022  15.823  1.00  0.00     0.166 C 
HETATM   25  C23 UNL     1       5.384  -8.726  15.256  1.00  0.00     0.068 C 
HETATM   26  N5  UNL     1       6.190  -9.880  14.921  1.00  0.00    -0.334 N 
HETATM   27  C27 UNL     1       7.445 -10.095  15.702  1.00  0.00     0.158 C 
HETATM   28  C28 UNL     1       5.990 -10.907  13.974  1.00  0.00     0.141 C 
ENDROOT
BRANCH   1  29
HETATM   29  C3  UNL     1       5.937 -11.326  11.453  1.00  0.00     0.012 C 
HETATM   30  C4  UNL     1       5.403 -10.302  10.379  1.00  0.00     0.012 C 
BRANCH  29  31
HETATM   31  C2  UNL     1       7.398 -11.232  11.318  1.00  0.00     0.002 C 
HETATM   32  C1  UNL     1       8.071 -12.281  10.478  1.00  0.00     0.005 C 
ENDBRANCH  29  31
ENDBRANCH   1  29
BRANCH  28  33
HETATM   33  O8  UNL     1       6.499 -12.084  14.204  1.00  0.00    -0.348 OA
ATOM     34  H8  UNL     1       7.440 -12.023  14.323  1.00  0.00     0.219 HD
ENDBRANCH  28  33
BRANCH   6  35
HETATM   35  C8  UNL     1       3.782 -14.579  10.737  1.00  0.00     0.009 C 
HETATM   36  C9  UNL     1       2.902 -15.724  10.389  1.00  0.00     0.012 C 
HETATM   37  C10 UNL     1       5.202 -14.765  10.220  1.00  0.00     0.012 C 
ENDBRANCH   6  35
BRANCH  25  38
HETATM   38  C24 UNL     1       5.575  -7.670  14.238  1.00  0.00     0.032 C 
HETATM   39  C25 UNL     1       7.102  -7.426  14.160  1.00  0.00     0.016 C 
HETATM   40  C26 UNL     1       5.154  -6.278  14.790  1.00  0.00     0.016 C 
ENDBRANCH  25  38
BRANCH  24  41
HETATM   41  O7  UNL     1       4.069 -10.233  16.335  1.00  0.00    -0.344 OA
ATOM     42  H7  UNL     1       4.955 -10.486  16.566  1.00  0.00     0.219 HD
ENDBRANCH  24  41
BRANCH   9  43
HETATM   43  O2  UNL     1       0.620 -15.454  13.026  1.00  0.00    -0.327 OA
ATOM     44  H2  UNL     1      -0.253 -15.271  13.352  1.00  0.00     0.221 HD
ENDBRANCH   9  43
BRANCH  15  45
HETATM   45  C17 UNL     1      -1.120 -11.312  13.510  1.00  0.00     0.197 C 
BRANCH  45  46
HETATM   46  O5  UNL     1      -0.521 -11.604  12.283  1.00  0.00    -0.398 OA
ATOM     47  H5  UNL     1      -0.903 -12.420  11.982  1.00  0.00     0.209 HD
ENDBRANCH  45  46
ENDBRANCH  15  45
TORSDOF 9
ENDMDL
MODEL 4
REMARK VINA RESULT: -5.868723980      1.538      1.693
REMARK  9 active torsions:
REMARK  status: ('A' for Active; 'I' for Inactive)
REMARK    1  A    between atoms: C2_2  and  C3_3 
REMARK    2  A    between atoms: C3_3  and  C5_5 
REMARK    3  A    between atoms: C7_10  and  C8_11 
REMARK    4  A    between atoms: C12_16  and  O2_17 
REMARK    5  A    between atoms: C16_24  and  C17_25 
REMARK    6  A    between atoms: C17_25  and  O5_26 
REMARK    7  A    between atoms: C22_36  and  O7_37 
REMARK    8  A    between atoms: C23_39  and  C24_40 
REMARK    9  A    between atoms: C28_45  and  O8_46 
ROOT
HETATM    1  C5  UNL     1       0.913  -9.744  14.227  1.00  0.00     0.163 C 
HETATM    2  N1  UNL     1       2.294  -9.608  13.735  1.00  0.00    -0.347 N 
ATOM      3  H1  UNL     1       2.642 -10.467  13.307  1.00  0.00     0.163 HD
HETATM    4  C6  UNL     1       3.216  -8.608  13.717  1.00  0.00     0.241 C 
HETATM    5  O1  UNL     1       3.564  -8.076  12.591  1.00  0.00    -0.271 OA
HETATM    6  C7  UNL     1       3.969  -7.951  14.829  1.00  0.00     0.183 C 
HETATM    7  N2  UNL     1       5.361  -8.419  14.841  1.00  0.00    -0.332 N 
HETATM    8  C11 UNL     1       6.040  -8.391  16.131  1.00  0.00     0.154 C 
HETATM    9  C12 UNL     1       6.095  -8.878  13.716  1.00  0.00     0.261 C 
HETATM   10  O3  UNL     1       5.769  -9.877  12.833  1.00  0.00    -0.304 OA
HETATM   11  C13 UNL     1       5.619 -11.231  13.006  1.00  0.00     0.200 C 
HETATM   12  C14 UNL     1       6.810 -11.953  13.622  1.00  0.00     0.048 C 
HETATM   13  C15 UNL     1       5.211 -11.978  11.805  1.00  0.00     0.180 C 
HETATM   14  O4  UNL     1       5.285 -13.194  11.927  1.00  0.00    -0.293 OA
HETATM   15  C16 UNL     1       4.749 -11.456  10.542  1.00  0.00     0.180 C 
HETATM   16  N3  UNL     1       3.389 -10.979  10.474  1.00  0.00    -0.342 N 
ATOM     17  H3  UNL     1       3.276  -9.968  10.398  1.00  0.00     0.163 HD
HETATM   18  C18 UNL     1       2.187 -11.736  10.498  1.00  0.00     0.264 C 
HETATM   19  O6  UNL     1       1.137 -11.041  10.431  1.00  0.00    -0.266 OA
HETATM   20  C19 UNL     1       1.993 -13.168  10.586  1.00  0.00     0.077 C 
HETATM   21  C20 UNL     1       0.984 -13.685   9.537  1.00  0.00     0.074 C 
HETATM   22  N4  UNL     1       1.820 -13.816  11.869  1.00  0.00    -0.330 N 
HETATM   23  C21 UNL     1       2.292 -15.260  11.752  1.00  0.00     0.158 C 
HETATM   24  C22 UNL     1       1.348 -13.387  13.107  1.00  0.00     0.166 C 
HETATM   25  C23 UNL     1       0.112 -12.971  13.751  1.00  0.00     0.068 C 
HETATM   26  N5  UNL     1       0.273 -12.175  14.948  1.00  0.00    -0.334 N 
HETATM   27  C27 UNL     1      -0.172 -12.775  16.241  1.00  0.00     0.158 C 
HETATM   28  C28 UNL     1       0.826 -10.891  15.139  1.00  0.00     0.141 C 
ENDROOT
BRANCH   1  29
HETATM   29  C3  UNL     1       0.391  -8.425  14.630  1.00  0.00     0.012 C 
HETATM   30  C4  UNL     1      -1.165  -8.564  14.411  1.00  0.00     0.012 C 
BRANCH  29  31
HETATM   31  C2  UNL     1       0.500  -7.969  16.024  1.00  0.00     0.002 C 
HETATM   32  C1  UNL     1      -0.154  -6.658  16.362  1.00  0.00     0.005 C 
ENDBRANCH  29  31
ENDBRANCH   1  29
BRANCH  28  33
HETATM   33  O8  UNL     1       1.369 -10.604  16.288  1.00  0.00    -0.348 OA
ATOM     34  H8  UNL     1       2.314 -10.546  16.205  1.00  0.00     0.219 HD
ENDBRANCH  28  33
BRANCH   6  35
HETATM   35  C8  UNL     1       3.836  -6.461  14.744  1.00  0.00     0.009 C 
HETATM   36  C9  UNL     1       4.934  -5.735  14.058  1.00  0.00     0.012 C 
HETATM   37  C10 UNL     1       3.463  -5.821  16.074  1.00  0.00     0.012 C 
ENDBRANCH   6  35
BRANCH  25  38
HETATM   38  C24 UNL     1      -1.048 -12.480  12.975  1.00  0.00     0.032 C 
HETATM   39  C25 UNL     1      -2.214 -12.357  13.986  1.00  0.00     0.016 C 
HETATM   40  C26 UNL     1      -1.643 -13.607  12.083  1.00  0.00     0.016 C 
ENDBRANCH  25  38
BRANCH  24  41
HETATM   41  O7  UNL     1       2.341 -13.351  13.968  1.00  0.00    -0.344 OA
ATOM     42  H7  UNL     1       3.154 -13.173  13.509  1.00  0.00     0.219 HD
ENDBRANCH  24  41
BRANCH   9  43
HETATM   43  O2  UNL     1       7.215  -8.235  13.544  1.00  0.00    -0.327 OA
ATOM     44  H2  UNL     1       7.938  -8.807  13.316  1.00  0.00     0.221 HD
ENDBRANCH   9  43
BRANCH  15  45
HETATM   45  C17 UNL     1       5.659 -10.421   9.909  1.00  0.00     0.197 C 
BRANCH  45  46
HETATM   46  O5  UNL     1       5.067  -9.177  10.136  1.00  0.00    -0.398 OA
ATOM     47  H5  UNL     1       4.697  -9.208  11.010  1.00  0.00     0.209 HD
ENDBRANCH  45  46
ENDBRANCH  15  45
TORSDOF 9
ENDMDL
MODEL 5
REMARK VINA RESULT: -5.773588631      1.979      6.386
REMARK  9 active torsions:
REMARK  status: ('A' for Active; 'I' for Inactive)
REMARK    1  A    between atoms: C2_2  and  C3_3 
REMARK    2  A    between atoms: C3_3  and  C5_5 
REMARK    3  A    between atoms: C7_10  and  C8_11 
REMARK    4  A    between atoms: C12_16  and  O2_17 
REMARK    5  A    between atoms: C16_24  and  C17_25 
REMARK    6  A    between atoms: C17_25  and  O5_26 
REMARK    7  A    between atoms: C22_36  and  O7_37 
REMARK    8  A    between atoms: C23_39  and  C24_40 
REMARK    9  A    between atoms: C28_45  and  O8_46 
ROOT
HETATM    1  C5  UNL     1       1.057 -10.146  15.370  1.00  0.00     0.163 C 
HETATM    2  N1  UNL     1       1.730 -10.926  14.317  1.00  0.00    -0.347 N 
ATOM      3  H1  UNL     1       2.580 -10.473  13.980  1.00  0.00     0.163 HD
HETATM    4  C6  UNL     1       1.485 -12.107  13.689  1.00  0.00     0.241 C 
HETATM    5  O1  UNL     1       2.270 -13.115  13.886  1.00  0.00    -0.271 OA
HETATM    6  C7  UNL     1       0.402 -12.502  12.736  1.00  0.00     0.183 C 
HETATM    7  N2  UNL     1       0.934 -12.575  11.369  1.00  0.00    -0.332 N 
HETATM    8  C11 UNL     1      -0.019 -12.337  10.292  1.00  0.00     0.154 C 
HETATM    9  C12 UNL     1       2.278 -12.865  11.014  1.00  0.00     0.261 C 
HETATM   10  O3  UNL     1       3.426 -12.236  11.425  1.00  0.00    -0.304 OA
HETATM   11  C13 UNL     1       3.885 -10.958  11.223  1.00  0.00     0.200 C 
HETATM   12  C14 UNL     1       3.978 -10.512   9.770  1.00  0.00     0.048 C 
HETATM   13  C15 UNL     1       5.165 -10.638  11.875  1.00  0.00     0.180 C 
HETATM   14  O4  UNL     1       5.654  -9.575  11.516  1.00  0.00    -0.293 OA
HETATM   15  C16 UNL     1       5.885 -11.412  12.857  1.00  0.00     0.180 C 
HETATM   16  N3  UNL     1       5.404 -11.379  14.217  1.00  0.00    -0.342 N 
ATOM     17  H3  UNL     1       4.963 -12.235  14.553  1.00  0.00     0.163 HD
HETATM   18  C18 UNL     1       5.464 -10.308  15.148  1.00  0.00     0.264 C 
HETATM   19  O6  UNL     1       4.950 -10.568  16.270  1.00  0.00    -0.266 OA
HETATM   20  C19 UNL     1       6.022  -8.980  15.002  1.00  0.00     0.077 C 
HETATM   21  C20 UNL     1       6.926  -8.592  16.192  1.00  0.00     0.074 C 
HETATM   22  N4  UNL     1       5.198  -7.872  14.565  1.00  0.00    -0.330 N 
HETATM   23  C21 UNL     1       6.090  -6.842  13.883  1.00  0.00     0.158 C 
HETATM   24  C22 UNL     1       3.834  -7.603  14.635  1.00  0.00     0.166 C 
HETATM   25  C23 UNL     1       2.805  -7.287  15.613  1.00  0.00     0.068 C 
HETATM   26  N5  UNL     1       1.448  -7.565  15.197  1.00  0.00    -0.334 N 
HETATM   27  C27 UNL     1       0.529  -6.402  15.014  1.00  0.00     0.158 C 
HETATM   28  C28 UNL     1       0.804  -8.783  14.886  1.00  0.00     0.141 C 
ENDROOT
BRANCH   1  29
HETATM   29  C3  UNL     1      -0.030 -10.942  15.968  1.00  0.00     0.012 C 
HETATM   30  C4  UNL     1       0.735 -12.007  16.845  1.00  0.00     0.012 C 
BRANCH  29  31
HETATM   31  C2  UNL     1      -0.972 -10.331  16.919  1.00  0.00     0.002 C 
HETATM   32  C1  UNL     1      -2.413 -10.265  16.498  1.00  0.00     0.005 C 
ENDBRANCH  29  31
ENDBRANCH   1  29
BRANCH  28  33
HETATM   33  O8  UNL     1      -0.182  -8.774  14.036  1.00  0.00    -0.348 OA
ATOM     34  H8  UNL     1      -0.343  -9.650  13.703  1.00  0.00     0.219 HD
ENDBRANCH  28  33
BRANCH   6  35
HETATM   35  C8  UNL     1      -0.262 -13.765  13.191  1.00  0.00     0.009 C 
HETATM   36  C9  UNL     1      -0.274 -14.893  12.226  1.00  0.00     0.012 C 
HETATM   37  C10 UNL     1      -1.629 -13.527  13.817  1.00  0.00     0.012 C 
ENDBRANCH   6  35
BRANCH  25  38
HETATM   38  C24 UNL     1       2.964  -7.607  17.048  1.00  0.00     0.032 C 
HETATM   39  C25 UNL     1       1.851  -6.823  17.785  1.00  0.00     0.016 C 
HETATM   40  C26 UNL     1       4.194  -6.871  17.653  1.00  0.00     0.016 C 
ENDBRANCH  25  38
BRANCH  24  41
HETATM   41  O7  UNL     1       3.314  -7.645  13.428  1.00  0.00    -0.344 OA
ATOM     42  H7  UNL     1       2.377  -7.499  13.480  1.00  0.00     0.219 HD
ENDBRANCH  24  41
BRANCH   9  43
HETATM   43  O2  UNL     1       2.378 -13.868  10.187  1.00  0.00    -0.327 OA
ATOM     44  H2  UNL     1       1.709 -13.858   9.513  1.00  0.00     0.221 HD
ENDBRANCH   9  43
BRANCH  15  45
HETATM   45  C17 UNL     1       6.144 -12.854  12.468  1.00  0.00     0.197 C 
BRANCH  45  46
HETATM   46  O5  UNL     1       5.116 -13.610  13.034  1.00  0.00    -0.398 OA
ATOM     47  H5  UNL     1       5.172 -14.476  12.648  1.00  0.00     0.209 HD
ENDBRANCH  45  46
ENDBRANCH  15  45
TORSDOF 9
ENDMDL
