MODEL 1
REMARK VINA RESULT: -7.640591042      0.000      0.000
REMARK  5 active torsions:
REMARK  status: ('A' for Active; 'I' for Inactive)
REMARK    1  A    between atoms: C2_2  and  C3_3 
REMARK    2  A    between atoms: C6_9  and  C7_10 
REMARK    3  A    between atoms: C19_28  and  C20_29 
REMARK    4  A    between atoms: C24_36  and  C25_37 
REMARK    5  A    between atoms: C25_37  and  C26_38 
ROOT
HETATM    1  C3  UNL     1       6.113  -5.546  16.935  1.00  0.00     0.176 C 
HETATM    2  N1  UNL     1       6.919  -6.138  15.897  1.00  0.00    -0.348 N 
ATOM      3  H1  UNL     1       7.881  -5.806  15.818  1.00  0.00     0.163 HD
HETATM    4  C4  UNL     1       6.513  -7.130  14.980  1.00  0.00     0.220 C 
HETATM    5  O1  UNL     1       6.836  -6.976  13.772  1.00  0.00    -0.274 OA
HETATM    6  C5  UNL     1       5.732  -8.354  15.301  1.00  0.00     0.128 C 
HETATM    7  C6  UNL     1       6.538  -9.603  14.965  1.00  0.00     0.098 C 
HETATM    8  N2  UNL     1       6.562  -9.912  13.566  1.00  0.00    -0.349 N 
HETATM    9  C10 UNL     1       7.861 -10.451  13.060  1.00  0.00     0.153 C 
HETATM   10  C11 UNL     1       5.536  -9.723  12.619  1.00  0.00     0.249 C 
HETATM   11  O2  UNL     1       5.956  -9.300  11.471  1.00  0.00    -0.270 OA
HETATM   12  C12 UNL     1       4.086  -9.915  12.693  1.00  0.00     0.219 C 
HETATM   13  C13 UNL     1       3.703 -10.597  11.357  1.00  0.00     0.050 C 
HETATM   14  O3  UNL     1       3.650 -10.750  13.687  1.00  0.00    -0.305 OA
HETATM   15  C14 UNL     1       2.482 -10.886  14.350  1.00  0.00     0.282 C 
HETATM   16  O4  UNL     1       2.226 -12.089  14.726  1.00  0.00    -0.263 OA
HETATM   17  C15 UNL     1       1.558  -9.762  14.632  1.00  0.00     0.182 C 
HETATM   18  C16 UNL     1       0.764  -9.560  13.335  1.00  0.00     0.043 C 
HETATM   19  N3  UNL     1       0.650  -9.996  15.726  1.00  0.00    -0.341 N 
HETATM   20  C17 UNL     1       0.090 -11.349  15.926  1.00  0.00     0.153 C 
HETATM   21  C18 UNL     1       0.269  -8.988  16.611  1.00  0.00     0.243 C 
HETATM   22  O5  UNL     1      -0.682  -9.207  17.415  1.00  0.00    -0.271 OA
HETATM   23  C19 UNL     1       0.865  -7.612  16.749  1.00  0.00     0.180 C 
HETATM   24  N4  UNL     1       1.591  -7.565  18.001  1.00  0.00    -0.346 N 
ATOM     25  H4  UNL     1       1.161  -8.100  18.755  1.00  0.00     0.163 HD
HETATM   26  C23 UNL     1       2.771  -6.920  18.360  1.00  0.00     0.241 C 
HETATM   27  O6  UNL     1       3.774  -7.692  18.653  1.00  0.00    -0.271 OA
HETATM   28  C24 UNL     1       3.096  -5.484  18.472  1.00  0.00     0.177 C 
HETATM   29  N5  UNL     1       3.651  -4.884  17.286  1.00  0.00    -0.346 N 
ATOM     30  H5  UNL     1       3.191  -4.029  16.975  1.00  0.00     0.163 HD
HETATM   31  C29 UNL     1       4.719  -5.299  16.503  1.00  0.00     0.241 C 
HETATM   32  O7  UNL     1       4.499  -5.499  15.253  1.00  0.00    -0.271 OA
ENDROOT
BRANCH  28  33
HETATM   33  C25 UNL     1       3.997  -5.248  19.712  1.00  0.00     0.038 C 
BRANCH  33  34
HETATM   34  C26 UNL     1       3.352  -4.084  20.486  1.00  0.00    -0.020 C 
HETATM   35  C27 UNL     1       3.964  -2.777  20.025  1.00  0.00     0.009 C 
HETATM   36  C28 UNL     1       1.869  -4.013  20.187  1.00  0.00     0.009 C 
ENDBRANCH  33  34
ENDBRANCH  28  33
BRANCH  23  37
HETATM   37  C20 UNL     1      -0.394  -6.719  16.794  1.00  0.00     0.009 C 
HETATM   38  C21 UNL     1      -1.062  -6.859  15.415  1.00  0.00     0.012 C 
HETATM   39  C22 UNL     1      -0.073  -5.263  16.911  1.00  0.00     0.012 C 
ENDBRANCH  23  37
BRANCH   1  40
HETATM   40  C2  UNL     1       6.796  -4.231  17.347  1.00  0.00     0.030 C 
HETATM   41  C1  UNL     1       7.458  -4.410  18.713  1.00  0.00     0.007 C 
ENDBRANCH   1  40
BRANCH   7  42
HETATM   42  C7  UNL     1       6.279 -10.718  15.896  1.00  0.00     0.001 C 
HETATM   43  C8  UNL     1       5.092 -10.437  16.819  1.00  0.00     0.011 C 
HETATM   44  C9  UNL     1       7.412 -11.111  16.808  1.00  0.00     0.011 C 
ENDBRANCH   7  42
TORSDOF 5
ENDMDL
MODEL 2
REMARK VINA RESULT: -7.168774038      1.736      6.255
REMARK  5 active torsions:
REMARK  status: ('A' for Active; 'I' for Inactive)
REMARK    1  A    between atoms: C2_2  and  C3_3 
REMARK    2  A    between atoms: C6_9  and  C7_10 
REMARK    3  A    between atoms: C19_28  and  C20_29 
REMARK    4  A    between atoms: C24_36  and  C25_37 
REMARK    5  A    between atoms: C25_37  and  C26_38 
ROOT
HETATM    1  C3  UNL     1       3.374  -5.191  18.164  1.00  0.00     0.176 C 
HETATM    2  N1  UNL     1       2.018  -5.284  18.643  1.00  0.00    -0.348 N 
ATOM      3  H1  UNL     1       1.685  -4.517  19.229  1.00  0.00     0.163 HD
HETATM    4  C4  UNL     1       1.104  -6.326  18.384  1.00  0.00     0.220 C 
HETATM    5  O1  UNL     1       0.426  -6.764  19.351  1.00  0.00    -0.274 OA
HETATM    6  C5  UNL     1       0.858  -6.968  17.065  1.00  0.00     0.128 C 
HETATM    7  C6  UNL     1      -0.590  -6.763  16.634  1.00  0.00     0.098 C 
HETATM    8  N2  UNL     1      -1.515  -7.632  17.299  1.00  0.00    -0.349 N 
HETATM    9  C10 UNL     1      -2.834  -7.013  17.635  1.00  0.00     0.153 C 
HETATM   10  C11 UNL     1      -1.312  -8.965  17.709  1.00  0.00     0.249 C 
HETATM   11  O2  UNL     1      -1.829  -9.241  18.861  1.00  0.00    -0.270 OA
HETATM   12  C12 UNL     1      -0.625 -10.091  17.074  1.00  0.00     0.219 C 
HETATM   13  C13 UNL     1      -1.552 -11.309  17.305  1.00  0.00     0.050 C 
HETATM   14  O3  UNL     1      -0.455  -9.993  15.718  1.00  0.00    -0.305 OA
HETATM   15  C14 UNL     1       0.415 -10.538  14.843  1.00  0.00     0.282 C 
HETATM   16  O4  UNL     1      -0.071 -10.733  13.668  1.00  0.00    -0.263 OA
HETATM   17  C15 UNL     1       1.815 -10.892  15.181  1.00  0.00     0.182 C 
HETATM   18  C16 UNL     1       1.725 -12.248  15.892  1.00  0.00     0.043 C 
HETATM   19  N3  UNL     1       2.695 -10.995  14.046  1.00  0.00    -0.341 N 
HETATM   20  C17 UNL     1       2.182 -11.560  12.780  1.00  0.00     0.153 C 
HETATM   21  C18 UNL     1       4.027 -10.585  14.092  1.00  0.00     0.243 C 
HETATM   22  O5  UNL     1       4.796 -10.892  13.136  1.00  0.00    -0.271 OA
HETATM   23  C19 UNL     1       4.707  -9.787  15.173  1.00  0.00     0.180 C 
HETATM   24  N4  UNL     1       4.978  -8.466  14.648  1.00  0.00    -0.346 N 
ATOM     25  H4  UNL     1       5.227  -8.452  13.659  1.00  0.00     0.163 HD
HETATM   26  C23 UNL     1       4.960  -7.212  15.250  1.00  0.00     0.241 C 
HETATM   27  O6  UNL     1       4.047  -6.391  14.827  1.00  0.00    -0.271 OA
HETATM   28  C24 UNL     1       5.812  -6.630  16.306  1.00  0.00     0.177 C 
HETATM   29  N5  UNL     1       5.323  -6.792  17.651  1.00  0.00    -0.346 N 
ATOM     30  H5  UNL     1       5.992  -7.183  18.314  1.00  0.00     0.163 HD
HETATM   31  C29 UNL     1       4.074  -6.495  18.178  1.00  0.00     0.241 C 
HETATM   32  O7  UNL     1       3.428  -7.447  18.750  1.00  0.00    -0.271 OA
ENDROOT
BRANCH  28  33
HETATM   33  C25 UNL     1       6.112  -5.144  15.978  1.00  0.00     0.038 C 
BRANCH  33  34
HETATM   34  C26 UNL     1       7.367  -4.778  16.789  1.00  0.00    -0.020 C 
HETATM   35  C27 UNL     1       8.596  -4.985  15.928  1.00  0.00     0.009 C 
HETATM   36  C28 UNL     1       7.334  -3.313  17.175  1.00  0.00     0.009 C 
ENDBRANCH  33  34
ENDBRANCH  28  33
BRANCH  23  37
HETATM   37  C20 UNL     1       6.010 -10.586  15.392  1.00  0.00     0.009 C 
HETATM   38  C21 UNL     1       6.203 -10.673  16.915  1.00  0.00     0.012 C 
HETATM   39  C22 UNL     1       7.226  -9.866  14.899  1.00  0.00     0.012 C 
ENDBRANCH  23  37
BRANCH   1  40
HETATM   40  C2  UNL     1       4.104  -4.173  19.057  1.00  0.00     0.030 C 
HETATM   41  C1  UNL     1       3.279  -3.921  20.318  1.00  0.00     0.007 C 
ENDBRANCH   1  40
BRANCH   7  42
HETATM   42  C7  UNL     1      -0.736  -6.614  15.174  1.00  0.00     0.001 C 
HETATM   43  C8  UNL     1      -1.866  -7.480  14.614  1.00  0.00     0.011 C 
HETATM   44  C9  UNL     1       0.474  -6.945  14.338  1.00  0.00     0.011 C 
ENDBRANCH   7  42
TORSDOF 5
ENDMDL
MODEL 3
REMARK VINA RESULT: -7.028313061      2.725      4.085
REMARK  5 active torsions:
REMARK  status: ('A' for Active; 'I' for Inactive)
REMARK    1  A    between atoms: C2_2  and  C3_3 
REMARK    2  A    between atoms: C6_9  and  C7_10 
REMARK    3  A    between atoms: C19_28  and  C20_29 
REMARK    4  A    between atoms: C24_36  and  C25_37 
REMARK    5  A    between atoms: C25_37  and  C26_38 
ROOT
HETATM    1  C3  UNL     1       5.590  -8.058  13.639  1.00  0.00     0.176 C 
HETATM    2  N1  UNL     1       6.116  -8.541  12.387  1.00  0.00    -0.348 N 
ATOM      3  H1  UNL     1       6.940  -8.064  12.021  1.00  0.00     0.163 HD
HETATM    4  C4  UNL     1       5.605  -9.605  11.616  1.00  0.00     0.220 C 
HETATM    5  O1  UNL     1       5.507  -9.432  10.372  1.00  0.00    -0.274 OA
HETATM    6  C5  UNL     1       5.165 -10.929  12.132  1.00  0.00     0.128 C 
HETATM    7  C6  UNL     1       6.012 -12.044  11.529  1.00  0.00     0.098 C 
HETATM    8  N2  UNL     1       5.646 -12.378  10.184  1.00  0.00    -0.349 N 
HETATM    9  C10 UNL     1       6.790 -12.719   9.284  1.00  0.00     0.153 C 
HETATM   10  C11 UNL     1       4.359 -12.376   9.608  1.00  0.00     0.249 C 
HETATM   11  O2  UNL     1       4.329 -11.919   8.399  1.00  0.00    -0.270 OA
HETATM   12  C12 UNL     1       3.054 -12.791  10.125  1.00  0.00     0.219 C 
HETATM   13  C13 UNL     1       2.386 -13.557   8.957  1.00  0.00     0.050 C 
HETATM   14  O3  UNL     1       3.086 -13.661  11.183  1.00  0.00    -0.305 OA
HETATM   15  C14 UNL     1       2.220 -13.962  12.173  1.00  0.00     0.282 C 
HETATM   16  O4  UNL     1       2.285 -15.181  12.578  1.00  0.00    -0.263 OA
HETATM   17  C15 UNL     1       1.265 -12.991  12.758  1.00  0.00     0.182 C 
HETATM   18  C16 UNL     1       0.085 -12.948  11.778  1.00  0.00     0.043 C 
HETATM   19  N3  UNL     1       0.791 -13.339  14.073  1.00  0.00    -0.341 N 
HETATM   20  C17 UNL     1       0.541 -14.758  14.402  1.00  0.00     0.153 C 
HETATM   21  C18 UNL     1       0.552 -12.382  15.059  1.00  0.00     0.243 C 
HETATM   22  O5  UNL     1      -0.054 -12.728  16.113  1.00  0.00    -0.271 OA
HETATM   23  C19 UNL     1       0.938 -10.927  15.042  1.00  0.00     0.180 C 
HETATM   24  N4  UNL     1       2.001 -10.736  16.006  1.00  0.00    -0.346 N 
ATOM     25  H4  UNL     1       1.916 -11.314  16.842  1.00  0.00     0.163 HD
HETATM   26  C23 UNL     1       3.117  -9.906  15.997  1.00  0.00     0.241 C 
HETATM   27  O6  UNL     1       4.269 -10.503  15.943  1.00  0.00    -0.271 OA
HETATM   28  C24 UNL     1       3.232  -8.434  16.041  1.00  0.00     0.177 C 
HETATM   29  N5  UNL     1       3.288  -7.783  14.757  1.00  0.00    -0.346 N 
ATOM     30  H5  UNL     1       2.626  -7.019  14.628  1.00  0.00     0.163 HD
HETATM   31  C29 UNL     1       4.111  -8.044  13.670  1.00  0.00     0.241 C 
HETATM   32  O7  UNL     1       3.547  -8.306  12.546  1.00  0.00    -0.271 OA
ENDROOT
BRANCH  28  33
HETATM   33  C25 UNL     1       4.426  -8.030  16.944  1.00  0.00     0.038 C 
BRANCH  33  34
HETATM   34  C26 UNL     1       4.087  -6.630  17.488  1.00  0.00    -0.020 C 
HETATM   35  C27 UNL     1       3.337  -6.770  18.796  1.00  0.00     0.009 C 
HETATM   36  C28 UNL     1       5.358  -5.860  17.783  1.00  0.00     0.009 C 
ENDBRANCH  33  34
ENDBRANCH  28  33
BRANCH  23  37
HETATM   37  C20 UNL     1      -0.368 -10.242  15.500  1.00  0.00     0.009 C 
HETATM   38  C21 UNL     1      -1.276 -10.188  14.259  1.00  0.00     0.012 C 
HETATM   39  C22 UNL     1      -0.173  -8.810  15.886  1.00  0.00     0.012 C 
ENDBRANCH  23  37
BRANCH   1  40
HETATM   40  C2  UNL     1       6.153  -6.643  13.854  1.00  0.00     0.030 C 
HETATM   41  C1  UNL     1       7.343  -6.709  14.810  1.00  0.00     0.007 C 
ENDBRANCH   1  40
BRANCH   7  42
HETATM   42  C7  UNL     1       6.233 -13.163  12.464  1.00  0.00     0.001 C 
HETATM   43  C8  UNL     1       6.916 -12.711  13.756  1.00  0.00     0.011 C 
HETATM   44  C9  UNL     1       7.062 -14.313  11.954  1.00  0.00     0.011 C 
ENDBRANCH   7  42
TORSDOF 5
ENDMDL
MODEL 4
REMARK VINA RESULT: -6.611765657      2.978      7.191
REMARK  5 active torsions:
REMARK  status: ('A' for Active; 'I' for Inactive)
REMARK    1  A    between atoms: C2_2  and  C3_3 
REMARK    2  A    between atoms: C6_9  and  C7_10 
REMARK    3  A    between atoms: C19_28  and  C20_29 
REMARK    4  A    between atoms: C24_36  and  C25_37 
REMARK    5  A    between atoms: C25_37  and  C26_38 
ROOT
HETATM    1  C3  UNL     1       2.085  -8.357  16.638  1.00  0.00     0.176 C 
HETATM    2  N1  UNL     1       0.958  -9.021  17.242  1.00  0.00    -0.348 N 
ATOM      3  H1  UNL     1       0.658  -8.678  18.154  1.00  0.00     0.163 HD
HETATM    4  C4  UNL     1       0.228 -10.098  16.698  1.00  0.00     0.220 C 
HETATM    5  O1  UNL     1      -0.059 -11.056  17.465  1.00  0.00    -0.274 OA
HETATM    6  C5  UNL     1      -0.243 -10.217  15.293  1.00  0.00     0.128 C 
HETATM    7  C6  UNL     1      -1.765 -10.294  15.245  1.00  0.00     0.098 C 
HETATM    8  N2  UNL     1      -2.285 -11.583  15.594  1.00  0.00    -0.349 N 
HETATM    9  C10 UNL     1      -3.554 -11.560  16.384  1.00  0.00     0.153 C 
HETATM   10  C11 UNL     1      -1.724 -12.848  15.323  1.00  0.00     0.249 C 
HETATM   11  O2  UNL     1      -1.840 -13.689  16.298  1.00  0.00    -0.270 OA
HETATM   12  C12 UNL     1      -1.034 -13.382  14.148  1.00  0.00     0.219 C 
HETATM   13  C13 UNL     1      -1.608 -14.807  13.959  1.00  0.00     0.050 C 
HETATM   14  O3  UNL     1      -1.266 -12.718  12.972  1.00  0.00    -0.305 OA
HETATM   15  C14 UNL     1      -0.583 -12.598  11.815  1.00  0.00     0.282 C 
HETATM   16  O4  UNL     1      -1.327 -12.453  10.776  1.00  0.00    -0.263 OA
HETATM   17  C15 UNL     1       0.896 -12.628  11.722  1.00  0.00     0.182 C 
HETATM   18  C16 UNL     1       1.270 -14.116  11.755  1.00  0.00     0.043 C 
HETATM   19  N3  UNL     1       1.432 -12.018  10.532  1.00  0.00    -0.341 N 
HETATM   20  C17 UNL     1       0.709 -12.168   9.252  1.00  0.00     0.153 C 
HETATM   21  C18 UNL     1       2.620 -11.287  10.537  1.00  0.00     0.243 C 
HETATM   22  O5  UNL     1       3.139 -10.957   9.432  1.00  0.00    -0.271 OA
HETATM   23  C19 UNL     1       3.404 -10.813  11.731  1.00  0.00     0.180 C 
HETATM   24  N4  UNL     1       3.259  -9.375  11.817  1.00  0.00    -0.346 N 
ATOM     25  H4  UNL     1       3.218  -8.904  10.913  1.00  0.00     0.163 HD
HETATM   26  C23 UNL     1       3.166  -8.520  12.910  1.00  0.00     0.241 C 
HETATM   27  O6  UNL     1       2.030  -7.906  13.057  1.00  0.00    -0.271 OA
HETATM   28  C24 UNL     1       4.147  -8.173  13.958  1.00  0.00     0.177 C 
HETATM   29  N5  UNL     1       4.088  -8.983  15.148  1.00  0.00    -0.346 N 
ATOM     30  H5  UNL     1       4.977  -9.386  15.444  1.00  0.00     0.163 HD
HETATM   31  C29 UNL     1       3.000  -9.295  15.950  1.00  0.00     0.241 C 
HETATM   32  O7  UNL     1       2.733 -10.538  16.134  1.00  0.00    -0.271 OA
ENDROOT
BRANCH  28  33
HETATM   33  C25 UNL     1       4.051  -6.661  14.285  1.00  0.00     0.038 C 
BRANCH  33  34
HETATM   34  C26 UNL     1       5.500  -6.178  14.477  1.00  0.00    -0.020 C 
HETATM   35  C27 UNL     1       5.739  -4.956  13.614  1.00  0.00     0.009 C 
HETATM   36  C28 UNL     1       5.727  -5.760  15.916  1.00  0.00     0.009 C 
ENDBRANCH  33  34
ENDBRANCH  28  33
BRANCH  23  37
HETATM   37  C20 UNL     1       4.845 -11.213  11.350  1.00  0.00     0.009 C 
HETATM   38  C21 UNL     1       5.384 -12.035  12.533  1.00  0.00     0.012 C 
HETATM   39  C22 UNL     1       5.771 -10.041  11.254  1.00  0.00     0.012 C 
ENDBRANCH  23  37
BRANCH   1  40
HETATM   40  C2  UNL     1       2.822  -7.601  17.757  1.00  0.00     0.030 C 
HETATM   41  C1  UNL     1       2.483  -6.114  17.674  1.00  0.00     0.007 C 
ENDBRANCH   1  40
BRANCH   7  42
HETATM   42  C7  UNL     1      -2.334  -9.638  14.053  1.00  0.00     0.001 C 
HETATM   43  C8  UNL     1      -2.625  -8.156  14.292  1.00  0.00     0.011 C 
HETATM   44  C9  UNL     1      -3.616 -10.217  13.513  1.00  0.00     0.011 C 
ENDBRANCH   7  42
TORSDOF 5
ENDMDL
MODEL 5
REMARK VINA RESULT: -6.541185106      2.856      5.305
REMARK  5 active torsions:
REMARK  status: ('A' for Active; 'I' for Inactive)
REMARK    1  A    between atoms: C2_2  and  C3_3 
REMARK    2  A    between atoms: C6_9  and  C7_10 
REMARK    3  A    between atoms: C19_28  and  C20_29 
REMARK    4  A    between atoms: C24_36  and  C25_37 
REMARK    5  A    between atoms: C25_37  and  C26_38 
ROOT
HETATM    1  C3  UNL     1       3.743  -9.272  13.504  1.00  0.00     0.176 C 
HETATM    2  N1  UNL     1       3.260 -10.266  12.580  1.00  0.00    -0.348 N 
ATOM      3  H1  UNL     1       3.924 -10.607  11.884  1.00  0.00     0.163 HD
HETATM    4  C4  UNL     1       1.962 -10.816  12.539  1.00  0.00     0.220 C 
HETATM    5  O1  UNL     1       1.411 -10.932  11.413  1.00  0.00    -0.274 OA
HETATM    6  C5  UNL     1       1.170 -11.279  13.710  1.00  0.00     0.128 C 
HETATM    7  C6  UNL     1       0.865 -12.769  13.591  1.00  0.00     0.098 C 
HETATM    8  N2  UNL     1      -0.198 -13.065  12.676  1.00  0.00    -0.349 N 
HETATM    9  C10 UNL     1      -0.009 -14.310  11.870  1.00  0.00     0.153 C 
HETATM   10  C11 UNL     1      -1.358 -12.306  12.419  1.00  0.00     0.249 C 
HETATM   11  O2  UNL     1      -1.691 -12.269  11.170  1.00  0.00    -0.270 OA
HETATM   12  C12 UNL     1      -2.252 -11.553  13.300  1.00  0.00     0.219 C 
HETATM   13  C13 UNL     1      -3.680 -11.887  12.804  1.00  0.00     0.050 C 
HETATM   14  O3  UNL     1      -2.215 -11.907  14.623  1.00  0.00    -0.305 OA
HETATM   15  C14 UNL     1      -2.522 -11.268  15.772  1.00  0.00     0.282 C 
HETATM   16  O4  UNL     1      -2.957 -12.039  16.704  1.00  0.00    -0.263 OA
HETATM   17  C15 UNL     1      -2.379  -9.805  15.966  1.00  0.00     0.182 C 
HETATM   18  C16 UNL     1      -3.630  -9.191  15.324  1.00  0.00     0.043 C 
HETATM   19  N3  UNL     1      -2.287  -9.393  17.343  1.00  0.00    -0.341 N 
HETATM   20  C17 UNL     1      -3.087 -10.097  18.366  1.00  0.00     0.153 C 
HETATM   21  C18 UNL     1      -1.468  -8.341  17.755  1.00  0.00     0.243 C 
HETATM   22  O5  UNL     1      -1.589  -7.898  18.933  1.00  0.00    -0.271 OA
HETATM   23  C19 UNL     1      -0.410  -7.631  16.954  1.00  0.00     0.180 C 
HETATM   24  N4  UNL     1       0.882  -8.009  17.489  1.00  0.00    -0.346 N 
ATOM     25  H4  UNL     1       0.894  -8.139  18.500  1.00  0.00     0.163 HD
HETATM   26  C23 UNL     1       2.108  -8.228  16.870  1.00  0.00     0.241 C 
HETATM   27  O6  UNL     1       2.556  -9.447  16.908  1.00  0.00    -0.271 OA
HETATM   28  C24 UNL     1       3.017  -7.303  16.162  1.00  0.00     0.177 C 
HETATM   29  N5  UNL     1       2.816  -7.213  14.739  1.00  0.00    -0.346 N 
ATOM     30  H5  UNL     1       2.716  -6.266  14.373  1.00  0.00     0.163 HD
HETATM   31  C29 UNL     1       2.739  -8.225  13.792  1.00  0.00     0.241 C 
HETATM   32  O7  UNL     1       1.680  -8.280  13.066  1.00  0.00    -0.271 OA
ENDROOT
BRANCH  28  33
HETATM   33  C25 UNL     1       4.488  -7.643  16.516  1.00  0.00     0.038 C 
BRANCH  33  34
HETATM   34  C26 UNL     1       5.257  -6.311  16.442  1.00  0.00    -0.020 C 
HETATM   35  C27 UNL     1       5.173  -5.611  17.783  1.00  0.00     0.009 C 
HETATM   36  C28 UNL     1       6.724  -6.568  16.164  1.00  0.00     0.009 C 
ENDBRANCH  33  34
ENDBRANCH  28  33
BRANCH  23  37
HETATM   37  C20 UNL     1      -0.727  -6.148  17.244  1.00  0.00     0.009 C 
HETATM   38  C21 UNL     1      -2.084  -5.866  16.576  1.00  0.00     0.012 C 
HETATM   39  C22 UNL     1       0.224  -5.205  16.578  1.00  0.00     0.012 C 
ENDBRANCH  23  37
BRANCH   1  40
HETATM   40  C2  UNL     1       5.011  -8.655  12.889  1.00  0.00     0.030 C 
HETATM   41  C1  UNL     1       6.244  -9.233  13.581  1.00  0.00     0.007 C 
ENDBRANCH   1  40
BRANCH   7  42
HETATM   42  C7  UNL     1       0.839 -13.453  14.897  1.00  0.00     0.001 C 
HETATM   43  C8  UNL     1       1.283 -12.537  16.039  1.00  0.00     0.011 C 
HETATM   44  C9  UNL     1       1.687 -14.692  15.026  1.00  0.00     0.011 C 
ENDBRANCH   7  42
TORSDOF 5
ENDMDL
