MODEL 1
REMARK VINA RESULT: -8.432170987      0.000      0.000
REMARK  4 active torsions:
REMARK  status: ('A' for Active; 'I' for Inactive)
REMARK    1  A    between atoms: C9_15  and  C10_16 
REMARK    2  A    between atoms: C20_32  and  C21_33 
REMARK    3  A    between atoms: C21_33  and  C22_34 
REMARK    4  A    between atoms: C26_41  and  C27_42 
ROOT
HETATM    1  C1  UNL     1       8.710  -9.502  14.128  1.00  0.00     0.027 C 
HETATM    2  C2  UNL     1       7.473  -8.968  14.276  1.00  0.00     0.031 C 
HETATM    3  C3  UNL     1       6.356  -9.891  14.193  1.00  0.00     0.293 C 
HETATM    4  O1  UNL     1       6.393 -10.854  15.056  1.00  0.00    -0.259 OA
HETATM    5  O2  UNL     1       5.299  -9.807  13.284  1.00  0.00    -0.285 OA
HETATM    6  C4  UNL     1       5.392  -9.862  11.885  1.00  0.00     0.276 C 
HETATM    7  O3  UNL     1       4.420  -9.187  11.164  1.00  0.00    -0.360 OA
HETATM    8  C5  UNL     1       3.594 -10.289  10.996  1.00  0.00     0.180 C 
HETATM    9  C6  UNL     1       4.753 -11.159  11.434  1.00  0.00     0.074 C 
HETATM   10  C7  UNL     1       4.369 -12.017  12.597  1.00  0.00     0.114 C 
HETATM   11  C8  UNL     1       3.243 -12.894  12.196  1.00  0.00     0.218 C 
HETATM   12  O4  UNL     1       3.163 -13.227  10.990  1.00  0.00    -0.274 OA
HETATM   13  N1  UNL     1       2.247 -13.383  13.094  1.00  0.00    -0.347 N 
ATOM     14  H1  UNL     1       1.839 -14.303  12.927  1.00  0.00     0.163 HD
HETATM   15  C9  UNL     1       1.797 -12.611  14.236  1.00  0.00     0.180 C 
HETATM   16  C13 UNL     1       0.848 -11.534  13.859  1.00  0.00     0.244 C 
HETATM   17  O5  UNL     1       0.115 -11.771  12.864  1.00  0.00    -0.271 OA
HETATM   18  N2  UNL     1       0.709 -10.291  14.522  1.00  0.00    -0.324 N 
HETATM   19  C14 UNL     1       1.826  -9.423  14.901  1.00  0.00     0.181 C 
HETATM   20  C15 UNL     1       1.398  -9.129  16.338  1.00  0.00     0.050 C 
HETATM   21  C16 UNL     1      -0.050  -8.783  16.141  1.00  0.00     0.090 A 
HETATM   22  C17 UNL     1      -1.046  -9.851  16.297  1.00  0.00     0.157 A 
HETATM   23  O6  UNL     1      -1.787 -10.484  17.030  1.00  0.00    -0.295 OA
HETATM   24  C18 UNL     1      -0.472  -9.564  14.985  1.00  0.00     0.169 A 
HETATM   25  C19 UNL     1       1.860  -8.200  14.061  1.00  0.00     0.241 C 
HETATM   26  O7  UNL     1       0.746  -7.887  13.507  1.00  0.00    -0.271 OA
HETATM   27  N3  UNL     1       2.945  -7.369  13.808  1.00  0.00    -0.346 N 
ATOM     28  H3  UNL     1       3.121  -7.091  12.843  1.00  0.00     0.163 HD
HETATM   29  C20 UNL     1       3.871  -6.854  14.867  1.00  0.00     0.177 C 
HETATM   30  C25 UNL     1       5.074  -6.295  14.199  1.00  0.00     0.241 C 
HETATM   31  O8  UNL     1       4.969  -5.033  13.929  1.00  0.00    -0.271 OA
HETATM   32  N4  UNL     1       6.265  -6.891  13.821  1.00  0.00    -0.350 N 
ATOM     33  H4  UNL     1       6.388  -6.913  12.809  1.00  0.00     0.163 HD
HETATM   34  C26 UNL     1       7.363  -7.482  14.523  1.00  0.00     0.126 C 
ENDROOT
BRANCH  29  35
HETATM   35  C21 UNL     1       3.145  -5.724  15.575  1.00  0.00     0.038 C 
BRANCH  35  36
HETATM   36  C22 UNL     1       3.290  -5.675  17.044  1.00  0.00    -0.020 C 
HETATM   37  C23 UNL     1       4.040  -6.866  17.608  1.00  0.00     0.009 C 
HETATM   38  C24 UNL     1       1.876  -5.621  17.629  1.00  0.00     0.009 C 
ENDBRANCH  35  36
ENDBRANCH  29  35
BRANCH  34  39
HETATM   39  C27 UNL     1       7.488  -7.118  15.969  1.00  0.00     0.005 C 
HETATM   40  C28 UNL     1       8.930  -7.435  16.408  1.00  0.00     0.012 C 
HETATM   41  C29 UNL     1       7.465  -5.572  16.056  1.00  0.00     0.012 C 
ENDBRANCH  34  39
BRANCH  15  42
HETATM   42  C10 UNL     1       1.075 -13.522  15.224  1.00  0.00     0.009 C 
HETATM   43  C11 UNL     1       1.609 -14.924  15.229  1.00  0.00     0.012 C 
HETATM   44  C12 UNL     1       1.144 -12.928  16.631  1.00  0.00     0.012 C 
ENDBRANCH  15  42
TORSDOF 4
ENDMDL
MODEL 2
REMARK VINA RESULT: -7.160660420      2.179      5.912
REMARK  4 active torsions:
REMARK  status: ('A' for Active; 'I' for Inactive)
REMARK    1  A    between atoms: C9_15  and  C10_16 
REMARK    2  A    between atoms: C20_32  and  C21_33 
REMARK    3  A    between atoms: C21_33  and  C22_34 
REMARK    4  A    between atoms: C26_41  and  C27_42 
ROOT
HETATM    1  C1  UNL     1      -1.420  -7.881  16.859  1.00  0.00     0.027 C 
HETATM    2  C2  UNL     1      -0.145  -8.097  16.456  1.00  0.00     0.031 C 
HETATM    3  C3  UNL     1       0.033  -8.973  15.313  1.00  0.00     0.293 C 
HETATM    4  O1  UNL     1      -0.579  -8.585  14.242  1.00  0.00    -0.259 OA
HETATM    5  O2  UNL     1       0.785 -10.150  15.302  1.00  0.00    -0.285 OA
HETATM    6  C4  UNL     1       0.565 -11.292  16.088  1.00  0.00     0.276 C 
HETATM    7  O3  UNL     1       1.672 -12.065  16.396  1.00  0.00    -0.360 OA
HETATM    8  C5  UNL     1       1.509 -12.952  15.341  1.00  0.00     0.180 C 
HETATM    9  C6  UNL     1       0.109 -12.403  15.165  1.00  0.00     0.074 C 
HETATM   10  C7  UNL     1      -0.100 -11.909  13.769  1.00  0.00     0.114 C 
HETATM   11  C8  UNL     1       0.090 -13.036  12.825  1.00  0.00     0.218 C 
HETATM   12  O4  UNL     1      -0.178 -14.190  13.236  1.00  0.00    -0.274 OA
HETATM   13  N1  UNL     1       0.556 -12.892  11.484  1.00  0.00    -0.347 N 
ATOM     14  H1  UNL     1       0.213 -13.533  10.770  1.00  0.00     0.163 HD
HETATM   15  C9  UNL     1       1.503 -11.861  11.107  1.00  0.00     0.180 C 
HETATM   16  C13 UNL     1       2.895 -12.195  11.495  1.00  0.00     0.244 C 
HETATM   17  O5  UNL     1       3.186 -13.419  11.499  1.00  0.00    -0.271 OA
HETATM   18  N2  UNL     1       3.897 -11.260  11.850  1.00  0.00    -0.324 N 
HETATM   19  C14 UNL     1       3.706 -10.157  12.794  1.00  0.00     0.181 C 
HETATM   20  C15 UNL     1       4.336  -9.043  11.960  1.00  0.00     0.050 C 
HETATM   21  C16 UNL     1       5.610  -9.702  11.514  1.00  0.00     0.090 A 
HETATM   22  C17 UNL     1       5.620 -10.380  10.211  1.00  0.00     0.157 A 
HETATM   23  O6  UNL     1       5.789 -10.315   9.006  1.00  0.00    -0.295 OA
HETATM   24  C18 UNL     1       5.290 -11.121  11.426  1.00  0.00     0.169 A 
HETATM   25  C19 UNL     1       4.445 -10.403  14.058  1.00  0.00     0.241 C 
HETATM   26  O7  UNL     1       5.424 -11.228  13.966  1.00  0.00    -0.271 OA
HETATM   27  N3  UNL     1       4.201  -9.851  15.310  1.00  0.00    -0.346 N 
ATOM     28  H3  UNL     1       4.183 -10.478  16.114  1.00  0.00     0.163 HD
HETATM   29  C20 UNL     1       3.965  -8.393  15.551  1.00  0.00     0.177 C 
HETATM   30  C25 UNL     1       3.415  -8.232  16.922  1.00  0.00     0.241 C 
HETATM   31  O8  UNL     1       4.329  -8.051  17.821  1.00  0.00    -0.271 OA
HETATM   32  N4  UNL     1       2.111  -8.249  17.388  1.00  0.00    -0.350 N 
ATOM     33  H4  UNL     1       1.923  -9.045  17.997  1.00  0.00     0.163 HD
HETATM   34  C26 UNL     1       0.967  -7.408  17.211  1.00  0.00     0.126 C 
ENDROOT
BRANCH  29  35
HETATM   35  C21 UNL     1       5.320  -7.711  15.494  1.00  0.00     0.038 C 
BRANCH  35  36
HETATM   36  C22 UNL     1       5.483  -6.666  14.465  1.00  0.00    -0.020 C 
HETATM   37  C23 UNL     1       6.805  -5.931  14.566  1.00  0.00     0.009 C 
HETATM   38  C24 UNL     1       4.322  -5.683  14.639  1.00  0.00     0.009 C 
ENDBRANCH  35  36
ENDBRANCH  29  35
BRANCH  34  39
HETATM   39  C27 UNL     1       1.243  -6.023  16.714  1.00  0.00     0.005 C 
HETATM   40  C28 UNL     1      -0.082  -5.240  16.752  1.00  0.00     0.012 C 
HETATM   41  C29 UNL     1       2.069  -5.300  17.806  1.00  0.00     0.012 C 
ENDBRANCH  34  39
BRANCH  15  42
HETATM   42  C10 UNL     1       1.489 -11.675   9.592  1.00  0.00     0.009 C 
HETATM   43  C11 UNL     1       2.736 -12.178   8.927  1.00  0.00     0.012 C 
HETATM   44  C12 UNL     1       0.260 -12.359   8.992  1.00  0.00     0.012 C 
ENDBRANCH  15  42
TORSDOF 4
ENDMDL
MODEL 3
REMARK VINA RESULT: -7.140763159      2.154      3.427
REMARK  4 active torsions:
REMARK  status: ('A' for Active; 'I' for Inactive)
REMARK    1  A    between atoms: C9_15  and  C10_16 
REMARK    2  A    between atoms: C20_32  and  C21_33 
REMARK    3  A    between atoms: C21_33  and  C22_34 
REMARK    4  A    between atoms: C26_41  and  C27_42 
ROOT
HETATM    1  C1  UNL     1       7.100 -11.018  14.310  1.00  0.00     0.027 C 
HETATM    2  C2  UNL     1       6.455  -9.912  14.752  1.00  0.00     0.031 C 
HETATM    3  C3  UNL     1       5.059 -10.078  15.113  1.00  0.00     0.293 C 
HETATM    4  O1  UNL     1       4.847 -10.960  16.035  1.00  0.00    -0.259 OA
HETATM    5  O2  UNL     1       3.987  -9.379  14.554  1.00  0.00    -0.285 OA
HETATM    6  C4  UNL     1       3.594  -9.388  13.207  1.00  0.00     0.276 C 
HETATM    7  O3  UNL     1       2.961  -8.251  12.730  1.00  0.00    -0.360 OA
HETATM    8  C5  UNL     1       1.673  -8.719  12.946  1.00  0.00     0.180 C 
HETATM    9  C6  UNL     1       2.262 -10.103  13.123  1.00  0.00     0.074 C 
HETATM   10  C7  UNL     1       1.867 -10.689  14.440  1.00  0.00     0.114 C 
HETATM   11  C8  UNL     1       0.389 -10.791  14.498  1.00  0.00     0.218 C 
HETATM   12  O4  UNL     1      -0.227 -10.951  13.418  1.00  0.00    -0.274 OA
HETATM   13  N1  UNL     1      -0.375 -10.719  15.702  1.00  0.00    -0.347 N 
ATOM     14  H1  UNL     1      -1.236 -11.261  15.774  1.00  0.00     0.163 HD
HETATM   15  C9  UNL     1       0.037  -9.900  16.825  1.00  0.00     0.180 C 
HETATM   16  C13 UNL     1      -0.258  -8.461  16.620  1.00  0.00     0.244 C 
HETATM   17  O5  UNL     1      -1.272  -8.201  15.921  1.00  0.00    -0.271 OA
HETATM   18  N2  UNL     1       0.500  -7.384  17.141  1.00  0.00    -0.324 N 
HETATM   19  C14 UNL     1       1.959  -7.283  17.067  1.00  0.00     0.181 C 
HETATM   20  C15 UNL     1       2.226  -6.895  18.520  1.00  0.00     0.050 C 
HETATM   21  C16 UNL     1       1.208  -5.810  18.721  1.00  0.00     0.090 A 
HETATM   22  C17 UNL     1      -0.095  -6.179  19.290  1.00  0.00     0.157 A 
HETATM   23  O6  UNL     1      -0.786  -6.355  20.279  1.00  0.00    -0.295 OA
HETATM   24  C18 UNL     1       0.100  -6.165  17.843  1.00  0.00     0.169 A 
HETATM   25  C19 UNL     1       2.372  -6.222  16.115  1.00  0.00     0.241 C 
HETATM   26  O7  UNL     1       1.487  -5.323  15.881  1.00  0.00    -0.271 OA
HETATM   27  N3  UNL     1       3.589  -6.094  15.456  1.00  0.00    -0.346 N 
ATOM     28  H3  UNL     1       3.574  -5.896  14.456  1.00  0.00     0.163 HD
HETATM   29  C20 UNL     1       4.922  -6.229  16.125  1.00  0.00     0.177 C 
HETATM   30  C25 UNL     1       5.959  -6.368  15.070  1.00  0.00     0.241 C 
HETATM   31  O8  UNL     1       6.461  -5.235  14.694  1.00  0.00    -0.271 OA
HETATM   32  N4  UNL     1       6.463  -7.488  14.430  1.00  0.00    -0.350 N 
ATOM     33  H4  UNL     1       6.232  -7.509  13.437  1.00  0.00     0.163 HD
HETATM   34  C26 UNL     1       7.234  -8.621  14.841  1.00  0.00     0.126 C 
ENDROOT
BRANCH  29  35
HETATM   35  C21 UNL     1       5.172  -4.934  16.876  1.00  0.00     0.038 C 
BRANCH  35  36
HETATM   36  C22 UNL     1       5.656  -5.067  18.264  1.00  0.00    -0.020 C 
HETATM   37  C23 UNL     1       4.850  -4.253  19.256  1.00  0.00     0.009 C 
HETATM   38  C24 UNL     1       7.116  -4.607  18.272  1.00  0.00     0.009 C 
ENDBRANCH  35  36
ENDBRANCH  29  35
BRANCH  34  39
HETATM   39  C27 UNL     1       7.977  -8.473  16.132  1.00  0.00     0.005 C 
HETATM   40  C28 UNL     1       8.778  -9.769  16.361  1.00  0.00     0.012 C 
HETATM   41  C29 UNL     1       9.107  -7.442  15.894  1.00  0.00     0.012 C 
ENDBRANCH  34  39
BRANCH  15  42
HETATM   42  C10 UNL     1      -0.707 -10.338  18.084  1.00  0.00     0.009 C 
HETATM   43  C11 UNL     1      -2.152  -9.932  18.083  1.00  0.00     0.012 C 
HETATM   44  C12 UNL     1      -0.586 -11.851  18.265  1.00  0.00     0.012 C 
ENDBRANCH  15  42
TORSDOF 4
ENDMDL
MODEL 4
REMARK VINA RESULT: -7.000562243      3.386      6.065
REMARK  4 active torsions:
REMARK  status: ('A' for Active; 'I' for Inactive)
REMARK    1  A    between atoms: C9_15  and  C10_16 
REMARK    2  A    between atoms: C20_32  and  C21_33 
REMARK    3  A    between atoms: C21_33  and  C22_34 
REMARK    4  A    between atoms: C26_41  and  C27_42 
ROOT
HETATM    1  C1  UNL     1       2.950 -11.277  14.856  1.00  0.00     0.027 C 
HETATM    2  C2  UNL     1       2.791 -10.043  15.393  1.00  0.00     0.031 C 
HETATM    3  C3  UNL     1       1.547  -9.802  16.101  1.00  0.00     0.293 C 
HETATM    4  O1  UNL     1       1.327 -10.611  17.086  1.00  0.00    -0.259 OA
HETATM    5  O2  UNL     1       0.620  -8.803  15.796  1.00  0.00    -0.285 OA
HETATM    6  C4  UNL     1      -0.086  -8.655  14.593  1.00  0.00     0.276 C 
HETATM    7  O3  UNL     1      -0.459  -7.368  14.238  1.00  0.00    -0.360 OA
HETATM    8  C5  UNL     1      -1.729  -7.443  14.793  1.00  0.00     0.180 C 
HETATM    9  C6  UNL     1      -1.545  -8.944  14.880  1.00  0.00     0.074 C 
HETATM   10  C7  UNL     1      -1.747  -9.427  16.281  1.00  0.00     0.114 C 
HETATM   11  C8  UNL     1      -3.125  -9.092  16.712  1.00  0.00     0.218 C 
HETATM   12  O4  UNL     1      -4.013  -9.031  15.830  1.00  0.00    -0.274 OA
HETATM   13  N1  UNL     1      -3.503  -8.834  18.064  1.00  0.00    -0.347 N 
ATOM     14  H1  UNL     1      -4.437  -9.101  18.375  1.00  0.00     0.163 HD
HETATM   15  C9  UNL     1      -2.599  -8.207  19.008  1.00  0.00     0.180 C 
HETATM   16  C13 UNL     1      -2.503  -6.739  18.817  1.00  0.00     0.244 C 
HETATM   17  O5  UNL     1      -3.539  -6.172  18.384  1.00  0.00    -0.271 OA
HETATM   18  N2  UNL     1      -1.358  -5.949  19.080  1.00  0.00    -0.324 N 
HETATM   19  C14 UNL     1      -0.001  -6.280  18.638  1.00  0.00     0.181 C 
HETATM   20  C15 UNL     1       0.727  -6.032  19.958  1.00  0.00     0.050 C 
HETATM   21  C16 UNL     1       0.155  -4.702  20.356  1.00  0.00     0.090 A 
HETATM   22  C17 UNL     1      -1.009  -4.688  21.251  1.00  0.00     0.157 A 
HETATM   23  O6  UNL     1      -1.447  -4.682  22.389  1.00  0.00    -0.295 OA
HETATM   24  C18 UNL     1      -1.193  -4.688  19.802  1.00  0.00     0.169 A 
HETATM   25  C19 UNL     1       0.448  -5.359  17.564  1.00  0.00     0.241 C 
HETATM   26  O7  UNL     1      -0.165  -4.232  17.518  1.00  0.00    -0.271 OA
HETATM   27  N3  UNL     1       1.441  -5.575  16.615  1.00  0.00    -0.346 N 
ATOM     28  H3  UNL     1       1.231  -5.351  15.642  1.00  0.00     0.163 HD
HETATM   29  C20 UNL     1       2.800  -6.116  16.933  1.00  0.00     0.177 C 
HETATM   30  C25 UNL     1       3.448  -6.521  15.659  1.00  0.00     0.241 C 
HETATM   31  O8  UNL     1       4.147  -5.575  15.117  1.00  0.00    -0.271 OA
HETATM   32  N4  UNL     1       3.424  -7.720  14.966  1.00  0.00    -0.350 N 
ATOM     33  H4  UNL     1       2.953  -7.643  14.065  1.00  0.00     0.163 HD
HETATM   34  C26 UNL     1       3.909  -9.042  15.224  1.00  0.00     0.126 C 
ENDROOT
BRANCH  29  35
HETATM   35  C21 UNL     1       3.599  -4.974  17.536  1.00  0.00     0.038 C 
BRANCH  35  36
HETATM   36  C22 UNL     1       4.450  -5.313  18.694  1.00  0.00    -0.020 C 
HETATM   37  C23 UNL     1       4.119  -4.505  19.933  1.00  0.00     0.009 C 
HETATM   38  C24 UNL     1       5.899  -5.057  18.272  1.00  0.00     0.009 C 
ENDBRANCH  35  36
ENDBRANCH  29  35
BRANCH  34  39
HETATM   39  C27 UNL     1       4.964  -9.159  16.278  1.00  0.00     0.005 C 
HETATM   40  C28 UNL     1       5.639 -10.534  16.114  1.00  0.00     0.012 C 
HETATM   41  C29 UNL     1       6.112  -8.195  15.886  1.00  0.00     0.012 C 
ENDBRANCH  34  39
BRANCH  15  42
HETATM   42  C10 UNL     1      -3.094  -8.444  20.433  1.00  0.00     0.009 C 
HETATM   43  C11 UNL     1      -3.784  -9.765  20.604  1.00  0.00     0.012 C 
HETATM   44  C12 UNL     1      -1.930  -8.327  21.418  1.00  0.00     0.012 C 
ENDBRANCH  15  42
TORSDOF 4
ENDMDL
MODEL 5
REMARK VINA RESULT: -6.968446731      4.890     10.367
REMARK  4 active torsions:
REMARK  status: ('A' for Active; 'I' for Inactive)
REMARK    1  A    between atoms: C9_15  and  C10_16 
REMARK    2  A    between atoms: C20_32  and  C21_33 
REMARK    3  A    between atoms: C21_33  and  C22_34 
REMARK    4  A    between atoms: C26_41  and  C27_42 
ROOT
HETATM    1  C1  UNL     1      -4.153  -9.463  22.917  1.00  0.00     0.027 C 
HETATM    2  C2  UNL     1      -3.877  -9.151  21.627  1.00  0.00     0.031 C 
HETATM    3  C3  UNL     1      -2.721  -8.302  21.401  1.00  0.00     0.293 C 
HETATM    4  O1  UNL     1      -1.610  -8.780  21.858  1.00  0.00    -0.259 OA
HETATM    5  O2  UNL     1      -2.736  -7.065  20.753  1.00  0.00    -0.285 OA
HETATM    6  C4  UNL     1      -3.444  -5.921  21.151  1.00  0.00     0.276 C 
HETATM    7  O3  UNL     1      -3.832  -5.043  20.151  1.00  0.00    -0.360 OA
HETATM    8  C5  UNL     1      -2.727  -4.212  20.272  1.00  0.00     0.180 C 
HETATM    9  C6  UNL     1      -2.430  -4.887  21.595  1.00  0.00     0.074 C 
HETATM   10  C7  UNL     1      -1.043  -5.446  21.610  1.00  0.00     0.114 C 
HETATM   11  C8  UNL     1      -0.075  -4.340  21.414  1.00  0.00     0.218 C 
HETATM   12  O4  UNL     1      -0.404  -3.200  21.819  1.00  0.00    -0.274 OA
HETATM   13  N1  UNL     1       1.202  -4.490  20.794  1.00  0.00    -0.347 N 
ATOM     14  H1  UNL     1       1.976  -3.907  21.110  1.00  0.00     0.163 HD
HETATM   15  C9  UNL     1       1.431  -5.447  19.730  1.00  0.00     0.180 C 
HETATM   16  C13 UNL     1       0.915  -4.979  18.420  1.00  0.00     0.244 C 
HETATM   17  O5  UNL     1       0.935  -3.735  18.235  1.00  0.00    -0.271 OA
HETATM   18  N2  UNL     1       0.416  -5.810  17.388  1.00  0.00    -0.324 N 
HETATM   19  C14 UNL     1      -0.551  -6.891  17.588  1.00  0.00     0.181 C 
HETATM   20  C15 UNL     1       0.162  -7.975  16.781  1.00  0.00     0.050 C 
HETATM   21  C16 UNL     1       0.501  -7.223  15.526  1.00  0.00     0.090 A 
HETATM   22  C17 UNL     1       1.824  -6.593  15.431  1.00  0.00     0.157 A 
HETATM   23  O6  UNL     1       3.001  -6.685  15.128  1.00  0.00    -0.295 OA
HETATM   24  C18 UNL     1       0.685  -5.841  15.951  1.00  0.00     0.169 A 
HETATM   25  C19 UNL     1      -1.873  -6.537  17.013  1.00  0.00     0.241 C 
HETATM   26  O7  UNL     1      -1.848  -5.633  16.102  1.00  0.00    -0.271 OA
HETATM   27  N3  UNL     1      -3.116  -7.064  17.344  1.00  0.00    -0.346 N 
ATOM     28  H3  UNL     1      -3.885  -6.413  17.502  1.00  0.00     0.163 HD
HETATM   29  C20 UNL     1      -3.396  -8.528  17.483  1.00  0.00     0.177 C 
HETATM   30  C25 UNL     1      -4.707  -8.688  18.162  1.00  0.00     0.241 C 
HETATM   31  O8  UNL     1      -5.704  -8.756  17.340  1.00  0.00    -0.271 OA
HETATM   32  N4  UNL     1      -5.032  -8.768  19.506  1.00  0.00    -0.350 N 
ATOM     33  H4  UNL     1      -5.583  -7.971  19.825  1.00  0.00     0.163 HD
HETATM   34  C26 UNL     1      -4.774  -9.713  20.550  1.00  0.00     0.126 C 
ENDROOT
BRANCH  29  35
HETATM   35  C21 UNL     1      -3.511  -9.090  16.077  1.00  0.00     0.038 C 
BRANCH  35  36
HETATM   36  C22 UNL     1      -2.855 -10.390  15.838  1.00  0.00    -0.020 C 
HETATM   37  C23 UNL     1      -2.067 -10.888  17.034  1.00  0.00     0.009 C 
HETATM   38  C24 UNL     1      -1.925 -10.206  14.636  1.00  0.00     0.009 C 
ENDBRANCH  35  36
ENDBRANCH  29  35
BRANCH  34  39
HETATM   39  C27 UNL     1      -4.370 -11.084  20.108  1.00  0.00     0.005 C 
HETATM   40  C28 UNL     1      -3.948 -11.874  21.361  1.00  0.00     0.012 C 
HETATM   41  C29 UNL     1      -5.661 -11.828  19.686  1.00  0.00     0.012 C 
ENDBRANCH  34  39
BRANCH  15  42
HETATM   42  C10 UNL     1       2.930  -5.687  19.564  1.00  0.00     0.009 C 
HETATM   43  C11 UNL     1       3.244  -6.829  18.644  1.00  0.00     0.012 C 
HETATM   44  C12 UNL     1       3.612  -4.411  19.071  1.00  0.00     0.012 C 
ENDBRANCH  15  42
TORSDOF 4
ENDMDL
