MODEL 1
REMARK VINA RESULT: -8.360192809      0.000      0.000
REMARK  7 active torsions:
REMARK  status: ('A' for Active; 'I' for Inactive)
REMARK    1  A    between atoms: N1_1  and  C1_4 
REMARK    2  A    between atoms: N3_9  and  C4_10 
REMARK    3  A    between atoms: C4_10  and  C5_11 
REMARK    4  A    between atoms: N4_19  and  C12_20 
REMARK    5  A    between atoms: C12_20  and  C13_21 
REMARK    6  A    between atoms: C16_24  and  O2_25 
REMARK    7  A    between atoms: O2_25  and  C17_26 
ROOT
HETATM    1  C1  UNL     1       5.598  -8.387  15.299  1.00  0.00     0.131 A 
HETATM    2  C2  UNL     1       6.955  -8.324  15.499  1.00  0.00     0.119 A 
HETATM    3 CL1  UNL     1       7.836  -9.839  15.750  1.00  0.00    -0.077 Cl
HETATM    4  C3  UNL     1       7.608  -7.109  15.502  1.00  0.00     0.152 A 
HETATM    5  N2  UNL     1       8.999  -7.123  15.764  1.00  0.00    -0.080 NA
HETATM    6  N3  UNL     1       6.962  -5.947  15.314  1.00  0.00    -0.260 N 
HETATM    7  C11 UNL     1       5.611  -6.050  15.121  1.00  0.00     0.336 A 
HETATM    8  O1  UNL     1       5.040  -4.932  14.967  1.00  0.00    -0.246 OA
HETATM    9  N4  UNL     1       4.936  -7.220  15.108  1.00  0.00    -0.279 N 
ENDROOT
BRANCH   9  10
HETATM   10  C12 UNL     1       3.523  -7.256  15.000  1.00  0.00     0.175 C 
BRANCH  10  11
HETATM   11  C13 UNL     1       2.686  -6.547  15.970  1.00  0.00    -0.018 A 
HETATM   12  C14 UNL     1       3.250  -6.249  17.230  1.00  0.00     0.013 A 
HETATM   13  C15 UNL     1       2.601  -5.573  18.206  1.00  0.00     0.037 A 
HETATM   14  C16 UNL     1       1.304  -5.118  18.029  1.00  0.00     0.076 A 
HETATM   15  C18 UNL     1       0.734  -5.394  16.812  1.00  0.00     0.061 A 
HETATM   16  C19 UNL     1       1.417  -6.100  15.795  1.00  0.00     0.044 A 
HETATM   17 CL2  UNL     1       0.511  -6.337  14.317  1.00  0.00    -0.084 Cl
BRANCH  14  18
HETATM   18  O2  UNL     1       0.695  -4.442  19.048  1.00  0.00    -0.290 OA
BRANCH  18  19
HETATM   19  C17 UNL     1       0.944  -3.170  19.536  1.00  0.00     0.505 C 
HETATM   20  F1  UNL     1       1.933  -3.209  20.529  1.00  0.00    -0.184 F 
HETATM   21  F2  UNL     1       1.364  -2.282  18.560  1.00  0.00    -0.184 F 
ENDBRANCH  18  19
ENDBRANCH  14  18
ENDBRANCH  10  11
ENDBRANCH   9  10
BRANCH   1  22
HETATM   22  N1  UNL     1       5.019  -9.551  15.305  1.00  0.00    -0.384 N 
ATOM     23  H12 UNL     1       5.347 -10.343  15.857  1.00  0.00     0.157 HD
ATOM     24  H11 UNL     1       4.189  -9.688  14.728  1.00  0.00     0.157 HD
ENDBRANCH   1  22
BRANCH   6  25
HETATM   25  C4  UNL     1       7.638  -4.665  15.287  1.00  0.00     0.114 C 
BRANCH  25  26
HETATM   26  C5  UNL     1       7.573  -3.842  16.479  1.00  0.00    -0.020 A 
HETATM   27  C6  UNL     1       7.183  -4.371  17.708  1.00  0.00     0.013 A 
HETATM   28  C7  UNL     1       7.106  -3.610  18.870  1.00  0.00     0.001 A 
HETATM   29  C8  UNL     1       7.425  -2.282  18.811  1.00  0.00     0.000 A 
HETATM   30  C9  UNL     1       7.815  -1.717  17.622  1.00  0.00     0.001 A 
HETATM   31  C10 UNL     1       7.883  -2.511  16.470  1.00  0.00     0.013 A 
ENDBRANCH  25  26
ENDBRANCH   6  25
TORSDOF 7
ENDMDL
MODEL 2
REMARK VINA RESULT: -8.358292777      2.491      5.454
REMARK  7 active torsions:
REMARK  status: ('A' for Active; 'I' for Inactive)
REMARK    1  A    between atoms: N1_1  and  C1_4 
REMARK    2  A    between atoms: N3_9  and  C4_10 
REMARK    3  A    between atoms: C4_10  and  C5_11 
REMARK    4  A    between atoms: N4_19  and  C12_20 
REMARK    5  A    between atoms: C12_20  and  C13_21 
REMARK    6  A    between atoms: C16_24  and  O2_25 
REMARK    7  A    between atoms: O2_25  and  C17_26 
ROOT
HETATM    1  C1  UNL     1       7.689  -7.123  15.224  1.00  0.00     0.131 A 
HETATM    2  C2  UNL     1       7.398  -8.344  14.666  1.00  0.00     0.119 A 
HETATM    3 CL1  UNL     1       8.448  -9.715  15.055  1.00  0.00    -0.077 Cl
HETATM    4  C3  UNL     1       6.314  -8.490  13.825  1.00  0.00     0.152 A 
HETATM    5  N2  UNL     1       6.110  -9.767  13.250  1.00  0.00    -0.080 NA
HETATM    6  N3  UNL     1       5.504  -7.466  13.515  1.00  0.00    -0.260 N 
HETATM    7  C11 UNL     1       5.827  -6.265  14.088  1.00  0.00     0.336 A 
HETATM    8  O1  UNL     1       5.050  -5.325  13.755  1.00  0.00    -0.246 OA
HETATM    9  N4  UNL     1       6.877  -6.083  14.918  1.00  0.00    -0.279 N 
ENDROOT
BRANCH   9  10
HETATM   10  C12 UNL     1       7.218  -4.795  15.405  1.00  0.00     0.175 C 
BRANCH  10  11
HETATM   11  C13 UNL     1       6.616  -4.285  16.639  1.00  0.00    -0.018 A 
HETATM   12  C14 UNL     1       5.525  -4.999  17.181  1.00  0.00     0.013 A 
HETATM   13  C15 UNL     1       4.896  -4.657  18.330  1.00  0.00     0.037 A 
HETATM   14  C16 UNL     1       5.292  -3.554  19.068  1.00  0.00     0.076 A 
HETATM   15  C18 UNL     1       6.351  -2.844  18.562  1.00  0.00     0.061 A 
HETATM   16  C19 UNL     1       7.005  -3.206  17.363  1.00  0.00     0.044 A 
HETATM   17 CL2  UNL     1       8.338  -2.170  16.901  1.00  0.00    -0.084 Cl
BRANCH  14  18
HETATM   18  O2  UNL     1       4.621  -3.253  20.219  1.00  0.00    -0.290 OA
BRANCH  18  19
HETATM   19  C17 UNL     1       3.437  -2.555  20.394  1.00  0.00     0.505 C 
HETATM   20  F1  UNL     1       3.273  -1.603  19.378  1.00  0.00    -0.184 F 
HETATM   21  F2  UNL     1       2.316  -3.368  20.392  1.00  0.00    -0.184 F 
ENDBRANCH  18  19
ENDBRANCH  14  18
ENDBRANCH  10  11
ENDBRANCH   9  10
BRANCH   1  22
HETATM   22  N1  UNL     1       8.720  -7.025  16.011  1.00  0.00    -0.384 N 
ATOM     23  H12 UNL     1       9.591  -6.565  15.746  1.00  0.00     0.157 HD
ATOM     24  H11 UNL     1       8.663  -7.430  16.945  1.00  0.00     0.157 HD
ENDBRANCH   1  22
BRANCH   6  25
HETATM   25  C4  UNL     1       4.346  -7.610  12.654  1.00  0.00     0.114 C 
BRANCH  25  26
HETATM   26  C5  UNL     1       3.136  -8.160  13.235  1.00  0.00    -0.020 A 
HETATM   27  C6  UNL     1       2.531  -9.300  12.709  1.00  0.00     0.013 A 
HETATM   28  C7  UNL     1       1.369  -9.852  13.237  1.00  0.00     0.001 A 
HETATM   29  C8  UNL     1       0.788  -9.255  14.321  1.00  0.00     0.000 A 
HETATM   30  C9  UNL     1       1.350  -8.130  14.873  1.00  0.00     0.001 A 
HETATM   31  C10 UNL     1       2.520  -7.599  14.318  1.00  0.00     0.013 A 
ENDBRANCH  25  26
ENDBRANCH   6  25
TORSDOF 7
ENDMDL
MODEL 3
REMARK VINA RESULT: -8.348304378      2.111      2.635
REMARK  7 active torsions:
REMARK  status: ('A' for Active; 'I' for Inactive)
REMARK    1  A    between atoms: N1_1  and  C1_4 
REMARK    2  A    between atoms: N3_9  and  C4_10 
REMARK    3  A    between atoms: C4_10  and  C5_11 
REMARK    4  A    between atoms: N4_19  and  C12_20 
REMARK    5  A    between atoms: C12_20  and  C13_21 
REMARK    6  A    between atoms: C16_24  and  O2_25 
REMARK    7  A    between atoms: O2_25  and  C17_26 
ROOT
HETATM    1  C1  UNL     1       6.384  -8.169  14.469  1.00  0.00     0.131 A 
HETATM    2  C2  UNL     1       7.530  -8.044  15.217  1.00  0.00     0.119 A 
HETATM    3 CL1  UNL     1       8.347  -9.521  15.752  1.00  0.00    -0.077 Cl
HETATM    4  C3  UNL     1       8.024  -6.797  15.539  1.00  0.00     0.152 A 
HETATM    5  N2  UNL     1       9.180  -6.751  16.355  1.00  0.00    -0.080 NA
HETATM    6  N3  UNL     1       7.422  -5.664  15.146  1.00  0.00    -0.260 N 
HETATM    7  C11 UNL     1       6.282  -5.829  14.405  1.00  0.00     0.336 A 
HETATM    8  O1  UNL     1       5.737  -4.738  14.072  1.00  0.00    -0.246 OA
HETATM    9  N4  UNL     1       5.769  -7.032  14.067  1.00  0.00    -0.279 N 
ENDROOT
BRANCH   9  10
HETATM   10  C12 UNL     1       4.534  -7.140  13.379  1.00  0.00     0.175 C 
BRANCH  10  11
HETATM   11  C13 UNL     1       3.276  -7.234  14.123  1.00  0.00    -0.018 A 
HETATM   12  C14 UNL     1       3.074  -6.328  15.189  1.00  0.00     0.013 A 
HETATM   13  C15 UNL     1       1.948  -6.285  15.938  1.00  0.00     0.037 A 
HETATM   14  C16 UNL     1       0.891  -7.149  15.704  1.00  0.00     0.076 A 
HETATM   15  C18 UNL     1       1.063  -8.039  14.673  1.00  0.00     0.061 A 
HETATM   16  C19 UNL     1       2.240  -8.080  13.893  1.00  0.00     0.044 A 
HETATM   17 CL2  UNL     1       2.249  -9.284  12.623  1.00  0.00    -0.084 Cl
BRANCH  14  18
HETATM   18  O2  UNL     1      -0.221  -7.063  16.492  1.00  0.00    -0.290 OA
BRANCH  18  19
HETATM   19  C17 UNL     1      -1.334  -6.248  16.360  1.00  0.00     0.505 C 
HETATM   20  F1  UNL     1      -0.986  -4.904  16.558  1.00  0.00    -0.184 F 
HETATM   21  F2  UNL     1      -1.941  -6.346  15.120  1.00  0.00    -0.184 F 
ENDBRANCH  18  19
ENDBRANCH  14  18
ENDBRANCH  10  11
ENDBRANCH   9  10
BRANCH   1  22
HETATM   22  N1  UNL     1       5.949  -9.362  14.188  1.00  0.00    -0.384 N 
ATOM     23  H12 UNL     1       6.014 -10.154  14.829  1.00  0.00     0.157 HD
ATOM     24  H11 UNL     1       5.519  -9.525  13.278  1.00  0.00     0.157 HD
ENDBRANCH   1  22
BRANCH   6  25
HETATM   25  C4  UNL     1       7.944  -4.347  15.453  1.00  0.00     0.114 C 
BRANCH  25  26
HETATM   26  C5  UNL     1       7.445  -3.682  16.642  1.00  0.00    -0.020 A 
HETATM   27  C6  UNL     1       7.816  -2.375  16.954  1.00  0.00     0.013 A 
HETATM   28  C7  UNL     1       7.361  -1.709  18.087  1.00  0.00     0.001 A 
HETATM   29  C8  UNL     1       6.511  -2.360  18.937  1.00  0.00     0.000 A 
HETATM   30  C9  UNL     1       6.119  -3.648  18.670  1.00  0.00     0.001 A 
HETATM   31  C10 UNL     1       6.595  -4.291  17.521  1.00  0.00     0.013 A 
ENDBRANCH  25  26
ENDBRANCH   6  25
TORSDOF 7
ENDMDL
MODEL 4
REMARK VINA RESULT: -8.164961711      3.207      5.856
REMARK  7 active torsions:
REMARK  status: ('A' for Active; 'I' for Inactive)
REMARK    1  A    between atoms: N1_1  and  C1_4 
REMARK    2  A    between atoms: N3_9  and  C4_10 
REMARK    3  A    between atoms: C4_10  and  C5_11 
REMARK    4  A    between atoms: N4_19  and  C12_20 
REMARK    5  A    between atoms: C12_20  and  C13_21 
REMARK    6  A    between atoms: C16_24  and  O2_25 
REMARK    7  A    between atoms: O2_25  and  C17_26 
ROOT
HETATM    1  C1  UNL     1       5.742  -6.321  13.840  1.00  0.00     0.131 A 
HETATM    2  C2  UNL     1       5.308  -7.581  13.506  1.00  0.00     0.119 A 
HETATM    3 CL1  UNL     1       3.846  -7.730  12.520  1.00  0.00    -0.077 Cl
HETATM    4  C3  UNL     1       5.999  -8.697  13.933  1.00  0.00     0.152 A 
HETATM    5  N2  UNL     1       5.462  -9.960  13.590  1.00  0.00    -0.080 NA
HETATM    6  N3  UNL     1       7.110  -8.609  14.681  1.00  0.00    -0.260 N 
HETATM    7  C11 UNL     1       7.510  -7.337  14.995  1.00  0.00     0.336 A 
HETATM    8  O1  UNL     1       8.547  -7.301  15.717  1.00  0.00    -0.246 OA
HETATM    9  N4  UNL     1       6.862  -6.222  14.594  1.00  0.00    -0.279 N 
ENDROOT
BRANCH   9  10
HETATM   10  C12 UNL     1       7.269  -4.935  15.031  1.00  0.00     0.175 C 
BRANCH  10  11
HETATM   11  C13 UNL     1       6.784  -4.396  16.303  1.00  0.00    -0.018 A 
HETATM   12  C14 UNL     1       5.717  -5.069  16.938  1.00  0.00     0.013 A 
HETATM   13  C15 UNL     1       5.192  -4.697  18.129  1.00  0.00     0.037 A 
HETATM   14  C16 UNL     1       5.681  -3.601  18.822  1.00  0.00     0.076 A 
HETATM   15  C18 UNL     1       6.718  -2.930  18.226  1.00  0.00     0.061 A 
HETATM   16  C19 UNL     1       7.263  -3.323  16.983  1.00  0.00     0.044 A 
HETATM   17 CL2  UNL     1       8.588  -2.336  16.406  1.00  0.00    -0.084 Cl
BRANCH  14  18
HETATM   18  O2  UNL     1       5.113  -3.270  20.019  1.00  0.00    -0.290 OA
BRANCH  18  19
HETATM   19  C17 UNL     1       3.877  -2.704  20.283  1.00  0.00     0.505 C 
HETATM   20  F1  UNL     1       3.641  -1.617  19.429  1.00  0.00    -0.184 F 
HETATM   21  F2  UNL     1       2.825  -3.591  20.132  1.00  0.00    -0.184 F 
ENDBRANCH  18  19
ENDBRANCH  14  18
ENDBRANCH  10  11
ENDBRANCH   9  10
BRANCH   1  22
HETATM   22  N1  UNL     1       5.062  -5.295  13.420  1.00  0.00    -0.384 N 
ATOM     23  H12 UNL     1       4.107  -5.091  13.714  1.00  0.00     0.157 HD
ATOM     24  H11 UNL     1       5.501  -4.654  12.759  1.00  0.00     0.157 HD
ENDBRANCH   1  22
BRANCH   6  25
HETATM   25  C4  UNL     1       7.862  -9.770  15.114  1.00  0.00     0.114 C 
BRANCH  25  26
HETATM   26  C5  UNL     1       8.841 -10.322  14.197  1.00  0.00    -0.020 A 
HETATM   27  C6  UNL     1      10.009 -10.928  14.659  1.00  0.00     0.013 A 
HETATM   28  C7  UNL     1      10.970 -11.463  13.809  1.00  0.00     0.001 A 
HETATM   29  C8  UNL     1      10.767 -11.397  12.458  1.00  0.00     0.000 A 
HETATM   30  C9  UNL     1       9.632 -10.810  11.959  1.00  0.00     0.001 A 
HETATM   31  C10 UNL     1       8.683 -10.280  12.841  1.00  0.00     0.013 A 
ENDBRANCH  25  26
ENDBRANCH   6  25
TORSDOF 7
ENDMDL
MODEL 5
REMARK VINA RESULT: -8.094227807      1.964      2.368
REMARK  7 active torsions:
REMARK  status: ('A' for Active; 'I' for Inactive)
REMARK    1  A    between atoms: N1_1  and  C1_4 
REMARK    2  A    between atoms: N3_9  and  C4_10 
REMARK    3  A    between atoms: C4_10  and  C5_11 
REMARK    4  A    between atoms: N4_19  and  C12_20 
REMARK    5  A    between atoms: C12_20  and  C13_21 
REMARK    6  A    between atoms: C16_24  and  O2_25 
REMARK    7  A    between atoms: O2_25  and  C17_26 
ROOT
HETATM    1  C1  UNL     1       6.354  -8.357  14.778  1.00  0.00     0.131 A 
HETATM    2  C2  UNL     1       7.553  -8.098  15.396  1.00  0.00     0.119 A 
HETATM    3 CL1  UNL     1       8.532  -9.472  15.935  1.00  0.00    -0.077 Cl
HETATM    4  C3  UNL     1       7.977  -6.799  15.589  1.00  0.00     0.152 A 
HETATM    5  N2  UNL     1       9.199  -6.614  16.278  1.00  0.00    -0.080 NA
HETATM    6  N3  UNL     1       7.252  -5.742  15.190  1.00  0.00    -0.260 N 
HETATM    7  C11 UNL     1       6.063  -6.040  14.580  1.00  0.00     0.336 A 
HETATM    8  O1  UNL     1       5.404  -5.017  14.238  1.00  0.00    -0.246 OA
HETATM    9  N4  UNL     1       5.616  -7.298  14.371  1.00  0.00    -0.279 N 
ENDROOT
BRANCH   9  10
HETATM   10  C12 UNL     1       4.332  -7.542  13.821  1.00  0.00     0.175 C 
BRANCH  10  11
HETATM   11  C13 UNL     1       3.125  -7.274  14.606  1.00  0.00    -0.018 A 
HETATM   12  C14 UNL     1       1.907  -7.122  13.907  1.00  0.00     0.013 A 
HETATM   13  C15 UNL     1       0.714  -6.902  14.507  1.00  0.00     0.037 A 
HETATM   14  C16 UNL     1       0.608  -6.807  15.885  1.00  0.00     0.076 A 
HETATM   15  C18 UNL     1       1.777  -6.952  16.588  1.00  0.00     0.061 A 
HETATM   16  C19 UNL     1       3.020  -7.182  15.956  1.00  0.00     0.044 A 
HETATM   17 CL2  UNL     1       4.385  -7.346  17.038  1.00  0.00    -0.084 Cl
BRANCH  14  18
HETATM   18  O2  UNL     1      -0.621  -6.583  16.439  1.00  0.00    -0.290 OA
BRANCH  18  19
HETATM   19  C17 UNL     1      -1.164  -5.409  16.934  1.00  0.00     0.505 C 
HETATM   20  F1  UNL     1      -0.295  -4.332  16.709  1.00  0.00    -0.184 F 
HETATM   21  F2  UNL     1      -2.385  -5.088  16.366  1.00  0.00    -0.184 F 
ENDBRANCH  18  19
ENDBRANCH  14  18
ENDBRANCH  10  11
ENDBRANCH   9  10
BRANCH   1  22
HETATM   22  N1  UNL     1       5.989  -9.595  14.617  1.00  0.00    -0.384 N 
ATOM     23  H12 UNL     1       5.686 -10.199  15.381  1.00  0.00     0.157 HD
ATOM     24  H11 UNL     1       6.005  -9.991  13.677  1.00  0.00     0.157 HD
ENDBRANCH   1  22
BRANCH   6  25
HETATM   25  C4  UNL     1       7.697  -4.373  15.361  1.00  0.00     0.114 C 
BRANCH  25  26
HETATM   26  C5  UNL     1       7.317  -3.687  16.580  1.00  0.00    -0.020 A 
HETATM   27  C6  UNL     1       6.473  -4.281  17.517  1.00  0.00     0.013 A 
HETATM   28  C7  UNL     1       6.086  -3.650  18.695  1.00  0.00     0.001 A 
HETATM   29  C8  UNL     1       6.551  -2.390  18.952  1.00  0.00     0.000 A 
HETATM   30  C9  UNL     1       7.385  -1.766  18.058  1.00  0.00     0.001 A 
HETATM   31  C10 UNL     1       7.756  -2.428  16.882  1.00  0.00     0.013 A 
ENDBRANCH  25  26
ENDBRANCH   6  25
TORSDOF 7
ENDMDL
