MODEL 1
REMARK VINA RESULT: -7.326697111      0.000      0.000
REMARK  11 active torsions:
REMARK  status: ('A' for Active; 'I' for Inactive)
REMARK    1  A    between atoms: O1_1  and  C1_3 
REMARK    2  A    between atoms: C1_3  and  N4_19 
REMARK    3  A    between atoms: N1_4  and  C2_6 
REMARK    4  A    between atoms: C5_9  and  O2_10 
REMARK    5  A    between atoms: O2_10  and  C6_11 
REMARK    6  A    between atoms: C6_11  and  C7_12 
REMARK       I    between atoms: N4_19  and  C8_21 
REMARK    7  A    between atoms: C8_21  and  O4_23 
REMARK    8  A    between atoms: O4_23  and  C9_24 
REMARK    9  A    between atoms: C9_24  and  C10_25 
REMARK   10  A    between atoms: C13_29  and  S2_30 
REMARK   11  A    between atoms: S2_30  and  C14_31 
ROOT
HETATM    1  C1  UNL     1       4.820  -7.656  12.986  1.00  0.00     0.227 C 
HETATM    2  N1  UNL     1       5.805  -6.726  13.139  1.00  0.00    -0.307 N 
ATOM      3  H1  UNL     1       6.217  -6.438  12.252  1.00  0.00     0.171 HD
ENDROOT
BRANCH   1   4
HETATM    4  O1  UNL     1       4.026  -7.364  11.964  1.00  0.00    -0.332 OA
ATOM      5  H1  UNL     1       4.460  -6.800  11.334  1.00  0.00     0.221 HD
ENDBRANCH   1   4
BRANCH   1   6
HETATM    6  N4  UNL     1       4.532  -8.806  13.685  1.00  0.00    -0.268 N 
HETATM    7  C8  UNL     1       3.673  -8.715  14.876  1.00  0.00     0.368 C 
HETATM    8  O3  UNL     1       3.342  -9.709  15.480  1.00  0.00    -0.238 OA
ATOM      9  H4  UNL     1       4.906  -9.705  13.382  1.00  0.00     0.174 HD
BRANCH   7  10
HETATM   10  O4  UNL     1       3.293  -7.447  15.214  1.00  0.00    -0.299 OA
BRANCH  10  11
HETATM   11  C9  UNL     1       3.344  -6.795  16.451  1.00  0.00     0.228 C 
BRANCH  11  12
HETATM   12  C10 UNL     1       2.212  -5.846  16.677  1.00  0.00     0.024 A 
HETATM   13  S1  UNL     1       0.661  -5.816  15.924  1.00  0.00    -0.103 SA
HETATM   14  C11 UNL     1      -0.126  -4.687  16.930  1.00  0.00     0.051 A 
HETATM   15  C12 UNL     1       0.860  -4.353  17.842  1.00  0.00     0.027 A 
HETATM   16  C13 UNL     1       2.066  -4.948  17.713  1.00  0.00     0.021 A 
BRANCH  16  17
HETATM   17  S2  UNL     1       3.471  -4.529  18.767  1.00  0.00    -0.060 SA
BRANCH  17  18
HETATM   18  C14 UNL     1       3.184  -3.187  19.904  1.00  0.00     0.420 C 
HETATM   19  F3  UNL     1       2.897  -2.018  19.198  1.00  0.00    -0.202 F 
HETATM   20  F4  UNL     1       4.236  -3.028  20.775  1.00  0.00    -0.202 F 
ENDBRANCH  17  18
ENDBRANCH  16  17
ENDBRANCH  11  12
ENDBRANCH  10  11
ENDBRANCH   7  10
ENDBRANCH   1   6
BRANCH   2  21
HETATM   21  C2  UNL     1       6.323  -6.139  14.133  1.00  0.00     0.122 A 
HETATM   22  C3  UNL     1       5.778  -4.952  14.569  1.00  0.00     0.054 A 
HETATM   23  C4  UNL     1       6.271  -4.359  15.715  1.00  0.00     0.061 A 
HETATM   24  C5  UNL     1       7.298  -4.950  16.425  1.00  0.00     0.157 A 
HETATM   25  N2  UNL     1       7.809  -6.121  15.959  1.00  0.00    -0.278 N 
HETATM   26  N3  UNL     1       7.312  -6.683  14.828  1.00  0.00    -0.283 N 
ATOM     27  H2  UNL     1       8.569  -6.579  16.462  1.00  0.00     0.189 HD
ATOM     28  H3  UNL     1       7.715  -7.560  14.499  1.00  0.00     0.188 HD
BRANCH  24  29
HETATM   29  O2  UNL     1       7.764  -4.358  17.576  1.00  0.00    -0.329 OA
BRANCH  29  30
HETATM   30  C6  UNL     1       7.053  -3.723  18.564  1.00  0.00     0.248 C 
BRANCH  30  31
HETATM   31  C7  UNL     1       7.434  -2.232  18.549  1.00  0.00     0.377 C 
HETATM   32  F1  UNL     1       6.273  -1.529  18.901  1.00  0.00    -0.212 F 
HETATM   33  F2  UNL     1       7.784  -1.850  17.291  1.00  0.00    -0.212 F 
ENDBRANCH  30  31
ENDBRANCH  29  30
ENDBRANCH  24  29
ENDBRANCH   2  21
TORSDOF 11
ENDMDL
MODEL 2
REMARK VINA RESULT: -6.971038939      4.565      5.984
REMARK  11 active torsions:
REMARK  status: ('A' for Active; 'I' for Inactive)
REMARK    1  A    between atoms: O1_1  and  C1_3 
REMARK    2  A    between atoms: C1_3  and  N4_19 
REMARK    3  A    between atoms: N1_4  and  C2_6 
REMARK    4  A    between atoms: C5_9  and  O2_10 
REMARK    5  A    between atoms: O2_10  and  C6_11 
REMARK    6  A    between atoms: C6_11  and  C7_12 
REMARK       I    between atoms: N4_19  and  C8_21 
REMARK    7  A    between atoms: C8_21  and  O4_23 
REMARK    8  A    between atoms: O4_23  and  C9_24 
REMARK    9  A    between atoms: C9_24  and  C10_25 
REMARK   10  A    between atoms: C13_29  and  S2_30 
REMARK   11  A    between atoms: S2_30  and  C14_31 
ROOT
HETATM    1  C1  UNL     1       4.425  -7.724  13.416  1.00  0.00     0.227 C 
HETATM    2  N1  UNL     1       5.158  -8.727  13.978  1.00  0.00    -0.307 N 
ATOM      3  H1  UNL     1       4.604  -9.324  14.593  1.00  0.00     0.171 HD
ENDROOT
BRANCH   1   4
HETATM    4  O1  UNL     1       3.238  -8.156  13.009  1.00  0.00    -0.332 OA
ATOM      5  H1  UNL     1       2.774  -7.490  12.515  1.00  0.00     0.221 HD
ENDBRANCH   1   4
BRANCH   1   6
HETATM    6  N4  UNL     1       4.701  -6.392  13.217  1.00  0.00    -0.268 N 
HETATM    7  C8  UNL     1       4.761  -5.498  14.384  1.00  0.00     0.368 C 
HETATM    8  O3  UNL     1       5.064  -4.333  14.260  1.00  0.00    -0.238 OA
ATOM      9  H4  UNL     1       4.861  -6.030  12.277  1.00  0.00     0.174 HD
BRANCH   7  10
HETATM   10  O4  UNL     1       4.461  -6.091  15.578  1.00  0.00    -0.299 OA
BRANCH  10  11
HETATM   11  C9  UNL     1       5.180  -6.109  16.777  1.00  0.00     0.228 C 
BRANCH  11  12
HETATM   12  C10 UNL     1       4.752  -5.059  17.750  1.00  0.00     0.024 A 
HETATM   13  S1  UNL     1       3.270  -4.932  18.621  1.00  0.00    -0.103 SA
HETATM   14  C11 UNL     1       3.684  -3.694  19.718  1.00  0.00     0.051 A 
HETATM   15  C12 UNL     1       4.991  -3.403  19.368  1.00  0.00     0.027 A 
HETATM   16  C13 UNL     1       5.543  -4.103  18.353  1.00  0.00     0.021 A 
BRANCH  16  17
HETATM   17  S2  UNL     1       7.200  -3.757  17.726  1.00  0.00    -0.060 SA
BRANCH  17  18
HETATM   18  C14 UNL     1       7.583  -2.027  17.527  1.00  0.00     0.420 C 
HETATM   19  F3  UNL     1       8.571  -1.867  16.554  1.00  0.00    -0.202 F 
HETATM   20  F4  UNL     1       7.927  -1.444  18.723  1.00  0.00    -0.202 F 
ENDBRANCH  17  18
ENDBRANCH  16  17
ENDBRANCH  11  12
ENDBRANCH  10  11
ENDBRANCH   7  10
ENDBRANCH   1   6
BRANCH   2  21
HETATM   21  C2  UNL     1       6.369  -9.086  13.909  1.00  0.00     0.122 A 
HETATM   22  C3  UNL     1       7.164  -8.980  15.029  1.00  0.00     0.054 A 
HETATM   23  C4  UNL     1       8.456  -9.466  14.992  1.00  0.00     0.061 A 
HETATM   24  C5  UNL     1       8.951 -10.059  13.847  1.00  0.00     0.157 A 
HETATM   25  N2  UNL     1       8.134 -10.142  12.763  1.00  0.00    -0.278 N 
HETATM   26  N3  UNL     1       6.868  -9.653  12.821  1.00  0.00    -0.283 N 
ATOM     27  H2  UNL     1       8.473 -10.573  11.903  1.00  0.00     0.189 HD
ATOM     28  H3  UNL     1       6.278  -9.725  11.993  1.00  0.00     0.188 HD
BRANCH  24  29
HETATM   29  O2  UNL     1      10.233 -10.558  13.832  1.00  0.00    -0.329 OA
BRANCH  29  30
HETATM   30  C6  UNL     1      11.005 -10.914  12.754  1.00  0.00     0.248 C 
BRANCH  30  31
HETATM   31  C7  UNL     1      12.303 -11.550  13.280  1.00  0.00     0.377 C 
HETATM   32  F1  UNL     1      12.291 -12.881  12.841  1.00  0.00    -0.212 F 
HETATM   33  F2  UNL     1      12.302 -11.563  14.640  1.00  0.00    -0.212 F 
ENDBRANCH  30  31
ENDBRANCH  29  30
ENDBRANCH  24  29
ENDBRANCH   2  21
TORSDOF 11
ENDMDL
MODEL 3
REMARK VINA RESULT: -6.961858875      3.890      5.264
REMARK  11 active torsions:
REMARK  status: ('A' for Active; 'I' for Inactive)
REMARK    1  A    between atoms: O1_1  and  C1_3 
REMARK    2  A    between atoms: C1_3  and  N4_19 
REMARK    3  A    between atoms: N1_4  and  C2_6 
REMARK    4  A    between atoms: C5_9  and  O2_10 
REMARK    5  A    between atoms: O2_10  and  C6_11 
REMARK    6  A    between atoms: C6_11  and  C7_12 
REMARK       I    between atoms: N4_19  and  C8_21 
REMARK    7  A    between atoms: C8_21  and  O4_23 
REMARK    8  A    between atoms: O4_23  and  C9_24 
REMARK    9  A    between atoms: C9_24  and  C10_25 
REMARK   10  A    between atoms: C13_29  and  S2_30 
REMARK   11  A    between atoms: S2_30  and  C14_31 
ROOT
HETATM    1  C1  UNL     1       4.432  -5.750  14.076  1.00  0.00     0.227 C 
HETATM    2  N1  UNL     1       5.596  -6.176  13.507  1.00  0.00    -0.307 N 
ATOM      3  H1  UNL     1       5.843  -5.647  12.670  1.00  0.00     0.171 HD
ENDROOT
BRANCH   1   4
HETATM    4  O1  UNL     1       4.354  -4.425  14.095  1.00  0.00    -0.332 OA
ATOM      5  H1  UNL     1       4.089  -4.103  14.948  1.00  0.00     0.221 HD
ENDBRANCH   1   4
BRANCH   1   6
HETATM    6  N4  UNL     1       3.366  -6.441  14.604  1.00  0.00    -0.268 N 
HETATM    7  C8  UNL     1       3.161  -6.423  16.061  1.00  0.00     0.368 C 
HETATM    8  O3  UNL     1       2.200  -6.963  16.559  1.00  0.00    -0.238 OA
ATOM      9  H4  UNL     1       2.730  -6.956  13.996  1.00  0.00     0.174 HD
BRANCH   7  10
HETATM   10  O4  UNL     1       4.120  -5.754  16.767  1.00  0.00    -0.299 OA
BRANCH  10  11
HETATM   11  C9  UNL     1       4.341  -5.696  18.147  1.00  0.00     0.228 C 
BRANCH  11  12
HETATM   12  C10 UNL     1       4.136  -4.336  18.732  1.00  0.00     0.024 A 
HETATM   13  S1  UNL     1       2.673  -3.607  19.281  1.00  0.00    -0.103 SA
HETATM   14  C11 UNL     1       3.313  -2.240  20.076  1.00  0.00     0.051 A 
HETATM   15  C12 UNL     1       4.676  -2.390  19.885  1.00  0.00     0.027 A 
HETATM   16  C13 UNL     1       5.102  -3.467  19.192  1.00  0.00     0.021 A 
BRANCH  16  17
HETATM   17  S2  UNL     1       6.841  -3.730  18.782  1.00  0.00    -0.060 SA
BRANCH  17  18
HETATM   18  C14 UNL     1       7.314  -3.211  17.144  1.00  0.00     0.420 C 
HETATM   19  F3  UNL     1       7.268  -1.818  17.055  1.00  0.00    -0.202 F 
HETATM   20  F4  UNL     1       6.551  -3.823  16.178  1.00  0.00    -0.202 F 
ENDBRANCH  17  18
ENDBRANCH  16  17
ENDBRANCH  11  12
ENDBRANCH  10  11
ENDBRANCH   7  10
ENDBRANCH   1   6
BRANCH   2  21
HETATM   21  C2  UNL     1       6.439  -7.078  13.783  1.00  0.00     0.122 A 
HETATM   22  C3  UNL     1       7.353  -6.855  14.789  1.00  0.00     0.054 A 
HETATM   23  C4  UNL     1       8.207  -7.872  15.166  1.00  0.00     0.061 A 
HETATM   24  C5  UNL     1       8.147  -9.106  14.548  1.00  0.00     0.157 A 
HETATM   25  N2  UNL     1       7.231  -9.284  13.558  1.00  0.00    -0.278 N 
HETATM   26  N3  UNL     1       6.404  -8.267  13.201  1.00  0.00    -0.283 N 
ATOM     27  H2  UNL     1       7.165 -10.183  13.083  1.00  0.00     0.189 HD
ATOM     28  H3  UNL     1       5.729  -8.426  12.453  1.00  0.00     0.188 HD
BRANCH  24  29
HETATM   29  O2  UNL     1       8.990 -10.116  14.950  1.00  0.00    -0.329 OA
BRANCH  29  30
HETATM   30  C6  UNL     1       9.727 -10.980  14.177  1.00  0.00     0.248 C 
BRANCH  30  31
HETATM   31  C7  UNL     1      10.572 -10.148  13.197  1.00  0.00     0.377 C 
HETATM   32  F1  UNL     1       9.984 -10.315  11.935  1.00  0.00    -0.212 F 
HETATM   33  F2  UNL     1      11.838 -10.644  13.132  1.00  0.00    -0.212 F 
ENDBRANCH  30  31
ENDBRANCH  29  30
ENDBRANCH  24  29
ENDBRANCH   2  21
TORSDOF 11
ENDMDL
MODEL 4
REMARK VINA RESULT: -6.935169317      3.739      5.504
REMARK  11 active torsions:
REMARK  status: ('A' for Active; 'I' for Inactive)
REMARK    1  A    between atoms: O1_1  and  C1_3 
REMARK    2  A    between atoms: C1_3  and  N4_19 
REMARK    3  A    between atoms: N1_4  and  C2_6 
REMARK    4  A    between atoms: C5_9  and  O2_10 
REMARK    5  A    between atoms: O2_10  and  C6_11 
REMARK    6  A    between atoms: C6_11  and  C7_12 
REMARK       I    between atoms: N4_19  and  C8_21 
REMARK    7  A    between atoms: C8_21  and  O4_23 
REMARK    8  A    between atoms: O4_23  and  C9_24 
REMARK    9  A    between atoms: C9_24  and  C10_25 
REMARK   10  A    between atoms: C13_29  and  S2_30 
REMARK   11  A    between atoms: S2_30  and  C14_31 
ROOT
HETATM    1  C1  UNL     1       1.645  -7.244  15.835  1.00  0.00     0.227 C 
HETATM    2  N1  UNL     1       1.651  -6.488  16.969  1.00  0.00    -0.307 N 
ATOM      3  H1  UNL     1       0.780  -6.560  17.496  1.00  0.00     0.171 HD
ENDROOT
BRANCH   1   4
HETATM    4  O1  UNL     1       1.109  -8.439  16.047  1.00  0.00    -0.332 OA
ATOM      5  H1  UNL     1       0.504  -8.427  16.780  1.00  0.00     0.221 HD
ENDBRANCH   1   4
BRANCH   1   6
HETATM    6  N4  UNL     1       2.079  -6.979  14.557  1.00  0.00    -0.268 N 
HETATM    7  C8  UNL     1       3.471  -7.298  14.200  1.00  0.00     0.368 C 
HETATM    8  O3  UNL     1       3.874  -7.141  13.071  1.00  0.00    -0.238 OA
ATOM      9  H4  UNL     1       1.448  -6.568  13.869  1.00  0.00     0.174 HD
BRANCH   7  10
HETATM   10  O4  UNL     1       4.231  -7.779  15.228  1.00  0.00    -0.299 OA
BRANCH  10  11
HETATM   11  C9  UNL     1       5.450  -8.465  15.198  1.00  0.00     0.228 C 
BRANCH  11  12
HETATM   12  C10 UNL     1       6.644  -7.568  15.155  1.00  0.00     0.024 A 
HETATM   13  S1  UNL     1       6.701  -5.845  15.166  1.00  0.00    -0.103 SA
HETATM   14  C11 UNL     1       8.371  -5.613  15.422  1.00  0.00     0.051 A 
HETATM   15  C12 UNL     1       8.850  -6.910  15.489  1.00  0.00     0.027 A 
HETATM   16  C13 UNL     1       7.963  -7.919  15.350  1.00  0.00     0.021 A 
BRANCH  16  17
HETATM   17  S2  UNL     1       8.465  -9.653  15.314  1.00  0.00    -0.060 SA
BRANCH  17  18
HETATM   18  C14 UNL     1       8.298 -10.517  16.863  1.00  0.00     0.420 C 
HETATM   19  F3  UNL     1       6.993 -10.388  17.342  1.00  0.00    -0.202 F 
HETATM   20  F4  UNL     1       9.235 -10.101  17.779  1.00  0.00    -0.202 F 
ENDBRANCH  17  18
ENDBRANCH  16  17
ENDBRANCH  11  12
ENDBRANCH  10  11
ENDBRANCH   7  10
ENDBRANCH   1   6
BRANCH   2  21
HETATM   21  C2  UNL     1       2.492  -5.718  17.517  1.00  0.00     0.122 A 
HETATM   22  C3  UNL     1       2.038  -4.644  18.250  1.00  0.00     0.054 A 
HETATM   23  C4  UNL     1       2.944  -3.860  18.936  1.00  0.00     0.061 A 
HETATM   24  C5  UNL     1       4.294  -4.148  18.897  1.00  0.00     0.157 A 
HETATM   25  N2  UNL     1       4.700  -5.217  18.160  1.00  0.00    -0.278 N 
HETATM   26  N3  UNL     1       3.792  -5.971  17.490  1.00  0.00    -0.283 N 
ATOM     27  H2  UNL     1       5.691  -5.453  18.111  1.00  0.00     0.189 HD
ATOM     28  H3  UNL     1       4.123  -6.765  16.942  1.00  0.00     0.188 HD
BRANCH  24  29
HETATM   29  O2  UNL     1       5.182  -3.371  19.604  1.00  0.00    -0.329 OA
BRANCH  29  30
HETATM   30  C6  UNL     1       5.829  -2.227  19.206  1.00  0.00     0.248 C 
BRANCH  30  31
HETATM   31  C7  UNL     1       7.167  -2.630  18.561  1.00  0.00     0.377 C 
HETATM   32  F1  UNL     1       7.999  -1.505  18.654  1.00  0.00    -0.212 F 
HETATM   33  F2  UNL     1       6.987  -2.903  17.240  1.00  0.00    -0.212 F 
ENDBRANCH  30  31
ENDBRANCH  29  30
ENDBRANCH  24  29
ENDBRANCH   2  21
TORSDOF 11
ENDMDL
MODEL 5
REMARK VINA RESULT: -6.911104195      2.577      3.018
REMARK  11 active torsions:
REMARK  status: ('A' for Active; 'I' for Inactive)
REMARK    1  A    between atoms: O1_1  and  C1_3 
REMARK    2  A    between atoms: C1_3  and  N4_19 
REMARK    3  A    between atoms: N1_4  and  C2_6 
REMARK    4  A    between atoms: C5_9  and  O2_10 
REMARK    5  A    between atoms: O2_10  and  C6_11 
REMARK    6  A    between atoms: C6_11  and  C7_12 
REMARK       I    between atoms: N4_19  and  C8_21 
REMARK    7  A    between atoms: C8_21  and  O4_23 
REMARK    8  A    between atoms: O4_23  and  C9_24 
REMARK    9  A    between atoms: C9_24  and  C10_25 
REMARK   10  A    between atoms: C13_29  and  S2_30 
REMARK   11  A    between atoms: S2_30  and  C14_31 
ROOT
HETATM    1  C1  UNL     1       1.328  -7.000  14.517  1.00  0.00     0.227 C 
HETATM    2  N1  UNL     1       2.602  -6.520  14.447  1.00  0.00    -0.307 N 
ATOM      3  H1  UNL     1       2.949  -6.458  13.489  1.00  0.00     0.171 HD
ENDROOT
BRANCH   1   4
HETATM    4  O1  UNL     1       0.555  -6.472  13.577  1.00  0.00    -0.332 OA
ATOM      5  H1  UNL     1       1.058  -6.210  12.815  1.00  0.00     0.221 HD
ENDBRANCH   1   4
BRANCH   1   6
HETATM    6  N4  UNL     1       0.740  -7.911  15.363  1.00  0.00    -0.268 N 
HETATM    7  C8  UNL     1      -0.380  -7.471  16.211  1.00  0.00     0.368 C 
HETATM    8  O3  UNL     1      -0.967  -8.256  16.920  1.00  0.00    -0.238 OA
ATOM      9  H4  UNL     1       1.074  -8.874  15.402  1.00  0.00     0.174 HD
BRANCH   7  10
HETATM   10  O4  UNL     1      -0.686  -6.144  16.114  1.00  0.00    -0.299 OA
BRANCH  10  11
HETATM   11  C9  UNL     1      -0.072  -5.036  16.708  1.00  0.00     0.228 C 
BRANCH  11  12
HETATM   12  C10 UNL     1      -0.471  -4.818  18.131  1.00  0.00     0.024 A 
HETATM   13  S1  UNL     1      -1.813  -5.479  18.989  1.00  0.00    -0.103 SA
HETATM   14  C11 UNL     1      -1.390  -5.026  20.578  1.00  0.00     0.051 A 
HETATM   15  C12 UNL     1      -0.193  -4.356  20.394  1.00  0.00     0.027 A 
HETATM   16  C13 UNL     1       0.282  -4.245  19.134  1.00  0.00     0.021 A 
BRANCH  16  17
HETATM   17  S2  UNL     1       1.774  -3.309  18.739  1.00  0.00    -0.060 SA
BRANCH  17  18
HETATM   18  C14 UNL     1       2.865  -3.016  20.118  1.00  0.00     0.420 C 
HETATM   19  F3  UNL     1       3.383  -1.721  20.048  1.00  0.00    -0.202 F 
HETATM   20  F4  UNL     1       3.851  -3.971  20.195  1.00  0.00    -0.202 F 
ENDBRANCH  17  18
ENDBRANCH  16  17
ENDBRANCH  11  12
ENDBRANCH  10  11
ENDBRANCH   7  10
ENDBRANCH   1   6
BRANCH   2  21
HETATM   21  C2  UNL     1       3.452  -6.132  15.301  1.00  0.00     0.122 A 
HETATM   22  C3  UNL     1       4.488  -5.321  14.895  1.00  0.00     0.054 A 
HETATM   23  C4  UNL     1       5.358  -4.809  15.836  1.00  0.00     0.061 A 
HETATM   24  C5  UNL     1       5.193  -5.100  17.177  1.00  0.00     0.157 A 
HETATM   25  N2  UNL     1       4.158  -5.907  17.535  1.00  0.00    -0.278 N 
HETATM   26  N3  UNL     1       3.318  -6.402  16.591  1.00  0.00    -0.283 N 
ATOM     27  H2  UNL     1       4.013  -6.140  18.517  1.00  0.00     0.189 HD
ATOM     28  H3  UNL     1       2.552  -7.007  16.886  1.00  0.00     0.188 HD
BRANCH  24  29
HETATM   29  O2  UNL     1       6.055  -4.565  18.105  1.00  0.00    -0.329 OA
BRANCH  29  30
HETATM   30  C6  UNL     1       7.311  -4.043  17.912  1.00  0.00     0.248 C 
BRANCH  30  31
HETATM   31  C7  UNL     1       7.282  -2.558  18.314  1.00  0.00     0.377 C 
HETATM   32  F1  UNL     1       6.056  -2.353  18.962  1.00  0.00    -0.212 F 
HETATM   33  F2  UNL     1       7.300  -1.771  17.204  1.00  0.00    -0.212 F 
ENDBRANCH  30  31
ENDBRANCH  29  30
ENDBRANCH  24  29
ENDBRANCH   2  21
TORSDOF 11
ENDMDL
