MODEL 1
REMARK VINA RESULT: -6.880178508      0.000      0.000
REMARK  7 active torsions:
REMARK  status: ('A' for Active; 'I' for Inactive)
REMARK    1  A    between atoms: O1_1  and  C1_3 
REMARK    2  A    between atoms: C2_4  and  C3_5 
REMARK    3  A    between atoms: C3_5  and  N1_6 
REMARK    4  A    between atoms: N1_6  and  C4_9 
REMARK    5  A    between atoms: C4_9  and  C5_10 
REMARK    6  A    between atoms: C11_20  and  C12_21 
REMARK    7  A    between atoms: C13_24  and  C14_25 
ROOT
HETATM    1  C1  UNL     1       1.960  -6.123  16.713  1.00  0.00     0.093 A 
HETATM    2  C2  UNL     1       2.566  -5.249  17.583  1.00  0.00     0.005 A 
HETATM    3  C6  UNL     1       3.802  -4.753  17.316  1.00  0.00     0.051 A 
HETATM    4  C7  UNL     1       4.459  -5.138  16.144  1.00  0.00     0.105 A 
HETATM    5  C8  UNL     1       3.871  -6.011  15.257  1.00  0.00     0.122 A 
HETATM    6  C9  UNL     1       2.614  -6.498  15.558  1.00  0.00     0.080 A 
HETATM    7 BR1  UNL     1       1.820  -7.714  14.302  1.00  0.00    -0.045 Br
HETATM    8  O2  UNL     1       4.545  -6.380  14.096  1.00  0.00    -0.344 OA
HETATM    9  C10 UNL     1       5.562  -5.514  13.628  1.00  0.00     0.217 C 
HETATM   10  C11 UNL     1       6.449  -5.079  14.775  1.00  0.00     0.230 C 
HETATM   11  O4  UNL     1       5.725  -4.629  15.871  1.00  0.00    -0.333 OA
ENDROOT
BRANCH  10  12
HETATM   12  C12 UNL     1       7.352  -6.216  15.116  1.00  0.00     0.180 A 
HETATM   13  N2  UNL     1       7.358  -7.415  14.546  1.00  0.00    -0.324 N 
HETATM   14  C13 UNL     1       8.301  -8.205  15.094  1.00  0.00     0.117 A 
ATOM     15  H2  UNL     1       6.732  -7.699  13.793  1.00  0.00     0.169 HD
HETATM   16  N3  UNL     1       8.879  -7.431  16.037  1.00  0.00    -0.246 N 
HETATM   17  O3  UNL     1       8.298  -6.257  16.030  1.00  0.00    -0.220 OA
ATOM     18  H3  UNL     1       9.641  -7.713  16.653  1.00  0.00     0.196 HD
BRANCH  14  19
HETATM   19  C14 UNL     1       8.632  -9.612  14.742  1.00  0.00     0.193 C 
HETATM   20 CL1  UNL     1       8.905 -10.514  16.260  1.00  0.00    -0.122 Cl
ENDBRANCH  14  19
ENDBRANCH  10  12
BRANCH   2  21
HETATM   21  C3  UNL     1       1.808  -4.886  18.809  1.00  0.00     0.274 C 
BRANCH  21  22
HETATM   22  N1  UNL     1       1.622  -3.463  18.926  1.00  0.00    -0.066 N 
ATOM     23  H12 UNL     1       2.164  -2.935  18.241  1.00  0.00     0.277 HD
ATOM     24  H11 UNL     1       0.695  -3.158  18.628  1.00  0.00     0.277 HD
BRANCH  22  25
HETATM   25  C4  UNL     1       1.926  -3.090  20.295  1.00  0.00     0.303 C 
BRANCH  25  26
HETATM   26  C5  UNL     1       3.328  -2.492  20.391  1.00  0.00     0.378 C 
HETATM   27  F1  UNL     1       3.546  -1.615  19.371  1.00  0.00    -0.213 F 
HETATM   28  F2  UNL     1       4.295  -3.469  20.452  1.00  0.00    -0.213 F 
ENDBRANCH  25  26
ENDBRANCH  22  25
ENDBRANCH  21  22
ENDBRANCH   2  21
BRANCH   1  29
HETATM   29  O1  UNL     1       0.700  -6.653  16.946  1.00  0.00    -0.359 OA
ATOM     30  H1  UNL     1       0.177  -7.048  16.258  1.00  0.00     0.217 HD
ENDBRANCH   1  29
TORSDOF 7
ENDMDL
MODEL 2
REMARK VINA RESULT: -6.838328241      1.435      1.755
REMARK  7 active torsions:
REMARK  status: ('A' for Active; 'I' for Inactive)
REMARK    1  A    between atoms: O1_1  and  C1_3 
REMARK    2  A    between atoms: C2_4  and  C3_5 
REMARK    3  A    between atoms: C3_5  and  N1_6 
REMARK    4  A    between atoms: N1_6  and  C4_9 
REMARK    5  A    between atoms: C4_9  and  C5_10 
REMARK    6  A    between atoms: C11_20  and  C12_21 
REMARK    7  A    between atoms: C13_24  and  C14_25 
ROOT
HETATM    1  C1  UNL     1       1.568  -7.172  16.220  1.00  0.00     0.093 A 
HETATM    2  C2  UNL     1       2.044  -5.896  16.408  1.00  0.00     0.005 A 
HETATM    3  C6  UNL     1       3.179  -5.483  15.787  1.00  0.00     0.051 A 
HETATM    4  C7  UNL     1       3.866  -6.368  14.950  1.00  0.00     0.105 A 
HETATM    5  C8  UNL     1       3.407  -7.649  14.746  1.00  0.00     0.122 A 
HETATM    6  C9  UNL     1       2.250  -8.038  15.393  1.00  0.00     0.080 A 
HETATM    7 BR1  UNL     1       1.636  -9.832  15.090  1.00  0.00    -0.045 Br
HETATM    8  O2  UNL     1       4.108  -8.512  13.908  1.00  0.00    -0.344 OA
HETATM    9  C10 UNL     1       4.964  -7.933  12.942  1.00  0.00     0.217 C 
HETATM   10  C11 UNL     1       5.793  -6.832  13.568  1.00  0.00     0.230 C 
HETATM   11  O4  UNL     1       5.028  -5.944  14.313  1.00  0.00    -0.333 OA
ENDROOT
BRANCH  10  12
HETATM   12  C12 UNL     1       6.873  -7.471  14.376  1.00  0.00     0.180 A 
HETATM   13  N2  UNL     1       7.267  -8.736  14.302  1.00  0.00    -0.324 N 
HETATM   14  C13 UNL     1       8.265  -8.983  15.171  1.00  0.00     0.117 A 
ATOM     15  H2  UNL     1       6.868  -9.430  13.669  1.00  0.00     0.169 HD
HETATM   16  N3  UNL     1       8.468  -7.799  15.792  1.00  0.00    -0.246 N 
HETATM   17  O3  UNL     1       7.629  -6.920  15.302  1.00  0.00    -0.220 OA
ATOM     18  H3  UNL     1       9.158  -7.620  16.520  1.00  0.00     0.196 HD
BRANCH  14  19
HETATM   19  C14 UNL     1       8.983 -10.265  15.401  1.00  0.00     0.193 C 
HETATM   20 CL1  UNL     1       8.919 -10.633  17.147  1.00  0.00    -0.122 Cl
ENDBRANCH  14  19
ENDBRANCH  10  12
BRANCH   2  21
HETATM   21  C3  UNL     1       1.262  -5.011  17.312  1.00  0.00     0.274 C 
BRANCH  21  22
HETATM   22  N1  UNL     1       1.539  -5.278  18.699  1.00  0.00    -0.066 N 
ATOM     23  H12 UNL     1       0.735  -5.659  19.197  1.00  0.00     0.277 HD
ATOM     24  H11 UNL     1       2.167  -6.072  18.832  1.00  0.00     0.277 HD
BRANCH  22  25
HETATM   25  C4  UNL     1       2.043  -4.053  19.291  1.00  0.00     0.303 C 
BRANCH  25  26
HETATM   26  C5  UNL     1       3.570  -4.050  19.301  1.00  0.00     0.378 C 
HETATM   27  F1  UNL     1       4.054  -5.305  19.085  1.00  0.00    -0.213 F 
HETATM   28  F2  UNL     1       4.069  -3.492  20.456  1.00  0.00    -0.213 F 
ENDBRANCH  25  26
ENDBRANCH  22  25
ENDBRANCH  21  22
ENDBRANCH   2  21
BRANCH   1  29
HETATM   29  O1  UNL     1       0.413  -7.634  16.834  1.00  0.00    -0.359 OA
ATOM     30  H1  UNL     1       0.376  -7.843  17.760  1.00  0.00     0.217 HD
ENDBRANCH   1  29
TORSDOF 7
ENDMDL
MODEL 3
REMARK VINA RESULT: -6.740274584      1.232      1.323
REMARK  7 active torsions:
REMARK  status: ('A' for Active; 'I' for Inactive)
REMARK    1  A    between atoms: O1_1  and  C1_3 
REMARK    2  A    between atoms: C2_4  and  C3_5 
REMARK    3  A    between atoms: C3_5  and  N1_6 
REMARK    4  A    between atoms: N1_6  and  C4_9 
REMARK    5  A    between atoms: C4_9  and  C5_10 
REMARK    6  A    between atoms: C11_20  and  C12_21 
REMARK    7  A    between atoms: C13_24  and  C14_25 
ROOT
HETATM    1  C1  UNL     1       1.218  -5.450  16.998  1.00  0.00     0.093 A 
HETATM    2  C2  UNL     1       2.056  -4.885  17.930  1.00  0.00     0.005 A 
HETATM    3  C6  UNL     1       3.397  -4.847  17.721  1.00  0.00     0.051 A 
HETATM    4  C7  UNL     1       3.926  -5.389  16.545  1.00  0.00     0.105 A 
HETATM    5  C8  UNL     1       3.106  -5.958  15.598  1.00  0.00     0.122 A 
HETATM    6  C9  UNL     1       1.746  -5.981  15.841  1.00  0.00     0.080 A 
HETATM    7 BR1  UNL     1       0.628  -6.783  14.501  1.00  0.00    -0.045 Br
HETATM    8  O2  UNL     1       3.655  -6.492  14.435  1.00  0.00    -0.344 OA
HETATM    9  C10 UNL     1       4.930  -6.023  14.039  1.00  0.00     0.217 C 
HETATM   10  C11 UNL     1       5.865  -5.979  15.230  1.00  0.00     0.230 C 
HETATM   11  O4  UNL     1       5.300  -5.349  16.331  1.00  0.00    -0.333 OA
ENDROOT
BRANCH  10  12
HETATM   12  C12 UNL     1       6.294  -7.376  15.530  1.00  0.00     0.180 A 
HETATM   13  N2  UNL     1       7.479  -7.911  15.260  1.00  0.00    -0.324 N 
HETATM   14  C13 UNL     1       7.532  -9.194  15.664  1.00  0.00     0.117 A 
ATOM     15  H2  UNL     1       8.246  -7.415  14.807  1.00  0.00     0.169 HD
HETATM   16  N3  UNL     1       6.314  -9.427  16.199  1.00  0.00    -0.246 N 
HETATM   17  O3  UNL     1       5.599  -8.333  16.107  1.00  0.00    -0.220 OA
ATOM     18  H3  UNL     1       6.002 -10.308  16.607  1.00  0.00     0.196 HD
BRANCH  14  19
HETATM   19  C14 UNL     1       8.673 -10.142  15.548  1.00  0.00     0.193 C 
HETATM   20 CL1  UNL     1       9.061 -10.746  17.184  1.00  0.00    -0.122 Cl
ENDBRANCH  14  19
ENDBRANCH  10  12
BRANCH   2  21
HETATM   21  C3  UNL     1       1.424  -4.329  19.156  1.00  0.00     0.274 C 
BRANCH  21  22
HETATM   22  N1  UNL     1       1.636  -2.911  19.276  1.00  0.00    -0.066 N 
ATOM     23  H12 UNL     1       2.202  -2.529  18.518  1.00  0.00     0.277 HD
ATOM     24  H11 UNL     1       0.791  -2.367  19.099  1.00  0.00     0.277 HD
BRANCH  22  25
HETATM   25  C4  UNL     1       2.205  -2.660  20.587  1.00  0.00     0.303 C 
BRANCH  25  26
HETATM   26  C5  UNL     1       3.703  -2.381  20.478  1.00  0.00     0.378 C 
HETATM   27  F1  UNL     1       3.969  -1.605  19.390  1.00  0.00    -0.213 F 
HETATM   28  F2  UNL     1       4.438  -3.544  20.480  1.00  0.00    -0.213 F 
ENDBRANCH  25  26
ENDBRANCH  22  25
ENDBRANCH  21  22
ENDBRANCH   2  21
BRANCH   1  29
HETATM   29  O1  UNL     1      -0.157  -5.509  17.172  1.00  0.00    -0.359 OA
ATOM     30  H1  UNL     1      -0.718  -6.042  16.621  1.00  0.00     0.217 HD
ENDBRANCH   1  29
TORSDOF 7
ENDMDL
MODEL 4
REMARK VINA RESULT: -6.592911129      1.674      1.798
REMARK  7 active torsions:
REMARK  status: ('A' for Active; 'I' for Inactive)
REMARK    1  A    between atoms: O1_1  and  C1_3 
REMARK    2  A    between atoms: C2_4  and  C3_5 
REMARK    3  A    between atoms: C3_5  and  N1_6 
REMARK    4  A    between atoms: N1_6  and  C4_9 
REMARK    5  A    between atoms: C4_9  and  C5_10 
REMARK    6  A    between atoms: C11_20  and  C12_21 
REMARK    7  A    between atoms: C13_24  and  C14_25 
ROOT
HETATM    1  C1  UNL     1       2.646  -5.538  17.250  1.00  0.00     0.093 A 
HETATM    2  C2  UNL     1       3.638  -4.966  18.009  1.00  0.00     0.005 A 
HETATM    3  C6  UNL     1       4.928  -4.980  17.584  1.00  0.00     0.051 A 
HETATM    4  C7  UNL     1       5.244  -5.581  16.362  1.00  0.00     0.105 A 
HETATM    5  C8  UNL     1       4.266  -6.159  15.584  1.00  0.00     0.122 A 
HETATM    6  C9  UNL     1       2.964  -6.129  16.045  1.00  0.00     0.080 A 
HETATM    7 BR1  UNL     1       1.623  -6.943  14.939  1.00  0.00    -0.045 Br
HETATM    8  O2  UNL     1       4.604  -6.752  14.371  1.00  0.00    -0.344 OA
HETATM    9  C10 UNL     1       5.809  -6.340  13.755  1.00  0.00     0.217 C 
HETATM   10  C11 UNL     1       6.927  -6.282  14.775  1.00  0.00     0.230 C 
HETATM   11  O4  UNL     1       6.566  -5.594  15.926  1.00  0.00    -0.333 OA
ENDROOT
BRANCH  10  12
HETATM   12  C12 UNL     1       7.363  -7.680  15.060  1.00  0.00     0.180 A 
HETATM   13  N2  UNL     1       8.355  -8.331  14.466  1.00  0.00    -0.324 N 
HETATM   14  C13 UNL     1       8.481  -9.577  14.962  1.00  0.00     0.117 A 
ATOM     15  H2  UNL     1       8.945  -7.940  13.731  1.00  0.00     0.169 HD
HETATM   16  N3  UNL     1       7.510  -9.663  15.898  1.00  0.00    -0.246 N 
HETATM   17  O3  UNL     1       6.862  -8.525  15.936  1.00  0.00    -0.220 OA
ATOM     18  H3  UNL     1       7.313 -10.478  16.478  1.00  0.00     0.196 HD
BRANCH  14  19
HETATM   19  C14 UNL     1       9.464 -10.622  14.571  1.00  0.00     0.193 C 
HETATM   20 CL1  UNL     1      10.385 -10.020  13.165  1.00  0.00    -0.122 Cl
ENDBRANCH  14  19
ENDBRANCH  10  12
BRANCH   2  21
HETATM   21  C3  UNL     1       3.229  -4.346  19.296  1.00  0.00     0.274 C 
BRANCH  21  22
HETATM   22  N1  UNL     1       4.347  -3.767  19.994  1.00  0.00    -0.066 N 
ATOM     23  H12 UNL     1       4.482  -4.162  20.925  1.00  0.00     0.277 HD
ATOM     24  H11 UNL     1       5.247  -4.042  19.600  1.00  0.00     0.277 HD
BRANCH  22  25
HETATM   25  C4  UNL     1       4.156  -2.328  20.015  1.00  0.00     0.303 C 
BRANCH  25  26
HETATM   26  C5  UNL     1       5.454  -1.609  19.654  1.00  0.00     0.378 C 
HETATM   27  F1  UNL     1       5.199  -0.510  18.891  1.00  0.00    -0.213 F 
HETATM   28  F2  UNL     1       6.357  -2.459  19.057  1.00  0.00    -0.213 F 
ENDBRANCH  25  26
ENDBRANCH  22  25
ENDBRANCH  21  22
ENDBRANCH   2  21
BRANCH   1  29
HETATM   29  O1  UNL     1       1.317  -5.546  17.646  1.00  0.00    -0.359 OA
ATOM     30  H1  UNL     1       0.637  -5.095  17.160  1.00  0.00     0.217 HD
ENDBRANCH   1  29
TORSDOF 7
ENDMDL
MODEL 5
REMARK VINA RESULT: -6.591123158      1.804      1.980
REMARK  7 active torsions:
REMARK  status: ('A' for Active; 'I' for Inactive)
REMARK    1  A    between atoms: O1_1  and  C1_3 
REMARK    2  A    between atoms: C2_4  and  C3_5 
REMARK    3  A    between atoms: C3_5  and  N1_6 
REMARK    4  A    between atoms: N1_6  and  C4_9 
REMARK    5  A    between atoms: C4_9  and  C5_10 
REMARK    6  A    between atoms: C11_20  and  C12_21 
REMARK    7  A    between atoms: C13_24  and  C14_25 
ROOT
HETATM    1  C1  UNL     1       3.153  -5.793  17.627  1.00  0.00     0.093 A 
HETATM    2  C2  UNL     1       4.213  -5.118  18.184  1.00  0.00     0.005 A 
HETATM    3  C6  UNL     1       5.428  -5.116  17.578  1.00  0.00     0.051 A 
HETATM    4  C7  UNL     1       5.598  -5.810  16.376  1.00  0.00     0.105 A 
HETATM    5  C8  UNL     1       4.551  -6.492  15.799  1.00  0.00     0.122 A 
HETATM    6  C9  UNL     1       3.328  -6.475  16.441  1.00  0.00     0.080 A 
HETATM    7 BR1  UNL     1       1.887  -7.436  15.613  1.00  0.00    -0.045 Br
HETATM    8  O2  UNL     1       4.744  -7.176  14.602  1.00  0.00    -0.344 OA
HETATM    9  C10 UNL     1       5.826  -6.772  13.785  1.00  0.00     0.217 C 
HETATM   10  C11 UNL     1       7.072  -6.580  14.623  1.00  0.00     0.230 C 
HETATM   11  O4  UNL     1       6.843  -5.808  15.754  1.00  0.00    -0.333 OA
ENDROOT
BRANCH  10  12
HETATM   12  C12 UNL     1       7.617  -7.929  14.954  1.00  0.00     0.180 A 
HETATM   13  N2  UNL     1       8.467  -8.636  14.219  1.00  0.00    -0.324 N 
HETATM   14  C13 UNL     1       8.754  -9.811  14.810  1.00  0.00     0.117 A 
ATOM     15  H2  UNL     1       8.851  -8.330  13.325  1.00  0.00     0.169 HD
HETATM   16  N3  UNL     1       8.034  -9.795  15.953  1.00  0.00    -0.246 N 
HETATM   17  O3  UNL     1       7.369  -8.668  16.014  1.00  0.00    -0.220 OA
ATOM     18  H3  UNL     1       8.011 -10.536  16.653  1.00  0.00     0.196 HD
BRANCH  14  19
HETATM   19  C14 UNL     1       9.657 -10.886  14.318  1.00  0.00     0.193 C 
HETATM   20 CL1  UNL     1      10.628 -10.223  12.974  1.00  0.00    -0.122 Cl
ENDBRANCH  14  19
ENDBRANCH  10  12
BRANCH   2  21
HETATM   21  C3  UNL     1       3.959  -4.403  19.463  1.00  0.00     0.274 C 
BRANCH  21  22
HETATM   22  N1  UNL     1       4.497  -3.068  19.451  1.00  0.00    -0.066 N 
ATOM     23  H12 UNL     1       5.395  -2.999  19.930  1.00  0.00     0.277 HD
ATOM     24  H11 UNL     1       4.816  -2.778  18.526  1.00  0.00     0.277 HD
BRANCH  22  25
HETATM   25  C4  UNL     1       3.491  -2.182  20.005  1.00  0.00     0.303 C 
BRANCH  25  26
HETATM   26  C5  UNL     1       2.150  -2.902  20.128  1.00  0.00     0.378 C 
HETATM   27  F1  UNL     1       1.330  -2.571  19.092  1.00  0.00    -0.213 F 
HETATM   28  F2  UNL     1       1.561  -2.674  21.351  1.00  0.00    -0.213 F 
ENDBRANCH  25  26
ENDBRANCH  22  25
ENDBRANCH  21  22
ENDBRANCH   2  21
BRANCH   1  29
HETATM   29  O1  UNL     1       1.896  -5.820  18.213  1.00  0.00    -0.359 OA
ATOM     30  H1  UNL     1       1.769  -5.971  19.142  1.00  0.00     0.217 HD
ENDBRANCH   1  29
TORSDOF 7
ENDMDL
