MODEL 1
REMARK VINA RESULT: -6.437997028      0.000      0.000
REMARK  5 active torsions:
REMARK  status: ('A' for Active; 'I' for Inactive)
REMARK    1  A    between atoms: S1_2  and  S2_3 
REMARK    2  A    between atoms: S2_3  and  C2_4 
REMARK    3  A    between atoms: C2_4  and  C3_6 
REMARK    4  A    between atoms: C5_8  and  C6_9 
REMARK    5  A    between atoms: C13_17  and  N2_18 
ROOT
HETATM    1  C3  UNL     1       5.658  -5.510  15.849  1.00  0.00     0.164 C 
HETATM    2  C4  UNL     1       5.185  -6.491  16.900  1.00  0.00     0.089 C 
HETATM    3  C5  UNL     1       4.074  -5.462  16.891  1.00  0.00     0.099 C 
HETATM    4  C12 UNL     1       3.388  -5.668  15.553  1.00  0.00     0.076 C 
HETATM    5  C13 UNL     1       4.672  -5.802  14.706  1.00  0.00     0.229 C 
HETATM    6  O2  UNL     1       5.061  -4.518  16.616  1.00  0.00    -0.356 OA
ENDROOT
BRANCH   3   7
HETATM    7  C6  UNL     1       3.243  -5.307  18.070  1.00  0.00     0.257 C 
HETATM    8  C7  UNL     1       3.830  -4.567  19.217  1.00  0.00     0.045 C 
HETATM    9  C8  UNL     1       2.700  -3.663  19.675  1.00  0.00     0.012 C 
HETATM   10  C9  UNL     1       3.251  -2.370  20.240  1.00  0.00     0.012 C 
HETATM   11  C10 UNL     1       1.893  -3.452  18.437  1.00  0.00     0.277 C 
HETATM   12  N1  UNL     1       1.984  -4.683  17.718  1.00  0.00     0.092 N 
HETATM   13  C11 UNL     1       0.853  -5.546  17.875  1.00  0.00     0.310 C 
ENDBRANCH   3   7
BRANCH   1  14
HETATM   14  C2  UNL     1       7.047  -5.430  15.536  1.00  0.00     0.233 C 
HETATM   15  O1  UNL     1       7.499  -5.824  14.478  1.00  0.00    -0.281 OA
BRANCH  14  16
HETATM   16  S2  UNL     1       8.171  -4.729  16.737  1.00  0.00    -0.017 SA
BRANCH  16  17
HETATM   17  S1  UNL     1       7.772  -2.684  17.095  1.00  0.00    -0.094 SA
HETATM   18  C1  UNL     1       7.033  -2.429  18.740  1.00  0.00     0.103 C 
ENDBRANCH  16  17
ENDBRANCH  14  16
ENDBRANCH   1  14
BRANCH   5  19
HETATM   19  N2  UNL     1       4.734  -4.819  13.676  1.00  0.00    -0.072 N 
ATOM     20  H23 UNL     1       3.816  -4.411  13.501  1.00  0.00     0.274 HD
ATOM     21  H22 UNL     1       5.226  -3.984  13.992  1.00  0.00     0.274 HD
ATOM     22  H21 UNL     1       5.145  -5.185  12.817  1.00  0.00     0.274 HD
ENDBRANCH   5  19
TORSDOF 5
ENDMDL
MODEL 2
REMARK VINA RESULT: -6.322437156      1.886      2.954
REMARK  5 active torsions:
REMARK  status: ('A' for Active; 'I' for Inactive)
REMARK    1  A    between atoms: S1_2  and  S2_3 
REMARK    2  A    between atoms: S2_3  and  C2_4 
REMARK    3  A    between atoms: C2_4  and  C3_6 
REMARK    4  A    between atoms: C5_8  and  C6_9 
REMARK    5  A    between atoms: C13_17  and  N2_18 
ROOT
HETATM    1  C3  UNL     1       5.170  -5.541  16.587  1.00  0.00     0.164 C 
HETATM    2  C4  UNL     1       5.440  -4.551  17.700  1.00  0.00     0.089 C 
HETATM    3  C5  UNL     1       3.930  -4.657  17.718  1.00  0.00     0.099 C 
HETATM    4  C12 UNL     1       3.662  -6.058  18.238  1.00  0.00     0.076 C 
HETATM    5  C13 UNL     1       4.733  -6.778  17.390  1.00  0.00     0.229 C 
HETATM    6  O2  UNL     1       4.006  -4.825  16.338  1.00  0.00    -0.356 OA
ENDROOT
BRANCH   3   7
HETATM    7  C6  UNL     1       3.150  -3.563  18.265  1.00  0.00     0.257 C 
HETATM    8  C7  UNL     1       1.672  -3.674  18.170  1.00  0.00     0.045 C 
HETATM    9  C8  UNL     1       1.190  -3.219  19.536  1.00  0.00     0.012 C 
HETATM   10  C9  UNL     1      -0.083  -3.945  19.918  1.00  0.00     0.012 C 
HETATM   11  C10 UNL     1       2.333  -3.548  20.440  1.00  0.00     0.277 C 
HETATM   12  N1  UNL     1       3.505  -3.337  19.652  1.00  0.00     0.092 N 
HETATM   13  C11 UNL     1       4.155  -2.083  19.880  1.00  0.00     0.310 C 
ENDBRANCH   3   7
BRANCH   1  14
HETATM   14  C2  UNL     1       6.134  -5.717  15.552  1.00  0.00     0.233 C 
HETATM   15  O1  UNL     1       5.905  -6.372  14.553  1.00  0.00    -0.281 OA
BRANCH  14  16
HETATM   16  S2  UNL     1       7.742  -4.952  15.720  1.00  0.00    -0.017 SA
BRANCH  16  17
HETATM   17  S1  UNL     1       9.307  -6.371  15.646  1.00  0.00    -0.094 SA
HETATM   18  C1  UNL     1      10.903  -5.582  15.265  1.00  0.00     0.103 C 
ENDBRANCH  16  17
ENDBRANCH  14  16
ENDBRANCH   1  14
BRANCH   5  19
HETATM   19  N2  UNL     1       4.163  -7.786  16.559  1.00  0.00    -0.072 N 
ATOM     20  H23 UNL     1       4.812  -8.068  15.825  1.00  0.00     0.274 HD
ATOM     21  H22 UNL     1       4.086  -8.673  17.056  1.00  0.00     0.274 HD
ATOM     22  H21 UNL     1       3.265  -7.503  16.168  1.00  0.00     0.274 HD
ENDBRANCH   5  19
TORSDOF 5
ENDMDL
MODEL 3
REMARK VINA RESULT: -6.292783297      3.290      5.510
REMARK  5 active torsions:
REMARK  status: ('A' for Active; 'I' for Inactive)
REMARK    1  A    between atoms: S1_2  and  S2_3 
REMARK    2  A    between atoms: S2_3  and  C2_4 
REMARK    3  A    between atoms: C2_4  and  C3_6 
REMARK    4  A    between atoms: C5_8  and  C6_9 
REMARK    5  A    between atoms: C13_17  and  N2_18 
ROOT
HETATM    1  C3  UNL     1       4.402  -6.659  15.356  1.00  0.00     0.164 C 
HETATM    2  C4  UNL     1       4.813  -5.352  16.000  1.00  0.00     0.089 C 
HETATM    3  C5  UNL     1       6.148  -5.988  15.674  1.00  0.00     0.099 C 
HETATM    4  C12 UNL     1       6.223  -5.939  14.159  1.00  0.00     0.076 C 
HETATM    5  C13 UNL     1       4.773  -6.396  13.887  1.00  0.00     0.229 C 
HETATM    6  O2  UNL     1       5.537  -7.212  15.936  1.00  0.00    -0.356 OA
ENDROOT
BRANCH   3   7
HETATM    7  C6  UNL     1       7.322  -5.597  16.431  1.00  0.00     0.257 C 
HETATM    8  C7  UNL     1       8.558  -6.393  16.219  1.00  0.00     0.045 C 
HETATM    9  C8  UNL     1       9.649  -5.342  16.125  1.00  0.00     0.012 C 
HETATM   10  C9  UNL     1      10.751  -5.803  15.193  1.00  0.00     0.012 C 
HETATM   11  C10 UNL     1       8.932  -4.136  15.614  1.00  0.00     0.277 C 
HETATM   12  N1  UNL     1       7.629  -4.201  16.196  1.00  0.00     0.092 N 
HETATM   13  C11 UNL     1       7.453  -3.373  17.350  1.00  0.00     0.310 C 
ENDBRANCH   3   7
BRANCH   1  14
HETATM   14  C2  UNL     1       3.117  -7.209  15.637  1.00  0.00     0.233 C 
HETATM   15  O1  UNL     1       2.975  -8.299  16.157  1.00  0.00    -0.281 OA
BRANCH  14  16
HETATM   16  S2  UNL     1       1.656  -6.268  15.215  1.00  0.00    -0.017 SA
BRANCH  16  17
HETATM   17  S1  UNL     1       0.885  -5.212  16.877  1.00  0.00    -0.094 SA
HETATM   18  C1  UNL     1       1.830  -5.575  18.390  1.00  0.00     0.103 C 
ENDBRANCH  16  17
ENDBRANCH  14  16
ENDBRANCH   1  14
BRANCH   5  19
HETATM   19  N2  UNL     1       4.728  -7.582  13.099  1.00  0.00    -0.072 N 
ATOM     20  H23 UNL     1       3.778  -7.947  13.037  1.00  0.00     0.274 HD
ATOM     21  H22 UNL     1       4.887  -7.375  12.113  1.00  0.00     0.274 HD
ATOM     22  H21 UNL     1       5.376  -8.294  13.435  1.00  0.00     0.274 HD
ENDBRANCH   5  19
TORSDOF 5
ENDMDL
MODEL 4
REMARK VINA RESULT: -6.288977466      1.257      1.839
REMARK  5 active torsions:
REMARK  status: ('A' for Active; 'I' for Inactive)
REMARK    1  A    between atoms: S1_2  and  S2_3 
REMARK    2  A    between atoms: S2_3  and  C2_4 
REMARK    3  A    between atoms: C2_4  and  C3_6 
REMARK    4  A    between atoms: C5_8  and  C6_9 
REMARK    5  A    between atoms: C13_17  and  N2_18 
ROOT
HETATM    1  C3  UNL     1       5.676  -5.473  15.556  1.00  0.00     0.164 C 
HETATM    2  C4  UNL     1       5.753  -6.103  16.930  1.00  0.00     0.089 C 
HETATM    3  C5  UNL     1       4.325  -5.602  16.880  1.00  0.00     0.099 C 
HETATM    4  C12 UNL     1       3.650  -6.504  15.863  1.00  0.00     0.076 C 
HETATM    5  C13 UNL     1       4.784  -6.482  14.815  1.00  0.00     0.229 C 
HETATM    6  O2  UNL     1       4.808  -4.543  16.115  1.00  0.00    -0.356 OA
ENDROOT
BRANCH   3   7
HETATM    7  C6  UNL     1       3.627  -5.327  18.122  1.00  0.00     0.257 C 
HETATM    8  C7  UNL     1       4.332  -4.483  19.120  1.00  0.00     0.045 C 
HETATM    9  C8  UNL     1       3.255  -3.532  19.610  1.00  0.00     0.012 C 
HETATM   10  C9  UNL     1       3.859  -2.193  19.982  1.00  0.00     0.012 C 
HETATM   11  C10 UNL     1       2.317  -3.437  18.452  1.00  0.00     0.277 C 
HETATM   12  N1  UNL     1       2.334  -4.733  17.851  1.00  0.00     0.092 N 
HETATM   13  C11 UNL     1       1.231  -5.569  18.213  1.00  0.00     0.310 C 
ENDBRANCH   3   7
BRANCH   1  14
HETATM   14  C2  UNL     1       6.873  -5.036  14.915  1.00  0.00     0.233 C 
HETATM   15  O1  UNL     1       7.001  -5.036  13.705  1.00  0.00    -0.281 OA
BRANCH  14  16
HETATM   16  S2  UNL     1       8.240  -4.467  15.918  1.00  0.00    -0.017 SA
BRANCH  16  17
HETATM   17  S1  UNL     1       9.728  -5.952  16.144  1.00  0.00    -0.094 SA
HETATM   18  C1  UNL     1      11.183  -5.598  15.108  1.00  0.00     0.103 C 
ENDBRANCH  16  17
ENDBRANCH  14  16
ENDBRANCH   1  14
BRANCH   5  19
HETATM   19  N2  UNL     1       4.336  -5.985  13.557  1.00  0.00    -0.072 N 
ATOM     20  H23 UNL     1       4.018  -6.743  12.954  1.00  0.00     0.274 HD
ATOM     21  H22 UNL     1       3.458  -5.475  13.654  1.00  0.00     0.274 HD
ATOM     22  H21 UNL     1       5.043  -5.416  13.092  1.00  0.00     0.274 HD
ENDBRANCH   5  19
TORSDOF 5
ENDMDL
MODEL 5
REMARK VINA RESULT: -6.252012888      3.384      5.747
REMARK  5 active torsions:
REMARK  status: ('A' for Active; 'I' for Inactive)
REMARK    1  A    between atoms: S1_2  and  S2_3 
REMARK    2  A    between atoms: S2_3  and  C2_4 
REMARK    3  A    between atoms: C2_4  and  C3_6 
REMARK    4  A    between atoms: C5_8  and  C6_9 
REMARK    5  A    between atoms: C13_17  and  N2_18 
ROOT
HETATM    1  C3  UNL     1       3.250  -4.026  19.234  1.00  0.00     0.164 C 
HETATM    2  C4  UNL     1       3.652  -5.409  18.769  1.00  0.00     0.089 C 
HETATM    3  C5  UNL     1       4.369  -4.512  17.782  1.00  0.00     0.099 C 
HETATM    4  C12 UNL     1       5.449  -3.838  18.608  1.00  0.00     0.076 C 
HETATM    5  C13 UNL     1       4.570  -3.519  19.837  1.00  0.00     0.229 C 
HETATM    6  O2  UNL     1       3.280  -3.652  17.896  1.00  0.00    -0.356 OA
ENDROOT
BRANCH   3   7
HETATM    7  C6  UNL     1       4.731  -5.039  16.480  1.00  0.00     0.257 C 
HETATM    8  C7  UNL     1       5.839  -4.360  15.760  1.00  0.00     0.045 C 
HETATM    9  C8  UNL     1       6.667  -5.507  15.212  1.00  0.00     0.012 C 
HETATM   10  C9  UNL     1       8.131  -5.123  15.150  1.00  0.00     0.012 C 
HETATM   11  C10 UNL     1       6.405  -6.621  16.171  1.00  0.00     0.277 C 
HETATM   12  N1  UNL     1       5.047  -6.450  16.579  1.00  0.00     0.092 N 
HETATM   13  C11 UNL     1       4.113  -7.296  15.902  1.00  0.00     0.310 C 
ENDBRANCH   3   7
BRANCH   1  14
HETATM   14  C2  UNL     1       2.054  -3.859  19.994  1.00  0.00     0.233 C 
HETATM   15  O1  UNL     1       1.964  -3.047  20.894  1.00  0.00    -0.281 OA
BRANCH  14  16
HETATM   16  S2  UNL     1       0.634  -4.879  19.618  1.00  0.00    -0.017 SA
BRANCH  16  17
HETATM   17  S1  UNL     1      -0.106  -4.517  17.670  1.00  0.00    -0.094 SA
HETATM   18  C1  UNL     1       0.746  -5.547  16.434  1.00  0.00     0.103 C 
ENDBRANCH  16  17
ENDBRANCH  14  16
ENDBRANCH   1  14
BRANCH   5  19
HETATM   19  N2  UNL     1       4.534  -2.122  20.116  1.00  0.00    -0.072 N 
ATOM     20  H23 UNL     1       3.634  -1.848  20.509  1.00  0.00     0.274 HD
ATOM     21  H22 UNL     1       5.134  -1.889  20.907  1.00  0.00     0.274 HD
ATOM     22  H21 UNL     1       4.767  -1.558  19.299  1.00  0.00     0.274 HD
ENDBRANCH   5  19
TORSDOF 5
ENDMDL
