MODEL 1
REMARK VINA RESULT: -5.873651094      0.000      0.000
REMARK  4 active torsions:
REMARK  status: ('A' for Active; 'I' for Inactive)
REMARK    1  A    between atoms: C2_2  and  O1_3 
REMARK    2  A    between atoms: O1_3  and  C3_4 
REMARK    3  A    between atoms: C3_4  and  C4_6 
REMARK       I    between atoms: N1_12  and  C8_13 
REMARK       I    between atoms: C8_13  and  N2_15 
REMARK    4  A    between atoms: N2_15  and  C9_17 
ROOT
HETATM    1  C4  UNL     1       3.502  -6.136  15.439  1.00  0.00     0.198 C 
HETATM    2  C5  UNL     1       4.597  -6.310  14.408  1.00  0.00     0.111 C 
HETATM    3  S1  UNL     1       5.799  -4.983  14.412  1.00  0.00    -0.149 SA
HETATM    4  C6  UNL     1       6.115  -4.509  16.132  1.00  0.00     0.138 C 
HETATM    5  S2  UNL     1       7.868  -4.473  16.526  1.00  0.00    -0.079 SA
HETATM    6  C7  UNL     1       5.371  -5.513  17.007  1.00  0.00     0.155 C 
HETATM    7  N1  UNL     1       3.993  -5.447  16.620  1.00  0.00    -0.318 N 
HETATM    8  C8  UNL     1       3.065  -4.701  17.384  1.00  0.00     0.319 C 
HETATM    9  O3  UNL     1       1.849  -4.658  17.036  1.00  0.00    -0.247 OA
HETATM   10  N2  UNL     1       3.397  -3.968  18.554  1.00  0.00    -0.335 N 
ATOM     11  H2  UNL     1       4.367  -3.976  18.868  1.00  0.00     0.165 HD
ENDROOT
BRANCH   1  12
HETATM   12  C3  UNL     1       3.005  -7.495  15.777  1.00  0.00     0.282 C 
HETATM   13  O2  UNL     1       3.666  -8.165  16.610  1.00  0.00    -0.263 OA
BRANCH  12  14
HETATM   14  O1  UNL     1       1.878  -8.049  15.235  1.00  0.00    -0.320 OA
BRANCH  14  15
HETATM   15  C2  UNL     1       1.060  -7.454  14.266  1.00  0.00     0.174 C 
HETATM   16  C1  UNL     1      -0.131  -6.749  14.860  1.00  0.00     0.034 C 
ENDBRANCH  14  15
ENDBRANCH  12  14
ENDBRANCH   1  12
BRANCH  10  17
HETATM   17  C9  UNL     1       2.442  -3.216  19.319  1.00  0.00     0.023 C 
HETATM   18  C10 UNL     1       3.143  -2.420  20.412  1.00  0.00     0.037 C 
HETATM   19  C11 UNL     1       1.479  -4.142  20.028  1.00  0.00     0.037 C 
HETATM   20  C12 UNL     1       1.682  -2.220  18.481  1.00  0.00     0.037 C 
ENDBRANCH  10  17
TORSDOF 4
ENDMDL
MODEL 2
REMARK VINA RESULT: -5.787510791      0.282      1.012
REMARK  4 active torsions:
REMARK  status: ('A' for Active; 'I' for Inactive)
REMARK    1  A    between atoms: C2_2  and  O1_3 
REMARK    2  A    between atoms: O1_3  and  C3_4 
REMARK    3  A    between atoms: C3_4  and  C4_6 
REMARK       I    between atoms: N1_12  and  C8_13 
REMARK       I    between atoms: C8_13  and  N2_15 
REMARK    4  A    between atoms: N2_15  and  C9_17 
ROOT
HETATM    1  C4  UNL     1       3.327  -6.102  15.547  1.00  0.00     0.198 C 
HETATM    2  C5  UNL     1       4.340  -6.317  14.443  1.00  0.00     0.111 C 
HETATM    3  S1  UNL     1       5.567  -5.018  14.336  1.00  0.00    -0.149 SA
HETATM    4  C6  UNL     1       6.017  -4.523  16.020  1.00  0.00     0.138 C 
HETATM    5  S2  UNL     1       7.794  -4.520  16.285  1.00  0.00    -0.079 SA
HETATM    6  C7  UNL     1       5.317  -5.496  16.964  1.00  0.00     0.155 C 
HETATM    7  N1  UNL     1       3.916  -5.405  16.677  1.00  0.00    -0.318 N 
HETATM    8  C8  UNL     1       3.063  -4.625  17.492  1.00  0.00     0.319 C 
HETATM    9  O3  UNL     1       1.826  -4.560  17.231  1.00  0.00    -0.247 OA
HETATM   10  N2  UNL     1       3.495  -3.881  18.622  1.00  0.00    -0.335 N 
ATOM     11  H2  UNL     1       4.485  -3.906  18.865  1.00  0.00     0.165 HD
ENDROOT
BRANCH   1  12
HETATM   12  C3  UNL     1       2.826  -7.443  15.944  1.00  0.00     0.282 C 
HETATM   13  O2  UNL     1       3.648  -8.239  16.466  1.00  0.00    -0.263 OA
BRANCH  12  14
HETATM   14  O1  UNL     1       1.532  -7.853  15.774  1.00  0.00    -0.320 OA
BRANCH  14  15
HETATM   15  C2  UNL     1       0.774  -7.701  14.606  1.00  0.00     0.174 C 
HETATM   16  C1  UNL     1      -0.173  -6.532  14.673  1.00  0.00     0.034 C 
ENDBRANCH  14  15
ENDBRANCH  12  14
ENDBRANCH   1  12
BRANCH  10  17
HETATM   17  C9  UNL     1       2.614  -3.095  19.440  1.00  0.00     0.023 C 
HETATM   18  C10 UNL     1       1.851  -2.089  18.588  1.00  0.00     0.037 C 
HETATM   19  C11 UNL     1       3.401  -2.283  20.444  1.00  0.00     0.037 C 
HETATM   20  C12 UNL     1       1.579  -3.932  20.147  1.00  0.00     0.037 C 
ENDBRANCH  10  17
TORSDOF 4
ENDMDL
MODEL 3
REMARK VINA RESULT: -5.667631563      0.999      1.071
REMARK  4 active torsions:
REMARK  status: ('A' for Active; 'I' for Inactive)
REMARK    1  A    between atoms: C2_2  and  O1_3 
REMARK    2  A    between atoms: O1_3  and  C3_4 
REMARK    3  A    between atoms: C3_4  and  C4_6 
REMARK       I    between atoms: N1_12  and  C8_13 
REMARK       I    between atoms: C8_13  and  N2_15 
REMARK    4  A    between atoms: N2_15  and  C9_17 
ROOT
HETATM    1  C4  UNL     1       2.579  -6.415  15.601  1.00  0.00     0.198 C 
HETATM    2  C5  UNL     1       3.516  -6.826  14.485  1.00  0.00     0.111 C 
HETATM    3  S1  UNL     1       4.899  -5.709  14.266  1.00  0.00    -0.149 SA
HETATM    4  C6  UNL     1       5.469  -5.185  15.904  1.00  0.00     0.138 C 
HETATM    5  S2  UNL     1       7.239  -5.404  16.121  1.00  0.00    -0.079 SA
HETATM    6  C7  UNL     1       4.681  -6.001  16.924  1.00  0.00     0.155 C 
HETATM    7  N1  UNL     1       3.295  -5.740  16.670  1.00  0.00    -0.318 N 
HETATM    8  C8  UNL     1       2.580  -4.809  17.459  1.00  0.00     0.319 C 
HETATM    9  O3  UNL     1       1.354  -4.595  17.229  1.00  0.00    -0.247 OA
HETATM   10  N2  UNL     1       3.145  -4.066  18.530  1.00  0.00    -0.335 N 
ATOM     11  H2  UNL     1       4.131  -4.209  18.747  1.00  0.00     0.165 HD
ENDROOT
BRANCH   1  12
HETATM   12  C3  UNL     1       1.921  -7.653  16.092  1.00  0.00     0.282 C 
HETATM   13  O2  UNL     1       2.595  -8.714  16.079  1.00  0.00    -0.263 OA
BRANCH  12  14
HETATM   14  O1  UNL     1       0.634  -7.699  16.553  1.00  0.00    -0.320 OA
BRANCH  14  15
HETATM   15  C2  UNL     1      -0.518  -7.726  15.757  1.00  0.00     0.174 C 
HETATM   16  C1  UNL     1      -1.294  -6.436  15.806  1.00  0.00     0.034 C 
ENDBRANCH  14  15
ENDBRANCH  12  14
ENDBRANCH   1  12
BRANCH  10  17
HETATM   17  C9  UNL     1       2.404  -3.125  19.323  1.00  0.00     0.023 C 
HETATM   18  C10 UNL     1       3.341  -2.345  20.236  1.00  0.00     0.037 C 
HETATM   19  C11 UNL     1       1.433  -3.843  20.233  1.00  0.00     0.037 C 
HETATM   20  C12 UNL     1       1.674  -2.108  18.484  1.00  0.00     0.037 C 
ENDBRANCH  10  17
TORSDOF 4
ENDMDL
MODEL 4
REMARK VINA RESULT: -5.506532680      3.337      5.085
REMARK  4 active torsions:
REMARK  status: ('A' for Active; 'I' for Inactive)
REMARK    1  A    between atoms: C2_2  and  O1_3 
REMARK    2  A    between atoms: O1_3  and  C3_4 
REMARK    3  A    between atoms: C3_4  and  C4_6 
REMARK       I    between atoms: N1_12  and  C8_13 
REMARK       I    between atoms: C8_13  and  N2_15 
REMARK    4  A    between atoms: N2_15  and  C9_17 
ROOT
HETATM    1  C4  UNL     1      -0.180  -5.949  17.545  1.00  0.00     0.198 C 
HETATM    2  C5  UNL     1      -1.077  -5.692  18.737  1.00  0.00     0.111 C 
HETATM    3  S1  UNL     1      -0.177  -5.368  20.251  1.00  0.00    -0.149 SA
HETATM    4  C6  UNL     1       1.262  -4.344  19.847  1.00  0.00     0.138 C 
HETATM    5  S2  UNL     1       1.382  -2.884  20.888  1.00  0.00    -0.079 SA
HETATM    6  C7  UNL     1       1.131  -3.966  18.375  1.00  0.00     0.155 C 
HETATM    7  N1  UNL     1       1.060  -5.197  17.644  1.00  0.00    -0.318 N 
HETATM    8  C8  UNL     1       2.204  -5.718  16.996  1.00  0.00     0.319 C 
HETATM    9  O3  UNL     1       2.123  -6.802  16.347  1.00  0.00    -0.247 OA
HETATM   10  N2  UNL     1       3.483  -5.103  17.013  1.00  0.00    -0.335 N 
ATOM     11  H2  UNL     1       3.590  -4.228  17.526  1.00  0.00     0.165 HD
ENDROOT
BRANCH   1  12
HETATM   12  C3  UNL     1      -0.948  -5.562  16.333  1.00  0.00     0.282 C 
HETATM   13  O2  UNL     1      -1.743  -4.593  16.434  1.00  0.00    -0.263 OA
BRANCH  12  14
HETATM   14  O1  UNL     1      -0.836  -6.197  15.127  1.00  0.00    -0.320 OA
BRANCH  14  15
HETATM   15  C2  UNL     1      -1.403  -7.436  14.801  1.00  0.00     0.174 C 
HETATM   16  C1  UNL     1      -2.849  -7.327  14.392  1.00  0.00     0.034 C 
ENDBRANCH  14  15
ENDBRANCH  12  14
ENDBRANCH   1  12
BRANCH  10  17
HETATM   17  C9  UNL     1       4.635  -5.645  16.347  1.00  0.00     0.023 C 
HETATM   18  C10 UNL     1       5.886  -4.861  16.724  1.00  0.00     0.037 C 
HETATM   19  C11 UNL     1       4.494  -5.515  14.848  1.00  0.00     0.037 C 
HETATM   20  C12 UNL     1       4.898  -7.081  16.721  1.00  0.00     0.037 C 
ENDBRANCH  10  17
TORSDOF 4
ENDMDL
MODEL 5
REMARK VINA RESULT: -5.489220975      2.898      4.295
REMARK  4 active torsions:
REMARK  status: ('A' for Active; 'I' for Inactive)
REMARK    1  A    between atoms: C2_2  and  O1_3 
REMARK    2  A    between atoms: O1_3  and  C3_4 
REMARK    3  A    between atoms: C3_4  and  C4_6 
REMARK       I    between atoms: N1_12  and  C8_13 
REMARK       I    between atoms: C8_13  and  N2_15 
REMARK    4  A    between atoms: N2_15  and  C9_17 
ROOT
HETATM    1  C4  UNL     1       2.921  -7.590  16.369  1.00  0.00     0.198 C 
HETATM    2  C5  UNL     1       2.142  -8.728  15.743  1.00  0.00     0.111 C 
HETATM    3  S1  UNL     1       0.401  -8.717  16.162  1.00  0.00    -0.149 SA
HETATM    4  C6  UNL     1      -0.172  -6.998  16.162  1.00  0.00     0.138 C 
HETATM    5  S2  UNL     1      -1.649  -6.764  15.166  1.00  0.00    -0.079 SA
HETATM    6  C7  UNL     1       0.986  -6.151  15.645  1.00  0.00     0.155 C 
HETATM    7  N1  UNL     1       2.096  -6.403  16.515  1.00  0.00    -0.318 N 
HETATM    8  C8  UNL     1       2.420  -5.495  17.551  1.00  0.00     0.319 C 
HETATM    9  O3  UNL     1       3.408  -5.726  18.307  1.00  0.00    -0.247 OA
HETATM   10  N2  UNL     1       1.702  -4.301  17.822  1.00  0.00    -0.335 N 
ATOM     11  H2  UNL     1       0.898  -4.078  17.236  1.00  0.00     0.165 HD
ENDROOT
BRANCH   1  12
HETATM   12  C3  UNL     1       4.089  -7.328  15.490  1.00  0.00     0.282 C 
HETATM   13  O2  UNL     1       3.880  -7.256  14.252  1.00  0.00    -0.263 OA
BRANCH  12  14
HETATM   14  O1  UNL     1       5.366  -7.163  15.950  1.00  0.00    -0.320 OA
BRANCH  14  15
HETATM   15  C2  UNL     1       6.247  -6.144  15.568  1.00  0.00     0.174 C 
HETATM   16  C1  UNL     1       5.734  -4.770  15.910  1.00  0.00     0.034 C 
ENDBRANCH  14  15
ENDBRANCH  12  14
ENDBRANCH   1  12
BRANCH  10  17
HETATM   17  C9  UNL     1       2.046  -3.389  18.878  1.00  0.00     0.023 C 
HETATM   18  C10 UNL     1       1.377  -3.806  20.181  1.00  0.00     0.037 C 
HETATM   19  C11 UNL     1       1.534  -2.000  18.570  1.00  0.00     0.037 C 
HETATM   20  C12 UNL     1       3.528  -3.348  19.149  1.00  0.00     0.037 C 
ENDBRANCH  10  17
TORSDOF 4
ENDMDL
