MODEL 1
REMARK VINA RESULT: -8.851420870      0.000      0.000
REMARK  8 active torsions:
REMARK  status: ('A' for Active; 'I' for Inactive)
REMARK    1  A    between atoms: N1_2  and  C3_4 
REMARK    2  A    between atoms: C10_11  and  C11_12 
REMARK    3  A    between atoms: C11_12  and  C12_13 
REMARK    4  A    between atoms: C12_13  and  C13_14 
REMARK    5  A    between atoms: C12_13  and  C14_17 
REMARK    6  A    between atoms: C13_14  and  O1_15 
REMARK    7  A    between atoms: C14_17  and  C15_18 
REMARK       I    between atoms: C15_18  and  N2_20 
REMARK    8  A    between atoms: C18_23  and  C19_24 
ROOT
HETATM    1  C12 UNL     1       3.433  -4.802  18.288  1.00  0.00     0.018 C 
ENDROOT
BRANCH   1   2
HETATM    2  C11 UNL     1       3.683  -6.107  17.650  1.00  0.00     0.012 C 
BRANCH   2   3
HETATM    3  C10 UNL     1       3.543  -6.116  16.148  1.00  0.00    -0.010 C 
HETATM    4  C9  UNL     1       4.854  -6.083  15.439  1.00  0.00     0.005 C 
HETATM    5  C8  UNL     1       4.710  -6.204  13.962  1.00  0.00     0.001 C 
HETATM    6  C7  UNL     1       3.385  -6.747  13.500  1.00  0.00     0.005 C 
HETATM    7  C6  UNL     1       3.002  -7.861  14.416  1.00  0.00    -0.010 C 
HETATM    8  C5  UNL     1       1.880  -8.689  13.884  1.00  0.00     0.007 C 
HETATM    9  C22 UNL     1       2.664  -7.296  15.766  1.00  0.00    -0.004 C 
HETATM   10  C4  UNL     1       0.710  -7.797  13.636  1.00  0.00     0.025 C 
HETATM   11  C3  UNL     1       0.400  -6.835  14.738  1.00  0.00     0.078 C 
HETATM   12  C23 UNL     1       1.217  -7.008  15.980  1.00  0.00     0.030 C 
BRANCH  11  13
HETATM   13  N1  UNL     1      -1.002  -6.977  15.055  1.00  0.00    -0.417 N 
HETATM   14  C1  UNL     1      -1.529  -8.291  14.929  1.00  0.00     0.143 C 
HETATM   15  C2  UNL     1      -1.458  -6.212  16.167  1.00  0.00     0.143 C 
ENDBRANCH  11  13
ENDBRANCH   2   3
ENDBRANCH   1   2
BRANCH   1  16
HETATM   16  C13 UNL     1       2.171  -4.830  19.172  1.00  0.00     0.169 C 
BRANCH  16  17
HETATM   17  O1  UNL     1       1.965  -3.588  19.756  1.00  0.00    -0.400 OA
ATOM     18  H1  UNL     1       1.696  -3.690  20.661  1.00  0.00     0.209 HD
ENDBRANCH  16  17
ENDBRANCH   1  16
BRANCH   1  19
HETATM   19  C14 UNL     1       4.555  -4.411  19.198  1.00  0.00     0.109 C 
BRANCH  19  20
HETATM   20  C15 UNL     1       5.458  -3.368  18.715  1.00  0.00     0.220 C 
HETATM   21  O2  UNL     1       5.185  -2.152  18.830  1.00  0.00    -0.273 OA
HETATM   22  N2  UNL     1       6.711  -3.687  18.082  1.00  0.00    -0.352 N 
HETATM   23  C16 UNL     1       7.567  -2.622  17.622  1.00  0.00     0.126 C 
HETATM   24  C21 UNL     1       7.161  -5.046  17.882  1.00  0.00     0.126 C 
HETATM   25  C17 UNL     1       8.888  -3.186  17.137  1.00  0.00     0.033 C 
HETATM   26  C18 UNL     1       8.550  -4.125  15.987  1.00  0.00     0.078 C 
HETATM   27  C20 UNL     1       7.803  -5.293  16.559  1.00  0.00     0.033 C 
BRANCH  26  28
HETATM   28  C19 UNL     1       9.776  -4.562  15.285  1.00  0.00     0.235 C 
HETATM   29  N3  UNL     1      10.694  -3.561  14.869  1.00  0.00    -0.062 NA
HETATM   30  O3  UNL     1      10.066  -5.758  15.030  1.00  0.00    -0.277 OA
ENDBRANCH  26  28
ENDBRANCH  19  20
ENDBRANCH   1  19
TORSDOF 8
ENDMDL
MODEL 2
REMARK VINA RESULT: -8.657936321      2.217      7.537
REMARK  8 active torsions:
REMARK  status: ('A' for Active; 'I' for Inactive)
REMARK    1  A    between atoms: N1_2  and  C3_4 
REMARK    2  A    between atoms: C10_11  and  C11_12 
REMARK    3  A    between atoms: C11_12  and  C12_13 
REMARK    4  A    between atoms: C12_13  and  C13_14 
REMARK    5  A    between atoms: C12_13  and  C14_17 
REMARK    6  A    between atoms: C13_14  and  O1_15 
REMARK    7  A    between atoms: C14_17  and  C15_18 
REMARK       I    between atoms: C15_18  and  N2_20 
REMARK    8  A    between atoms: C18_23  and  C19_24 
ROOT
HETATM    1  C12 UNL     1       3.521  -4.885  18.657  1.00  0.00     0.018 C 
ENDROOT
BRANCH   1   2
HETATM    2  C11 UNL     1       4.112  -4.729  17.315  1.00  0.00     0.012 C 
BRANCH   2   3
HETATM    3  C10 UNL     1       4.657  -5.999  16.711  1.00  0.00    -0.010 C 
HETATM    4  C9  UNL     1       3.592  -6.975  16.343  1.00  0.00     0.005 C 
HETATM    5  C8  UNL     1       4.129  -8.176  15.646  1.00  0.00     0.001 C 
HETATM    6  C7  UNL     1       5.512  -8.008  15.078  1.00  0.00     0.005 C 
HETATM    7  C6  UNL     1       5.594  -6.649  14.466  1.00  0.00    -0.010 C 
HETATM    8  C5  UNL     1       6.791  -6.478  13.592  1.00  0.00     0.007 C 
HETATM    9  C22 UNL     1       5.568  -5.615  15.556  1.00  0.00    -0.004 C 
HETATM   10  C4  UNL     1       8.013  -6.755  14.402  1.00  0.00     0.025 C 
HETATM   11  C3  UNL     1       8.041  -6.110  15.751  1.00  0.00     0.078 C 
HETATM   12  C23 UNL     1       6.910  -5.169  16.027  1.00  0.00     0.030 C 
BRANCH  11  13
HETATM   13  N1  UNL     1       9.297  -5.407  15.869  1.00  0.00    -0.417 N 
HETATM   14  C1  UNL     1      10.423  -6.062  15.299  1.00  0.00     0.143 C 
HETATM   15  C2  UNL     1       9.228  -3.995  15.695  1.00  0.00     0.143 C 
ENDBRANCH  11  13
ENDBRANCH   2   3
ENDBRANCH   1   2
BRANCH   1  16
HETATM   16  C13 UNL     1       4.424  -4.287  19.753  1.00  0.00     0.169 C 
BRANCH  16  17
HETATM   17  O1  UNL     1       4.916  -3.053  19.350  1.00  0.00    -0.400 OA
ATOM     18  H1  UNL     1       4.204  -2.432  19.251  1.00  0.00     0.209 HD
ENDBRANCH  16  17
ENDBRANCH   1  16
BRANCH   1  19
HETATM   19  C14 UNL     1       2.215  -4.162  18.769  1.00  0.00     0.109 C 
BRANCH  19  20
HETATM   20  C15 UNL     1       1.053  -4.960  19.155  1.00  0.00     0.220 C 
HETATM   21  O2  UNL     1       0.825  -5.260  20.348  1.00  0.00    -0.273 OA
HETATM   22  N2  UNL     1       0.111  -5.445  18.180  1.00  0.00    -0.352 N 
HETATM   23  C16 UNL     1      -1.018  -6.229  18.611  1.00  0.00     0.126 C 
HETATM   24  C21 UNL     1       0.244  -5.176  16.766  1.00  0.00     0.126 C 
HETATM   25  C17 UNL     1      -1.949  -6.491  17.443  1.00  0.00     0.033 C 
HETATM   26  C18 UNL     1      -1.131  -7.264  16.416  1.00  0.00     0.078 C 
HETATM   27  C20 UNL     1      -0.076  -6.338  15.887  1.00  0.00     0.033 C 
BRANCH  26  28
HETATM   28  C19 UNL     1      -1.995  -7.772  15.329  1.00  0.00     0.235 C 
HETATM   29  N3  UNL     1      -1.678  -7.389  13.998  1.00  0.00    -0.062 NA
HETATM   30  O3  UNL     1      -2.991  -8.519  15.497  1.00  0.00    -0.277 OA
ENDBRANCH  26  28
ENDBRANCH  19  20
ENDBRANCH   1  19
TORSDOF 8
ENDMDL
MODEL 3
REMARK VINA RESULT: -8.611829420      2.905      4.991
REMARK  8 active torsions:
REMARK  status: ('A' for Active; 'I' for Inactive)
REMARK    1  A    between atoms: N1_2  and  C3_4 
REMARK    2  A    between atoms: C10_11  and  C11_12 
REMARK    3  A    between atoms: C11_12  and  C12_13 
REMARK    4  A    between atoms: C12_13  and  C13_14 
REMARK    5  A    between atoms: C12_13  and  C14_17 
REMARK    6  A    between atoms: C13_14  and  O1_15 
REMARK    7  A    between atoms: C14_17  and  C15_18 
REMARK       I    between atoms: C15_18  and  N2_20 
REMARK    8  A    between atoms: C18_23  and  C19_24 
ROOT
HETATM    1  C12 UNL     1       2.635  -7.661  14.435  1.00  0.00     0.018 C 
ENDROOT
BRANCH   1   2
HETATM    2  C11 UNL     1       2.150  -6.433  15.091  1.00  0.00     0.012 C 
BRANCH   2   3
HETATM    3  C10 UNL     1       2.627  -6.242  16.510  1.00  0.00    -0.010 C 
HETATM    4  C9  UNL     1       4.080  -5.925  16.599  1.00  0.00     0.005 C 
HETATM    5  C8  UNL     1       4.518  -5.628  17.991  1.00  0.00     0.001 C 
HETATM    6  C7  UNL     1       3.404  -5.290  18.943  1.00  0.00     0.005 C 
HETATM    7  C6  UNL     1       2.438  -4.408  18.224  1.00  0.00    -0.010 C 
HETATM    8  C5  UNL     1       1.466  -3.744  19.141  1.00  0.00     0.007 C 
HETATM    9  C22 UNL     1       1.728  -5.210  17.172  1.00  0.00    -0.004 C 
HETATM   10  C4  UNL     1       0.736  -4.799  19.902  1.00  0.00     0.025 C 
HETATM   11  C3  UNL     1       0.242  -5.948  19.081  1.00  0.00     0.078 C 
HETATM   12  C23 UNL     1       0.427  -5.796  17.603  1.00  0.00     0.030 C 
BRANCH  11  13
HETATM   13  N1  UNL     1      -1.160  -6.122  19.379  1.00  0.00    -0.417 N 
HETATM   14  C1  UNL     1      -1.651  -5.371  20.482  1.00  0.00     0.143 C 
HETATM   15  C2  UNL     1      -2.019  -6.225  18.247  1.00  0.00     0.143 C 
ENDBRANCH  11  13
ENDBRANCH   2   3
ENDBRANCH   1   2
BRANCH   1  16
HETATM   16  C13 UNL     1       1.519  -8.360  13.634  1.00  0.00     0.169 C 
BRANCH  16  17
HETATM   17  O1  UNL     1       0.727  -7.419  12.991  1.00  0.00    -0.400 OA
ATOM     18  H1  UNL     1       1.223  -6.980  12.312  1.00  0.00     0.209 HD
ENDBRANCH  16  17
ENDBRANCH   1  16
BRANCH   1  19
HETATM   19  C14 UNL     1       3.717  -7.363  13.445  1.00  0.00     0.109 C 
BRANCH  19  20
HETATM   20  C15 UNL     1       4.961  -8.118  13.585  1.00  0.00     0.220 C 
HETATM   21  O2  UNL     1       4.977  -9.370  13.584  1.00  0.00    -0.273 OA
HETATM   22  N2  UNL     1       6.232  -7.460  13.733  1.00  0.00    -0.352 N 
HETATM   23  C16 UNL     1       7.431  -8.249  13.869  1.00  0.00     0.126 C 
HETATM   24  C21 UNL     1       6.369  -6.021  13.750  1.00  0.00     0.126 C 
HETATM   25  C17 UNL     1       8.653  -7.352  13.852  1.00  0.00     0.033 C 
HETATM   26  C18 UNL     1       8.503  -6.411  15.040  1.00  0.00     0.078 C 
HETATM   27  C20 UNL     1       7.339  -5.507  14.759  1.00  0.00     0.033 C 
BRANCH  26  28
HETATM   28  C19 UNL     1       9.744  -5.637  15.259  1.00  0.00     0.235 C 
HETATM   29  N3  UNL     1       9.666  -4.221  15.169  1.00  0.00    -0.062 NA
HETATM   30  O3  UNL     1      10.865  -6.142  15.519  1.00  0.00    -0.277 OA
ENDBRANCH  26  28
ENDBRANCH  19  20
ENDBRANCH   1  19
TORSDOF 8
ENDMDL
MODEL 4
REMARK VINA RESULT: -8.560092801      2.894      8.157
REMARK  8 active torsions:
REMARK  status: ('A' for Active; 'I' for Inactive)
REMARK    1  A    between atoms: N1_2  and  C3_4 
REMARK    2  A    between atoms: C10_11  and  C11_12 
REMARK    3  A    between atoms: C11_12  and  C12_13 
REMARK    4  A    between atoms: C12_13  and  C13_14 
REMARK    5  A    between atoms: C12_13  and  C14_17 
REMARK    6  A    between atoms: C13_14  and  O1_15 
REMARK    7  A    between atoms: C14_17  and  C15_18 
REMARK       I    between atoms: C15_18  and  N2_20 
REMARK    8  A    between atoms: C18_23  and  C19_24 
ROOT
HETATM    1  C12 UNL     1       5.867  -8.153  13.406  1.00  0.00     0.018 C 
ENDROOT
BRANCH   1   2
HETATM    2  C11 UNL     1       6.970  -7.212  13.143  1.00  0.00     0.012 C 
BRANCH   2   3
HETATM    3  C10 UNL     1       7.931  -7.023  14.290  1.00  0.00    -0.010 C 
HETATM    4  C9  UNL     1       9.330  -7.406  13.949  1.00  0.00     0.005 C 
HETATM    5  C8  UNL     1      10.290  -7.112  15.050  1.00  0.00     0.001 C 
HETATM    6  C7  UNL     1       9.787  -6.138  16.081  1.00  0.00     0.005 C 
HETATM    7  C6  UNL     1       9.061  -5.047  15.366  1.00  0.00    -0.010 C 
HETATM    8  C5  UNL     1       8.796  -3.863  16.233  1.00  0.00     0.007 C 
HETATM    9  C22 UNL     1       7.785  -5.596  14.794  1.00  0.00    -0.004 C 
HETATM   10  C4  UNL     1       8.014  -4.312  17.422  1.00  0.00     0.025 C 
HETATM   11  C3  UNL     1       6.866  -5.222  17.121  1.00  0.00     0.078 C 
HETATM   12  C23 UNL     1       6.587  -5.429  15.665  1.00  0.00     0.030 C 
BRANCH  11  13
HETATM   13  N1  UNL     1       5.697  -4.673  17.766  1.00  0.00    -0.417 N 
HETATM   14  C1  UNL     1       4.731  -5.623  18.198  1.00  0.00     0.143 C 
HETATM   15  C2  UNL     1       5.937  -3.570  18.634  1.00  0.00     0.143 C 
ENDBRANCH  11  13
ENDBRANCH   2   3
ENDBRANCH   1   2
BRANCH   1  16
HETATM   16  C13 UNL     1       6.133  -9.011  14.659  1.00  0.00     0.169 C 
BRANCH  16  17
HETATM   17  O1  UNL     1       5.124  -8.822  15.593  1.00  0.00    -0.400 OA
ATOM     18  H1  UNL     1       5.259  -9.392  16.342  1.00  0.00     0.209 HD
ENDBRANCH  16  17
ENDBRANCH   1  16
BRANCH   1  19
HETATM   19  C14 UNL     1       4.582  -7.433  13.675  1.00  0.00     0.109 C 
BRANCH  19  20
HETATM   20  C15 UNL     1       3.372  -8.010  13.094  1.00  0.00     0.220 C 
HETATM   21  O2  UNL     1       3.367  -8.523  11.953  1.00  0.00    -0.273 OA
HETATM   22  N2  UNL     1       2.121  -8.016  13.806  1.00  0.00    -0.352 N 
HETATM   23  C16 UNL     1       0.955  -8.597  13.189  1.00  0.00     0.126 C 
HETATM   24  C21 UNL     1       1.975  -7.462  15.132  1.00  0.00     0.126 C 
HETATM   25  C17 UNL     1      -0.196  -8.633  14.176  1.00  0.00     0.033 C 
HETATM   26  C18 UNL     1      -0.468  -7.185  14.561  1.00  0.00     0.078 C 
HETATM   27  C20 UNL     1       0.714  -6.693  15.342  1.00  0.00     0.033 C 
BRANCH  26  28
HETATM   28  C19 UNL     1      -1.716  -7.073  15.346  1.00  0.00     0.235 C 
HETATM   29  N3  UNL     1      -1.993  -5.831  15.977  1.00  0.00    -0.062 NA
HETATM   30  O3  UNL     1      -2.550  -8.000  15.498  1.00  0.00    -0.277 OA
ENDBRANCH  26  28
ENDBRANCH  19  20
ENDBRANCH   1  19
TORSDOF 8
ENDMDL
MODEL 5
REMARK VINA RESULT: -8.529144152      1.522      3.139
REMARK  8 active torsions:
REMARK  status: ('A' for Active; 'I' for Inactive)
REMARK    1  A    between atoms: N1_2  and  C3_4 
REMARK    2  A    between atoms: C10_11  and  C11_12 
REMARK    3  A    between atoms: C11_12  and  C12_13 
REMARK    4  A    between atoms: C12_13  and  C13_14 
REMARK    5  A    between atoms: C12_13  and  C14_17 
REMARK    6  A    between atoms: C13_14  and  O1_15 
REMARK    7  A    between atoms: C14_17  and  C15_18 
REMARK       I    between atoms: C15_18  and  N2_20 
REMARK    8  A    between atoms: C18_23  and  C19_24 
ROOT
HETATM    1  C12 UNL     1       2.007  -4.270  18.668  1.00  0.00     0.018 C 
ENDROOT
BRANCH   1   2
HETATM    2  C11 UNL     1       1.208  -4.341  17.431  1.00  0.00     0.012 C 
BRANCH   2   3
HETATM    3  C10 UNL     1       0.692  -5.716  17.087  1.00  0.00    -0.010 C 
HETATM    4  C9  UNL     1      -0.728  -5.923  17.486  1.00  0.00     0.005 C 
HETATM    5  C8  UNL     1      -1.262  -7.241  17.044  1.00  0.00     0.001 C 
HETATM    6  C7  UNL     1      -0.464  -7.912  15.958  1.00  0.00     0.005 C 
HETATM    7  C6  UNL     1      -0.057  -6.865  14.976  1.00  0.00    -0.010 C 
HETATM    8  C5  UNL     1       0.456  -7.439  13.697  1.00  0.00     0.007 C 
HETATM    9  C22 UNL     1       0.962  -5.962  15.611  1.00  0.00    -0.004 C 
HETATM   10  C4  UNL     1       1.609  -8.333  14.009  1.00  0.00     0.025 C 
HETATM   11  C3  UNL     1       2.609  -7.770  14.967  1.00  0.00     0.078 C 
HETATM   12  C23 UNL     1       2.380  -6.343  15.357  1.00  0.00     0.030 C 
BRANCH  11  13
HETATM   13  N1  UNL     1       3.913  -7.905  14.361  1.00  0.00    -0.417 N 
HETATM   14  C1  UNL     1       4.321  -6.822  13.536  1.00  0.00     0.143 C 
HETATM   15  C2  UNL     1       4.916  -8.487  15.189  1.00  0.00     0.143 C 
ENDBRANCH  11  13
ENDBRANCH   2   3
ENDBRANCH   1   2
BRANCH   1  16
HETATM   16  C13 UNL     1       1.294  -4.956  19.849  1.00  0.00     0.169 C 
BRANCH  16  17
HETATM   17  O1  UNL     1       0.345  -4.105  20.398  1.00  0.00    -0.400 OA
ATOM     18  H1  UNL     1      -0.238  -4.588  20.971  1.00  0.00     0.209 HD
ENDBRANCH  16  17
ENDBRANCH   1  16
BRANCH   1  19
HETATM   19  C14 UNL     1       3.316  -4.980  18.518  1.00  0.00     0.109 C 
BRANCH  19  20
HETATM   20  C15 UNL     1       4.523  -4.187  18.741  1.00  0.00     0.220 C 
HETATM   21  O2  UNL     1       4.528  -3.193  19.502  1.00  0.00    -0.273 OA
HETATM   22  N2  UNL     1       5.769  -4.508  18.096  1.00  0.00    -0.352 N 
HETATM   23  C16 UNL     1       6.931  -3.694  18.349  1.00  0.00     0.126 C 
HETATM   24  C21 UNL     1       5.915  -5.627  17.194  1.00  0.00     0.126 C 
HETATM   25  C17 UNL     1       8.153  -4.309  17.694  1.00  0.00     0.033 C 
HETATM   26  C18 UNL     1       7.854  -4.353  16.201  1.00  0.00     0.078 C 
HETATM   27  C20 UNL     1       6.746  -5.342  15.989  1.00  0.00     0.033 C 
BRANCH  26  28
HETATM   28  C19 UNL     1       9.061  -4.725  15.432  1.00  0.00     0.235 C 
HETATM   29  N3  UNL     1       9.964  -3.688  15.074  1.00  0.00    -0.062 NA
HETATM   30  O3  UNL     1       9.347  -5.894  15.072  1.00  0.00    -0.277 OA
ENDBRANCH  26  28
ENDBRANCH  19  20
ENDBRANCH   1  19
TORSDOF 8
ENDMDL
