MODEL 1
REMARK VINA RESULT: -7.791280401      0.000      0.000
REMARK  8 active torsions:
REMARK  status: ('A' for Active; 'I' for Inactive)
REMARK    1  A    between atoms: C2_2  and  N1_3 
REMARK    2  A    between atoms: N1_3  and  C3_4 
REMARK    3  A    between atoms: N1_3  and  C18_25 
REMARK    4  A    between atoms: C3_4  and  C4_5 
REMARK    5  A    between atoms: C7_8  and  N2_9 
REMARK    6  A    between atoms: N2_9  and  C8_11 
REMARK    7  A    between atoms: C8_11  and  N3_13 
REMARK    8  A    between atoms: N3_13  and  C9_15 
ROOT
HETATM    1  C18 UNL     1       8.662  -4.593  16.686  1.00  0.00     0.225 C 
HETATM    2  C19 UNL     1       8.225  -4.694  18.126  1.00  0.00     0.055 C 
HETATM    3  C20 UNL     1       6.794  -4.556  17.578  1.00  0.00     0.097 C 
HETATM    4  C21 UNL     1       5.902  -3.847  18.456  1.00  0.00     0.064 C 
HETATM    5  N5  UNL     1       5.183  -3.293  19.143  1.00  0.00    -0.197 NA
HETATM    6  C22 UNL     1       7.450  -3.658  16.517  1.00  0.00     0.055 C 
ENDROOT
BRANCH   1   7
HETATM    7  N1  UNL     1       8.543  -5.820  15.968  1.00  0.00     0.093 N 
BRANCH   7   8
HETATM    8  C2  UNL     1       9.759  -6.562  16.015  1.00  0.00     0.268 C 
HETATM    9  C1  UNL     1      10.710  -6.259  14.883  1.00  0.00     0.037 C 
ENDBRANCH   7   8
BRANCH   7  10
HETATM   10  C3  UNL     1       8.105  -5.543  14.611  1.00  0.00     0.277 C 
BRANCH  10  11
HETATM   11  C4  UNL     1       7.120  -6.560  14.109  1.00  0.00     0.014 C 
HETATM   12  C5  UNL     1       6.199  -5.890  13.124  1.00  0.00     0.008 C 
HETATM   13  C6  UNL     1       4.954  -5.328  13.723  1.00  0.00     0.025 C 
HETATM   14  C7  UNL     1       4.141  -6.275  14.539  1.00  0.00     0.083 C 
HETATM   15  C16 UNL     1       4.941  -7.517  14.849  1.00  0.00     0.025 C 
HETATM   16  C17 UNL     1       6.311  -7.096  15.288  1.00  0.00     0.008 C 
BRANCH  14  17
HETATM   17  N2  UNL     1       2.879  -6.646  13.911  1.00  0.00    -0.363 N 
ATOM     18  H2  UNL     1       2.667  -6.267  12.988  1.00  0.00     0.162 HD
BRANCH  17  19
HETATM   19  C8  UNL     1       1.928  -7.510  14.519  1.00  0.00     0.168 C 
HETATM   20  S1  UNL     1       1.053  -8.583  13.615  1.00  0.00    -0.041 SA
BRANCH  19  21
HETATM   21  N3  UNL     1       1.711  -7.461  15.916  1.00  0.00    -0.361 N 
ATOM     22  H3  UNL     1       2.150  -8.182  16.488  1.00  0.00     0.162 HD
BRANCH  21  23
HETATM   23  C9  UNL     1       0.919  -6.473  16.587  1.00  0.00     0.116 C 
HETATM   24  C10 UNL     1      -0.277  -5.997  15.788  1.00  0.00     0.297 C 
HETATM   25  N4  UNL     1      -1.529  -6.451  16.415  1.00  0.00     0.090 N 
HETATM   26  C11 UNL     1      -1.704  -5.724  17.682  1.00  0.00     0.273 C 
HETATM   27  C15 UNL     1      -1.356  -7.876  16.684  1.00  0.00     0.273 C 
HETATM   28  C12 UNL     1      -0.396  -5.691  18.470  1.00  0.00     0.037 C 
HETATM   29  C13 UNL     1       0.454  -6.859  17.952  1.00  0.00     0.013 C 
HETATM   30  C14 UNL     1      -0.483  -8.050  17.923  1.00  0.00     0.037 C 
ENDBRANCH  21  23
ENDBRANCH  19  21
ENDBRANCH  17  19
ENDBRANCH  14  17
ENDBRANCH  10  11
ENDBRANCH   7  10
ENDBRANCH   1   7
TORSDOF 8
ENDMDL
MODEL 2
REMARK VINA RESULT: -7.501063592      2.638      6.863
REMARK  8 active torsions:
REMARK  status: ('A' for Active; 'I' for Inactive)
REMARK    1  A    between atoms: C2_2  and  N1_3 
REMARK    2  A    between atoms: N1_3  and  C3_4 
REMARK    3  A    between atoms: N1_3  and  C18_25 
REMARK    4  A    between atoms: C3_4  and  C4_5 
REMARK    5  A    between atoms: C7_8  and  N2_9 
REMARK    6  A    between atoms: N2_9  and  C8_11 
REMARK    7  A    between atoms: C8_11  and  N3_13 
REMARK    8  A    between atoms: N3_13  and  C9_15 
ROOT
HETATM    1  C18 UNL     1       2.584  -7.426  16.077  1.00  0.00     0.225 C 
HETATM    2  C19 UNL     1       1.766  -6.630  17.063  1.00  0.00     0.055 C 
HETATM    3  C20 UNL     1       2.907  -5.600  16.999  1.00  0.00     0.097 C 
HETATM    4  C21 UNL     1       3.139  -4.912  18.241  1.00  0.00     0.064 C 
HETATM    5  N5  UNL     1       3.330  -4.355  19.215  1.00  0.00    -0.197 NA
HETATM    6  C22 UNL     1       3.805  -6.834  16.807  1.00  0.00     0.055 C 
ENDROOT
BRANCH   1   7
HETATM    7  N1  UNL     1       2.448  -6.976  14.731  1.00  0.00     0.093 N 
BRANCH   7   8
HETATM    8  C2  UNL     1       1.104  -6.590  14.452  1.00  0.00     0.268 C 
HETATM    9  C1  UNL     1       0.415  -7.454  13.425  1.00  0.00     0.037 C 
ENDBRANCH   7   8
BRANCH   7  10
HETATM   10  C3  UNL     1       2.936  -8.004  13.828  1.00  0.00     0.277 C 
BRANCH  10  11
HETATM   11  C4  UNL     1       4.104  -7.537  13.007  1.00  0.00     0.014 C 
HETATM   12  C5  UNL     1       5.203  -8.561  13.112  1.00  0.00     0.008 C 
HETATM   13  C6  UNL     1       6.179  -8.311  14.211  1.00  0.00     0.025 C 
HETATM   14  C7  UNL     1       6.809  -6.960  14.227  1.00  0.00     0.083 C 
HETATM   15  C16 UNL     1       6.063  -6.025  13.308  1.00  0.00     0.025 C 
HETATM   16  C17 UNL     1       4.594  -6.197  13.553  1.00  0.00     0.008 C 
BRANCH  14  17
HETATM   17  N2  UNL     1       8.224  -6.974  13.873  1.00  0.00    -0.363 N 
ATOM     18  H2  UNL     1       8.479  -7.182  12.908  1.00  0.00     0.162 HD
BRANCH  17  19
HETATM   19  C8  UNL     1       9.265  -6.713  14.805  1.00  0.00     0.168 C 
HETATM   20  S1  UNL     1      10.849  -6.698  14.328  1.00  0.00    -0.041 SA
BRANCH  19  21
HETATM   21  N3  UNL     1       8.961  -6.467  16.164  1.00  0.00    -0.361 N 
ATOM     22  H3  UNL     1       8.647  -7.256  16.728  1.00  0.00     0.162 HD
BRANCH  21  23
HETATM   23  C9  UNL     1       9.060  -5.190  16.807  1.00  0.00     0.116 C 
HETATM   24  C10 UNL     1       8.802  -4.016  15.885  1.00  0.00     0.297 C 
HETATM   25  N4  UNL     1       7.542  -3.345  16.247  1.00  0.00     0.090 N 
HETATM   26  C11 UNL     1       7.728  -2.675  17.543  1.00  0.00     0.273 C 
HETATM   27  C15 UNL     1       6.541  -4.401  16.376  1.00  0.00     0.273 C 
HETATM   28  C12 UNL     1       8.439  -3.599  18.531  1.00  0.00     0.037 C 
HETATM   29  C13 UNL     1       8.214  -5.031  18.026  1.00  0.00     0.013 C 
HETATM   30  C14 UNL     1       6.734  -5.113  17.711  1.00  0.00     0.037 C 
ENDBRANCH  21  23
ENDBRANCH  19  21
ENDBRANCH  17  19
ENDBRANCH  14  17
ENDBRANCH  10  11
ENDBRANCH   7  10
ENDBRANCH   1   7
TORSDOF 8
ENDMDL
MODEL 3
REMARK VINA RESULT: -7.371541317      2.203      3.784
REMARK  8 active torsions:
REMARK  status: ('A' for Active; 'I' for Inactive)
REMARK    1  A    between atoms: C2_2  and  N1_3 
REMARK    2  A    between atoms: N1_3  and  C3_4 
REMARK    3  A    between atoms: N1_3  and  C18_25 
REMARK    4  A    between atoms: C3_4  and  C4_5 
REMARK    5  A    between atoms: C7_8  and  N2_9 
REMARK    6  A    between atoms: N2_9  and  C8_11 
REMARK    7  A    between atoms: C8_11  and  N3_13 
REMARK    8  A    between atoms: N3_13  and  C9_15 
ROOT
HETATM    1  C18 UNL     1       7.476  -5.003  17.786  1.00  0.00     0.225 C 
HETATM    2  C19 UNL     1       8.167  -3.703  17.460  1.00  0.00     0.055 C 
HETATM    3  C20 UNL     1       8.354  -4.292  16.051  1.00  0.00     0.097 C 
HETATM    4  C21 UNL     1       9.576  -3.885  15.409  1.00  0.00     0.064 C 
HETATM    5  N5  UNL     1      10.535  -3.567  14.886  1.00  0.00    -0.197 NA
HETATM    6  C22 UNL     1       8.471  -5.633  16.793  1.00  0.00     0.055 C 
ENDROOT
BRANCH   1   7
HETATM    7  N1  UNL     1       6.120  -5.053  17.347  1.00  0.00     0.093 N 
BRANCH   7   8
HETATM    8  C2  UNL     1       5.224  -5.123  18.453  1.00  0.00     0.268 C 
HETATM    9  C1  UNL     1       4.788  -3.777  18.979  1.00  0.00     0.037 C 
ENDBRANCH   7   8
BRANCH   7  10
HETATM   10  C3  UNL     1       5.955  -6.157  16.418  1.00  0.00     0.277 C 
BRANCH  10  11
HETATM   11  C4  UNL     1       5.050  -5.810  15.271  1.00  0.00     0.014 C 
HETATM   12  C5  UNL     1       3.656  -6.272  15.604  1.00  0.00     0.008 C 
HETATM   13  C6  UNL     1       3.331  -7.649  15.135  1.00  0.00     0.025 C 
HETATM   14  C7  UNL     1       3.567  -7.916  13.687  1.00  0.00     0.083 C 
HETATM   15  C16 UNL     1       4.402  -6.813  13.083  1.00  0.00     0.025 C 
HETATM   16  C17 UNL     1       5.542  -6.523  14.013  1.00  0.00     0.008 C 
BRANCH  14  17
HETATM   17  N2  UNL     1       2.339  -8.081  12.918  1.00  0.00    -0.363 N 
ATOM     18  H2  UNL     1       2.061  -7.333  12.283  1.00  0.00     0.162 HD
BRANCH  17  19
HETATM   19  C8  UNL     1       1.510  -9.232  13.010  1.00  0.00     0.168 C 
HETATM   20  S1  UNL     1       1.676 -10.486  11.944  1.00  0.00    -0.041 SA
BRANCH  19  21
HETATM   21  N3  UNL     1       0.520  -9.320  14.016  1.00  0.00    -0.361 N 
ATOM     22  H3  UNL     1       0.831  -9.302  14.987  1.00  0.00     0.162 HD
BRANCH  21  23
HETATM   23  C9  UNL     1      -0.887  -9.432  13.773  1.00  0.00     0.116 C 
HETATM   24  C10 UNL     1      -1.598 -10.386  14.710  1.00  0.00     0.297 C 
HETATM   25  N4  UNL     1      -2.498  -9.647  15.611  1.00  0.00     0.090 N 
HETATM   26  C11 UNL     1      -3.617  -9.115  14.818  1.00  0.00     0.273 C 
HETATM   27  C15 UNL     1      -1.711  -8.544  16.157  1.00  0.00     0.273 C 
HETATM   28  C12 UNL     1      -3.107  -8.483  13.524  1.00  0.00     0.037 C 
HETATM   29  C13 UNL     1      -1.630  -8.137  13.760  1.00  0.00     0.013 C 
HETATM   30  C14 UNL     1      -1.595  -7.444  15.107  1.00  0.00     0.037 C 
ENDBRANCH  21  23
ENDBRANCH  19  21
ENDBRANCH  17  19
ENDBRANCH  14  17
ENDBRANCH  10  11
ENDBRANCH   7  10
ENDBRANCH   1   7
TORSDOF 8
ENDMDL
MODEL 4
REMARK VINA RESULT: -7.305793367      4.131      6.318
REMARK  8 active torsions:
REMARK  status: ('A' for Active; 'I' for Inactive)
REMARK    1  A    between atoms: C2_2  and  N1_3 
REMARK    2  A    between atoms: N1_3  and  C3_4 
REMARK    3  A    between atoms: N1_3  and  C18_25 
REMARK    4  A    between atoms: C3_4  and  C4_5 
REMARK    5  A    between atoms: C7_8  and  N2_9 
REMARK    6  A    between atoms: N2_9  and  C8_11 
REMARK    7  A    between atoms: C8_11  and  N3_13 
REMARK    8  A    between atoms: N3_13  and  C9_15 
ROOT
HETATM    1  C18 UNL     1       7.581  -5.329  17.468  1.00  0.00     0.225 C 
HETATM    2  C19 UNL     1       8.492  -4.127  17.478  1.00  0.00     0.055 C 
HETATM    3  C20 UNL     1       8.501  -4.268  15.946  1.00  0.00     0.097 C 
HETATM    4  C21 UNL     1       9.748  -3.892  15.336  1.00  0.00     0.064 C 
HETATM    5  N5  UNL     1      10.726  -3.592  14.837  1.00  0.00    -0.197 NA
HETATM    6  C22 UNL     1       8.392  -5.774  16.236  1.00  0.00     0.055 C 
ENDROOT
BRANCH   1   7
HETATM    7  N1  UNL     1       6.222  -5.009  17.173  1.00  0.00     0.093 N 
BRANCH   7   8
HETATM    8  C2  UNL     1       5.573  -4.435  18.305  1.00  0.00     0.268 C 
HETATM    9  C1  UNL     1       4.297  -5.136  18.704  1.00  0.00     0.037 C 
ENDBRANCH   7   8
BRANCH   7  10
HETATM   10  C3  UNL     1       5.545  -6.195  16.678  1.00  0.00     0.277 C 
BRANCH  10  11
HETATM   11  C4  UNL     1       4.612  -5.889  15.542  1.00  0.00     0.014 C 
HETATM   12  C5  UNL     1       3.768  -7.106  15.273  1.00  0.00     0.008 C 
HETATM   13  C6  UNL     1       4.328  -8.034  14.250  1.00  0.00     0.025 C 
HETATM   14  C7  UNL     1       4.677  -7.420  12.936  1.00  0.00     0.083 C 
HETATM   15  C16 UNL     1       4.690  -5.916  13.051  1.00  0.00     0.025 C 
HETATM   16  C17 UNL     1       5.432  -5.545  14.300  1.00  0.00     0.008 C 
BRANCH  14  17
HETATM   17  N2  UNL     1       3.790  -7.824  11.852  1.00  0.00    -0.363 N 
ATOM     18  H2  UNL     1       3.758  -7.247  11.011  1.00  0.00     0.162 HD
BRANCH  17  19
HETATM   19  C8  UNL     1       2.966  -8.981  11.908  1.00  0.00     0.168 C 
HETATM   20  S1  UNL     1       1.582  -8.997  12.814  1.00  0.00    -0.041 SA
BRANCH  19  21
HETATM   21  N3  UNL     1       3.323 -10.146  11.190  1.00  0.00    -0.361 N 
ATOM     22  H3  UNL     1       3.975 -10.793  11.635  1.00  0.00     0.162 HD
BRANCH  21  23
HETATM   23  C9  UNL     1       2.837 -10.486   9.886  1.00  0.00     0.116 C 
HETATM   24  C10 UNL     1       3.869 -11.156   9.002  1.00  0.00     0.297 C 
HETATM   25  N4  UNL     1       3.507 -12.563   8.764  1.00  0.00     0.090 N 
HETATM   26  C11 UNL     1       2.310 -12.597   7.909  1.00  0.00     0.273 C 
HETATM   27  C15 UNL     1       3.194 -13.130  10.073  1.00  0.00     0.273 C 
HETATM   28  C12 UNL     1       1.271 -11.589   8.396  1.00  0.00     0.037 C 
HETATM   29  C13 UNL     1       1.593 -11.310   9.871  1.00  0.00     0.013 C 
HETATM   30  C14 UNL     1       1.801 -12.674  10.497  1.00  0.00     0.037 C 
ENDBRANCH  21  23
ENDBRANCH  19  21
ENDBRANCH  17  19
ENDBRANCH  14  17
ENDBRANCH  10  11
ENDBRANCH   7  10
ENDBRANCH   1   7
TORSDOF 8
ENDMDL
MODEL 5
REMARK VINA RESULT: -7.299244367      1.614      3.061
REMARK  8 active torsions:
REMARK  status: ('A' for Active; 'I' for Inactive)
REMARK    1  A    between atoms: C2_2  and  N1_3 
REMARK    2  A    between atoms: N1_3  and  C3_4 
REMARK    3  A    between atoms: N1_3  and  C18_25 
REMARK    4  A    between atoms: C3_4  and  C4_5 
REMARK    5  A    between atoms: C7_8  and  N2_9 
REMARK    6  A    between atoms: N2_9  and  C8_11 
REMARK    7  A    between atoms: C8_11  and  N3_13 
REMARK    8  A    between atoms: N3_13  and  C9_15 
ROOT
HETATM    1  C18 UNL     1       7.493  -4.750  17.880  1.00  0.00     0.225 C 
HETATM    2  C19 UNL     1       8.122  -3.475  17.378  1.00  0.00     0.055 C 
HETATM    3  C20 UNL     1       8.391  -4.257  16.081  1.00  0.00     0.097 C 
HETATM    4  C21 UNL     1       9.611  -3.878  15.418  1.00  0.00     0.064 C 
HETATM    5  N5  UNL     1      10.569  -3.586  14.877  1.00  0.00    -0.197 NA
HETATM    6  C22 UNL     1       8.556  -5.462  17.022  1.00  0.00     0.055 C 
ENDROOT
BRANCH   1   7
HETATM    7  N1  UNL     1       6.159  -4.947  17.417  1.00  0.00     0.093 N 
BRANCH   7   8
HETATM    8  C2  UNL     1       5.278  -5.243  18.498  1.00  0.00     0.268 C 
HETATM    9  C1  UNL     1       4.589  -4.033  19.081  1.00  0.00     0.037 C 
ENDBRANCH   7   8
BRANCH   7  10
HETATM   10  C3  UNL     1       6.152  -5.974  16.389  1.00  0.00     0.277 C 
BRANCH  10  11
HETATM   11  C4  UNL     1       5.209  -5.652  15.265  1.00  0.00     0.014 C 
HETATM   12  C5  UNL     1       3.812  -6.011  15.694  1.00  0.00     0.008 C 
HETATM   13  C6  UNL     1       3.390  -7.395  15.335  1.00  0.00     0.025 C 
HETATM   14  C7  UNL     1       3.539  -7.769  13.899  1.00  0.00     0.083 C 
HETATM   15  C16 UNL     1       4.399  -6.757  13.183  1.00  0.00     0.025 C 
HETATM   16  C17 UNL     1       5.599  -6.472  14.036  1.00  0.00     0.008 C 
BRANCH  14  17
HETATM   17  N2  UNL     1       2.266  -7.914  13.202  1.00  0.00    -0.363 N 
ATOM     18  H2  UNL     1       2.042  -7.252  12.459  1.00  0.00     0.162 HD
BRANCH  17  19
HETATM   19  C8  UNL     1       1.321  -8.932  13.507  1.00  0.00     0.168 C 
HETATM   20  S1  UNL     1       1.293 -10.348  12.653  1.00  0.00    -0.041 SA
BRANCH  19  21
HETATM   21  N3  UNL     1       0.381  -8.745  14.546  1.00  0.00    -0.361 N 
ATOM     22  H3  UNL     1       0.122  -9.561  15.100  1.00  0.00     0.162 HD
BRANCH  21  23
HETATM   23  C9  UNL     1      -0.234  -7.495  14.880  1.00  0.00     0.116 C 
HETATM   24  C10 UNL     1      -1.748  -7.523  14.829  1.00  0.00     0.297 C 
HETATM   25  N4  UNL     1      -2.310  -7.389  16.184  1.00  0.00     0.090 N 
HETATM   26  C11 UNL     1      -2.050  -6.022  16.663  1.00  0.00     0.273 C 
HETATM   27  C15 UNL     1      -1.594  -8.350  17.018  1.00  0.00     0.273 C 
HETATM   28  C12 UNL     1      -0.609  -5.613  16.366  1.00  0.00     0.037 C 
HETATM   29  C13 UNL     1       0.186  -6.914  16.189  1.00  0.00     0.013 C 
HETATM   30  C14 UNL     1      -0.217  -7.788  17.359  1.00  0.00     0.037 C 
ENDBRANCH  21  23
ENDBRANCH  19  21
ENDBRANCH  17  19
ENDBRANCH  14  17
ENDBRANCH  10  11
ENDBRANCH   7  10
ENDBRANCH   1   7
TORSDOF 8
ENDMDL
