MODEL 1
REMARK VINA RESULT: -7.793406419      0.000      0.000
REMARK  3 active torsions:
REMARK  status: ('A' for Active; 'I' for Inactive)
REMARK       I    between atoms: C1_2  and  N1_3 
REMARK    1  A    between atoms: C1_2  and  C6_9 
REMARK    2  A    between atoms: N1_3  and  C2_5 
REMARK    3  A    between atoms: C2_5  and  C3_6 
ROOT
HETATM    1  C6  UNL     1       4.258 138.734 351.243  1.00  0.00     0.044 C 
HETATM    2  C7  UNL     1       5.567 139.461 351.070  1.00  0.00     0.024 C 
HETATM    3  C8  UNL     1       5.385 140.607 350.088  1.00  0.00    -0.010 C 
HETATM    4  C9  UNL     1       4.414 141.600 350.672  1.00  0.00     0.009 C 
HETATM    5  C10 UNL     1       3.116 140.884 350.946  1.00  0.00    -0.010 C 
HETATM    6  C11 UNL     1       2.556 140.349 349.635  1.00  0.00     0.048 C 
HETATM    7  C12 UNL     1       3.527 139.399 349.002  1.00  0.00     0.105 C 
HETATM    8  F1  UNL     1       2.996 138.932 347.832  1.00  0.00    -0.243 F 
HETATM    9  C13 UNL     1       4.890 140.000 348.796  1.00  0.00     0.048 C 
HETATM   10  C14 UNL     1       3.694 138.218 349.958  1.00  0.00     0.062 C 
HETATM   11  C15 UNL     1       3.283 139.711 351.870  1.00  0.00     0.024 C 
ENDROOT
BRANCH   1  12
HETATM   12  C1  UNL     1       4.505 137.579 352.155  1.00  0.00     0.226 C 
HETATM   13  O1  UNL     1       4.335 137.684 353.400  1.00  0.00    -0.273 OA
HETATM   14  N1  UNL     1       4.933 136.358 351.606  1.00  0.00    -0.360 N 
ATOM     15  H1  UNL     1       5.065 136.298 350.597  1.00  0.00     0.162 HD
BRANCH  14  16
HETATM   16  C2  UNL     1       5.194 135.190 352.400  1.00  0.00     0.127 C 
BRANCH  16  17
HETATM   17  C3  UNL     1       6.382 134.385 351.953  1.00  0.00     0.003 A 
HETATM   18  C4  UNL     1       6.076 132.895 351.840  1.00  0.00     0.007 A 
HETATM   19  C5  UNL     1       7.011 133.395 352.865  1.00  0.00     0.007 A 
ENDBRANCH  16  17
ENDBRANCH  14  16
ENDBRANCH   1  12
TORSDOF 3
ENDMDL
MODEL 2
REMARK VINA RESULT: -7.472454479      1.168      2.150
REMARK  3 active torsions:
REMARK  status: ('A' for Active; 'I' for Inactive)
REMARK       I    between atoms: C1_2  and  N1_3 
REMARK    1  A    between atoms: C1_2  and  C6_9 
REMARK    2  A    between atoms: N1_3  and  C2_5 
REMARK    3  A    between atoms: C2_5  and  C3_6 
ROOT
HETATM    1  C6  UNL     1       4.399 138.736 351.277  1.00  0.00     0.044 C 
HETATM    2  C7  UNL     1       3.750 138.258 350.003  1.00  0.00     0.024 C 
HETATM    3  C8  UNL     1       3.491 139.445 349.088  1.00  0.00    -0.010 C 
HETATM    4  C9  UNL     1       4.813 140.054 348.697  1.00  0.00     0.009 C 
HETATM    5  C10 UNL     1       5.534 140.463 349.955  1.00  0.00    -0.010 C 
HETATM    6  C11 UNL     1       4.702 141.503 350.692  1.00  0.00     0.048 C 
HETATM    7  C12 UNL     1       3.358 140.942 351.046  1.00  0.00     0.105 C 
HETATM    8  F1  UNL     1       2.637 141.895 351.709  1.00  0.00    -0.243 F 
HETATM    9  C13 UNL     1       2.612 140.404 349.856  1.00  0.00     0.048 C 
HETATM   10  C14 UNL     1       3.594 139.770 351.998  1.00  0.00     0.062 C 
HETATM   11  C15 UNL     1       5.749 139.315 350.901  1.00  0.00     0.024 C 
ENDROOT
BRANCH   1  12
HETATM   12  C1  UNL     1       4.564 137.551 352.168  1.00  0.00     0.226 C 
HETATM   13  O1  UNL     1       4.224 137.596 353.381  1.00  0.00    -0.273 OA
HETATM   14  N1  UNL     1       5.108 136.369 351.636  1.00  0.00    -0.360 N 
ATOM     15  H1  UNL     1       5.377 136.358 350.652  1.00  0.00     0.162 HD
BRANCH  14  16
HETATM   16  C2  UNL     1       5.303 135.177 352.412  1.00  0.00     0.127 C 
BRANCH  16  17
HETATM   17  C3  UNL     1       6.435 134.306 351.942  1.00  0.00     0.003 A 
HETATM   18  C4  UNL     1       6.049 132.833 351.855  1.00  0.00     0.007 A 
HETATM   19  C5  UNL     1       7.037 133.295 352.848  1.00  0.00     0.007 A 
ENDBRANCH  16  17
ENDBRANCH  14  16
ENDBRANCH   1  12
TORSDOF 3
ENDMDL
MODEL 3
REMARK VINA RESULT: -7.377390985      1.030      1.948
REMARK  3 active torsions:
REMARK  status: ('A' for Active; 'I' for Inactive)
REMARK       I    between atoms: C1_2  and  N1_3 
REMARK    1  A    between atoms: C1_2  and  C6_9 
REMARK    2  A    between atoms: N1_3  and  C2_5 
REMARK    3  A    between atoms: C2_5  and  C3_6 
ROOT
HETATM    1  C6  UNL     1       4.279 138.673 351.056  1.00  0.00     0.044 C 
HETATM    2  C7  UNL     1       3.406 139.686 351.751  1.00  0.00     0.024 C 
HETATM    3  C8  UNL     1       3.148 140.858 350.819  1.00  0.00    -0.010 C 
HETATM    4  C9  UNL     1       2.373 140.368 349.623  1.00  0.00     0.009 C 
HETATM    5  C10 UNL     1       3.177 139.285 348.952  1.00  0.00    -0.010 C 
HETATM    6  C11 UNL     1       4.504 139.865 348.484  1.00  0.00     0.048 C 
HETATM    7  C12 UNL     1       5.275 140.412 349.648  1.00  0.00     0.105 C 
HETATM    8  F1  UNL     1       6.461 140.921 349.197  1.00  0.00    -0.243 F 
HETATM    9  C13 UNL     1       4.499 141.424 350.445  1.00  0.00     0.048 C 
HETATM   10  C14 UNL     1       5.579 139.240 350.580  1.00  0.00     0.062 C 
HETATM   11  C15 UNL     1       3.493 138.141 349.874  1.00  0.00     0.024 C 
ENDROOT
BRANCH   1  12
HETATM   12  C1  UNL     1       4.564 137.581 352.033  1.00  0.00     0.226 C 
HETATM   13  O1  UNL     1       4.417 137.762 353.272  1.00  0.00    -0.273 OA
HETATM   14  N1  UNL     1       5.001 136.335 351.553  1.00  0.00    -0.360 N 
ATOM     15  H1  UNL     1       5.114 136.214 350.547  1.00  0.00     0.162 HD
BRANCH  14  16
HETATM   16  C2  UNL     1       5.298 135.223 352.413  1.00  0.00     0.127 C 
BRANCH  16  17
HETATM   17  C3  UNL     1       6.450 134.372 351.957  1.00  0.00     0.003 A 
HETATM   18  C4  UNL     1       6.086 132.895 351.850  1.00  0.00     0.007 A 
HETATM   19  C5  UNL     1       7.048 133.360 352.865  1.00  0.00     0.007 A 
ENDBRANCH  16  17
ENDBRANCH  14  16
ENDBRANCH   1  12
TORSDOF 3
ENDMDL
MODEL 4
REMARK VINA RESULT: -7.317550406      1.598      2.506
REMARK  3 active torsions:
REMARK  status: ('A' for Active; 'I' for Inactive)
REMARK       I    between atoms: C1_2  and  N1_3 
REMARK    1  A    between atoms: C1_2  and  C6_9 
REMARK    2  A    between atoms: N1_3  and  C2_5 
REMARK    3  A    between atoms: C2_5  and  C3_6 
ROOT
HETATM    1  C6  UNL     1       4.552 138.831 351.587  1.00  0.00     0.044 C 
HETATM    2  C7  UNL     1       3.081 139.064 351.353  1.00  0.00     0.024 C 
HETATM    3  C8  UNL     1       2.890 140.350 350.565  1.00  0.00    -0.010 C 
HETATM    4  C9  UNL     1       3.522 140.187 349.207  1.00  0.00     0.009 C 
HETATM    5  C10 UNL     1       4.980 139.860 349.402  1.00  0.00    -0.010 C 
HETATM    6  C11 UNL     1       5.656 141.012 350.134  1.00  0.00     0.048 C 
HETATM    7  C12 UNL     1       5.010 141.234 351.468  1.00  0.00     0.105 C 
HETATM    8  F1  UNL     1       5.640 142.269 352.101  1.00  0.00    -0.243 F 
HETATM    9  C13 UNL     1       3.526 141.456 351.374  1.00  0.00     0.048 C 
HETATM   10  C14 UNL     1       5.225 139.964 352.292  1.00  0.00     0.062 C 
HETATM   11  C15 UNL     1       5.193 138.624 350.229  1.00  0.00     0.024 C 
ENDROOT
BRANCH   1  12
HETATM   12  C1  UNL     1       4.683 137.602 352.424  1.00  0.00     0.226 C 
HETATM   13  O1  UNL     1       4.183 137.546 353.580  1.00  0.00    -0.273 OA
HETATM   14  N1  UNL     1       5.377 136.496 351.905  1.00  0.00    -0.360 N 
ATOM     15  H1  UNL     1       5.774 136.567 350.968  1.00  0.00     0.162 HD
BRANCH  14  16
HETATM   16  C2  UNL     1       5.553 135.270 352.632  1.00  0.00     0.127 C 
BRANCH  16  17
HETATM   17  C3  UNL     1       6.527 134.310 352.007  1.00  0.00     0.003 A 
HETATM   18  C4  UNL     1       5.948 132.910 351.837  1.00  0.00     0.007 A 
HETATM   19  C5  UNL     1       7.054 133.156 352.781  1.00  0.00     0.007 A 
ENDBRANCH  16  17
ENDBRANCH  14  16
ENDBRANCH   1  12
TORSDOF 3
ENDMDL
MODEL 5
REMARK VINA RESULT: -7.069477820      3.017      4.355
REMARK  3 active torsions:
REMARK  status: ('A' for Active; 'I' for Inactive)
REMARK       I    between atoms: C1_2  and  N1_3 
REMARK    1  A    between atoms: C1_2  and  C6_9 
REMARK    2  A    between atoms: N1_3  and  C2_5 
REMARK    3  A    between atoms: C2_5  and  C3_6 
ROOT
HETATM    1  C6  UNL     1       3.997 142.307 350.506  1.00  0.00     0.044 C 
HETATM    2  C7  UNL     1       4.047 142.595 351.984  1.00  0.00     0.024 C 
HETATM    3  C8  UNL     1       4.395 144.058 352.205  1.00  0.00    -0.010 C 
HETATM    4  C9  UNL     1       3.292 144.912 351.636  1.00  0.00     0.009 C 
HETATM    5  C10 UNL     1       3.150 144.584 350.172  1.00  0.00    -0.010 C 
HETATM    6  C11 UNL     1       4.454 144.911 349.458  1.00  0.00     0.048 C 
HETATM    7  C12 UNL     1       5.583 144.116 350.043  1.00  0.00     0.105 C 
HETATM    8  F1  UNL     1       6.737 144.427 349.380  1.00  0.00    -0.243 F 
HETATM    9  C13 UNL     1       5.725 144.297 351.528  1.00  0.00     0.048 C 
HETATM   10  C14 UNL     1       5.270 142.640 349.796  1.00  0.00     0.062 C 
HETATM   11  C15 UNL     1       2.863 143.130 349.928  1.00  0.00     0.024 C 
ENDROOT
BRANCH   1  12
HETATM   12  C1  UNL     1       3.726 140.848 350.343  1.00  0.00     0.226 C 
HETATM   13  O1  UNL     1       2.900 140.432 349.486  1.00  0.00    -0.273 OA
HETATM   14  N1  UNL     1       4.409 139.933 351.162  1.00  0.00    -0.360 N 
ATOM     15  H1  UNL     1       5.070 140.295 351.849  1.00  0.00     0.162 HD
BRANCH  14  16
HETATM   16  C2  UNL     1       4.218 138.512 351.078  1.00  0.00     0.127 C 
BRANCH  16  17
HETATM   17  C3  UNL     1       5.040 137.715 352.053  1.00  0.00     0.003 A 
HETATM   18  C4  UNL     1       5.512 136.384 351.476  1.00  0.00     0.007 A 
HETATM   19  C5  UNL     1       4.538 136.421 352.583  1.00  0.00     0.007 A 
ENDBRANCH  16  17
ENDBRANCH  14  16
ENDBRANCH   1  12
TORSDOF 3
ENDMDL
