MODEL 1
REMARK VINA RESULT: -6.524668431      0.000      0.000
REMARK  3 active torsions:
REMARK  status: ('A' for Active; 'I' for Inactive)
REMARK    1  A    between atoms: C1_2  and  C2_3 
REMARK       I    between atoms: C1_2  and  N2_12 
REMARK    2  A    between atoms: C2_3  and  N1_4 
REMARK    3  A    between atoms: N1_4  and  C3_6 
ROOT
HETATM    1  O1  UNL     1       4.928 140.393 348.656  1.00  0.00    -0.272 OA
HETATM    2  C1  UNL     1       4.347 140.684 349.718  1.00  0.00     0.237 C 
HETATM    3  N2  UNL     1       4.551 141.982 350.264  1.00  0.00    -0.351 N 
HETATM    4  C9  UNL     1       5.431 142.877 349.535  1.00  0.00     0.128 C 
HETATM    5  C10 UNL     1       5.684 144.148 350.270  1.00  0.00     0.057 C 
HETATM    6  C11 UNL     1       4.341 144.659 350.770  1.00  0.00     0.173 C 
HETATM    7  F1  UNL     1       3.412 144.513 349.768  1.00  0.00    -0.249 F 
HETATM    8  C12 UNL     1       3.921 143.734 351.897  1.00  0.00     0.057 C 
HETATM    9  C13 UNL     1       3.885 142.308 351.492  1.00  0.00     0.128 C 
ENDROOT
BRANCH   2  10
HETATM   10  C2  UNL     1       3.456 139.741 350.435  1.00  0.00     0.217 C 
BRANCH  10  11
HETATM   11  N1  UNL     1       3.970 138.423 350.364  1.00  0.00    -0.409 N 
ATOM     12  H1  UNL     1       3.606 137.747 349.693  1.00  0.00     0.154 HD
BRANCH  11  13
HETATM   13  C3  UNL     1       5.026 138.078 351.280  1.00  0.00     0.077 C 
HETATM   14  C4  UNL     1       4.692 138.376 352.698  1.00  0.00     0.024 C 
HETATM   15  C5  UNL     1       4.201 137.230 353.519  1.00  0.00     0.002 C 
HETATM   16  C6  UNL     1       4.285 135.888 352.861  1.00  0.00     0.000 C 
HETATM   17  C7  UNL     1       5.662 135.826 352.189  1.00  0.00     0.002 C 
HETATM   18  C8  UNL     1       5.522 136.702 350.970  1.00  0.00     0.024 C 
ENDBRANCH  11  13
ENDBRANCH  10  11
ENDBRANCH   2  10
TORSDOF 3
ENDMDL
MODEL 2
REMARK VINA RESULT: -6.451567125      1.318      1.739
REMARK  3 active torsions:
REMARK  status: ('A' for Active; 'I' for Inactive)
REMARK    1  A    between atoms: C1_2  and  C2_3 
REMARK       I    between atoms: C1_2  and  N2_12 
REMARK    2  A    between atoms: C2_3  and  N1_4 
REMARK    3  A    between atoms: N1_4  and  C3_6 
ROOT
HETATM    1  O1  UNL     1       2.490 140.396 351.033  1.00  0.00    -0.272 OA
HETATM    2  C1  UNL     1       3.584 140.806 350.605  1.00  0.00     0.237 C 
HETATM    3  N2  UNL     1       3.833 142.206 350.622  1.00  0.00    -0.351 N 
HETATM    4  C9  UNL     1       2.779 143.060 351.141  1.00  0.00     0.128 C 
HETATM    5  C10 UNL     1       3.089 144.508 350.978  1.00  0.00     0.057 C 
HETATM    6  C11 UNL     1       4.523 144.721 351.439  1.00  0.00     0.173 C 
HETATM    7  F1  UNL     1       4.724 144.010 352.597  1.00  0.00    -0.249 F 
HETATM    8  C12 UNL     1       5.414 144.098 350.380  1.00  0.00     0.057 C 
HETATM    9  C13 UNL     1       5.093 142.673 350.121  1.00  0.00     0.128 C 
ENDROOT
BRANCH   2  10
HETATM   10  C2  UNL     1       4.635 139.902 350.081  1.00  0.00     0.217 C 
BRANCH  10  11
HETATM   11  N1  UNL     1       4.391 138.569 350.488  1.00  0.00    -0.409 N 
ATOM     12  H1  UNL     1       3.612 138.031 350.108  1.00  0.00     0.154 HD
BRANCH  11  13
HETATM   13  C3  UNL     1       5.288 138.002 351.464  1.00  0.00     0.077 C 
HETATM   14  C4  UNL     1       4.818 138.180 352.863  1.00  0.00     0.024 C 
HETATM   15  C5  UNL     1       4.115 137.017 353.480  1.00  0.00     0.002 C 
HETATM   16  C6  UNL     1       4.137 135.755 352.675  1.00  0.00     0.000 C 
HETATM   17  C7  UNL     1       5.571 135.606 352.153  1.00  0.00     0.002 C 
HETATM   18  C8  UNL     1       5.671 136.621 351.042  1.00  0.00     0.024 C 
ENDBRANCH  11  13
ENDBRANCH  10  11
ENDBRANCH   2  10
TORSDOF 3
ENDMDL
MODEL 3
REMARK VINA RESULT: -6.415571076      2.394      6.021
REMARK  3 active torsions:
REMARK  status: ('A' for Active; 'I' for Inactive)
REMARK    1  A    between atoms: C1_2  and  C2_3 
REMARK       I    between atoms: C1_2  and  N2_12 
REMARK    2  A    between atoms: C2_3  and  N1_4 
REMARK    3  A    between atoms: N1_4  and  C3_6 
ROOT
HETATM    1  O1  UNL     1       4.297 139.935 348.259  1.00  0.00    -0.272 OA
HETATM    2  C1  UNL     1       4.975 140.114 349.288  1.00  0.00     0.237 C 
HETATM    3  N2  UNL     1       4.814 139.204 350.369  1.00  0.00    -0.351 N 
HETATM    4  C9  UNL     1       3.857 138.126 350.190  1.00  0.00     0.128 C 
HETATM    5  C10 UNL     1       3.666 137.325 351.431  1.00  0.00     0.057 C 
HETATM    6  C11 UNL     1       5.046 137.019 351.994  1.00  0.00     0.173 C 
HETATM    7  F1  UNL     1       5.874 136.659 350.958  1.00  0.00    -0.249 F 
HETATM    8  C12 UNL     1       5.582 138.323 352.552  1.00  0.00     0.057 C 
HETATM    9  C13 UNL     1       5.592 139.420 351.553  1.00  0.00     0.128 C 
ENDROOT
BRANCH   2  10
HETATM   10  C2  UNL     1       5.941 141.229 349.433  1.00  0.00     0.217 C 
BRANCH  10  11
HETATM   11  N1  UNL     1       5.259 142.466 349.532  1.00  0.00    -0.409 N 
ATOM     12  H1  UNL     1       5.452 143.232 348.887  1.00  0.00     0.154 HD
BRANCH  11  13
HETATM   13  C3  UNL     1       4.279 142.597 350.580  1.00  0.00     0.077 C 
HETATM   14  C4  UNL     1       4.842 143.155 351.839  1.00  0.00     0.024 C 
HETATM   15  C5  UNL     1       4.637 144.616 352.066  1.00  0.00     0.002 C 
HETATM   16  C6  UNL     1       3.731 145.296 351.087  1.00  0.00     0.000 C 
HETATM   17  C7  UNL     1       2.527 144.365 350.900  1.00  0.00     0.002 C 
HETATM   18  C8  UNL     1       3.050 143.247 350.033  1.00  0.00     0.024 C 
ENDBRANCH  11  13
ENDBRANCH  10  11
ENDBRANCH   2  10
TORSDOF 3
ENDMDL
MODEL 4
REMARK VINA RESULT: -6.394989962      1.290      1.844
REMARK  3 active torsions:
REMARK  status: ('A' for Active; 'I' for Inactive)
REMARK    1  A    between atoms: C1_2  and  C2_3 
REMARK       I    between atoms: C1_2  and  N2_12 
REMARK    2  A    between atoms: C2_3  and  N1_4 
REMARK    3  A    between atoms: N1_4  and  C3_6 
ROOT
HETATM    1  O1  UNL     1       6.707 142.300 348.650  1.00  0.00    -0.272 OA
HETATM    2  C1  UNL     1       5.638 141.889 349.139  1.00  0.00     0.237 C 
HETATM    3  N2  UNL     1       4.914 142.756 350.003  1.00  0.00    -0.351 N 
HETATM    4  C9  UNL     1       5.484 144.068 350.254  1.00  0.00     0.128 C 
HETATM    5  C10 UNL     1       4.720 144.832 351.281  1.00  0.00     0.057 C 
HETATM    6  C11 UNL     1       3.244 144.707 350.936  1.00  0.00     0.173 C 
HETATM    7  F1  UNL     1       3.093 144.866 349.580  1.00  0.00    -0.249 F 
HETATM    8  C12 UNL     1       2.844 143.280 351.259  1.00  0.00     0.057 C 
HETATM    9  C13 UNL     1       3.688 142.273 350.569  1.00  0.00     0.128 C 
ENDROOT
BRANCH   2  10
HETATM   10  C2  UNL     1       5.090 140.541 348.860  1.00  0.00     0.217 C 
BRANCH  10  11
HETATM   11  N1  UNL     1       5.554 139.609 349.820  1.00  0.00    -0.409 N 
ATOM     12  H1  UNL     1       6.469 139.167 349.733  1.00  0.00     0.154 HD
BRANCH  11  13
HETATM   13  C3  UNL     1       4.678 139.309 350.925  1.00  0.00     0.077 C 
HETATM   14  C4  UNL     1       3.657 138.278 350.598  1.00  0.00     0.024 C 
HETATM   15  C5  UNL     1       3.962 136.883 351.032  1.00  0.00     0.002 C 
HETATM   16  C6  UNL     1       5.170 136.731 351.903  1.00  0.00     0.000 C 
HETATM   17  C7  UNL     1       5.099 137.865 352.934  1.00  0.00     0.002 C 
HETATM   18  C8  UNL     1       5.493 139.098 352.160  1.00  0.00     0.024 C 
ENDBRANCH  11  13
ENDBRANCH  10  11
ENDBRANCH   2  10
TORSDOF 3
ENDMDL
MODEL 5
REMARK VINA RESULT: -6.292681985      2.387      6.153
REMARK  3 active torsions:
REMARK  status: ('A' for Active; 'I' for Inactive)
REMARK    1  A    between atoms: C1_2  and  C2_3 
REMARK       I    between atoms: C1_2  and  N2_12 
REMARK    2  A    between atoms: C2_3  and  N1_4 
REMARK    3  A    between atoms: N1_4  and  C3_6 
ROOT
HETATM    1  O1  UNL     1       4.834 140.341 348.009  1.00  0.00    -0.272 OA
HETATM    2  C1  UNL     1       5.422 140.527 349.090  1.00  0.00     0.237 C 
HETATM    3  N2  UNL     1       5.082 139.699 350.195  1.00  0.00    -0.351 N 
HETATM    4  C9  UNL     1       4.061 138.689 349.976  1.00  0.00     0.128 C 
HETATM    5  C10 UNL     1       3.684 137.981 351.232  1.00  0.00     0.057 C 
HETATM    6  C11 UNL     1       4.973 137.603 351.946  1.00  0.00     0.173 C 
HETATM    7  F1  UNL     1       5.865 137.119 351.019  1.00  0.00    -0.249 F 
HETATM    8  C12 UNL     1       5.560 138.893 352.488  1.00  0.00     0.057 C 
HETATM    9  C13 UNL     1       5.757 139.924 351.439  1.00  0.00     0.128 C 
ENDROOT
BRANCH   2  10
HETATM   10  C2  UNL     1       6.458 141.571 349.275  1.00  0.00     0.217 C 
BRANCH  10  11
HETATM   11  N1  UNL     1       6.002 142.815 348.777  1.00  0.00    -0.409 N 
ATOM     12  H1  UNL     1       5.673 142.916 347.818  1.00  0.00     0.154 HD
BRANCH  11  13
HETATM   13  C3  UNL     1       6.023 143.935 349.684  1.00  0.00     0.077 C 
HETATM   14  C4  UNL     1       5.420 145.166 349.106  1.00  0.00     0.024 C 
HETATM   15  C5  UNL     1       4.004 145.450 349.482  1.00  0.00     0.002 C 
HETATM   16  C6  UNL     1       3.430 144.560 350.540  1.00  0.00     0.000 C 
HETATM   17  C7  UNL     1       4.508 144.433 351.623  1.00  0.00     0.002 C 
HETATM   18  C8  UNL     1       5.529 143.497 351.025  1.00  0.00     0.024 C 
ENDBRANCH  11  13
ENDBRANCH  10  11
ENDBRANCH   2  10
TORSDOF 3
ENDMDL
