MODEL 1
REMARK VINA RESULT: -6.674084608      0.000      0.000
REMARK  10 active torsions:
REMARK  status: ('A' for Active; 'I' for Inactive)
REMARK    1  A    between atoms: C2_2  and  C3_3 
REMARK    2  A    between atoms: C3_3  and  O1_4 
REMARK    3  A    between atoms: C3_3  and  C4_8 
REMARK    4  A    between atoms: O1_4  and  N1_5 
REMARK    5  A    between atoms: C4_8  and  C5_9 
REMARK    6  A    between atoms: C4_8  and  N2_12 
REMARK    7  A    between atoms: C4_8  and  C9_20 
REMARK    8  A    between atoms: C5_9  and  O2_10 
REMARK    9  A    between atoms: N2_12  and  C6_14 
REMARK   10  A    between atoms: C6_14  and  C7_15 
REMARK       I    between atoms: C7_15  and  N3_17 
ROOT
HETATM    1  C4  UNL     1     -15.778 -25.158  23.387  1.00  0.00     0.159 C 
ENDROOT
BRANCH   1   2
HETATM    2  C3  UNL     1     -15.776 -26.146  24.560  1.00  0.00     0.190 C 
BRANCH   2   3
HETATM    3  C2  UNL     1     -15.721 -27.584  24.264  1.00  0.00     0.033 C 
HETATM    4  C1  UNL     1     -16.628 -28.500  25.012  1.00  0.00     0.007 C 
ENDBRANCH   2   3
BRANCH   2   5
HETATM    5  O1  UNL     1     -14.619 -25.827  25.360  1.00  0.00    -0.279 OA
BRANCH   5   6
HETATM    6  N1  UNL     1     -14.802 -26.083  26.649  1.00  0.00    -0.311 N 
ATOM      7  H12 UNL     1     -15.689 -25.917  27.125  1.00  0.00     0.184 HD
ATOM      8  H11 UNL     1     -13.966 -26.459  27.098  1.00  0.00     0.184 HD
ENDBRANCH   5   6
ENDBRANCH   2   5
ENDBRANCH   1   2
BRANCH   1   9
HETATM    9  C5  UNL     1     -14.530 -24.403  23.193  1.00  0.00     0.207 C 
BRANCH   9  10
HETATM   10  O2  UNL     1     -13.511 -25.168  22.562  1.00  0.00    -0.398 OA
ATOM     11  H2  UNL     1     -12.752 -25.305  23.117  1.00  0.00     0.209 HD
ENDBRANCH   9  10
ENDBRANCH   1   9
BRANCH   1  12
HETATM   12  N2  UNL     1     -15.996 -26.081  22.253  1.00  0.00    -0.373 N 
ATOM     13  H2  UNL     1     -15.577 -27.012  22.238  1.00  0.00     0.160 HD
BRANCH  12  14
HETATM   14  C6  UNL     1     -16.795 -25.628  21.205  1.00  0.00     0.159 C 
BRANCH  14  15
HETATM   15  C7  UNL     1     -15.934 -25.549  19.961  1.00  0.00     0.256 C 
HETATM   16  O3  UNL     1     -14.909 -24.853  19.965  1.00  0.00    -0.267 OA
HETATM   17  N3  UNL     1     -16.333 -26.288  18.804  1.00  0.00    -0.361 N 
HETATM   18  C8  UNL     1     -15.514 -26.212  17.627  1.00  0.00     0.149 C 
ATOM     19  H3  UNL     1     -17.180 -26.856  18.814  1.00  0.00     0.162 HD
ENDBRANCH  14  15
ENDBRANCH  12  14
ENDBRANCH   1  12
BRANCH   1  20
HETATM   20  C9  UNL     1     -17.002 -24.346  23.487  1.00  0.00     0.264 C 
HETATM   21  N4  UNL     1     -17.102 -22.966  23.161  1.00  0.00    -0.060 NA
HETATM   22  O4  UNL     1     -18.066 -24.861  23.885  1.00  0.00    -0.274 OA
ENDBRANCH   1  20
TORSDOF 10
ENDMDL
MODEL 2
REMARK VINA RESULT: -5.233677906      1.979      4.825
REMARK  10 active torsions:
REMARK  status: ('A' for Active; 'I' for Inactive)
REMARK    1  A    between atoms: C2_2  and  C3_3 
REMARK    2  A    between atoms: C3_3  and  O1_4 
REMARK    3  A    between atoms: C3_3  and  C4_8 
REMARK    4  A    between atoms: O1_4  and  N1_5 
REMARK    5  A    between atoms: C4_8  and  C5_9 
REMARK    6  A    between atoms: C4_8  and  N2_12 
REMARK    7  A    between atoms: C4_8  and  C9_20 
REMARK    8  A    between atoms: C5_9  and  O2_10 
REMARK    9  A    between atoms: N2_12  and  C6_14 
REMARK   10  A    between atoms: C6_14  and  C7_15 
REMARK       I    between atoms: C7_15  and  N3_17 
ROOT
HETATM    1  C4  UNL     1     -15.811 -25.246  22.395  1.00  0.00     0.159 C 
ENDROOT
BRANCH   1   2
HETATM    2  C3  UNL     1     -14.676 -24.587  21.602  1.00  0.00     0.190 C 
BRANCH   2   3
HETATM    3  C2  UNL     1     -13.302 -24.717  22.106  1.00  0.00     0.033 C 
HETATM    4  C1  UNL     1     -12.172 -24.411  21.183  1.00  0.00     0.007 C 
ENDBRANCH   2   3
BRANCH   2   5
HETATM    5  O1  UNL     1     -14.707 -25.171  20.284  1.00  0.00    -0.279 OA
BRANCH   5   6
HETATM    6  N1  UNL     1     -15.340 -24.409  19.402  1.00  0.00    -0.311 N 
ATOM      7  H12 UNL     1     -15.026 -23.470  19.156  1.00  0.00     0.184 HD
ATOM      8  H11 UNL     1     -16.163 -24.865  19.007  1.00  0.00     0.184 HD
ENDBRANCH   5   6
ENDBRANCH   2   5
ENDBRANCH   1   2
BRANCH   1   9
HETATM    9  C5  UNL     1     -16.482 -26.371  21.725  1.00  0.00     0.207 C 
BRANCH   9  10
HETATM   10  O2  UNL     1     -17.277 -25.963  20.620  1.00  0.00    -0.398 OA
ATOM     11  H2  UNL     1     -17.169 -26.522  19.859  1.00  0.00     0.209 HD
ENDBRANCH   9  10
ENDBRANCH   1   9
BRANCH   1  12
HETATM   12  N2  UNL     1     -15.070 -25.729  23.581  1.00  0.00    -0.373 N 
ATOM     13  H2  UNL     1     -14.066 -25.910  23.543  1.00  0.00     0.160 HD
BRANCH  12  14
HETATM   14  C6  UNL     1     -15.799 -25.927  24.752  1.00  0.00     0.159 C 
BRANCH  14  15
HETATM   15  C7  UNL     1     -15.734 -27.401  25.098  1.00  0.00     0.256 C 
HETATM   16  O3  UNL     1     -14.845 -27.819  25.852  1.00  0.00    -0.267 OA
HETATM   17  N3  UNL     1     -16.714 -28.280  24.537  1.00  0.00    -0.361 N 
HETATM   18  C8  UNL     1     -16.651 -29.676  24.867  1.00  0.00     0.149 C 
ATOM     19  H3  UNL     1     -17.440 -27.922  23.916  1.00  0.00     0.162 HD
ENDBRANCH  14  15
ENDBRANCH  12  14
ENDBRANCH   1  12
BRANCH   1  20
HETATM   20  C9  UNL     1     -16.696 -24.176  22.883  1.00  0.00     0.264 C 
HETATM   21  N4  UNL     1     -18.116 -24.185  22.806  1.00  0.00    -0.060 NA
HETATM   22  O4  UNL     1     -16.215 -23.155  23.414  1.00  0.00    -0.274 OA
ENDBRANCH   1  20
TORSDOF 10
ENDMDL
MODEL 3
REMARK VINA RESULT: -5.214203288      1.295      1.421
REMARK  10 active torsions:
REMARK  status: ('A' for Active; 'I' for Inactive)
REMARK    1  A    between atoms: C2_2  and  C3_3 
REMARK    2  A    between atoms: C3_3  and  O1_4 
REMARK    3  A    between atoms: C3_3  and  C4_8 
REMARK    4  A    between atoms: O1_4  and  N1_5 
REMARK    5  A    between atoms: C4_8  and  C5_9 
REMARK    6  A    between atoms: C4_8  and  N2_12 
REMARK    7  A    between atoms: C4_8  and  C9_20 
REMARK    8  A    between atoms: C5_9  and  O2_10 
REMARK    9  A    between atoms: N2_12  and  C6_14 
REMARK   10  A    between atoms: C6_14  and  C7_15 
REMARK       I    between atoms: C7_15  and  N3_17 
ROOT
HETATM    1  C4  UNL     1     -15.641 -25.246  23.312  1.00  0.00     0.159 C 
ENDROOT
BRANCH   1   2
HETATM    2  C3  UNL     1     -15.388 -26.309  24.388  1.00  0.00     0.190 C 
BRANCH   2   3
HETATM    3  C2  UNL     1     -16.095 -26.189  25.670  1.00  0.00     0.033 C 
HETATM    4  C1  UNL     1     -15.338 -26.449  26.928  1.00  0.00     0.007 C 
ENDBRANCH   2   3
BRANCH   2   5
HETATM    5  O1  UNL     1     -15.765 -27.575  23.807  1.00  0.00    -0.279 OA
BRANCH   5   6
HETATM    6  N1  UNL     1     -16.730 -28.181  24.487  1.00  0.00    -0.311 N 
ATOM      7  H12 UNL     1     -17.374 -28.847  24.059  1.00  0.00     0.184 HD
ATOM      8  H11 UNL     1     -16.751 -27.907  25.469  1.00  0.00     0.184 HD
ENDBRANCH   5   6
ENDBRANCH   2   5
ENDBRANCH   1   2
BRANCH   1   9
HETATM    9  C5  UNL     1     -14.502 -24.365  23.012  1.00  0.00     0.207 C 
BRANCH   9  10
HETATM   10  O2  UNL     1     -13.440 -25.037  22.348  1.00  0.00    -0.398 OA
ATOM     11  H2  UNL     1     -13.537 -25.042  21.403  1.00  0.00     0.209 HD
ENDBRANCH   9  10
ENDBRANCH   1   9
BRANCH   1  12
HETATM   12  N2  UNL     1     -15.940 -26.105  22.145  1.00  0.00    -0.373 N 
ATOM     13  H2  UNL     1     -15.565 -27.051  22.072  1.00  0.00     0.160 HD
BRANCH  12  14
HETATM   14  C6  UNL     1     -16.756 -25.568  21.150  1.00  0.00     0.159 C 
BRANCH  14  15
HETATM   15  C7  UNL     1     -15.976 -25.583  19.851  1.00  0.00     0.256 C 
HETATM   16  O3  UNL     1     -14.974 -24.866  19.725  1.00  0.00    -0.267 OA
HETATM   17  N3  UNL     1     -16.426 -26.434  18.792  1.00  0.00    -0.361 N 
HETATM   18  C8  UNL     1     -15.685 -26.446  17.562  1.00  0.00     0.149 C 
ATOM     19  H3  UNL     1     -17.254 -27.018  18.909  1.00  0.00     0.162 HD
ENDBRANCH  14  15
ENDBRANCH  12  14
ENDBRANCH   1  12
BRANCH   1  20
HETATM   20  C9  UNL     1     -16.902 -24.564  23.644  1.00  0.00     0.264 C 
HETATM   21  N4  UNL     1     -17.082 -23.155  23.712  1.00  0.00    -0.060 NA
HETATM   22  O4  UNL     1     -17.928 -25.228  23.896  1.00  0.00    -0.274 OA
ENDBRANCH   1  20
TORSDOF 10
ENDMDL
MODEL 4
REMARK VINA RESULT: -5.106378100      2.159      3.303
REMARK  10 active torsions:
REMARK  status: ('A' for Active; 'I' for Inactive)
REMARK    1  A    between atoms: C2_2  and  C3_3 
REMARK    2  A    between atoms: C3_3  and  O1_4 
REMARK    3  A    between atoms: C3_3  and  C4_8 
REMARK    4  A    between atoms: O1_4  and  N1_5 
REMARK    5  A    between atoms: C4_8  and  C5_9 
REMARK    6  A    between atoms: C4_8  and  N2_12 
REMARK    7  A    between atoms: C4_8  and  C9_20 
REMARK    8  A    between atoms: C5_9  and  O2_10 
REMARK    9  A    between atoms: N2_12  and  C6_14 
REMARK   10  A    between atoms: C6_14  and  C7_15 
REMARK       I    between atoms: C7_15  and  N3_17 
ROOT
HETATM    1  C4  UNL     1     -15.974 -25.005  23.030  1.00  0.00     0.159 C 
ENDROOT
BRANCH   1   2
HETATM    2  C3  UNL     1     -16.316 -26.032  24.115  1.00  0.00     0.190 C 
BRANCH   2   3
HETATM    3  C2  UNL     1     -15.483 -27.238  24.225  1.00  0.00     0.033 C 
HETATM    4  C1  UNL     1     -16.148 -28.571  24.164  1.00  0.00     0.007 C 
ENDBRANCH   2   3
BRANCH   2   5
HETATM    5  O1  UNL     1     -16.233 -25.337  25.376  1.00  0.00    -0.279 OA
BRANCH   5   6
HETATM    6  N1  UNL     1     -15.827 -26.121  26.366  1.00  0.00    -0.311 N 
ATOM      7  H12 UNL     1     -14.842 -26.294  26.567  1.00  0.00     0.184 HD
ATOM      8  H11 UNL     1     -16.603 -26.523  26.892  1.00  0.00     0.184 HD
ENDBRANCH   5   6
ENDBRANCH   2   5
ENDBRANCH   1   2
BRANCH   1   9
HETATM    9  C5  UNL     1     -16.100 -23.594  23.431  1.00  0.00     0.207 C 
BRANCH   9  10
HETATM   10  O2  UNL     1     -17.444 -23.205  23.677  1.00  0.00    -0.398 OA
ATOM     11  H2  UNL     1     -17.686 -22.402  23.231  1.00  0.00     0.209 HD
ENDBRANCH   9  10
ENDBRANCH   1   9
BRANCH   1  12
HETATM   12  N2  UNL     1     -14.556 -25.337  22.776  1.00  0.00    -0.373 N 
ATOM     13  H2  UNL     1     -14.041 -25.972  23.388  1.00  0.00     0.160 HD
BRANCH  12  14
HETATM   14  C6  UNL     1     -13.951 -24.749  21.667  1.00  0.00     0.159 C 
BRANCH  14  15
HETATM   15  C7  UNL     1     -12.462 -24.661  21.940  1.00  0.00     0.256 C 
HETATM   16  O3  UNL     1     -11.933 -25.453  22.732  1.00  0.00    -0.267 OA
HETATM   17  N3  UNL     1     -11.702 -23.654  21.266  1.00  0.00    -0.361 N 
HETATM   18  C8  UNL     1     -10.292 -23.574  21.525  1.00  0.00     0.149 C 
ATOM     19  H3  UNL     1     -12.151 -23.008  20.618  1.00  0.00     0.162 HD
ENDBRANCH  14  15
ENDBRANCH  12  14
ENDBRANCH   1  12
BRANCH   1  20
HETATM   20  C9  UNL     1     -16.702 -25.385  21.808  1.00  0.00     0.264 C 
HETATM   21  N4  UNL     1     -16.210 -26.253  20.794  1.00  0.00    -0.060 NA
HETATM   22  O4  UNL     1     -17.846 -24.937  21.593  1.00  0.00    -0.274 OA
ENDBRANCH   1  20
TORSDOF 10
ENDMDL
MODEL 5
REMARK VINA RESULT: -4.976889113      1.812      5.011
REMARK  10 active torsions:
REMARK  status: ('A' for Active; 'I' for Inactive)
REMARK    1  A    between atoms: C2_2  and  C3_3 
REMARK    2  A    between atoms: C3_3  and  O1_4 
REMARK    3  A    between atoms: C3_3  and  C4_8 
REMARK    4  A    between atoms: O1_4  and  N1_5 
REMARK    5  A    between atoms: C4_8  and  C5_9 
REMARK    6  A    between atoms: C4_8  and  N2_12 
REMARK    7  A    between atoms: C4_8  and  C9_20 
REMARK    8  A    between atoms: C5_9  and  O2_10 
REMARK    9  A    between atoms: N2_12  and  C6_14 
REMARK   10  A    between atoms: C6_14  and  C7_15 
REMARK       I    between atoms: C7_15  and  N3_17 
ROOT
HETATM    1  C4  UNL     1     -15.970 -24.700  22.704  1.00  0.00     0.159 C 
ENDROOT
BRANCH   1   2
HETATM    2  C3  UNL     1     -16.206 -25.020  21.224  1.00  0.00     0.190 C 
BRANCH   2   3
HETATM    3  C2  UNL     1     -15.261 -24.486  20.233  1.00  0.00     0.033 C 
HETATM    4  C1  UNL     1     -15.353 -24.972  18.827  1.00  0.00     0.007 C 
ENDBRANCH   2   3
BRANCH   2   5
HETATM    5  O1  UNL     1     -16.181 -26.458  21.108  1.00  0.00    -0.279 OA
BRANCH   5   6
HETATM    6  N1  UNL     1     -16.818 -26.895  20.029  1.00  0.00    -0.311 N 
ATOM      7  H12 UNL     1     -17.100 -26.280  19.266  1.00  0.00     0.184 HD
ATOM      8  H11 UNL     1     -16.990 -27.900  20.055  1.00  0.00     0.184 HD
ENDBRANCH   5   6
ENDBRANCH   2   5
ENDBRANCH   1   2
BRANCH   1   9
HETATM    9  C5  UNL     1     -16.965 -23.813  23.327  1.00  0.00     0.207 C 
BRANCH   9  10
HETATM   10  O2  UNL     1     -18.303 -24.237  23.104  1.00  0.00    -0.398 OA
ATOM     11  H2  UNL     1     -18.803 -24.326  23.907  1.00  0.00     0.209 HD
ENDBRANCH   9  10
ENDBRANCH   1   9
BRANCH   1  12
HETATM   12  N2  UNL     1     -16.057 -26.054  23.293  1.00  0.00    -0.373 N 
ATOM     13  H2  UNL     1     -16.284 -26.868  22.722  1.00  0.00     0.160 HD
BRANCH  12  14
HETATM   14  C6  UNL     1     -15.816 -26.172  24.661  1.00  0.00     0.159 C 
BRANCH  14  15
HETATM   15  C7  UNL     1     -16.329 -27.526  25.110  1.00  0.00     0.256 C 
HETATM   16  O3  UNL     1     -16.758 -27.671  26.263  1.00  0.00    -0.267 OA
HETATM   17  N3  UNL     1     -16.303 -28.611  24.178  1.00  0.00    -0.361 N 
HETATM   18  C8  UNL     1     -16.791 -29.892  24.606  1.00  0.00     0.149 C 
ATOM     19  H3  UNL     1     -15.946 -28.477  23.232  1.00  0.00     0.162 HD
ENDBRANCH  14  15
ENDBRANCH  12  14
ENDBRANCH   1  12
BRANCH   1  20
HETATM   20  C9  UNL     1     -14.566 -24.285  22.855  1.00  0.00     0.264 C 
HETATM   21  N4  UNL     1     -13.448 -24.933  22.261  1.00  0.00    -0.060 NA
HETATM   22  O4  UNL     1     -14.276 -23.291  23.550  1.00  0.00    -0.274 OA
ENDBRANCH   1  20
TORSDOF 10
ENDMDL
