MODEL 1
REMARK VINA RESULT: -5.951542446      0.000      0.000
REMARK  10 active torsions:
REMARK  status: ('A' for Active; 'I' for Inactive)
REMARK    1  A    between atoms: C2_2  and  N1_3 
REMARK    2  A    between atoms: N1_3  and  C3_6 
REMARK    3  A    between atoms: C3_6  and  C4_7 
REMARK       I    between atoms: C4_7  and  N2_9 
REMARK       I    between atoms: N2_9  and  C5_11 
REMARK       I    between atoms: C5_11  and  N3_13 
REMARK    4  A    between atoms: N3_13  and  C6_15 
REMARK    5  A    between atoms: C6_15  and  C7_16 
REMARK    6  A    between atoms: C7_16  and  O3_17 
REMARK    7  A    between atoms: C7_16  and  C8_19 
REMARK    8  A    between atoms: C7_16  and  C9_24 
REMARK    9  A    between atoms: C8_19  and  N4_20 
REMARK   10  A    between atoms: C9_24  and  O4_25 
ROOT
HETATM    1  C4  UNL     1     -15.760 -25.307  20.484  1.00  0.00     0.251 C 
HETATM    2  O1  UNL     1     -16.400 -26.370  20.560  1.00  0.00    -0.271 OA
HETATM    3  N2  UNL     1     -15.299 -24.562  21.554  1.00  0.00    -0.278 N 
ATOM      4  H2  UNL     1     -14.789 -23.711  21.319  1.00  0.00     0.173 HD
HETATM    5  C5  UNL     1     -15.446 -24.832  22.913  1.00  0.00     0.322 C 
HETATM    6  O2  UNL     1     -14.909 -23.948  23.680  1.00  0.00    -0.247 OA
HETATM    7  N3  UNL     1     -16.108 -25.945  23.405  1.00  0.00    -0.340 N 
ATOM      8  H3  UNL     1     -16.458 -26.604  22.709  1.00  0.00     0.164 HD
ENDROOT
BRANCH   7   9
HETATM    9  C6  UNL     1     -16.358 -26.280  24.773  1.00  0.00     0.166 C 
BRANCH   9  10
HETATM   10  C7  UNL     1     -15.665 -27.473  25.282  1.00  0.00     0.118 C 
BRANCH  10  11
HETATM   11  O3  UNL     1     -14.258 -27.368  25.177  1.00  0.00    -0.384 OA
ATOM     12  H3  UNL     1     -13.809 -27.720  25.937  1.00  0.00     0.210 HD
ENDBRANCH  10  11
BRANCH  10  13
HETATM   13  C8  UNL     1     -15.802 -27.260  26.874  1.00  0.00     0.271 C 
BRANCH  13  14
HETATM   14  N4  UNL     1     -15.824 -25.870  27.159  1.00  0.00    -0.076 N 
ATOM     15  H43 UNL     1     -15.416 -25.315  26.407  1.00  0.00     0.274 HD
ATOM     16  H42 UNL     1     -16.767 -25.483  27.129  1.00  0.00     0.274 HD
ATOM     17  H41 UNL     1     -15.366 -25.704  28.055  1.00  0.00     0.274 HD
ENDBRANCH  13  14
ENDBRANCH  10  13
BRANCH  10  18
HETATM   18  C9  UNL     1     -16.233 -28.785  25.003  1.00  0.00     0.205 C 
BRANCH  18  19
HETATM   19  O4  UNL     1     -15.830 -29.239  23.748  1.00  0.00    -0.398 OA
ATOM     20  H4  UNL     1     -16.399 -29.936  23.445  1.00  0.00     0.209 HD
ENDBRANCH  18  19
ENDBRANCH  10  18
ENDBRANCH   9  10
ENDBRANCH   7   9
BRANCH   1  21
HETATM   21  C3  UNL     1     -15.487 -24.827  19.064  1.00  0.00     0.335 C 
BRANCH  21  22
HETATM   22  N1  UNL     1     -15.148 -25.985  18.280  1.00  0.00    -0.067 N 
ATOM     23  H12 UNL     1     -15.112 -26.841  18.834  1.00  0.00     0.277 HD
ATOM     24  H11 UNL     1     -14.175 -25.982  17.972  1.00  0.00     0.277 HD
BRANCH  22  25
HETATM   25  C2  UNL     1     -16.095 -26.069  17.169  1.00  0.00     0.228 C 
HETATM   26  C1  UNL     1     -16.786 -27.403  17.181  1.00  0.00     0.034 C 
ENDBRANCH  22  25
ENDBRANCH  21  22
ENDBRANCH   1  21
TORSDOF 10
ENDMDL
MODEL 2
REMARK VINA RESULT: -5.467391440      2.828      3.726
REMARK  10 active torsions:
REMARK  status: ('A' for Active; 'I' for Inactive)
REMARK    1  A    between atoms: C2_2  and  N1_3 
REMARK    2  A    between atoms: N1_3  and  C3_6 
REMARK    3  A    between atoms: C3_6  and  C4_7 
REMARK       I    between atoms: C4_7  and  N2_9 
REMARK       I    between atoms: N2_9  and  C5_11 
REMARK       I    between atoms: C5_11  and  N3_13 
REMARK    4  A    between atoms: N3_13  and  C6_15 
REMARK    5  A    between atoms: C6_15  and  C7_16 
REMARK    6  A    between atoms: C7_16  and  O3_17 
REMARK    7  A    between atoms: C7_16  and  C8_19 
REMARK    8  A    between atoms: C7_16  and  C9_24 
REMARK    9  A    between atoms: C8_19  and  N4_20 
REMARK   10  A    between atoms: C9_24  and  O4_25 
ROOT
HETATM    1  C4  UNL     1     -12.858 -24.874  21.974  1.00  0.00     0.251 C 
HETATM    2  O1  UNL     1     -12.382 -25.516  22.925  1.00  0.00    -0.271 OA
HETATM    3  N2  UNL     1     -14.204 -24.672  21.727  1.00  0.00    -0.278 N 
ATOM      4  H2  UNL     1     -14.428 -24.118  20.900  1.00  0.00     0.173 HD
HETATM    5  C5  UNL     1     -15.290 -25.132  22.470  1.00  0.00     0.322 C 
HETATM    6  O2  UNL     1     -16.432 -24.785  21.988  1.00  0.00    -0.247 OA
HETATM    7  N3  UNL     1     -15.162 -25.892  23.621  1.00  0.00    -0.340 N 
ATOM      8  H3  UNL     1     -14.209 -26.073  23.937  1.00  0.00     0.164 HD
ENDROOT
BRANCH   7   9
HETATM    9  C6  UNL     1     -16.209 -26.455  24.417  1.00  0.00     0.166 C 
BRANCH   9  10
HETATM   10  C7  UNL     1     -15.841 -27.619  25.236  1.00  0.00     0.118 C 
BRANCH  10  11
HETATM   11  O3  UNL     1     -14.466 -27.635  25.568  1.00  0.00    -0.384 OA
ATOM     12  H3  UNL     1     -14.133 -28.515  25.698  1.00  0.00     0.210 HD
ENDBRANCH  10  11
BRANCH  10  13
HETATM   13  C8  UNL     1     -16.429 -27.188  26.675  1.00  0.00     0.271 C 
BRANCH  13  14
HETATM   14  N4  UNL     1     -15.835 -25.963  27.074  1.00  0.00    -0.076 N 
ATOM     15  H43 UNL     1     -15.076 -26.100  27.741  1.00  0.00     0.274 HD
ATOM     16  H42 UNL     1     -15.292 -25.534  26.324  1.00  0.00     0.274 HD
ATOM     17  H41 UNL     1     -16.558 -25.341  27.433  1.00  0.00     0.274 HD
ENDBRANCH  13  14
ENDBRANCH  10  13
BRANCH  10  18
HETATM   18  C9  UNL     1     -16.442 -28.909  24.928  1.00  0.00     0.205 C 
BRANCH  18  19
HETATM   19  O4  UNL     1     -15.772 -29.524  23.871  1.00  0.00    -0.398 OA
ATOM     20  H4  UNL     1     -15.070 -28.969  23.551  1.00  0.00     0.209 HD
ENDBRANCH  18  19
ENDBRANCH  10  18
ENDBRANCH   9  10
ENDBRANCH   7   9
BRANCH   1  21
HETATM   21  C3  UNL     1     -11.825 -24.277  21.026  1.00  0.00     0.335 C 
BRANCH  21  22
HETATM   22  N1  UNL     1     -11.245 -23.139  21.689  1.00  0.00    -0.067 N 
ATOM     23  H12 UNL     1     -11.473 -23.102  22.683  1.00  0.00     0.277 HD
ATOM     24  H11 UNL     1     -11.680 -22.258  21.416  1.00  0.00     0.277 HD
BRANCH  22  25
HETATM   25  C2  UNL     1      -9.804 -23.160  21.441  1.00  0.00     0.228 C 
HETATM   26  C1  UNL     1      -9.461 -24.274  20.492  1.00  0.00     0.034 C 
ENDBRANCH  22  25
ENDBRANCH  21  22
ENDBRANCH   1  21
TORSDOF 10
ENDMDL
MODEL 3
REMARK VINA RESULT: -5.451833670      1.728      2.096
REMARK  10 active torsions:
REMARK  status: ('A' for Active; 'I' for Inactive)
REMARK    1  A    between atoms: C2_2  and  N1_3 
REMARK    2  A    between atoms: N1_3  and  C3_6 
REMARK    3  A    between atoms: C3_6  and  C4_7 
REMARK       I    between atoms: C4_7  and  N2_9 
REMARK       I    between atoms: N2_9  and  C5_11 
REMARK       I    between atoms: C5_11  and  N3_13 
REMARK    4  A    between atoms: N3_13  and  C6_15 
REMARK    5  A    between atoms: C6_15  and  C7_16 
REMARK    6  A    between atoms: C7_16  and  O3_17 
REMARK    7  A    between atoms: C7_16  and  C8_19 
REMARK    8  A    between atoms: C7_16  and  C9_24 
REMARK    9  A    between atoms: C8_19  and  N4_20 
REMARK   10  A    between atoms: C9_24  and  O4_25 
ROOT
HETATM    1  C4  UNL     1     -15.624 -25.059  21.137  1.00  0.00     0.251 C 
HETATM    2  O1  UNL     1     -14.519 -25.410  21.584  1.00  0.00    -0.271 OA
HETATM    3  N2  UNL     1     -16.754 -24.794  21.890  1.00  0.00    -0.278 N 
ATOM      4  H2  UNL     1     -17.585 -24.516  21.367  1.00  0.00     0.173 HD
HETATM    5  C5  UNL     1     -16.896 -24.861  23.275  1.00  0.00     0.322 C 
HETATM    6  O2  UNL     1     -18.077 -24.559  23.691  1.00  0.00    -0.247 OA
HETATM    7  N3  UNL     1     -15.869 -25.217  24.133  1.00  0.00    -0.340 N 
ATOM      8  H3  UNL     1     -14.962 -25.394  23.700  1.00  0.00     0.164 HD
ENDROOT
BRANCH   7   9
HETATM    9  C6  UNL     1     -15.929 -25.367  25.555  1.00  0.00     0.166 C 
BRANCH   9  10
HETATM   10  C7  UNL     1     -15.685 -26.723  26.070  1.00  0.00     0.118 C 
BRANCH  10  11
HETATM   11  O3  UNL     1     -16.251 -26.925  27.351  1.00  0.00    -0.384 OA
ATOM     12  H3  UNL     1     -15.985 -27.750  27.740  1.00  0.00     0.210 HD
ENDBRANCH  10  11
BRANCH  10  13
HETATM   13  C8  UNL     1     -16.740 -27.581  25.205  1.00  0.00     0.271 C 
BRANCH  13  14
HETATM   14  N4  UNL     1     -16.046 -28.286  24.188  1.00  0.00    -0.076 N 
ATOM     15  H43 UNL     1     -16.379 -29.243  24.084  1.00  0.00     0.274 HD
ATOM     16  H42 UNL     1     -16.281 -27.949  23.254  1.00  0.00     0.274 HD
ATOM     17  H41 UNL     1     -15.044 -28.242  24.373  1.00  0.00     0.274 HD
ENDBRANCH  13  14
ENDBRANCH  10  13
BRANCH  10  18
HETATM   18  C9  UNL     1     -14.384 -27.335  25.839  1.00  0.00     0.205 C 
BRANCH  18  19
HETATM   19  O4  UNL     1     -13.609 -26.540  24.996  1.00  0.00    -0.398 OA
ATOM     20  H4  UNL     1     -12.835 -27.011  24.709  1.00  0.00     0.209 HD
ENDBRANCH  18  19
ENDBRANCH  10  18
ENDBRANCH   9  10
ENDBRANCH   7   9
BRANCH   1  21
HETATM   21  C3  UNL     1     -15.687 -24.924  19.620  1.00  0.00     0.335 C 
BRANCH  21  22
HETATM   22  N1  UNL     1     -16.133 -26.188  19.098  1.00  0.00    -0.067 N 
ATOM     23  H12 UNL     1     -17.109 -26.385  19.320  1.00  0.00     0.277 HD
ATOM     24  H11 UNL     1     -15.720 -26.985  19.584  1.00  0.00     0.277 HD
BRANCH  22  25
HETATM   25  C2  UNL     1     -15.866 -26.200  17.660  1.00  0.00     0.228 C 
HETATM   26  C1  UNL     1     -16.728 -27.230  16.986  1.00  0.00     0.034 C 
ENDBRANCH  22  25
ENDBRANCH  21  22
ENDBRANCH   1  21
TORSDOF 10
ENDMDL
MODEL 4
REMARK VINA RESULT: -5.451645277      1.332      1.927
REMARK  10 active torsions:
REMARK  status: ('A' for Active; 'I' for Inactive)
REMARK    1  A    between atoms: C2_2  and  N1_3 
REMARK    2  A    between atoms: N1_3  and  C3_6 
REMARK    3  A    between atoms: C3_6  and  C4_7 
REMARK       I    between atoms: C4_7  and  N2_9 
REMARK       I    between atoms: N2_9  and  C5_11 
REMARK       I    between atoms: C5_11  and  N3_13 
REMARK    4  A    between atoms: N3_13  and  C6_15 
REMARK    5  A    between atoms: C6_15  and  C7_16 
REMARK    6  A    between atoms: C7_16  and  O3_17 
REMARK    7  A    between atoms: C7_16  and  C8_19 
REMARK    8  A    between atoms: C7_16  and  C9_24 
REMARK    9  A    between atoms: C8_19  and  N4_20 
REMARK   10  A    between atoms: C9_24  and  O4_25 
ROOT
HETATM    1  C4  UNL     1     -15.799 -25.243  20.480  1.00  0.00     0.251 C 
HETATM    2  O1  UNL     1     -16.528 -26.247  20.549  1.00  0.00    -0.271 OA
HETATM    3  N2  UNL     1     -15.322 -24.514  21.555  1.00  0.00    -0.278 N 
ATOM      4  H2  UNL     1     -14.733 -23.714  21.326  1.00  0.00     0.173 HD
HETATM    5  C5  UNL     1     -15.550 -24.739  22.911  1.00  0.00     0.322 C 
HETATM    6  O2  UNL     1     -14.973 -23.886  23.683  1.00  0.00    -0.247 OA
HETATM    7  N3  UNL     1     -16.323 -25.782  23.394  1.00  0.00    -0.340 N 
ATOM      8  H3  UNL     1     -16.698 -26.426  22.697  1.00  0.00     0.164 HD
ENDROOT
BRANCH   7   9
HETATM    9  C6  UNL     1     -16.659 -26.064  24.757  1.00  0.00     0.166 C 
BRANCH   9  10
HETATM   10  C7  UNL     1     -16.026 -27.254  25.344  1.00  0.00     0.118 C 
BRANCH  10  11
HETATM   11  O3  UNL     1     -16.892 -27.954  26.217  1.00  0.00    -0.384 OA
ATOM     12  H3  UNL     1     -16.580 -27.955  27.114  1.00  0.00     0.210 HD
ENDBRANCH  10  11
BRANCH  10  13
HETATM   13  C8  UNL     1     -16.066 -28.277  24.098  1.00  0.00     0.271 C 
BRANCH  13  14
HETATM   14  N4  UNL     1     -16.842 -29.411  24.450  1.00  0.00    -0.076 N 
ATOM     15  H43 UNL     1     -17.205 -29.352  25.400  1.00  0.00     0.274 HD
ATOM     16  H42 UNL     1     -17.734 -29.439  23.956  1.00  0.00     0.274 HD
ATOM     17  H41 UNL     1     -16.290 -30.255  24.299  1.00  0.00     0.274 HD
ENDBRANCH  13  14
ENDBRANCH  10  13
BRANCH  10  18
HETATM   18  C9  UNL     1     -14.630 -27.175  25.751  1.00  0.00     0.205 C 
BRANCH  18  19
HETATM   19  O4  UNL     1     -14.250 -25.848  25.950  1.00  0.00    -0.398 OA
ATOM     20  H4  UNL     1     -13.304 -25.773  25.990  1.00  0.00     0.209 HD
ENDBRANCH  18  19
ENDBRANCH  10  18
ENDBRANCH   9  10
ENDBRANCH   7   9
BRANCH   1  21
HETATM   21  C3  UNL     1     -15.426 -24.820  19.064  1.00  0.00     0.335 C 
BRANCH  21  22
HETATM   22  N1  UNL     1     -15.159 -26.021  18.317  1.00  0.00    -0.067 N 
ATOM     23  H12 UNL     1     -15.185 -26.861  18.896  1.00  0.00     0.277 HD
ATOM     24  H11 UNL     1     -14.187 -26.092  18.018  1.00  0.00     0.277 HD
BRANCH  22  25
HETATM   25  C2  UNL     1     -16.102 -26.074  17.200  1.00  0.00     0.228 C 
HETATM   26  C1  UNL     1     -16.786 -27.411  17.167  1.00  0.00     0.034 C 
ENDBRANCH  22  25
ENDBRANCH  21  22
ENDBRANCH   1  21
TORSDOF 10
ENDMDL
MODEL 5
REMARK VINA RESULT: -5.419668616      1.038      1.215
REMARK  10 active torsions:
REMARK  status: ('A' for Active; 'I' for Inactive)
REMARK    1  A    between atoms: C2_2  and  N1_3 
REMARK    2  A    between atoms: N1_3  and  C3_6 
REMARK    3  A    between atoms: C3_6  and  C4_7 
REMARK       I    between atoms: C4_7  and  N2_9 
REMARK       I    between atoms: N2_9  and  C5_11 
REMARK       I    between atoms: C5_11  and  N3_13 
REMARK    4  A    between atoms: N3_13  and  C6_15 
REMARK    5  A    between atoms: C6_15  and  C7_16 
REMARK    6  A    between atoms: C7_16  and  O3_17 
REMARK    7  A    between atoms: C7_16  and  C8_19 
REMARK    8  A    between atoms: C7_16  and  C9_24 
REMARK    9  A    between atoms: C8_19  and  N4_20 
REMARK   10  A    between atoms: C9_24  and  O4_25 
ROOT
HETATM    1  C4  UNL     1     -15.760 -25.271  20.454  1.00  0.00     0.251 C 
HETATM    2  O1  UNL     1     -16.397 -26.337  20.503  1.00  0.00    -0.271 OA
HETATM    3  N2  UNL     1     -15.331 -24.534  21.543  1.00  0.00    -0.278 N 
ATOM      4  H2  UNL     1     -14.817 -23.679  21.330  1.00  0.00     0.173 HD
HETATM    5  C5  UNL     1     -15.514 -24.817  22.895  1.00  0.00     0.322 C 
HETATM    6  O2  UNL     1     -15.001 -23.938  23.684  1.00  0.00    -0.247 OA
HETATM    7  N3  UNL     1     -16.184 -25.938  23.358  1.00  0.00    -0.340 N 
ATOM      8  H3  UNL     1     -16.513 -26.591  22.647  1.00  0.00     0.164 HD
ENDROOT
BRANCH   7   9
HETATM    9  C6  UNL     1     -16.470 -26.286  24.716  1.00  0.00     0.166 C 
BRANCH   9  10
HETATM   10  C7  UNL     1     -16.042 -27.627  25.141  1.00  0.00     0.118 C 
BRANCH  10  11
HETATM   11  O3  UNL     1     -15.458 -28.369  24.088  1.00  0.00    -0.384 OA
ATOM     12  H3  UNL     1     -15.120 -29.208  24.377  1.00  0.00     0.210 HD
ENDBRANCH  10  11
BRANCH  10  13
HETATM   13  C8  UNL     1     -14.698 -27.280  25.962  1.00  0.00     0.271 C 
BRANCH  13  14
HETATM   14  N4  UNL     1     -14.896 -26.082  26.696  1.00  0.00    -0.076 N 
ATOM     15  H43 UNL     1     -15.067 -26.258  27.685  1.00  0.00     0.274 HD
ATOM     16  H42 UNL     1     -14.036 -25.541  26.792  1.00  0.00     0.274 HD
ATOM     17  H41 UNL     1     -15.645 -25.543  26.263  1.00  0.00     0.274 HD
ENDBRANCH  13  14
ENDBRANCH  10  13
BRANCH  10  18
HETATM   18  C9  UNL     1     -16.890 -28.375  26.059  1.00  0.00     0.205 C 
BRANCH  18  19
HETATM   19  O4  UNL     1     -17.217 -27.598  27.170  1.00  0.00    -0.398 OA
ATOM     20  H4  UNL     1     -16.931 -26.701  27.048  1.00  0.00     0.209 HD
ENDBRANCH  18  19
ENDBRANCH  10  18
ENDBRANCH   9  10
ENDBRANCH   7   9
BRANCH   1  21
HETATM   21  C3  UNL     1     -15.450 -24.777  19.046  1.00  0.00     0.335 C 
BRANCH  21  22
HETATM   22  N1  UNL     1     -15.117 -25.930  18.253  1.00  0.00    -0.067 N 
ATOM     23  H12 UNL     1     -15.061 -26.787  18.804  1.00  0.00     0.277 HD
ATOM     24  H11 UNL     1     -14.152 -25.917  17.923  1.00  0.00     0.277 HD
BRANCH  22  25
HETATM   25  C2  UNL     1     -16.088 -26.022  17.163  1.00  0.00     0.228 C 
HETATM   26  C1  UNL     1     -16.741 -27.375  17.168  1.00  0.00     0.034 C 
ENDBRANCH  22  25
ENDBRANCH  21  22
ENDBRANCH   1  21
TORSDOF 10
ENDMDL
