MODEL 1
REMARK VINA RESULT: -5.557853975      0.000      0.000
REMARK  2 active torsions:
REMARK  status: ('A' for Active; 'I' for Inactive)
REMARK    1  A    between atoms: C1_2  and  C2_3 
REMARK    2  A    between atoms: C2_3  and  C3_4 
ROOT
HETATM    1  C3  UNL     1      16.096 152.803 380.764  1.00  0.00    -0.034 A 
HETATM    2  C4  UNL     1      15.285 151.699 380.859  1.00  0.00     0.095 A 
HETATM    3  N1  UNL     1      15.613 150.957 381.933  1.00  0.00    -0.368 N 
ATOM      4  H1  UNL     1      15.170 150.088 382.232  1.00  0.00     0.165 HD
HETATM    5  C5  UNL     1      16.646 151.588 382.539  1.00  0.00     0.015 A 
HETATM    6  C6  UNL     1      16.957 152.732 381.828  1.00  0.00    -0.028 A 
HETATM    7  C7  UNL     1      18.084 153.571 382.347  1.00  0.00     0.041 C 
HETATM    8  C8  UNL     1      19.277 152.706 382.701  1.00  0.00     0.005 C 
HETATM    9  C9  UNL     1      18.911 151.448 383.408  1.00  0.00     0.006 C 
HETATM   10  C10 UNL     1      17.467 151.313 383.747  1.00  0.00     0.057 C 
ENDROOT
BRANCH   1  11
HETATM   11  C2  UNL     1      16.117 153.897 379.765  1.00  0.00     0.051 C 
BRANCH  11  12
HETATM   12  C1  UNL     1      15.509 155.167 380.275  1.00  0.00     0.089 C 
HETATM   13 BR1  UNL     1      16.573 156.633 379.543  1.00  0.00    -0.096 Br
ENDBRANCH  11  12
ENDBRANCH   1  11
TORSDOF 2
ENDMDL
MODEL 2
REMARK VINA RESULT: -5.380309712      1.232      1.491
REMARK  2 active torsions:
REMARK  status: ('A' for Active; 'I' for Inactive)
REMARK    1  A    between atoms: C1_2  and  C2_3 
REMARK    2  A    between atoms: C2_3  and  C3_4 
ROOT
HETATM    1  C3  UNL     1      16.996 153.644 380.081  1.00  0.00    -0.034 A 
HETATM    2  C4  UNL     1      16.039 152.872 379.469  1.00  0.00     0.095 A 
HETATM    3  N1  UNL     1      15.560 151.945 380.318  1.00  0.00    -0.368 N 
ATOM      4  H1  UNL     1      14.845 151.246 380.116  1.00  0.00     0.165 HD
HETATM    5  C5  UNL     1      16.212 152.119 381.491  1.00  0.00     0.015 A 
HETATM    6  C6  UNL     1      17.104 153.167 381.361  1.00  0.00    -0.028 A 
HETATM    7  C7  UNL     1      17.926 153.514 382.565  1.00  0.00     0.041 C 
HETATM    8  C8  UNL     1      18.510 152.265 383.193  1.00  0.00     0.005 C 
HETATM    9  C9  UNL     1      17.550 151.129 383.262  1.00  0.00     0.006 C 
HETATM   10  C10 UNL     1      16.164 151.447 382.816  1.00  0.00     0.057 C 
ENDROOT
BRANCH   1  11
HETATM   11  C2  UNL     1      17.797 154.776 379.559  1.00  0.00     0.051 C 
BRANCH  11  12
HETATM   12  C1  UNL     1      16.980 155.764 378.786  1.00  0.00     0.089 C 
HETATM   13 BR1  UNL     1      15.610 156.438 380.007  1.00  0.00    -0.096 Br
ENDBRANCH  11  12
ENDBRANCH   1  11
TORSDOF 2
ENDMDL
MODEL 3
REMARK VINA RESULT: -5.370161665      3.512      4.758
REMARK  2 active torsions:
REMARK  status: ('A' for Active; 'I' for Inactive)
REMARK    1  A    between atoms: C1_2  and  C2_3 
REMARK    2  A    between atoms: C2_3  and  C3_4 
ROOT
HETATM    1  C3  UNL     1      16.327 154.728 379.712  1.00  0.00    -0.034 A 
HETATM    2  C4  UNL     1      15.976 156.015 379.385  1.00  0.00     0.095 A 
HETATM    3  N1  UNL     1      16.955 156.613 378.681  1.00  0.00    -0.368 N 
ATOM      4  H1  UNL     1      16.949 157.565 378.318  1.00  0.00     0.165 HD
HETATM    5  C5  UNL     1      17.949 155.703 378.550  1.00  0.00     0.015 A 
HETATM    6  C6  UNL     1      17.576 154.531 379.183  1.00  0.00    -0.028 A 
HETATM    7  C7  UNL     1      18.554 153.397 379.147  1.00  0.00     0.041 C 
HETATM    8  C8  UNL     1      19.949 153.882 379.490  1.00  0.00     0.005 C 
HETATM    9  C9  UNL     1      20.303 155.178 378.850  1.00  0.00     0.006 C 
HETATM   10  C10 UNL     1      19.286 155.711 377.900  1.00  0.00     0.057 C 
ENDROOT
BRANCH   1  11
HETATM   11  C2  UNL     1      15.587 153.692 380.469  1.00  0.00     0.051 C 
BRANCH  11  12
HETATM   12  C1  UNL     1      16.133 153.470 381.846  1.00  0.00     0.089 C 
HETATM   13 BR1  UNL     1      15.944 151.562 382.225  1.00  0.00    -0.096 Br
ENDBRANCH  11  12
ENDBRANCH   1  11
TORSDOF 2
ENDMDL
MODEL 4
REMARK VINA RESULT: -5.351116233      3.460      4.726
REMARK  2 active torsions:
REMARK  status: ('A' for Active; 'I' for Inactive)
REMARK    1  A    between atoms: C1_2  and  C2_3 
REMARK    2  A    between atoms: C2_3  and  C3_4 
ROOT
HETATM    1  C3  UNL     1      16.265 155.039 380.123  1.00  0.00    -0.034 A 
HETATM    2  C4  UNL     1      15.701 155.881 379.197  1.00  0.00     0.095 A 
HETATM    3  N1  UNL     1      16.652 156.543 378.512  1.00  0.00    -0.368 N 
ATOM      4  H1  UNL     1      16.503 157.228 377.770  1.00  0.00     0.165 HD
HETATM    5  C5  UNL     1      17.843 156.124 378.998  1.00  0.00     0.015 A 
HETATM    6  C6  UNL     1      17.621 155.192 379.996  1.00  0.00    -0.028 A 
HETATM    7  C7  UNL     1      18.829 154.608 380.662  1.00  0.00     0.041 C 
HETATM    8  C8  UNL     1      19.820 155.696 381.025  1.00  0.00     0.005 C 
HETATM    9  C9  UNL     1      19.992 156.723 379.961  1.00  0.00     0.006 C 
HETATM   10  C10 UNL     1      19.262 156.445 378.693  1.00  0.00     0.057 C 
ENDROOT
BRANCH   1  11
HETATM   11  C2  UNL     1      15.633 154.118 381.096  1.00  0.00     0.051 C 
BRANCH  11  12
HETATM   12  C1  UNL     1      15.668 152.687 380.656  1.00  0.00     0.089 C 
HETATM   13 BR1  UNL     1      16.014 151.616 382.254  1.00  0.00    -0.096 Br
ENDBRANCH  11  12
ENDBRANCH   1  11
TORSDOF 2
ENDMDL
MODEL 5
REMARK VINA RESULT: -5.338196366      2.886      4.525
REMARK  2 active torsions:
REMARK  status: ('A' for Active; 'I' for Inactive)
REMARK    1  A    between atoms: C1_2  and  C2_3 
REMARK    2  A    between atoms: C2_3  and  C3_4 
ROOT
HETATM    1  C3  UNL     1      17.209 151.798 382.877  1.00  0.00    -0.034 A 
HETATM    2  C4  UNL     1      16.183 150.932 382.589  1.00  0.00     0.095 A 
HETATM    3  N1  UNL     1      15.483 151.360 381.522  1.00  0.00    -0.368 N 
ATOM      4  H1  UNL     1      14.673 150.904 381.102  1.00  0.00     0.165 HD
HETATM    5  C5  UNL     1      16.063 152.513 381.115  1.00  0.00     0.015 A 
HETATM    6  C6  UNL     1      17.133 152.798 381.944  1.00  0.00    -0.028 A 
HETATM    7  C7  UNL     1      17.907 154.047 381.650  1.00  0.00     0.041 C 
HETATM    8  C8  UNL     1      16.970 155.213 381.408  1.00  0.00     0.005 C 
HETATM    9  C9  UNL     1      15.791 154.865 380.569  1.00  0.00     0.006 C 
HETATM   10  C10 UNL     1      15.795 153.481 380.019  1.00  0.00     0.057 C 
ENDROOT
BRANCH   1  11
HETATM   11  C2  UNL     1      18.236 151.751 383.944  1.00  0.00     0.051 C 
BRANCH  11  12
HETATM   12  C1  UNL     1      18.858 150.397 384.099  1.00  0.00     0.089 C 
HETATM   13 BR1  UNL     1      18.515 149.828 385.937  1.00  0.00    -0.096 Br
ENDBRANCH  11  12
ENDBRANCH   1  11
TORSDOF 2
ENDMDL
