MODEL 1
REMARK VINA RESULT: -5.862708232      0.000      0.000
REMARK  2 active torsions:
REMARK  status: ('A' for Active; 'I' for Inactive)
REMARK       I    between atoms: N1_2  and  C3_4 
REMARK    1  A    between atoms: N3_6  and  C4_8 
REMARK    2  A    between atoms: C4_8  and  C5_9 
ROOT
HETATM    1  C5  UNL     1      17.389 155.989 380.198  1.00  0.00     0.013 C 
HETATM    2  C6  UNL     1      15.907 155.685 380.594  1.00  0.00     0.086 C 
HETATM    3  C7  UNL     1      15.945 154.377 381.102  1.00  0.00    -0.183 C 
HETATM    4  C8  UNL     1      15.579 153.168 381.717  1.00  0.00     0.080 C 
HETATM    5  C9  UNL     1      16.918 152.361 381.794  1.00  0.00     0.011 C 
HETATM    6  C10 UNL     1      18.126 153.135 382.101  1.00  0.00     0.001 C 
HETATM    7  C11 UNL     1      18.822 153.963 381.027  1.00  0.00     0.000 C 
HETATM    8  C12 UNL     1      18.429 155.407 381.048  1.00  0.00     0.007 C 
ENDROOT
BRANCH   1   9
HETATM    9  C4  UNL     1      17.590 155.600 378.759  1.00  0.00     0.127 C 
BRANCH   9  10
HETATM   10  N3  UNL     1      18.517 156.589 378.191  1.00  0.00    -0.364 N 
HETATM   11  C3  UNL     1      19.628 156.273 377.676  1.00  0.00     0.185 C 
HETATM   12  N1  UNL     1      20.463 157.284 377.151  1.00  0.00    -0.364 N 
HETATM   13  N2  UNL     1      20.061 154.927 377.608  1.00  0.00    -0.064 NA
HETATM   14  C1  UNL     1      21.447 157.887 378.018  1.00  0.00     0.151 C 
HETATM   15  C2  UNL     1      20.359 157.729 375.782  1.00  0.00     0.151 C 
ATOM     16  H3  UNL     1      18.252 157.574 378.214  1.00  0.00     0.162 HD
ENDBRANCH   9  10
ENDBRANCH   1   9
TORSDOF 2
ENDMDL
MODEL 2
REMARK VINA RESULT: -5.841486390      1.355      1.637
REMARK  2 active torsions:
REMARK  status: ('A' for Active; 'I' for Inactive)
REMARK       I    between atoms: N1_2  and  C3_4 
REMARK    1  A    between atoms: N3_6  and  C4_8 
REMARK    2  A    between atoms: C4_8  and  C5_9 
ROOT
HETATM    1  C5  UNL     1      16.952 154.447 380.796  1.00  0.00     0.013 C 
HETATM    2  C6  UNL     1      15.586 153.723 381.026  1.00  0.00     0.086 C 
HETATM    3  C7  UNL     1      15.920 152.582 381.773  1.00  0.00    -0.183 C 
HETATM    4  C8  UNL     1      15.827 151.414 382.547  1.00  0.00     0.080 C 
HETATM    5  C9  UNL     1      17.305 151.116 382.965  1.00  0.00     0.011 C 
HETATM    6  C10 UNL     1      18.135 152.282 383.290  1.00  0.00     0.001 C 
HETATM    7  C11 UNL     1      18.742 153.144 382.189  1.00  0.00     0.000 C 
HETATM    8  C12 UNL     1      17.932 154.364 381.880  1.00  0.00     0.007 C 
ENDROOT
BRANCH   1   9
HETATM    9  C4  UNL     1      17.541 153.960 379.500  1.00  0.00     0.127 C 
BRANCH   9  10
HETATM   10  N3  UNL     1      18.174 155.127 378.871  1.00  0.00    -0.364 N 
HETATM   11  C3  UNL     1      19.406 155.172 378.586  1.00  0.00     0.185 C 
HETATM   12  N1  UNL     1      19.937 156.332 377.982  1.00  0.00    -0.364 N 
HETATM   13  N2  UNL     1      20.271 154.085 378.857  1.00  0.00    -0.064 NA
HETATM   14  C1  UNL     1      20.466 157.373 378.830  1.00  0.00     0.151 C 
HETATM   15  C2  UNL     1      19.967 156.504 376.549  1.00  0.00     0.151 C 
ATOM     16  H3  UNL     1      17.594 155.938 378.654  1.00  0.00     0.162 HD
ENDBRANCH   9  10
ENDBRANCH   1   9
TORSDOF 2
ENDMDL
MODEL 3
REMARK VINA RESULT: -5.716123784      3.672      6.347
REMARK  2 active torsions:
REMARK  status: ('A' for Active; 'I' for Inactive)
REMARK       I    between atoms: N1_2  and  C3_4 
REMARK    1  A    between atoms: N3_6  and  C4_8 
REMARK    2  A    between atoms: C4_8  and  C5_9 
ROOT
HETATM    1  C5  UNL     1      18.147 154.524 381.891  1.00  0.00     0.013 C 
HETATM    2  C6  UNL     1      18.912 155.386 380.835  1.00  0.00     0.086 C 
HETATM    3  C7  UNL     1      17.954 155.646 379.841  1.00  0.00    -0.183 C 
HETATM    4  C8  UNL     1      17.308 156.167 378.709  1.00  0.00     0.080 C 
HETATM    5  C9  UNL     1      15.843 155.629 378.826  1.00  0.00     0.011 C 
HETATM    6  C10 UNL     1      15.275 155.582 380.177  1.00  0.00     0.001 C 
HETATM    7  C11 UNL     1      15.641 154.462 381.145  1.00  0.00     0.000 C 
HETATM    8  C12 UNL     1      16.732 154.838 382.098  1.00  0.00     0.007 C 
ENDROOT
BRANCH   1   9
HETATM    9  C4  UNL     1      18.331 153.070 381.549  1.00  0.00     0.127 C 
BRANCH   9  10
HETATM   10  N3  UNL     1      18.891 152.433 382.748  1.00  0.00    -0.364 N 
HETATM   11  C3  UNL     1      18.224 151.650 383.485  1.00  0.00     0.185 C 
HETATM   12  N1  UNL     1      18.836 151.077 384.622  1.00  0.00    -0.364 N 
HETATM   13  N2  UNL     1      16.875 151.329 383.201  1.00  0.00    -0.064 NA
HETATM   14  C1  UNL     1      18.734 151.768 385.885  1.00  0.00     0.151 C 
HETATM   15  C2  UNL     1      19.555 149.827 384.557  1.00  0.00     0.151 C 
ATOM     16  H3  UNL     1      19.860 152.630 382.999  1.00  0.00     0.162 HD
ENDBRANCH   9  10
ENDBRANCH   1   9
TORSDOF 2
ENDMDL
MODEL 4
REMARK VINA RESULT: -5.674979700      1.215      2.158
REMARK  2 active torsions:
REMARK  status: ('A' for Active; 'I' for Inactive)
REMARK       I    between atoms: N1_2  and  C3_4 
REMARK    1  A    between atoms: N3_6  and  C4_8 
REMARK    2  A    between atoms: C4_8  and  C5_9 
ROOT
HETATM    1  C5  UNL     1      18.122 155.135 378.750  1.00  0.00     0.013 C 
HETATM    2  C6  UNL     1      18.442 153.642 379.084  1.00  0.00     0.086 C 
HETATM    3  C7  UNL     1      17.596 153.340 380.164  1.00  0.00    -0.183 C 
HETATM    4  C8  UNL     1      16.897 152.642 381.162  1.00  0.00     0.080 C 
HETATM    5  C9  UNL     1      15.912 153.707 381.750  1.00  0.00     0.011 C 
HETATM    6  C10 UNL     1      15.311 154.637 380.789  1.00  0.00     0.001 C 
HETATM    7  C11 UNL     1      16.096 155.828 380.252  1.00  0.00     0.000 C 
HETATM    8  C12 UNL     1      16.733 155.566 378.924  1.00  0.00     0.007 C 
ENDROOT
BRANCH   1   9
HETATM    9  C4  UNL     1      19.060 156.014 379.532  1.00  0.00     0.127 C 
BRANCH   9  10
HETATM   10  N3  UNL     1      19.482 157.083 378.617  1.00  0.00    -0.364 N 
HETATM   11  C3  UNL     1      20.598 157.077 378.021  1.00  0.00     0.185 C 
HETATM   12  N1  UNL     1      20.929 158.143 377.156  1.00  0.00    -0.364 N 
HETATM   13  N2  UNL     1      21.530 156.026 378.196  1.00  0.00    -0.064 NA
HETATM   14  C1  UNL     1      21.634 159.280 377.698  1.00  0.00     0.151 C 
HETATM   15  C2  UNL     1      20.585 158.127 375.754  1.00  0.00     0.151 C 
ATOM     16  H3  UNL     1      18.847 157.865 378.454  1.00  0.00     0.162 HD
ENDBRANCH   9  10
ENDBRANCH   1   9
TORSDOF 2
ENDMDL
MODEL 5
REMARK VINA RESULT: -5.613477959      3.568      6.323
REMARK  2 active torsions:
REMARK  status: ('A' for Active; 'I' for Inactive)
REMARK       I    between atoms: N1_2  and  C3_4 
REMARK    1  A    between atoms: N3_6  and  C4_8 
REMARK    2  A    between atoms: C4_8  and  C5_9 
ROOT
HETATM    1  C5  UNL     1      17.819 154.430 382.023  1.00  0.00     0.013 C 
HETATM    2  C6  UNL     1      18.768 155.201 381.049  1.00  0.00     0.086 C 
HETATM    3  C7  UNL     1      17.945 155.548 379.966  1.00  0.00    -0.183 C 
HETATM    4  C8  UNL     1      17.470 156.121 378.775  1.00  0.00     0.080 C 
HETATM    5  C9  UNL     1      15.954 155.734 378.745  1.00  0.00     0.011 C 
HETATM    6  C10 UNL     1      15.253 155.757 380.033  1.00  0.00     0.001 C 
HETATM    7  C11 UNL     1      15.406 154.615 381.031  1.00  0.00     0.000 C 
HETATM    8  C12 UNL     1      16.430 154.887 382.088  1.00  0.00     0.007 C 
ENDROOT
BRANCH   1   9
HETATM    9  C4  UNL     1      17.888 152.962 381.700  1.00  0.00     0.127 C 
BRANCH   9  10
HETATM   10  N3  UNL     1      17.967 152.260 382.987  1.00  0.00    -0.364 N 
HETATM   11  C3  UNL     1      19.064 151.944 383.532  1.00  0.00     0.185 C 
HETATM   12  N1  UNL     1      19.054 151.269 384.773  1.00  0.00    -0.364 N 
HETATM   13  N2  UNL     1      20.309 152.250 382.932  1.00  0.00    -0.064 NA
HETATM   14  C1  UNL     1      19.053 149.825 384.775  1.00  0.00     0.151 C 
HETATM   15  C2  UNL     1      19.044 151.978 386.030  1.00  0.00     0.151 C 
ATOM     16  H3  UNL     1      17.098 152.015 383.463  1.00  0.00     0.162 HD
ENDBRANCH   9  10
ENDBRANCH   1   9
TORSDOF 2
ENDMDL
