MODEL 1
REMARK VINA RESULT: -5.907605183      0.000      0.000
REMARK  2 active torsions:
REMARK  status: ('A' for Active; 'I' for Inactive)
REMARK    1  A    between atoms: C3_3  and  C8_9 
REMARK    2  A    between atoms: C4_4  and  C5_6 
ROOT
HETATM    1  C1  UNL     1      14.583 156.503 379.490  1.00  0.00     0.018 C 
HETATM    2  C2  UNL     1      15.658 155.970 379.606  1.00  0.00    -0.074 C 
HETATM    3  C3  UNL     1      16.943 155.316 379.737  1.00  0.00     0.057 C 
HETATM    4  C4  UNL     1      17.041 154.170 380.365  1.00  0.00     0.014 C 
HETATM    5 BR1  UNL     1      18.718 153.308 380.543  1.00  0.00    -0.054 Br
ENDROOT
BRANCH   3   6
HETATM    6  C8  UNL     1      18.118 155.936 379.142  1.00  0.00     0.051 A 
HETATM    7  C9  UNL     1      18.925 156.863 379.830  1.00  0.00     0.032 A 
HETATM    8  C10 UNL     1      19.901 157.232 378.943  1.00  0.00     0.019 A 
HETATM    9  C11 UNL     1      19.722 156.578 377.764  1.00  0.00     0.088 A 
HETATM   10  N1  UNL     1      18.628 155.793 377.909  1.00  0.00    -0.365 N 
ATOM     11  H1  UNL     1      18.247 155.183 377.186  1.00  0.00     0.165 HD
ENDBRANCH   3   6
BRANCH   4  12
HETATM   12  C5  UNL     1      15.823 153.509 380.959  1.00  0.00     0.027 A 
HETATM   13  C6  UNL     1      16.091 152.428 381.927  1.00  0.00     0.010 A 
HETATM   14  C7  UNL     1      15.565 152.130 380.554  1.00  0.00     0.010 A 
ENDBRANCH   4  12
TORSDOF 2
ENDMDL
MODEL 2
REMARK VINA RESULT: -5.749620528      1.593      4.568
REMARK  2 active torsions:
REMARK  status: ('A' for Active; 'I' for Inactive)
REMARK    1  A    between atoms: C3_3  and  C8_9 
REMARK    2  A    between atoms: C4_4  and  C5_6 
ROOT
HETATM    1  C1  UNL     1      14.633 156.533 379.588  1.00  0.00     0.018 C 
HETATM    2  C2  UNL     1      15.457 155.661 379.707  1.00  0.00    -0.074 C 
HETATM    3  C3  UNL     1      16.458 154.627 379.860  1.00  0.00     0.057 C 
HETATM    4  C4  UNL     1      17.667 154.799 379.385  1.00  0.00     0.014 C 
HETATM    5 BR1  UNL     1      18.982 153.451 379.577  1.00  0.00    -0.054 Br
ENDROOT
BRANCH   3   6
HETATM    6  C8  UNL     1      16.111 153.404 380.570  1.00  0.00     0.051 A 
HETATM    7  C9  UNL     1      16.396 153.204 381.935  1.00  0.00     0.032 A 
HETATM    8  C10 UNL     1      15.946 151.943 382.224  1.00  0.00     0.019 A 
HETATM    9  C11 UNL     1      15.409 151.378 381.109  1.00  0.00     0.088 A 
HETATM   10  N1  UNL     1      15.521 152.288 380.112  1.00  0.00    -0.365 N 
ATOM     11  H1  UNL     1      15.204 152.147 379.153  1.00  0.00     0.165 HD
ENDBRANCH   3   6
BRANCH   4  12
HETATM   12  C5  UNL     1      18.041 156.075 378.673  1.00  0.00     0.027 A 
HETATM   13  C6  UNL     1      19.310 156.039 377.922  1.00  0.00     0.010 A 
HETATM   14  C7  UNL     1      19.186 156.808 379.204  1.00  0.00     0.010 A 
ENDBRANCH   4  12
TORSDOF 2
ENDMDL
MODEL 3
REMARK VINA RESULT: -5.693063835      1.610      4.674
REMARK  2 active torsions:
REMARK  status: ('A' for Active; 'I' for Inactive)
REMARK    1  A    between atoms: C3_3  and  C8_9 
REMARK    2  A    between atoms: C4_4  and  C5_6 
ROOT
HETATM    1  C1  UNL     1      14.708 156.497 379.609  1.00  0.00     0.018 C 
HETATM    2  C2  UNL     1      15.563 155.662 379.773  1.00  0.00    -0.074 C 
HETATM    3  C3  UNL     1      16.599 154.673 379.978  1.00  0.00     0.057 C 
HETATM    4  C4  UNL     1      17.805 154.868 379.506  1.00  0.00     0.014 C 
HETATM    5 BR1  UNL     1      19.166 153.578 379.767  1.00  0.00    -0.054 Br
ENDROOT
BRANCH   3   6
HETATM    6  C8  UNL     1      16.289 153.469 380.737  1.00  0.00     0.051 A 
HETATM    7  C9  UNL     1      15.625 152.361 380.175  1.00  0.00     0.032 A 
HETATM    8  C10 UNL     1      15.497 151.454 381.194  1.00  0.00     0.019 A 
HETATM    9  C11 UNL     1      16.046 151.958 382.331  1.00  0.00     0.088 A 
HETATM   10  N1  UNL     1      16.522 153.189 382.028  1.00  0.00    -0.365 N 
ATOM     11  H1  UNL     1      16.991 153.812 382.686  1.00  0.00     0.165 HD
ENDBRANCH   3   6
BRANCH   4  12
HETATM   12  C5  UNL     1      18.140 156.125 378.743  1.00  0.00     0.027 A 
HETATM   13  C6  UNL     1      19.319 156.043 377.861  1.00  0.00     0.010 A 
HETATM   14  C7  UNL     1      19.357 156.826 379.140  1.00  0.00     0.010 A 
ENDBRANCH   4  12
TORSDOF 2
ENDMDL
MODEL 4
REMARK VINA RESULT: -5.623689038      0.799      1.066
REMARK  2 active torsions:
REMARK  status: ('A' for Active; 'I' for Inactive)
REMARK    1  A    between atoms: C3_3  and  C8_9 
REMARK    2  A    between atoms: C4_4  and  C5_6 
ROOT
HETATM    1  C1  UNL     1      14.666 156.306 379.563  1.00  0.00     0.018 C 
HETATM    2  C2  UNL     1      15.758 155.843 379.772  1.00  0.00    -0.074 C 
HETATM    3  C3  UNL     1      17.065 155.269 380.015  1.00  0.00     0.057 C 
HETATM    4  C4  UNL     1      17.186 154.165 380.709  1.00  0.00     0.014 C 
HETATM    5 BR1  UNL     1      18.892 153.409 381.034  1.00  0.00    -0.054 Br
ENDROOT
BRANCH   3   6
HETATM    6  C8  UNL     1      18.241 155.923 379.457  1.00  0.00     0.051 A 
HETATM    7  C9  UNL     1      18.737 155.637 378.170  1.00  0.00     0.032 A 
HETATM    8  C10 UNL     1      19.849 156.423 378.021  1.00  0.00     0.019 A 
HETATM    9  C11 UNL     1      20.045 157.161 379.146  1.00  0.00     0.088 A 
HETATM   10  N1  UNL     1      19.052 156.839 380.009  1.00  0.00    -0.365 N 
ATOM     11  H1  UNL     1      18.937 157.235 380.942  1.00  0.00     0.165 HD
ENDBRANCH   3   6
BRANCH   4  12
HETATM   12  C5  UNL     1      15.970 153.468 381.266  1.00  0.00     0.027 A 
HETATM   13  C6  UNL     1      16.237 152.243 382.044  1.00  0.00     0.010 A 
HETATM   14  C7  UNL     1      15.628 152.178 380.674  1.00  0.00     0.010 A 
ENDBRANCH   4  12
TORSDOF 2
ENDMDL
MODEL 5
REMARK VINA RESULT: -5.612385769      2.364      4.010
REMARK  2 active torsions:
REMARK  status: ('A' for Active; 'I' for Inactive)
REMARK    1  A    between atoms: C3_3  and  C8_9 
REMARK    2  A    between atoms: C4_4  and  C5_6 
ROOT
HETATM    1  C1  UNL     1      15.596 151.210 382.486  1.00  0.00     0.018 C 
HETATM    2  C2  UNL     1      16.303 152.119 382.130  1.00  0.00    -0.074 C 
HETATM    3  C3  UNL     1      17.165 153.197 381.695  1.00  0.00     0.057 C 
HETATM    4  C4  UNL     1      18.420 153.234 382.067  1.00  0.00     0.014 C 
HETATM    5 BR1  UNL     1      19.553 154.643 381.504  1.00  0.00    -0.054 Br
ENDROOT
BRANCH   3   6
HETATM    6  C8  UNL     1      16.623 154.228 380.820  1.00  0.00     0.051 A 
HETATM    7  C9  UNL     1      15.899 155.336 381.301  1.00  0.00     0.032 A 
HETATM    8  C10 UNL     1      15.542 156.053 380.189  1.00  0.00     0.019 A 
HETATM    9  C11 UNL     1      16.011 155.435 379.072  1.00  0.00     0.088 A 
HETATM   10  N1  UNL     1      16.667 154.322 379.482  1.00  0.00    -0.365 N 
ATOM     11  H1  UNL     1      17.128 153.655 378.864  1.00  0.00     0.165 HD
ENDBRANCH   3   6
BRANCH   4  12
HETATM   12  C5  UNL     1      18.994 152.155 382.950  1.00  0.00     0.027 A 
HETATM   13  C6  UNL     1      19.316 152.564 384.331  1.00  0.00     0.010 A 
HETATM   14  C7  UNL     1      20.398 152.297 383.326  1.00  0.00     0.010 A 
ENDBRANCH   4  12
TORSDOF 2
ENDMDL
