MODEL 1
REMARK VINA RESULT: -5.994853266      0.000      0.000
REMARK  2 active torsions:
REMARK  status: ('A' for Active; 'I' for Inactive)
REMARK    1  A    between atoms: C5_8  and  C6_9 
REMARK    2  A    between atoms: C6_9  and  N2_10 
ROOT
HETATM    1  C6  UNL     1      18.246 153.279 381.066  1.00  0.00     0.219 C 
ENDROOT
BRANCH   1   2
HETATM    2  C5  UNL     1      16.946 152.609 381.245  1.00  0.00     0.049 A 
HETATM    3  C2  UNL     1      16.716 151.724 382.299  1.00  0.00     0.019 A 
HETATM    4  C1  UNL     1      17.590 151.617 383.488  1.00  0.00     0.069 C 
HETATM    5  N1  UNL     1      15.596 151.022 382.068  1.00  0.00    -0.366 N 
HETATM    6  C3  UNL     1      15.087 151.404 380.896  1.00  0.00     0.131 A 
ATOM      7  H1  UNL     1      15.200 150.314 382.687  1.00  0.00     0.165 HD
HETATM    8  C4  UNL     1      15.895 152.392 380.395  1.00  0.00     0.145 A 
HETATM    9  F1  UNL     1      15.679 152.935 379.177  1.00  0.00    -0.204 F 
ENDBRANCH   1   2
BRANCH   1  10
HETATM   10  N2  UNL     1      18.315 154.564 380.497  1.00  0.00    -0.046 N 
HETATM   11  C7  UNL     1      18.667 154.329 379.078  1.00  0.00     0.243 C 
HETATM   12  C8  UNL     1      19.168 155.532 378.378  1.00  0.00     0.033 C 
HETATM   13  C9  UNL     1      19.010 156.721 379.287  1.00  0.00    -0.010 C 
HETATM   14  C10 UNL     1      19.886 156.463 380.493  1.00  0.00     0.033 C 
HETATM   15  C12 UNL     1      17.579 156.740 379.781  1.00  0.00     0.033 C 
HETATM   16  C11 UNL     1      19.579 155.132 381.096  1.00  0.00     0.243 C 
HETATM   17  C13 UNL     1      17.334 155.528 380.678  1.00  0.00     0.243 C 
ENDBRANCH   1  10
TORSDOF 2
ENDMDL
MODEL 2
REMARK VINA RESULT: -5.938754285      1.895      5.064
REMARK  2 active torsions:
REMARK  status: ('A' for Active; 'I' for Inactive)
REMARK    1  A    between atoms: C5_8  and  C6_9 
REMARK    2  A    between atoms: C6_9  and  N2_10 
ROOT
HETATM    1  C6  UNL     1      19.250 154.674 380.411  1.00  0.00     0.219 C 
ENDROOT
BRANCH   1   2
HETATM    2  C5  UNL     1      19.602 155.252 379.102  1.00  0.00     0.049 A 
HETATM    3  C2  UNL     1      19.339 156.587 378.796  1.00  0.00     0.019 A 
HETATM    4  C1  UNL     1      19.003 157.612 379.809  1.00  0.00     0.069 C 
HETATM    5  N1  UNL     1      19.457 156.783 377.474  1.00  0.00    -0.366 N 
HETATM    6  C3  UNL     1      19.775 155.623 376.897  1.00  0.00     0.131 A 
ATOM      7  H1  UNL     1      19.324 157.672 376.991  1.00  0.00     0.165 HD
HETATM    8  C4  UNL     1      19.889 154.685 377.890  1.00  0.00     0.145 A 
HETATM    9  F1  UNL     1      20.133 153.385 377.611  1.00  0.00    -0.204 F 
ENDBRANCH   1   2
BRANCH   1  10
HETATM   10  N2  UNL     1      18.044 153.969 380.579  1.00  0.00    -0.046 N 
HETATM   11  C7  UNL     1      17.084 154.979 381.081  1.00  0.00     0.243 C 
HETATM   12  C8  UNL     1      15.868 154.397 381.691  1.00  0.00     0.033 C 
HETATM   13  C9  UNL     1      15.878 152.909 381.465  1.00  0.00    -0.010 C 
HETATM   14  C10 UNL     1      17.089 152.370 382.193  1.00  0.00     0.033 C 
HETATM   15  C12 UNL     1      16.109 152.666 379.989  1.00  0.00     0.033 C 
HETATM   16  C11 UNL     1      18.324 153.103 381.784  1.00  0.00     0.243 C 
HETATM   17  C13 UNL     1      17.516 153.127 379.611  1.00  0.00     0.243 C 
ENDBRANCH   1  10
TORSDOF 2
ENDMDL
MODEL 3
REMARK VINA RESULT: -5.920051456      2.879      5.832
REMARK  2 active torsions:
REMARK  status: ('A' for Active; 'I' for Inactive)
REMARK    1  A    between atoms: C5_8  and  C6_9 
REMARK    2  A    between atoms: C6_9  and  N2_10 
ROOT
HETATM    1  C6  UNL     1      19.233 155.636 379.749  1.00  0.00     0.219 C 
ENDROOT
BRANCH   1   2
HETATM    2  C5  UNL     1      19.703 156.885 379.125  1.00  0.00     0.049 A 
HETATM    3  C2  UNL     1      20.075 156.939 377.781  1.00  0.00     0.019 A 
HETATM    4  C1  UNL     1      19.741 155.889 376.793  1.00  0.00     0.069 C 
HETATM    5  N1  UNL     1      20.749 158.074 377.540  1.00  0.00    -0.366 N 
HETATM    6  C3  UNL     1      20.845 158.764 378.678  1.00  0.00     0.131 A 
ATOM      7  H1  UNL     1      21.125 158.361 376.637  1.00  0.00     0.165 HD
HETATM    8  C4  UNL     1      20.187 158.053 379.649  1.00  0.00     0.145 A 
HETATM    9  F1  UNL     1      20.171 158.463 380.937  1.00  0.00    -0.204 F 
ENDBRANCH   1   2
BRANCH   1  10
HETATM   10  N2  UNL     1      17.856 155.386 379.897  1.00  0.00    -0.046 N 
HETATM   11  C7  UNL     1      17.651 155.264 381.359  1.00  0.00     0.243 C 
HETATM   12  C8  UNL     1      16.370 154.626 381.732  1.00  0.00     0.033 C 
HETATM   13  C9  UNL     1      15.545 154.434 380.488  1.00  0.00    -0.010 C 
HETATM   14  C10 UNL     1      16.317 153.484 379.599  1.00  0.00     0.033 C 
HETATM   15  C12 UNL     1      15.483 155.762 379.763  1.00  0.00     0.033 C 
HETATM   16  C11 UNL     1      17.713 153.971 379.391  1.00  0.00     0.243 C 
HETATM   17  C13 UNL     1      16.876 156.128 379.254  1.00  0.00     0.243 C 
ENDBRANCH   1  10
TORSDOF 2
ENDMDL
MODEL 4
REMARK VINA RESULT: -5.915769746      2.010      2.749
REMARK  2 active torsions:
REMARK  status: ('A' for Active; 'I' for Inactive)
REMARK    1  A    between atoms: C5_8  and  C6_9 
REMARK    2  A    between atoms: C6_9  and  N2_10 
ROOT
HETATM    1  C6  UNL     1      17.858 153.070 380.830  1.00  0.00     0.219 C 
ENDROOT
BRANCH   1   2
HETATM    2  C5  UNL     1      18.017 152.485 382.173  1.00  0.00     0.049 A 
HETATM    3  C2  UNL     1      19.269 152.367 382.778  1.00  0.00     0.019 A 
HETATM    4  C1  UNL     1      20.477 153.083 382.312  1.00  0.00     0.069 C 
HETATM    5  N1  UNL     1      19.191 151.536 383.829  1.00  0.00    -0.366 N 
HETATM    6  C3  UNL     1      17.937 151.094 383.931  1.00  0.00     0.131 A 
ATOM      7  H1  UNL     1      19.963 151.286 384.446  1.00  0.00     0.165 HD
HETATM    8  C4  UNL     1      17.206 151.687 382.934  1.00  0.00     0.145 A 
HETATM    9  F1  UNL     1      15.905 151.381 382.732  1.00  0.00    -0.204 F 
ENDBRANCH   1   2
BRANCH   1  10
HETATM   10  N2  UNL     1      17.171 154.287 380.659  1.00  0.00    -0.046 N 
HETATM   11  C7  UNL     1      16.365 154.095 379.432  1.00  0.00     0.243 C 
HETATM   12  C8  UNL     1      15.862 155.355 378.843  1.00  0.00     0.033 C 
HETATM   13  C9  UNL     1      16.179 156.488 379.781  1.00  0.00    -0.010 C 
HETATM   14  C10 UNL     1      17.686 156.565 379.872  1.00  0.00     0.033 C 
HETATM   15  C12 UNL     1      15.675 156.105 381.157  1.00  0.00     0.033 C 
HETATM   16  C11 UNL     1      18.265 155.235 380.231  1.00  0.00     0.243 C 
HETATM   17  C13 UNL     1      16.486 154.923 381.685  1.00  0.00     0.243 C 
ENDBRANCH   1  10
TORSDOF 2
ENDMDL
MODEL 5
REMARK VINA RESULT: -5.868493427      2.585      5.468
REMARK  2 active torsions:
REMARK  status: ('A' for Active; 'I' for Inactive)
REMARK    1  A    between atoms: C5_8  and  C6_9 
REMARK    2  A    between atoms: C6_9  and  N2_10 
ROOT
HETATM    1  C6  UNL     1      19.438 155.224 379.606  1.00  0.00     0.219 C 
ENDROOT
BRANCH   1   2
HETATM    2  C5  UNL     1      19.995 156.086 378.548  1.00  0.00     0.049 A 
HETATM    3  C2  UNL     1      20.151 157.460 378.729  1.00  0.00     0.019 A 
HETATM    4  C1  UNL     1      20.094 158.127 380.049  1.00  0.00     0.069 C 
HETATM    5  N1  UNL     1      20.370 158.054 377.546  1.00  0.00    -0.366 N 
HETATM    6  C3  UNL     1      20.353 157.122 376.591  1.00  0.00     0.131 A 
ATOM      7  H1  UNL     1      20.525 159.051 377.401  1.00  0.00     0.165 HD
HETATM    8  C4  UNL     1      20.146 155.910 377.199  1.00  0.00     0.145 A 
HETATM    9  F1  UNL     1      20.006 154.774 376.482  1.00  0.00    -0.204 F 
ENDBRANCH   1   2
BRANCH   1  10
HETATM   10  N2  UNL     1      18.046 155.071 379.743  1.00  0.00    -0.046 N 
HETATM   11  C7  UNL     1      17.797 155.177 381.199  1.00  0.00     0.243 C 
HETATM   12  C8  UNL     1      16.473 154.670 381.619  1.00  0.00     0.033 C 
HETATM   13  C9  UNL     1      15.670 154.339 380.390  1.00  0.00    -0.010 C 
HETATM   14  C10 UNL     1      16.409 153.230 379.676  1.00  0.00     0.033 C 
HETATM   15  C12 UNL     1      15.702 155.546 379.477  1.00  0.00     0.033 C 
HETATM   16  C11 UNL     1      17.836 153.606 379.445  1.00  0.00     0.243 C 
HETATM   17  C13 UNL     1      17.126 155.760 378.966  1.00  0.00     0.243 C 
ENDBRANCH   1  10
TORSDOF 2
ENDMDL
