MODEL 1
REMARK VINA RESULT: -5.130946926      0.000      0.000
REMARK  3 active torsions:
REMARK  status: ('A' for Active; 'I' for Inactive)
REMARK    1  A    between atoms: C2_2  and  C3_3 
REMARK    2  A    between atoms: C2_2  and  N2_10 
REMARK    3  A    between atoms: N2_10  and  C8_12 
ROOT
HETATM    1  C3  UNL     1      18.068 155.592 378.865  1.00  0.00     0.059 A 
HETATM    2  C4  UNL     1      18.896 154.497 378.609  1.00  0.00     0.052 A 
HETATM    3  C5  UNL     1      19.838 154.860 377.679  1.00  0.00     0.028 A 
HETATM    4 BR1  UNL     1      21.239 153.786 376.937  1.00  0.00    -0.050 Br
HETATM    5  C6  UNL     1      19.589 156.172 377.366  1.00  0.00     0.107 A 
HETATM    6  N1  UNL     1      18.532 156.572 378.089  1.00  0.00    -0.363 N 
ATOM      7  H1  UNL     1      18.132 157.510 378.049  1.00  0.00     0.165 HD
ENDROOT
BRANCH   1   8
HETATM    8  C2  UNL     1      16.947 155.605 379.794  1.00  0.00     0.047 C 
HETATM    9  C1  UNL     1      16.048 156.540 379.681  1.00  0.00     0.045 C 
BRANCH   8  10
HETATM   10  N2  UNL     1      16.799 154.637 380.819  1.00  0.00    -0.379 N 
HETATM   11  C7  UNL     1      17.781 154.635 381.890  1.00  0.00     0.150 C 
BRANCH  10  12
HETATM   12  C8  UNL     1      15.691 153.686 380.781  1.00  0.00     0.084 A 
HETATM   13  C9  UNL     1      15.820 152.342 381.337  1.00  0.00     0.027 A 
HETATM   14  C10 UNL     1      15.955 152.517 379.859  1.00  0.00     0.027 A 
ENDBRANCH  10  12
ENDBRANCH   8  10
ENDBRANCH   1   8
TORSDOF 3
ENDMDL
MODEL 2
REMARK VINA RESULT: -5.079186320      1.588      2.684
REMARK  3 active torsions:
REMARK  status: ('A' for Active; 'I' for Inactive)
REMARK    1  A    between atoms: C2_2  and  C3_3 
REMARK    2  A    between atoms: C2_2  and  N2_10 
REMARK    3  A    between atoms: N2_10  and  C8_12 
ROOT
HETATM    1  C3  UNL     1      18.236 153.925 379.031  1.00  0.00     0.059 A 
HETATM    2  C4  UNL     1      18.665 155.112 378.435  1.00  0.00     0.052 A 
HETATM    3  C5  UNL     1      19.902 154.908 377.876  1.00  0.00     0.028 A 
HETATM    4 BR1  UNL     1      20.990 156.164 376.925  1.00  0.00    -0.050 Br
HETATM    5  C6  UNL     1      20.231 153.600 378.128  1.00  0.00     0.107 A 
HETATM    6  N1  UNL     1      19.218 153.049 378.815  1.00  0.00    -0.363 N 
ATOM      7  H1  UNL     1      19.203 152.079 379.133  1.00  0.00     0.165 HD
ENDROOT
BRANCH   1   8
HETATM    8  C2  UNL     1      16.973 153.738 379.729  1.00  0.00     0.047 C 
HETATM    9  C1  UNL     1      16.304 152.638 379.534  1.00  0.00     0.045 C 
BRANCH   8  10
HETATM   10  N2  UNL     1      16.442 154.710 380.614  1.00  0.00    -0.379 N 
HETATM   11  C7  UNL     1      17.051 154.830 381.926  1.00  0.00     0.150 C 
BRANCH  10  12
HETATM   12  C8  UNL     1      15.322 155.553 380.198  1.00  0.00     0.084 A 
HETATM   13  C9  UNL     1      15.194 156.027 378.824  1.00  0.00     0.027 A 
HETATM   14  C10 UNL     1      15.747 156.961 379.850  1.00  0.00     0.027 A 
ENDBRANCH  10  12
ENDBRANCH   8  10
ENDBRANCH   1   8
TORSDOF 3
ENDMDL
MODEL 3
REMARK VINA RESULT: -5.030177351      3.339      5.077
REMARK  3 active torsions:
REMARK  status: ('A' for Active; 'I' for Inactive)
REMARK    1  A    between atoms: C2_2  and  C3_3 
REMARK    2  A    between atoms: C2_2  and  N2_10 
REMARK    3  A    between atoms: N2_10  and  C8_12 
ROOT
HETATM    1  C3  UNL     1      17.471 152.550 381.927  1.00  0.00     0.059 A 
HETATM    2  C4  UNL     1      17.171 151.647 382.949  1.00  0.00     0.052 A 
HETATM    3  C5  UNL     1      18.319 151.362 383.643  1.00  0.00     0.028 A 
HETATM    4 BR1  UNL     1      18.533 150.194 385.145  1.00  0.00    -0.050 Br
HETATM    5  C6  UNL     1      19.322 152.088 383.050  1.00  0.00     0.107 A 
HETATM    6  N1  UNL     1      18.781 152.780 382.036  1.00  0.00    -0.363 N 
ATOM      7  H1  UNL     1      19.306 153.405 381.424  1.00  0.00     0.165 HD
ENDROOT
BRANCH   1   8
HETATM    8  C2  UNL     1      16.518 153.094 380.972  1.00  0.00     0.047 C 
HETATM    9  C1  UNL     1      15.757 152.274 380.306  1.00  0.00     0.045 C 
BRANCH   8  10
HETATM   10  N2  UNL     1      16.387 154.487 380.739  1.00  0.00    -0.379 N 
HETATM   11  C7  UNL     1      16.018 155.326 381.864  1.00  0.00     0.150 C 
BRANCH  10  12
HETATM   12  C8  UNL     1      16.620 155.036 379.404  1.00  0.00     0.084 A 
HETATM   13  C9  UNL     1      16.709 156.476 379.178  1.00  0.00     0.027 A 
HETATM   14  C10 UNL     1      15.423 155.784 378.863  1.00  0.00     0.027 A 
ENDBRANCH  10  12
ENDBRANCH   8  10
ENDBRANCH   1   8
TORSDOF 3
ENDMDL
MODEL 4
REMARK VINA RESULT: -5.017291127      3.192      4.992
REMARK  3 active torsions:
REMARK  status: ('A' for Active; 'I' for Inactive)
REMARK    1  A    between atoms: C2_2  and  C3_3 
REMARK    2  A    between atoms: C2_2  and  N2_10 
REMARK    3  A    between atoms: N2_10  and  C8_12 
ROOT
HETATM    1  C3  UNL     1      17.536 152.776 381.486  1.00  0.00     0.059 A 
HETATM    2  C4  UNL     1      18.413 152.381 382.499  1.00  0.00     0.052 A 
HETATM    3  C5  UNL     1      17.764 151.506 383.334  1.00  0.00     0.028 A 
HETATM    4 BR1  UNL     1      18.450 150.633 384.894  1.00  0.00    -0.050 Br
HETATM    5  C6  UNL     1      16.493 151.364 382.835  1.00  0.00     0.107 A 
HETATM    6  N1  UNL     1      16.395 152.132 381.739  1.00  0.00    -0.363 N 
ATOM      7  H1  UNL     1      15.552 152.213 381.170  1.00  0.00     0.165 HD
ENDROOT
BRANCH   1   8
HETATM    8  C2  UNL     1      17.852 153.698 380.406  1.00  0.00     0.047 C 
HETATM    9  C1  UNL     1      18.155 153.216 379.235  1.00  0.00     0.045 C 
BRANCH   8  10
HETATM   10  N2  UNL     1      17.843 155.105 380.582  1.00  0.00    -0.379 N 
HETATM   11  C7  UNL     1      19.118 155.797 380.543  1.00  0.00     0.150 C 
BRANCH  10  12
HETATM   12  C8  UNL     1      16.582 155.814 380.793  1.00  0.00     0.084 A 
HETATM   13  C9  UNL     1      15.363 155.427 380.088  1.00  0.00     0.027 A 
HETATM   14  C10 UNL     1      16.140 156.596 379.577  1.00  0.00     0.027 A 
ENDBRANCH  10  12
ENDBRANCH   8  10
ENDBRANCH   1   8
TORSDOF 3
ENDMDL
MODEL 5
REMARK VINA RESULT: -5.008989247      3.802      5.391
REMARK  3 active torsions:
REMARK  status: ('A' for Active; 'I' for Inactive)
REMARK    1  A    between atoms: C2_2  and  C3_3 
REMARK    2  A    between atoms: C2_2  and  N2_10 
REMARK    3  A    between atoms: N2_10  and  C8_12 
ROOT
HETATM    1  C3  UNL     1      17.646 151.905 382.645  1.00  0.00     0.059 A 
HETATM    2  C4  UNL     1      17.992 150.960 383.613  1.00  0.00     0.052 A 
HETATM    3  C5  UNL     1      19.310 151.135 383.954  1.00  0.00     0.028 A 
HETATM    4 BR1  UNL     1      20.344 150.141 385.223  1.00  0.00    -0.050 Br
HETATM    5  C6  UNL     1      19.771 152.183 383.198  1.00  0.00     0.107 A 
HETATM    6  N1  UNL     1      18.756 152.614 382.434  1.00  0.00    -0.363 N 
ATOM      7  H1  UNL     1      18.824 153.389 381.773  1.00  0.00     0.165 HD
ENDROOT
BRANCH   1   8
HETATM    8  C2  UNL     1      16.334 152.042 382.029  1.00  0.00     0.047 C 
HETATM    9  C1  UNL     1      15.368 151.267 382.428  1.00  0.00     0.045 C 
BRANCH   8  10
HETATM   10  N2  UNL     1      16.071 152.990 381.009  1.00  0.00    -0.379 N 
HETATM   11  C7  UNL     1      16.428 152.632 379.648  1.00  0.00     0.150 C 
BRANCH  10  12
HETATM   12  C8  UNL     1      15.460 154.277 381.337  1.00  0.00     0.084 A 
HETATM   13  C9  UNL     1      15.574 155.426 380.442  1.00  0.00     0.027 A 
HETATM   14  C10 UNL     1      16.482 155.353 381.626  1.00  0.00     0.027 A 
ENDBRANCH  10  12
ENDBRANCH   8  10
ENDBRANCH   1   8
TORSDOF 3
ENDMDL
