MODEL 1
REMARK VINA RESULT: -5.894502134      0.000      0.000
REMARK  3 active torsions:
REMARK  status: ('A' for Active; 'I' for Inactive)
REMARK    1  A    between atoms: C2_2  and  C4_4 
REMARK    2  A    between atoms: C4_4  and  C5_5 
REMARK    3  A    between atoms: C5_5  and  C7_7 
ROOT
HETATM    1  C7  UNL     1      -4.553 167.291 400.162  1.00  0.00     0.084 C 
HETATM    2  C8  UNL     1      -5.197 165.980 400.305  1.00  0.00     0.081 C 
HETATM    3  S1  UNL     1      -5.211 164.828 401.441  1.00  0.00    -0.065 SA
HETATM    4  N1  UNL     1      -5.801 166.146 399.041  1.00  0.00    -0.369 N 
ATOM      5  H1  UNL     1      -6.369 165.534 398.453  1.00  0.00     0.161 HD
HETATM    6  C9  UNL     1      -5.315 167.516 398.881  1.00  0.00     0.165 C 
HETATM    7 BR1  UNL     1      -6.682 168.853 399.032  1.00  0.00    -0.068 Br
ENDROOT
BRANCH   1   8
HETATM    8  C5  UNL     1      -3.060 167.309 400.005  1.00  0.00    -0.005 C 
HETATM    9  C6  UNL     1      -2.517 168.438 400.865  1.00  0.00     0.011 C 
BRANCH   8  10
HETATM   10  C4  UNL     1      -2.651 167.551 398.615  1.00  0.00     0.009 C 
BRANCH  10  11
HETATM   11  C2  UNL     1      -1.890 166.470 397.936  1.00  0.00    -0.022 C 
HETATM   12  C1  UNL     1      -2.704 165.274 397.554  1.00  0.00     0.009 C 
HETATM   13  C3  UNL     1      -0.735 165.995 398.791  1.00  0.00     0.009 C 
ENDBRANCH  10  11
ENDBRANCH   8  10
ENDBRANCH   1   8
TORSDOF 3
ENDMDL
MODEL 2
REMARK VINA RESULT: -5.500846412      2.537      4.302
REMARK  3 active torsions:
REMARK  status: ('A' for Active; 'I' for Inactive)
REMARK    1  A    between atoms: C2_2  and  C4_4 
REMARK    2  A    between atoms: C4_4  and  C5_5 
REMARK    3  A    between atoms: C5_5  and  C7_7 
ROOT
HETATM    1  C7  UNL     1      -4.090 165.774 399.386  1.00  0.00     0.084 C 
HETATM    2  C8  UNL     1      -4.107 165.792 400.853  1.00  0.00     0.081 C 
HETATM    3  S1  UNL     1      -4.781 164.873 402.001  1.00  0.00    -0.065 SA
HETATM    4  N1  UNL     1      -3.289 166.941 400.843  1.00  0.00    -0.369 N 
ATOM      5  H1  UNL     1      -2.951 167.563 401.578  1.00  0.00     0.161 HD
HETATM    6  C9  UNL     1      -3.103 166.914 399.392  1.00  0.00     0.165 C 
HETATM    7 BR1  UNL     1      -1.340 166.400 398.840  1.00  0.00    -0.068 Br
ENDROOT
BRANCH   1   8
HETATM    8  C5  UNL     1      -5.380 166.077 398.680  1.00  0.00    -0.005 C 
HETATM    9  C6  UNL     1      -5.190 165.751 397.208  1.00  0.00     0.011 C 
BRANCH   8  10
HETATM   10  C4  UNL     1      -5.756 167.493 398.793  1.00  0.00     0.009 C 
BRANCH  10  11
HETATM   11  C2  UNL     1      -7.068 167.795 399.423  1.00  0.00    -0.022 C 
HETATM   12  C1  UNL     1      -8.261 167.422 398.600  1.00  0.00     0.009 C 
HETATM   13  C3  UNL     1      -7.182 169.264 399.772  1.00  0.00     0.009 C 
ENDBRANCH  10  11
ENDBRANCH   8  10
ENDBRANCH   1   8
TORSDOF 3
ENDMDL
MODEL 3
REMARK VINA RESULT: -5.476802846      1.347      1.916
REMARK  3 active torsions:
REMARK  status: ('A' for Active; 'I' for Inactive)
REMARK    1  A    between atoms: C2_2  and  C4_4 
REMARK    2  A    between atoms: C4_4  and  C5_5 
REMARK    3  A    between atoms: C5_5  and  C7_7 
ROOT
HETATM    1  C7  UNL     1      -5.255 166.809 399.812  1.00  0.00     0.084 C 
HETATM    2  C8  UNL     1      -6.544 166.168 399.528  1.00  0.00     0.081 C 
HETATM    3  S1  UNL     1      -7.600 165.291 400.384  1.00  0.00    -0.065 SA
HETATM    4  N1  UNL     1      -6.479 166.638 398.199  1.00  0.00    -0.369 N 
ATOM      5  H1  UNL     1      -7.064 166.487 397.377  1.00  0.00     0.161 HD
HETATM    6  C9  UNL     1      -5.267 167.423 398.435  1.00  0.00     0.165 C 
HETATM    7 BR1  UNL     1      -5.554 169.319 398.447  1.00  0.00    -0.068 Br
ENDROOT
BRANCH   1   8
HETATM    8  C5  UNL     1      -4.084 165.909 400.077  1.00  0.00    -0.005 C 
HETATM    9  C6  UNL     1      -4.095 165.557 401.555  1.00  0.00     0.011 C 
BRANCH   8  10
HETATM   10  C4  UNL     1      -2.802 166.559 399.768  1.00  0.00     0.009 C 
BRANCH  10  11
HETATM   11  C2  UNL     1      -1.854 165.807 398.906  1.00  0.00    -0.022 C 
HETATM   12  C1  UNL     1      -0.510 166.445 398.743  1.00  0.00     0.009 C 
HETATM   13  C3  UNL     1      -2.432 165.578 397.527  1.00  0.00     0.009 C 
ENDBRANCH  10  11
ENDBRANCH   8  10
ENDBRANCH   1   8
TORSDOF 3
ENDMDL
MODEL 4
REMARK VINA RESULT: -5.411290831      1.314      1.565
REMARK  3 active torsions:
REMARK  status: ('A' for Active; 'I' for Inactive)
REMARK    1  A    between atoms: C2_2  and  C4_4 
REMARK    2  A    between atoms: C4_4  and  C5_5 
REMARK    3  A    between atoms: C5_5  and  C7_7 
ROOT
HETATM    1  C7  UNL     1      -5.672 167.068 399.718  1.00  0.00     0.084 C 
HETATM    2  C8  UNL     1      -6.854 166.244 399.440  1.00  0.00     0.081 C 
HETATM    3  S1  UNL     1      -7.612 165.035 400.202  1.00  0.00    -0.065 SA
HETATM    4  N1  UNL     1      -7.054 166.948 398.233  1.00  0.00    -0.369 N 
ATOM      5  H1  UNL     1      -7.709 166.833 397.459  1.00  0.00     0.161 HD
HETATM    6  C9  UNL     1      -5.980 167.904 398.501  1.00  0.00     0.165 C 
HETATM    7 BR1  UNL     1      -6.592 169.671 398.923  1.00  0.00    -0.068 Br
ENDROOT
BRANCH   1   8
HETATM    8  C5  UNL     1      -4.335 166.387 399.679  1.00  0.00    -0.005 C 
HETATM    9  C6  UNL     1      -4.010 165.924 401.089  1.00  0.00     0.011 C 
BRANCH   8  10
HETATM   10  C4  UNL     1      -3.265 167.290 399.232  1.00  0.00     0.009 C 
BRANCH  10  11
HETATM   11  C2  UNL     1      -2.285 166.744 398.257  1.00  0.00    -0.022 C 
HETATM   12  C1  UNL     1      -2.717 165.488 397.568  1.00  0.00     0.009 C 
HETATM   13  C3  UNL     1      -0.948 166.481 398.914  1.00  0.00     0.009 C 
ENDBRANCH  10  11
ENDBRANCH   8  10
ENDBRANCH   1   8
TORSDOF 3
ENDMDL
MODEL 5
REMARK VINA RESULT: -5.301065745      1.131      1.856
REMARK  3 active torsions:
REMARK  status: ('A' for Active; 'I' for Inactive)
REMARK    1  A    between atoms: C2_2  and  C4_4 
REMARK    2  A    between atoms: C4_4  and  C5_5 
REMARK    3  A    between atoms: C5_5  and  C7_7 
ROOT
HETATM    1  C7  UNL     1      -4.677 167.198 399.377  1.00  0.00     0.084 C 
HETATM    2  C8  UNL     1      -5.070 166.134 400.309  1.00  0.00     0.081 C 
HETATM    3  S1  UNL     1      -4.327 165.312 401.487  1.00  0.00    -0.065 SA
HETATM    4  N1  UNL     1      -6.366 166.130 399.750  1.00  0.00    -0.369 N 
ATOM      5  H1  UNL     1      -7.186 165.541 399.895  1.00  0.00     0.161 HD
HETATM    6  C9  UNL     1      -6.101 167.282 398.888  1.00  0.00     0.165 C 
HETATM    7 BR1  UNL     1      -7.001 168.887 399.429  1.00  0.00    -0.068 Br
ENDROOT
BRANCH   1   8
HETATM    8  C5  UNL     1      -3.677 166.846 398.315  1.00  0.00    -0.005 C 
HETATM    9  C6  UNL     1      -3.937 165.410 397.892  1.00  0.00     0.011 C 
BRANCH   8  10
HETATM   10  C4  UNL     1      -2.293 166.940 398.801  1.00  0.00     0.009 C 
BRANCH  10  11
HETATM   11  C2  UNL     1      -1.263 166.170 398.058  1.00  0.00    -0.022 C 
HETATM   12  C1  UNL     1      -0.090 165.734 398.878  1.00  0.00     0.009 C 
HETATM   13  C3  UNL     1      -0.740 166.956 396.875  1.00  0.00     0.009 C 
ENDBRANCH  10  11
ENDBRANCH   8  10
ENDBRANCH   1   8
TORSDOF 3
ENDMDL
