MODEL 1
REMARK VINA RESULT: -6.218239744      0.000      0.000
REMARK  4 active torsions:
REMARK  status: ('A' for Active; 'I' for Inactive)
REMARK    1  A    between atoms: N1_6  and  C7_8 
REMARK    2  A    between atoms: C7_8  and  C8_9 
REMARK    3  A    between atoms: C8_9  and  C9_10 
REMARK    4  A    between atoms: C10_12  and  C12_14 
ROOT
HETATM    1  C1  UNL     1       0.229 165.618 398.642  1.00  0.00     0.036 C 
HETATM    2  C2  UNL     1      -0.703 166.757 398.691  1.00  0.00    -0.028 C 
HETATM    3  C3  UNL     1      -1.995 166.662 398.516  1.00  0.00    -0.080 C 
HETATM    4  C4  UNL     1      -2.635 165.354 398.246  1.00  0.00     0.062 C 
HETATM    5  C5  UNL     1      -4.069 165.643 397.941  1.00  0.00     0.242 C 
HETATM    6  N1  UNL     1      -4.774 166.270 399.091  1.00  0.00    -0.060 N 
HETATM    7  C6  UNL     1      -4.888 165.180 400.045  1.00  0.00     0.273 C 
HETATM    8  C10 UNL     1      -4.044 167.401 399.534  1.00  0.00     0.141 C 
HETATM    9  C11 UNL     1      -4.891 168.679 399.592  1.00  0.00     0.048 C 
HETATM   10  C13 UNL     1      -2.909 167.815 398.570  1.00  0.00     0.074 C 
ENDROOT
BRANCH   6  11
HETATM   11  C7  UNL     1      -6.082 166.558 398.545  1.00  0.00     0.245 C 
BRANCH  11  12
HETATM   12  C8  UNL     1      -7.220 165.988 399.343  1.00  0.00     0.097 C 
BRANCH  12  13
HETATM   13  C9  UNL     1      -8.173 167.083 399.759  1.00  0.00     0.232 C 
HETATM   14  O1  UNL     1      -8.533 167.943 399.000  1.00  0.00    -0.307 OA
ENDBRANCH  12  13
ENDBRANCH  11  12
ENDBRANCH   6  11
BRANCH   8  15
HETATM   15  C12 UNL     1      -3.367 167.321 400.865  1.00  0.00     0.154 C 
HETATM   16 CL1  UNL     1      -2.382 168.726 401.286  1.00  0.00    -0.128 Cl
ENDBRANCH   8  15
TORSDOF 4
ENDMDL
MODEL 2
REMARK VINA RESULT: -5.775779297      3.017      5.406
REMARK  4 active torsions:
REMARK  status: ('A' for Active; 'I' for Inactive)
REMARK    1  A    between atoms: N1_6  and  C7_8 
REMARK    2  A    between atoms: C7_8  and  C8_9 
REMARK    3  A    between atoms: C8_9  and  C9_10 
REMARK    4  A    between atoms: C10_12  and  C12_14 
ROOT
HETATM    1  C1  UNL     1      -7.394 169.468 399.673  1.00  0.00     0.036 C 
HETATM    2  C2  UNL     1      -6.922 168.177 399.145  1.00  0.00    -0.028 C 
HETATM    3  C3  UNL     1      -5.690 167.935 398.779  1.00  0.00    -0.080 C 
HETATM    4  C4  UNL     1      -4.646 168.980 398.875  1.00  0.00     0.062 C 
HETATM    5  C5  UNL     1      -3.424 168.413 398.227  1.00  0.00     0.242 C 
HETATM    6  N1  UNL     1      -2.926 167.201 398.932  1.00  0.00    -0.060 N 
HETATM    7  C6  UNL     1      -2.384 167.734 400.170  1.00  0.00     0.273 C 
HETATM    8  C10 UNL     1      -3.983 166.268 399.074  1.00  0.00     0.141 C 
HETATM    9  C11 UNL     1      -3.639 164.879 398.521  1.00  0.00     0.048 C 
HETATM   10  C13 UNL     1      -5.240 166.634 398.253  1.00  0.00     0.074 C 
ENDROOT
BRANCH   6  11
HETATM   11  C7  UNL     1      -1.834 166.768 398.088  1.00  0.00     0.245 C 
BRANCH  11  12
HETATM   12  C8  UNL     1      -0.526 166.604 398.810  1.00  0.00     0.097 C 
BRANCH  12  13
HETATM   13  C9  UNL     1       0.550 166.148 397.854  1.00  0.00     0.232 C 
HETATM   14  O1  UNL     1       0.868 166.792 396.890  1.00  0.00    -0.307 OA
ENDBRANCH  12  13
ENDBRANCH  11  12
ENDBRANCH   6  11
BRANCH   8  15
HETATM   15  C12 UNL     1      -4.517 166.019 400.448  1.00  0.00     0.154 C 
HETATM   16 CL1  UNL     1      -5.989 165.043 400.510  1.00  0.00    -0.128 Cl
ENDBRANCH   8  15
TORSDOF 4
ENDMDL
MODEL 3
REMARK VINA RESULT: -5.617587099      2.038      2.883
REMARK  4 active torsions:
REMARK  status: ('A' for Active; 'I' for Inactive)
REMARK    1  A    between atoms: N1_6  and  C7_8 
REMARK    2  A    between atoms: C7_8  and  C8_9 
REMARK    3  A    between atoms: C8_9  and  C9_10 
REMARK    4  A    between atoms: C10_12  and  C12_14 
ROOT
HETATM    1  C1  UNL     1      -0.178 166.457 398.660  1.00  0.00     0.036 C 
HETATM    2  C2  UNL     1      -1.417 165.812 399.125  1.00  0.00    -0.028 C 
HETATM    3  C3  UNL     1      -2.495 166.458 399.485  1.00  0.00    -0.080 C 
HETATM    4  C4  UNL     1      -2.547 167.938 399.448  1.00  0.00     0.062 C 
HETATM    5  C5  UNL     1      -3.848 168.327 400.072  1.00  0.00     0.242 C 
HETATM    6  N1  UNL     1      -5.016 167.809 399.310  1.00  0.00    -0.060 N 
HETATM    7  C6  UNL     1      -5.012 168.617 398.103  1.00  0.00     0.273 C 
HETATM    8  C10 UNL     1      -4.871 166.412 399.115  1.00  0.00     0.141 C 
HETATM    9  C11 UNL     1      -6.084 165.608 399.600  1.00  0.00     0.048 C 
HETATM   10  C13 UNL     1      -3.725 165.792 399.947  1.00  0.00     0.074 C 
ENDROOT
BRANCH   6  11
HETATM   11  C7  UNL     1      -6.136 168.200 400.137  1.00  0.00     0.245 C 
BRANCH  11  12
HETATM   12  C8  UNL     1      -7.173 169.018 399.420  1.00  0.00     0.097 C 
BRANCH  12  13
HETATM   13  C9  UNL     1      -8.428 168.207 399.205  1.00  0.00     0.232 C 
HETATM   14  O1  UNL     1      -8.617 167.571 398.202  1.00  0.00    -0.307 OA
ENDBRANCH  12  13
ENDBRANCH  11  12
ENDBRANCH   6  11
BRANCH   8  15
HETATM   15  C12 UNL     1      -4.607 165.922 397.728  1.00  0.00     0.154 C 
HETATM   16 CL1  UNL     1      -5.973 166.061 396.615  1.00  0.00    -0.128 Cl
ENDBRANCH   8  15
TORSDOF 4
ENDMDL
MODEL 4
REMARK VINA RESULT: -5.608010285      3.150      5.374
REMARK  4 active torsions:
REMARK  status: ('A' for Active; 'I' for Inactive)
REMARK    1  A    between atoms: N1_6  and  C7_8 
REMARK    2  A    between atoms: C7_8  and  C8_9 
REMARK    3  A    between atoms: C8_9  and  C9_10 
REMARK    4  A    between atoms: C10_12  and  C12_14 
ROOT
HETATM    1  C1  UNL     1      -7.072 169.915 400.123  1.00  0.00     0.036 C 
HETATM    2  C2  UNL     1      -6.883 168.820 399.157  1.00  0.00    -0.028 C 
HETATM    3  C3  UNL     1      -5.730 168.261 398.891  1.00  0.00    -0.080 C 
HETATM    4  C4  UNL     1      -4.492 168.705 399.570  1.00  0.00     0.062 C 
HETATM    5  C5  UNL     1      -3.368 167.973 398.911  1.00  0.00     0.242 C 
HETATM    6  N1  UNL     1      -3.479 166.500 399.082  1.00  0.00    -0.060 N 
HETATM    7  C6  UNL     1      -3.177 166.303 400.489  1.00  0.00     0.273 C 
HETATM    8  C10 UNL     1      -4.764 166.071 398.663  1.00  0.00     0.141 C 
HETATM    9  C11 UNL     1      -4.713 164.952 397.614  1.00  0.00     0.048 C 
HETATM   10  C13 UNL     1      -5.564 167.166 397.921  1.00  0.00     0.074 C 
ENDROOT
BRANCH   6  11
HETATM   11  C7  UNL     1      -2.377 166.002 398.289  1.00  0.00     0.245 C 
BRANCH  11  12
HETATM   12  C8  UNL     1      -1.032 166.153 398.942  1.00  0.00     0.097 C 
BRANCH  12  13
HETATM   13  C9  UNL     1       0.035 166.395 397.902  1.00  0.00     0.232 C 
HETATM   14  O1  UNL     1       1.134 166.789 398.189  1.00  0.00    -0.307 OA
ENDBRANCH  12  13
ENDBRANCH  11  12
ENDBRANCH   6  11
BRANCH   8  15
HETATM   15  C12 UNL     1      -5.715 165.584 399.708  1.00  0.00     0.154 C 
HETATM   16 CL1  UNL     1      -7.355 165.262 399.132  1.00  0.00    -0.128 Cl
ENDBRANCH   8  15
TORSDOF 4
ENDMDL
MODEL 5
REMARK VINA RESULT: -5.393848420      2.760      5.332
REMARK  4 active torsions:
REMARK  status: ('A' for Active; 'I' for Inactive)
REMARK    1  A    between atoms: N1_6  and  C7_8 
REMARK    2  A    between atoms: C7_8  and  C8_9 
REMARK    3  A    between atoms: C8_9  and  C9_10 
REMARK    4  A    between atoms: C10_12  and  C12_14 
ROOT
HETATM    1  C1  UNL     1      -8.575 168.265 399.026  1.00  0.00     0.036 C 
HETATM    2  C2  UNL     1      -7.688 167.212 398.503  1.00  0.00    -0.028 C 
HETATM    3  C3  UNL     1      -6.392 167.335 398.372  1.00  0.00    -0.080 C 
HETATM    4  C4  UNL     1      -5.702 168.588 398.755  1.00  0.00     0.062 C 
HETATM    5  C5  UNL     1      -4.281 168.433 398.322  1.00  0.00     0.242 C 
HETATM    6  N1  UNL     1      -3.601 167.306 399.016  1.00  0.00    -0.060 N 
HETATM    7  C6  UNL     1      -3.445 167.796 400.375  1.00  0.00     0.273 C 
HETATM    8  C10 UNL     1      -4.374 166.127 398.872  1.00  0.00     0.141 C 
HETATM    9  C11 UNL     1      -3.578 164.951 398.292  1.00  0.00     0.048 C 
HETATM   10  C13 UNL     1      -5.523 166.268 397.848  1.00  0.00     0.074 C 
ENDROOT
BRANCH   6  11
HETATM   11  C7  UNL     1      -2.305 167.272 398.375  1.00  0.00     0.245 C 
BRANCH  11  12
HETATM   12  C8  UNL     1      -1.166 166.970 399.308  1.00  0.00     0.097 C 
BRANCH  12  13
HETATM   13  C9  UNL     1      -0.095 166.181 398.594  1.00  0.00     0.232 C 
HETATM   14  O1  UNL     1       0.899 166.697 398.156  1.00  0.00    -0.307 OA
ENDBRANCH  12  13
ENDBRANCH  11  12
ENDBRANCH   6  11
BRANCH   8  15
HETATM   15  C12 UNL     1      -5.049 165.579 400.088  1.00  0.00     0.154 C 
HETATM   16 CL1  UNL     1      -3.968 165.196 401.433  1.00  0.00    -0.128 Cl
ENDBRANCH   8  15
TORSDOF 4
ENDMDL
