MODEL 1
REMARK VINA RESULT: -6.666088693      0.000      0.000
REMARK  3 active torsions:
REMARK  status: ('A' for Active; 'I' for Inactive)
REMARK    1  A    between atoms: C1_2  and  C2_3 
REMARK       I    between atoms: C1_2  and  N1_9 
REMARK    2  A    between atoms: N1_9  and  C8_11 
REMARK    3  A    between atoms: C8_11  and  C9_12 
ROOT
HETATM    1  O1  UNL     1       0.845 166.734 396.971  1.00  0.00    -0.269 OA
HETATM    2  C1  UNL     1       0.618 165.982 398.000  1.00  0.00     0.241 C 
HETATM    3  N1  UNL     1       1.456 164.872 398.128  1.00  0.00    -0.357 N 
ATOM      4  H1  UNL     1       1.337 164.233 398.914  1.00  0.00     0.162 HD
ENDROOT
BRANCH   2   5
HETATM    5  C2  UNL     1      -0.462 166.409 398.849  1.00  0.00     0.076 C 
HETATM    6  C3  UNL     1      -1.744 166.222 398.732  1.00  0.00    -0.075 C 
HETATM    7  C4  UNL     1      -2.751 166.751 399.738  1.00  0.00     0.034 C 
HETATM    8  C7  UNL     1      -2.506 165.515 397.687  1.00  0.00     0.034 C 
HETATM    9  C5  UNL     1      -3.946 167.003 398.856  1.00  0.00     0.005 C 
HETATM   10  C6  UNL     1      -3.983 165.665 398.099  1.00  0.00     0.005 C 
ENDBRANCH   2   5
BRANCH   3  11
HETATM   11  C8  UNL     1       2.489 164.626 397.151  1.00  0.00     0.128 C 
BRANCH  11  12
HETATM   12  C9  UNL     1       3.614 163.796 397.691  1.00  0.00     0.019 A 
HETATM   13  C10 UNL     1       4.876 164.504 398.038  1.00  0.00     0.023 A 
HETATM   14  C11 UNL     1       4.820 163.483 396.927  1.00  0.00     0.064 A 
HETATM   15 BR1  UNL     1       5.713 161.778 397.256  1.00  0.00    -0.091 Br
ENDBRANCH  11  12
ENDBRANCH   3  11
TORSDOF 3
ENDMDL
MODEL 2
REMARK VINA RESULT: -6.613596780      4.552      7.594
REMARK  3 active torsions:
REMARK  status: ('A' for Active; 'I' for Inactive)
REMARK    1  A    between atoms: C1_2  and  C2_3 
REMARK       I    between atoms: C1_2  and  N1_9 
REMARK    2  A    between atoms: N1_9  and  C8_11 
REMARK    3  A    between atoms: C8_11  and  C9_12 
ROOT
HETATM    1  O1  UNL     1      -2.044 166.764 397.410  1.00  0.00    -0.269 OA
HETATM    2  C1  UNL     1      -1.696 166.656 398.652  1.00  0.00     0.241 C 
HETATM    3  N1  UNL     1      -2.363 167.505 399.537  1.00  0.00    -0.357 N 
ATOM      4  H1  UNL     1      -2.142 167.477 400.533  1.00  0.00     0.162 HD
ENDROOT
BRANCH   2   5
HETATM    5  C2  UNL     1      -0.675 165.679 398.922  1.00  0.00     0.076 C 
HETATM    6  C3  UNL     1       0.580 165.661 398.583  1.00  0.00    -0.075 C 
HETATM    7  C4  UNL     1       1.523 164.534 398.962  1.00  0.00     0.034 C 
HETATM    8  C7  UNL     1       1.363 166.639 397.804  1.00  0.00     0.034 C 
HETATM    9  C5  UNL     1       2.471 164.534 397.791  1.00  0.00     0.005 C 
HETATM   10  C6  UNL     1       2.781 166.039 397.722  1.00  0.00     0.005 C 
ENDBRANCH   2   5
BRANCH   3  11
HETATM   11  C8  UNL     1      -3.365 168.421 399.049  1.00  0.00     0.128 C 
BRANCH  11  12
HETATM   12  C9  UNL     1      -4.760 167.991 399.385  1.00  0.00     0.019 A 
HETATM   13  C10 UNL     1      -5.409 167.012 398.471  1.00  0.00     0.023 A 
HETATM   14  C11 UNL     1      -5.937 168.417 398.630  1.00  0.00     0.064 A 
HETATM   15 BR1  UNL     1      -7.630 168.617 399.582  1.00  0.00    -0.091 Br
ENDBRANCH  11  12
ENDBRANCH   3  11
TORSDOF 3
ENDMDL
MODEL 3
REMARK VINA RESULT: -6.395769844      4.808      7.648
REMARK  3 active torsions:
REMARK  status: ('A' for Active; 'I' for Inactive)
REMARK    1  A    between atoms: C1_2  and  C2_3 
REMARK       I    between atoms: C1_2  and  N1_9 
REMARK    2  A    between atoms: N1_9  and  C8_11 
REMARK    3  A    between atoms: C8_11  and  C9_12 
ROOT
HETATM    1  O1  UNL     1      -2.546 167.484 400.191  1.00  0.00    -0.269 OA
HETATM    2  C1  UNL     1      -2.558 166.650 399.201  1.00  0.00     0.241 C 
HETATM    3  N1  UNL     1      -3.584 165.703 399.228  1.00  0.00    -0.357 N 
ATOM      4  H1  UNL     1      -3.659 165.012 398.481  1.00  0.00     0.162 HD
ENDROOT
BRANCH   2   5
HETATM    5  C2  UNL     1      -1.512 166.830 398.231  1.00  0.00     0.076 C 
HETATM    6  C3  UNL     1      -0.343 166.268 398.145  1.00  0.00    -0.075 C 
HETATM    7  C4  UNL     1       0.647 166.583 397.036  1.00  0.00     0.034 C 
HETATM    8  C7  UNL     1       0.292 165.265 399.020  1.00  0.00     0.034 C 
HETATM    9  C5  UNL     1       1.960 166.383 397.746  1.00  0.00     0.005 C 
HETATM   10  C6  UNL     1       1.684 165.021 398.403  1.00  0.00     0.005 C 
ENDBRANCH   2   5
BRANCH   3  11
HETATM   11  C8  UNL     1      -4.540 165.699 400.309  1.00  0.00     0.128 C 
BRANCH  11  12
HETATM   12  C9  UNL     1      -5.858 166.298 399.922  1.00  0.00     0.019 A 
HETATM   13  C10 UNL     1      -6.222 166.267 398.479  1.00  0.00     0.023 A 
HETATM   14  C11 UNL     1      -5.986 167.567 399.209  1.00  0.00     0.064 A 
HETATM   15 BR1  UNL     1      -7.556 168.675 399.558  1.00  0.00    -0.091 Br
ENDBRANCH  11  12
ENDBRANCH   3  11
TORSDOF 3
ENDMDL
MODEL 4
REMARK VINA RESULT: -6.377621038      3.458      5.167
REMARK  3 active torsions:
REMARK  status: ('A' for Active; 'I' for Inactive)
REMARK    1  A    between atoms: C1_2  and  C2_3 
REMARK       I    between atoms: C1_2  and  N1_9 
REMARK    2  A    between atoms: N1_9  and  C8_11 
REMARK    3  A    between atoms: C8_11  and  C9_12 
ROOT
HETATM    1  O1  UNL     1      -4.168 165.271 400.259  1.00  0.00    -0.269 OA
HETATM    2  C1  UNL     1      -4.202 165.921 399.140  1.00  0.00     0.241 C 
HETATM    3  N1  UNL     1      -2.961 166.322 398.642  1.00  0.00    -0.357 N 
ATOM      4  H1  UNL     1      -2.908 166.839 397.764  1.00  0.00     0.162 HD
ENDROOT
BRANCH   2   5
HETATM    5  C2  UNL     1      -5.514 166.125 398.586  1.00  0.00     0.076 C 
HETATM    6  C3  UNL     1      -6.333 167.126 398.718  1.00  0.00    -0.075 C 
HETATM    7  C4  UNL     1      -7.696 167.174 398.050  1.00  0.00     0.034 C 
HETATM    8  C7  UNL     1      -6.183 168.377 399.486  1.00  0.00     0.034 C 
HETATM    9  C5  UNL     1      -8.486 167.981 399.047  1.00  0.00     0.005 C 
HETATM   10  C6  UNL     1      -7.502 169.142 399.264  1.00  0.00     0.005 C 
ENDBRANCH   2   5
BRANCH   3  11
HETATM   11  C8  UNL     1      -1.753 166.010 399.367  1.00  0.00     0.128 C 
BRANCH  11  12
HETATM   12  C9  UNL     1      -0.518 166.510 398.681  1.00  0.00     0.019 A 
HETATM   13  C10 UNL     1      -0.585 166.690 397.205  1.00  0.00     0.023 A 
HETATM   14  C11 UNL     1       0.329 165.669 397.838  1.00  0.00     0.064 A 
HETATM   15 BR1  UNL     1       2.244 166.046 397.774  1.00  0.00    -0.091 Br
ENDBRANCH  11  12
ENDBRANCH   3  11
TORSDOF 3
ENDMDL
MODEL 5
REMARK VINA RESULT: -6.367448888      3.245      6.569
REMARK  3 active torsions:
REMARK  status: ('A' for Active; 'I' for Inactive)
REMARK    1  A    between atoms: C1_2  and  C2_3 
REMARK       I    between atoms: C1_2  and  N1_9 
REMARK    2  A    between atoms: N1_9  and  C8_11 
REMARK    3  A    between atoms: C8_11  and  C9_12 
ROOT
HETATM    1  O1  UNL     1       0.022 167.175 396.388  1.00  0.00    -0.269 OA
HETATM    2  C1  UNL     1       0.336 166.439 397.406  1.00  0.00     0.241 C 
HETATM    3  N1  UNL     1      -0.712 165.696 397.953  1.00  0.00    -0.357 N 
ATOM      4  H1  UNL     1      -0.542 165.091 398.757  1.00  0.00     0.162 HD
ENDROOT
BRANCH   2   5
HETATM    5  C2  UNL     1       1.714 166.503 397.811  1.00  0.00     0.076 C 
HETATM    6  C3  UNL     1       2.649 165.602 397.750  1.00  0.00    -0.075 C 
HETATM    7  C4  UNL     1       4.069 165.848 398.229  1.00  0.00     0.034 C 
HETATM    8  C7  UNL     1       2.596 164.216 397.247  1.00  0.00     0.034 C 
HETATM    9  C5  UNL     1       4.469 164.471 398.691  1.00  0.00     0.005 C 
HETATM   10  C6  UNL     1       4.015 163.657 397.468  1.00  0.00     0.005 C 
ENDBRANCH   2   5
BRANCH   3  11
HETATM   11  C8  UNL     1      -2.036 165.780 397.385  1.00  0.00     0.128 C 
BRANCH  11  12
HETATM   12  C9  UNL     1      -3.084 166.123 398.400  1.00  0.00     0.019 A 
HETATM   13  C10 UNL     1      -2.912 167.397 399.150  1.00  0.00     0.023 A 
HETATM   14  C11 UNL     1      -2.858 166.056 399.842  1.00  0.00     0.064 A 
HETATM   15 BR1  UNL     1      -4.365 165.604 400.999  1.00  0.00    -0.091 Br
ENDBRANCH  11  12
ENDBRANCH   3  11
TORSDOF 3
ENDMDL
