MODEL 1
REMARK VINA RESULT: -6.128017743      0.000      0.000
REMARK  3 active torsions:
REMARK  status: ('A' for Active; 'I' for Inactive)
REMARK    1  A    between atoms: C2_2  and  C4_4 
REMARK    2  A    between atoms: C4_4  and  N1_5 
REMARK    3  A    between atoms: C6_7  and  C7_8 
ROOT
HETATM    1  N1  UNL     1      69.943 141.430 349.701  1.00  0.00    -0.341 N 
HETATM    2  C5  UNL     1      70.388 142.610 350.245  1.00  0.00     0.120 A 
HETATM    3  C6  UNL     1      69.502 143.624 349.960  1.00  0.00     0.065 A 
HETATM    4  N2  UNL     1      68.523 143.048 349.244  1.00  0.00    -0.346 N 
ATOM      5  H2  UNL     1      67.702 143.524 348.871  1.00  0.00     0.167 HD
HETATM    6  C9  UNL     1      68.802 141.733 349.098  1.00  0.00     0.079 A 
HETATM    7  C10 UNL     1      67.894 140.807 348.378  1.00  0.00     0.089 C 
ENDROOT
BRANCH   1   8
HETATM    8  C4  UNL     1      70.636 140.190 349.845  1.00  0.00     0.162 C 
BRANCH   8   9
HETATM    9  C2  UNL     1      70.137 139.243 350.835  1.00  0.00    -0.075 C 
HETATM   10  C1  UNL     1      70.355 137.934 350.603  1.00  0.00     0.015 C 
HETATM   11  C3  UNL     1      69.442 139.553 352.113  1.00  0.00     0.044 C 
ENDBRANCH   8   9
ENDBRANCH   1   8
BRANCH   3  12
HETATM   12  C7  UNL     1      69.581 145.057 350.361  1.00  0.00     0.152 C 
HETATM   13  C8  UNL     1      69.822 145.149 351.847  1.00  0.00     0.057 C 
HETATM   14 CL1  UNL     1      71.031 145.809 349.586  1.00  0.00    -0.095 Cl
HETATM   15 CL2  UNL     1      68.144 145.914 349.858  1.00  0.00    -0.095 Cl
ENDBRANCH   3  12
TORSDOF 3
ENDMDL
MODEL 2
REMARK VINA RESULT: -6.096303690      0.877      1.287
REMARK  3 active torsions:
REMARK  status: ('A' for Active; 'I' for Inactive)
REMARK    1  A    between atoms: C2_2  and  C4_4 
REMARK    2  A    between atoms: C4_4  and  N1_5 
REMARK    3  A    between atoms: C6_7  and  C7_8 
ROOT
HETATM    1  N1  UNL     1      69.954 141.444 349.711  1.00  0.00    -0.341 N 
HETATM    2  C5  UNL     1      70.422 142.612 350.262  1.00  0.00     0.120 A 
HETATM    3  C6  UNL     1      69.546 143.640 350.001  1.00  0.00     0.065 A 
HETATM    4  N2  UNL     1      68.549 143.086 349.292  1.00  0.00    -0.346 N 
ATOM      5  H2  UNL     1      67.730 143.578 348.936  1.00  0.00     0.167 HD
HETATM    6  C9  UNL     1      68.809 141.769 349.127  1.00  0.00     0.079 A 
HETATM    7  C10 UNL     1      67.879 140.864 348.410  1.00  0.00     0.089 C 
ENDROOT
BRANCH   1   8
HETATM    8  C4  UNL     1      70.632 140.193 349.830  1.00  0.00     0.162 C 
BRANCH   8   9
HETATM    9  C2  UNL     1      70.146 139.250 350.831  1.00  0.00    -0.075 C 
HETATM   10  C1  UNL     1      70.341 137.939 350.589  1.00  0.00     0.015 C 
HETATM   11  C3  UNL     1      69.489 139.564 352.127  1.00  0.00     0.044 C 
ENDBRANCH   8   9
ENDBRANCH   1   8
BRANCH   3  12
HETATM   12  C7  UNL     1      69.650 145.068 350.416  1.00  0.00     0.152 C 
HETATM   13  C8  UNL     1      70.774 145.729 349.658  1.00  0.00     0.057 C 
HETATM   14 CL1  UNL     1      68.147 145.941 349.919  1.00  0.00    -0.095 Cl
HETATM   15 CL2  UNL     1      69.846 145.189 352.149  1.00  0.00    -0.095 Cl
ENDBRANCH   3  12
TORSDOF 3
ENDMDL
MODEL 3
REMARK VINA RESULT: -6.077961246      0.877      1.271
REMARK  3 active torsions:
REMARK  status: ('A' for Active; 'I' for Inactive)
REMARK    1  A    between atoms: C2_2  and  C4_4 
REMARK    2  A    between atoms: C4_4  and  N1_5 
REMARK    3  A    between atoms: C6_7  and  C7_8 
ROOT
HETATM    1  N1  UNL     1      69.961 141.424 349.687  1.00  0.00    -0.341 N 
HETATM    2  C5  UNL     1      70.423 142.603 350.217  1.00  0.00     0.120 A 
HETATM    3  C6  UNL     1      69.545 143.624 349.931  1.00  0.00     0.065 A 
HETATM    4  N2  UNL     1      68.553 143.052 349.229  1.00  0.00    -0.346 N 
ATOM      5  H2  UNL     1      67.734 143.535 348.860  1.00  0.00     0.167 HD
HETATM    6  C9  UNL     1      68.817 141.733 349.091  1.00  0.00     0.079 A 
HETATM    7  C10 UNL     1      67.893 140.811 348.388  1.00  0.00     0.089 C 
ENDROOT
BRANCH   1   8
HETATM    8  C4  UNL     1      70.642 140.177 349.834  1.00  0.00     0.162 C 
BRANCH   8   9
HETATM    9  C2  UNL     1      70.139 139.242 350.833  1.00  0.00    -0.075 C 
HETATM   10  C1  UNL     1      70.347 137.930 350.610  1.00  0.00     0.015 C 
HETATM   11  C3  UNL     1      69.450 139.566 352.111  1.00  0.00     0.044 C 
ENDBRANCH   8   9
ENDBRANCH   1   8
BRANCH   3  12
HETATM   12  C7  UNL     1      69.643 145.059 350.320  1.00  0.00     0.152 C 
HETATM   13  C8  UNL     1      68.345 145.756 349.995  1.00  0.00     0.057 C 
HETATM   14 CL1  UNL     1      69.821 145.177 352.115  1.00  0.00    -0.095 Cl
HETATM   15 CL2  UNL     1      71.020 145.810 349.549  1.00  0.00    -0.095 Cl
ENDBRANCH   3  12
TORSDOF 3
ENDMDL
MODEL 4
REMARK VINA RESULT: -5.486421125      1.468      2.522
REMARK  3 active torsions:
REMARK  status: ('A' for Active; 'I' for Inactive)
REMARK    1  A    between atoms: C2_2  and  C4_4 
REMARK    2  A    between atoms: C4_4  and  N1_5 
REMARK    3  A    between atoms: C6_7  and  C7_8 
ROOT
HETATM    1  N1  UNL     1      70.141 142.492 349.656  1.00  0.00    -0.341 N 
HETATM    2  C5  UNL     1      69.631 143.703 349.258  1.00  0.00     0.120 A 
HETATM    3  C6  UNL     1      69.868 144.654 350.224  1.00  0.00     0.065 A 
HETATM    4  N2  UNL     1      70.524 144.010 351.203  1.00  0.00    -0.346 N 
ATOM      5  H2  UNL     1      70.851 144.429 352.073  1.00  0.00     0.167 HD
HETATM    6  C9  UNL     1      70.680 142.714 350.846  1.00  0.00     0.079 A 
HETATM    7  C10 UNL     1      71.396 141.740 351.704  1.00  0.00     0.089 C 
ENDROOT
BRANCH   1   8
HETATM    8  C4  UNL     1      70.072 141.311 348.856  1.00  0.00     0.162 C 
BRANCH   8   9
HETATM    9  C2  UNL     1      68.836 140.538 348.891  1.00  0.00    -0.075 C 
HETATM   10  C1  UNL     1      68.774 139.513 349.763  1.00  0.00     0.015 C 
HETATM   11  C3  UNL     1      67.599 140.774 348.101  1.00  0.00     0.044 C 
ENDBRANCH   8   9
ENDBRANCH   1   8
BRANCH   3  12
HETATM   12  C7  UNL     1      69.500 146.098 350.205  1.00  0.00     0.152 C 
HETATM   13  C8  UNL     1      70.129 146.791 351.389  1.00  0.00     0.057 C 
HETATM   14 CL1  UNL     1      70.227 146.876 348.744  1.00  0.00    -0.095 Cl
HETATM   15 CL2  UNL     1      67.763 146.288 350.161  1.00  0.00    -0.095 Cl
ENDBRANCH   3  12
TORSDOF 3
ENDMDL
MODEL 5
REMARK VINA RESULT: -5.408321389      1.487      1.886
REMARK  3 active torsions:
REMARK  status: ('A' for Active; 'I' for Inactive)
REMARK    1  A    between atoms: C2_2  and  C4_4 
REMARK    2  A    between atoms: C4_4  and  N1_5 
REMARK    3  A    between atoms: C6_7  and  C7_8 
ROOT
HETATM    1  N1  UNL     1      69.468 142.499 349.601  1.00  0.00    -0.341 N 
HETATM    2  C5  UNL     1      68.854 143.597 350.154  1.00  0.00     0.120 A 
HETATM    3  C6  UNL     1      69.512 144.745 349.774  1.00  0.00     0.065 A 
HETATM    4  N2  UNL     1      70.522 144.332 348.992  1.00  0.00    -0.346 N 
ATOM      5  H2  UNL     1      71.208 144.937 348.542  1.00  0.00     0.167 HD
HETATM    6  C9  UNL     1      70.482 142.984 348.898  1.00  0.00     0.079 A 
HETATM    7  C10 UNL     1      71.450 142.219 348.075  1.00  0.00     0.089 C 
ENDROOT
BRANCH   1   8
HETATM    8  C4  UNL     1      69.004 141.162 349.792  1.00  0.00     0.162 C 
BRANCH   8   9
HETATM    9  C2  UNL     1      69.808 140.277 350.628  1.00  0.00    -0.075 C 
HETATM   10  C1  UNL     1      69.701 138.953 350.404  1.00  0.00     0.015 C 
HETATM   11  C3  UNL     1      70.780 140.665 351.683  1.00  0.00     0.044 C 
ENDBRANCH   8   9
ENDBRANCH   1   8
BRANCH   3  12
HETATM   12  C7  UNL     1      69.185 146.154 350.130  1.00  0.00     0.152 C 
HETATM   13  C8  UNL     1      70.035 146.586 351.298  1.00  0.00     0.057 C 
HETATM   14 CL1  UNL     1      69.656 147.235 348.760  1.00  0.00    -0.095 Cl
HETATM   15 CL2  UNL     1      67.474 146.326 350.444  1.00  0.00    -0.095 Cl
ENDBRANCH   3  12
TORSDOF 3
ENDMDL
