MODEL 1
REMARK VINA RESULT: -5.912475715      0.000      0.000
REMARK  2 active torsions:
REMARK  status: ('A' for Active; 'I' for Inactive)
REMARK    1  A    between atoms: C4_4  and  C5_5 
REMARK    2  A    between atoms: C5_5  and  C6_6 
ROOT
HETATM    1  C6  UNL     1      70.550 142.000 350.420  1.00  0.00    -0.024 A 
HETATM    2  C7  UNL     1      71.286 141.548 351.473  1.00  0.00     0.096 A 
HETATM    3  N1  UNL     1      70.878 140.290 351.799  1.00  0.00    -0.373 N 
ATOM      4  H1  UNL     1      71.261 139.714 352.549  1.00  0.00     0.164 HD
HETATM    5  C8  UNL     1      69.887 139.934 350.963  1.00  0.00     0.107 A 
HETATM    6  C9  UNL     1      69.661 140.978 350.094  1.00  0.00     0.034 A 
HETATM    7 BR1  UNL     1      68.349 140.949 348.723  1.00  0.00    -0.049 Br
ENDROOT
BRANCH   1   8
HETATM    8  C5  UNL     1      70.578 143.280 349.680  1.00  0.00     0.046 C 
BRANCH   8   9
HETATM    9  C4  UNL     1      69.695 144.325 350.323  1.00  0.00    -0.006 A 
HETATM   10  C2  UNL     1      69.636 145.693 349.738  1.00  0.00    -0.014 A 
HETATM   11  C1  UNL     1      69.387 146.862 350.657  1.00  0.00     0.010 C 
HETATM   12  C3  UNL     1      68.508 144.761 349.502  1.00  0.00     0.010 A 
ENDBRANCH   8   9
ENDBRANCH   1   8
TORSDOF 2
ENDMDL
MODEL 2
REMARK VINA RESULT: -5.373065036      2.752      5.688
REMARK  2 active torsions:
REMARK  status: ('A' for Active; 'I' for Inactive)
REMARK    1  A    between atoms: C4_4  and  C5_5 
REMARK    2  A    between atoms: C5_5  and  C6_6 
ROOT
HETATM    1  C6  UNL     1      69.491 140.764 349.771  1.00  0.00    -0.024 A 
HETATM    2  C7  UNL     1      68.407 140.696 348.951  1.00  0.00     0.096 A 
HETATM    3  N1  UNL     1      67.838 141.929 348.854  1.00  0.00    -0.373 N 
ATOM      4  H1  UNL     1      67.012 142.164 348.302  1.00  0.00     0.164 HD
HETATM    5  C8  UNL     1      68.550 142.785 349.607  1.00  0.00     0.107 A 
HETATM    6  C9  UNL     1      69.585 142.089 350.191  1.00  0.00     0.034 A 
HETATM    7 BR1  UNL     1      70.868 142.872 351.349  1.00  0.00    -0.049 Br
ENDROOT
BRANCH   1   8
HETATM    8  C5  UNL     1      70.454 139.732 350.214  1.00  0.00     0.046 C 
BRANCH   8   9
HETATM    9  C4  UNL     1      69.768 138.433 350.568  1.00  0.00    -0.006 A 
HETATM   10  C2  UNL     1      70.449 137.470 351.476  1.00  0.00    -0.014 A 
HETATM   11  C1  UNL     1      70.185 135.995 351.296  1.00  0.00     0.010 C 
HETATM   12  C3  UNL     1      69.342 138.298 352.008  1.00  0.00     0.010 A 
ENDBRANCH   8   9
ENDBRANCH   1   8
TORSDOF 2
ENDMDL
MODEL 3
REMARK VINA RESULT: -5.316625983      2.117      4.708
REMARK  2 active torsions:
REMARK  status: ('A' for Active; 'I' for Inactive)
REMARK    1  A    between atoms: C4_4  and  C5_5 
REMARK    2  A    between atoms: C5_5  and  C6_6 
ROOT
HETATM    1  C6  UNL     1      69.990 141.780 349.878  1.00  0.00    -0.024 A 
HETATM    2  C7  UNL     1      70.362 142.874 350.599  1.00  0.00     0.096 A 
HETATM    3  N1  UNL     1      69.404 143.834 350.485  1.00  0.00    -0.373 N 
ATOM      4  H1  UNL     1      69.426 144.755 350.925  1.00  0.00     0.164 HD
HETATM    5  C8  UNL     1      68.422 143.364 349.697  1.00  0.00     0.107 A 
HETATM    6  C9  UNL     1      68.759 142.087 349.304  1.00  0.00     0.034 A 
HETATM    7 BR1  UNL     1      67.681 141.007 348.177  1.00  0.00    -0.049 Br
ENDROOT
BRANCH   1   8
HETATM    8  C5  UNL     1      70.653 140.476 349.661  1.00  0.00     0.046 C 
BRANCH   8   9
HETATM    9  C4  UNL     1      70.545 139.577 350.871  1.00  0.00    -0.006 A 
HETATM   10  C2  UNL     1      69.300 138.788 351.087  1.00  0.00    -0.014 A 
HETATM   11  C1  UNL     1      68.875 138.483 352.502  1.00  0.00     0.010 C 
HETATM   12  C3  UNL     1      70.508 138.099 350.577  1.00  0.00     0.010 A 
ENDBRANCH   8   9
ENDBRANCH   1   8
TORSDOF 2
ENDMDL
MODEL 4
REMARK VINA RESULT: -5.293091684      1.023      1.217
REMARK  2 active torsions:
REMARK  status: ('A' for Active; 'I' for Inactive)
REMARK    1  A    between atoms: C4_4  and  C5_5 
REMARK    2  A    between atoms: C5_5  and  C6_6 
ROOT
HETATM    1  C6  UNL     1      69.366 142.400 349.877  1.00  0.00    -0.024 A 
HETATM    2  C7  UNL     1      70.387 142.238 350.764  1.00  0.00     0.096 A 
HETATM    3  N1  UNL     1      70.741 140.924 350.808  1.00  0.00    -0.373 N 
ATOM      4  H1  UNL     1      71.479 140.523 351.387  1.00  0.00     0.164 HD
HETATM    5  C8  UNL     1      69.954 140.244 349.956  1.00  0.00     0.107 A 
HETATM    6  C9  UNL     1      69.088 141.136 349.363  1.00  0.00     0.034 A 
HETATM    7 BR1  UNL     1      67.778 140.646 348.080  1.00  0.00    -0.049 Br
ENDROOT
BRANCH   1   8
HETATM    8  C5  UNL     1      68.615 143.601 349.453  1.00  0.00     0.046 C 
BRANCH   8   9
HETATM    9  C4  UNL     1      68.729 144.724 350.459  1.00  0.00    -0.006 A 
HETATM   10  C2  UNL     1      69.476 145.960 350.094  1.00  0.00    -0.014 A 
HETATM   11  C1  UNL     1      70.187 146.722 351.184  1.00  0.00     0.010 C 
HETATM   12  C3  UNL     1      67.994 145.990 350.099  1.00  0.00     0.010 A 
ENDBRANCH   8   9
ENDBRANCH   1   8
TORSDOF 2
ENDMDL
MODEL 5
REMARK VINA RESULT: -5.227113711      0.966      1.279
REMARK  2 active torsions:
REMARK  status: ('A' for Active; 'I' for Inactive)
REMARK    1  A    between atoms: C4_4  and  C5_5 
REMARK    2  A    between atoms: C5_5  and  C6_6 
ROOT
HETATM    1  C6  UNL     1      69.840 141.966 350.512  1.00  0.00    -0.024 A 
HETATM    2  C7  UNL     1      70.800 141.485 351.350  1.00  0.00     0.096 A 
HETATM    3  N1  UNL     1      70.944 140.146 351.147  1.00  0.00    -0.373 N 
ATOM      4  H1  UNL     1      71.595 139.534 351.639  1.00  0.00     0.164 HD
HETATM    5  C8  UNL     1      70.083 139.767 350.187  1.00  0.00     0.107 A 
HETATM    6  C9  UNL     1      69.383 140.878 349.772  1.00  0.00     0.034 A 
HETATM    7 BR1  UNL     1      68.046 140.846 348.426  1.00  0.00    -0.049 Br
ENDROOT
BRANCH   1   8
HETATM    8  C5  UNL     1      69.297 143.328 350.322  1.00  0.00     0.046 C 
BRANCH   8   9
HETATM    9  C4  UNL     1      70.382 144.380 350.352  1.00  0.00    -0.006 A 
HETATM   10  C2  UNL     1      70.234 145.607 349.521  1.00  0.00    -0.014 A 
HETATM   11  C1  UNL     1      71.479 146.271 348.986  1.00  0.00     0.010 C 
HETATM   12  C3  UNL     1      69.991 145.694 350.980  1.00  0.00     0.010 A 
ENDBRANCH   8   9
ENDBRANCH   1   8
TORSDOF 2
ENDMDL
