MODEL 1
REMARK VINA RESULT: -6.228924192      0.000      0.000
REMARK  2 active torsions:
REMARK  status: ('A' for Active; 'I' for Inactive)
REMARK    1  A    between atoms: C2_3  and  C3_4 
REMARK    2  A    between atoms: C3_4  and  C4_5 
ROOT
HETATM    1  C1  UNL     1      70.637 144.487 352.037  1.00  0.00     0.157 C 
HETATM    2  N1  UNL     1      69.897 143.829 350.954  1.00  0.00    -0.343 N 
HETATM    3  C2  UNL     1      68.936 144.397 350.212  1.00  0.00     0.084 A 
HETATM    4  N2  UNL     1      68.529 143.450 349.345  1.00  0.00    -0.346 N 
ATOM      5  H2  UNL     1      67.802 143.573 348.640  1.00  0.00     0.167 HD
HETATM    6  C5  UNL     1      69.223 142.324 349.547  1.00  0.00     0.052 A 
HETATM    7  C6  UNL     1      70.095 142.556 350.570  1.00  0.00     0.036 A 
HETATM    8  C7  UNL     1      71.013 141.479 351.029  1.00  0.00     0.059 C 
HETATM    9  C8  UNL     1      70.353 140.144 351.037  1.00  0.00     0.008 C 
HETATM   10  C9  UNL     1      69.208 139.986 350.101  1.00  0.00     0.027 C 
HETATM   11  C10 UNL     1      69.246 140.957 348.936  1.00  0.00     0.134 C 
HETATM   12 CL2  UNL     1      67.759 140.694 347.998  1.00  0.00    -0.118 Cl
ENDROOT
BRANCH   3  13
HETATM   13  C3  UNL     1      68.490 145.787 350.388  1.00  0.00     0.091 C 
BRANCH  13  14
HETATM   14  C4  UNL     1      69.085 146.747 349.418  1.00  0.00     0.122 C 
HETATM   15 CL1  UNL     1      70.752 146.410 348.982  1.00  0.00    -0.130 Cl
ENDBRANCH  13  14
ENDBRANCH   3  13
TORSDOF 2
ENDMDL
MODEL 2
REMARK VINA RESULT: -5.395828275      1.732      5.271
REMARK  2 active torsions:
REMARK  status: ('A' for Active; 'I' for Inactive)
REMARK    1  A    between atoms: C2_3  and  C3_4 
REMARK    2  A    between atoms: C3_4  and  C4_5 
ROOT
HETATM    1  C1  UNL     1      67.616 142.243 349.297  1.00  0.00     0.157 C 
HETATM    2  N1  UNL     1      68.862 143.015 349.371  1.00  0.00    -0.343 N 
HETATM    3  C2  UNL     1      70.098 142.496 349.385  1.00  0.00     0.084 A 
HETATM    4  N2  UNL     1      70.940 143.545 349.460  1.00  0.00    -0.346 N 
ATOM      5  H2  UNL     1      71.957 143.480 349.489  1.00  0.00     0.167 HD
HETATM    6  C5  UNL     1      70.239 144.684 349.492  1.00  0.00     0.052 A 
HETATM    7  C6  UNL     1      68.917 144.356 349.437  1.00  0.00     0.036 A 
HETATM    8  C7  UNL     1      67.879 145.423 349.454  1.00  0.00     0.059 C 
HETATM    9  C8  UNL     1      68.229 146.530 350.386  1.00  0.00     0.008 C 
HETATM   10  C9  UNL     1      69.680 146.707 350.661  1.00  0.00     0.027 C 
HETATM   11  C10 UNL     1      70.571 146.143 349.571  1.00  0.00     0.134 C 
HETATM   12 CL2  UNL     1      72.249 146.347 350.122  1.00  0.00    -0.118 Cl
ENDROOT
BRANCH   3  13
HETATM   13  C3  UNL     1      70.373 141.053 349.324  1.00  0.00     0.091 C 
BRANCH  13  14
HETATM   14  C4  UNL     1      70.435 140.386 350.653  1.00  0.00     0.122 C 
HETATM   15 CL1  UNL     1      70.337 138.633 350.598  1.00  0.00    -0.130 Cl
ENDBRANCH  13  14
ENDBRANCH   3  13
TORSDOF 2
ENDMDL
MODEL 3
REMARK VINA RESULT: -5.392056816      2.159      4.894
REMARK  2 active torsions:
REMARK  status: ('A' for Active; 'I' for Inactive)
REMARK    1  A    between atoms: C2_3  and  C3_4 
REMARK    2  A    between atoms: C3_4  and  C4_5 
ROOT
HETATM    1  C1  UNL     1      71.678 142.693 348.206  1.00  0.00     0.157 C 
HETATM    2  N1  UNL     1      70.572 143.308 348.949  1.00  0.00    -0.343 N 
HETATM    3  C2  UNL     1      69.504 142.657 349.434  1.00  0.00     0.084 A 
HETATM    4  N2  UNL     1      68.745 143.591 350.038  1.00  0.00    -0.346 N 
ATOM      5  H2  UNL     1      67.858 143.411 350.508  1.00  0.00     0.167 HD
HETATM    6  C5  UNL     1      69.330 144.789 349.929  1.00  0.00     0.052 A 
HETATM    7  C6  UNL     1      70.492 144.618 349.237  1.00  0.00     0.036 A 
HETATM    8  C7  UNL     1      71.373 145.784 348.954  1.00  0.00     0.059 C 
HETATM    9  C8  UNL     1      70.595 147.006 348.612  1.00  0.00     0.008 C 
HETATM   10  C9  UNL     1      69.209 147.059 349.151  1.00  0.00     0.027 C 
HETATM   11  C10 UNL     1      69.006 146.183 350.372  1.00  0.00     0.134 C 
HETATM   12 CL2  UNL     1      67.284 146.291 350.800  1.00  0.00    -0.118 Cl
ENDROOT
BRANCH   3  13
HETATM   13  C3  UNL     1      69.300 141.209 349.283  1.00  0.00     0.091 C 
BRANCH  13  14
HETATM   14  C4  UNL     1      69.659 140.413 350.489  1.00  0.00     0.122 C 
HETATM   15 CL1  UNL     1      70.985 141.071 351.433  1.00  0.00    -0.130 Cl
ENDBRANCH  13  14
ENDBRANCH   3  13
TORSDOF 2
ENDMDL
MODEL 4
REMARK VINA RESULT: -5.173642499      1.833      2.631
REMARK  2 active torsions:
REMARK  status: ('A' for Active; 'I' for Inactive)
REMARK    1  A    between atoms: C2_3  and  C3_4 
REMARK    2  A    between atoms: C3_4  and  C4_5 
ROOT
HETATM    1  C1  UNL     1      68.052 145.467 349.082  1.00  0.00     0.157 C 
HETATM    2  N1  UNL     1      68.874 144.514 349.836  1.00  0.00    -0.343 N 
HETATM    3  C2  UNL     1      69.916 144.833 350.616  1.00  0.00     0.084 A 
HETATM    4  N2  UNL     1      70.379 143.670 351.112  1.00  0.00    -0.346 N 
ATOM      5  H2  UNL     1      71.173 143.576 351.745  1.00  0.00     0.167 HD
HETATM    6  C5  UNL     1      69.639 142.656 350.649  1.00  0.00     0.052 A 
HETATM    7  C6  UNL     1      68.680 143.184 349.836  1.00  0.00     0.036 A 
HETATM    8  C7  UNL     1      67.693 142.294 349.166  1.00  0.00     0.059 C 
HETATM    9  C8  UNL     1      68.313 141.027 348.690  1.00  0.00     0.008 C 
HETATM   10  C9  UNL     1      69.538 140.596 349.416  1.00  0.00     0.027 C 
HETATM   11  C10 UNL     1      69.637 141.167 350.818  1.00  0.00     0.134 C 
HETATM   12 CL2  UNL     1      71.199 140.637 351.480  1.00  0.00    -0.118 Cl
ENDROOT
BRANCH   3  13
HETATM   13  C3  UNL     1      70.381 146.213 350.824  1.00  0.00     0.091 C 
BRANCH  13  14
HETATM   14  C4  UNL     1      71.527 146.608 349.962  1.00  0.00     0.122 C 
HETATM   15 CL1  UNL     1      71.094 147.026 348.312  1.00  0.00    -0.130 Cl
ENDBRANCH  13  14
ENDBRANCH   3  13
TORSDOF 2
ENDMDL
MODEL 5
REMARK VINA RESULT: -5.067564352      2.241      5.311
REMARK  2 active torsions:
REMARK  status: ('A' for Active; 'I' for Inactive)
REMARK    1  A    between atoms: C2_3  and  C3_4 
REMARK    2  A    between atoms: C3_4  and  C4_5 
ROOT
HETATM    1  C1  UNL     1      67.708 141.126 348.344  1.00  0.00     0.157 C 
HETATM    2  N1  UNL     1      68.731 141.517 349.321  1.00  0.00    -0.343 N 
HETATM    3  C2  UNL     1      69.485 140.672 350.039  1.00  0.00     0.084 A 
HETATM    4  N2  UNL     1      70.282 141.443 350.802  1.00  0.00    -0.346 N 
ATOM      5  H2  UNL     1      70.976 141.095 351.464  1.00  0.00     0.167 HD
HETATM    6  C5  UNL     1      70.027 142.734 350.560  1.00  0.00     0.052 A 
HETATM    7  C6  UNL     1      69.041 142.790 349.621  1.00  0.00     0.036 A 
HETATM    8  C7  UNL     1      68.537 144.106 349.141  1.00  0.00     0.059 C 
HETATM    9  C8  UNL     1      68.433 145.102 350.243  1.00  0.00     0.008 C 
HETATM   10  C9  UNL     1      69.331 144.872 351.407  1.00  0.00     0.027 C 
HETATM   11  C10 UNL     1      70.554 144.042 351.066  1.00  0.00     0.134 C 
HETATM   12 CL2  UNL     1      71.439 143.784 352.586  1.00  0.00    -0.118 Cl
ENDROOT
BRANCH   3  13
HETATM   13  C3  UNL     1      69.384 139.209 349.936  1.00  0.00     0.091 C 
BRANCH  13  14
HETATM   14  C4  UNL     1      69.978 138.473 351.086  1.00  0.00     0.122 C 
HETATM   15 CL1  UNL     1      69.050 138.564 352.573  1.00  0.00    -0.130 Cl
ENDBRANCH  13  14
ENDBRANCH   3  13
TORSDOF 2
ENDMDL
