MODEL 1
REMARK VINA RESULT: -5.921681200      0.000      0.000
REMARK  3 active torsions:
REMARK  status: ('A' for Active; 'I' for Inactive)
REMARK    1  A    between atoms: N1_2  and  C1_4 
REMARK    2  A    between atoms: C4_8  and  N2_9 
REMARK    3  A    between atoms: N2_9  and  C5_11 
ROOT
HETATM    1  C1  UNL     1     -10.674  12.651 -16.426  1.00  0.00     0.241 A 
HETATM    2  O3  UNL     1     -11.302  11.723 -15.704  1.00  0.00    -0.299 OA
HETATM    3  C2  UNL     1     -12.270  12.247 -15.004  1.00  0.00     0.147 A 
HETATM    4  C3  UNL     1     -12.290  13.595 -15.273  1.00  0.00     0.058 A 
HETATM    5  C4  UNL     1     -11.267  13.872 -16.188  1.00  0.00     0.090 A 
ENDROOT
BRANCH   5   6
HETATM    6  N2  UNL     1     -10.951  15.153 -16.721  1.00  0.00    -0.360 N 
ATOM      7  H2  UNL     1     -10.133  15.664 -16.391  1.00  0.00     0.162 HD
BRANCH   6   8
HETATM    8  C5  UNL     1     -11.810  15.721 -17.741  1.00  0.00     0.220 C 
HETATM    9  C6  UNL     1     -11.063  16.795 -18.458  1.00  0.00     0.054 C 
HETATM   10  C7  UNL     1     -11.974  17.338 -19.550  1.00  0.00     0.006 C 
HETATM   11  C8  UNL     1     -12.221  16.211 -20.515  1.00  0.00     0.026 C 
HETATM   12  C9  UNL     1     -11.866  14.877 -19.895  1.00  0.00     0.170 C 
HETATM   13  O4  UNL     1     -12.310  14.748 -18.602  1.00  0.00    -0.367 OA
ENDBRANCH   6   8
ENDBRANCH   5   6
BRANCH   1  14
HETATM   14  N1  UNL     1      -9.571  12.412 -17.300  1.00  0.00    -0.088 N 
HETATM   15  O1  UNL     1      -9.209  13.166 -18.193  1.00  0.00    -0.530 OA
HETATM   16  O2  UNL     1      -8.863  11.227 -17.110  1.00  0.00    -0.530 OA
ENDBRANCH   1  14
TORSDOF 3
ENDMDL
MODEL 2
REMARK VINA RESULT: -5.732610959      1.227      1.574
REMARK  3 active torsions:
REMARK  status: ('A' for Active; 'I' for Inactive)
REMARK    1  A    between atoms: N1_2  and  C1_4 
REMARK    2  A    between atoms: C4_8  and  N2_9 
REMARK    3  A    between atoms: N2_9  and  C5_11 
ROOT
HETATM    1  C1  UNL     1     -10.581  11.552 -15.699  1.00  0.00     0.241 A 
HETATM    2  O3  UNL     1     -10.882  11.362 -14.414  1.00  0.00    -0.299 OA
HETATM    3  C2  UNL     1     -11.807  12.192 -14.020  1.00  0.00     0.147 A 
HETATM    4  C3  UNL     1     -12.144  12.976 -15.098  1.00  0.00     0.058 A 
HETATM    5  C4  UNL     1     -11.361  12.577 -16.189  1.00  0.00     0.090 A 
ENDROOT
BRANCH   5   6
HETATM    6  N2  UNL     1     -11.403  13.140 -17.494  1.00  0.00    -0.360 N 
ATOM      7  H2  UNL     1     -11.173  12.574 -18.310  1.00  0.00     0.162 HD
BRANCH   6   8
HETATM    8  C5  UNL     1     -11.776  14.532 -17.648  1.00  0.00     0.220 C 
HETATM    9  C6  UNL     1     -10.557  15.379 -17.496  1.00  0.00     0.054 C 
HETATM   10  C7  UNL     1     -10.974  16.827 -17.708  1.00  0.00     0.006 C 
HETATM   11  C8  UNL     1     -11.452  16.942 -19.129  1.00  0.00     0.026 C 
HETATM   12  C9  UNL     1     -11.756  15.578 -19.712  1.00  0.00     0.170 C 
HETATM   13  O4  UNL     1     -12.444  14.763 -18.848  1.00  0.00    -0.367 OA
ENDBRANCH   6   8
ENDBRANCH   5   6
BRANCH   1  14
HETATM   14  N1  UNL     1      -9.611  10.811 -16.439  1.00  0.00    -0.088 N 
HETATM   15  O1  UNL     1      -8.811  11.298 -17.227  1.00  0.00    -0.530 OA
HETATM   16  O2  UNL     1      -9.584   9.433 -16.239  1.00  0.00    -0.530 OA
ENDBRANCH   1  14
TORSDOF 3
ENDMDL
MODEL 3
REMARK VINA RESULT: -5.715276996      2.046      4.827
REMARK  3 active torsions:
REMARK  status: ('A' for Active; 'I' for Inactive)
REMARK    1  A    between atoms: N1_2  and  C1_4 
REMARK    2  A    between atoms: C4_8  and  N2_9 
REMARK    3  A    between atoms: N2_9  and  C5_11 
ROOT
HETATM    1  C1  UNL     1     -11.682  15.426 -19.861  1.00  0.00     0.241 A 
HETATM    2  O3  UNL     1     -11.825  16.745 -19.988  1.00  0.00    -0.299 OA
HETATM    3  C2  UNL     1     -11.280  17.377 -18.986  1.00  0.00     0.147 A 
HETATM    4  C3  UNL     1     -10.743  16.430 -18.146  1.00  0.00     0.058 A 
HETATM    5  C4  UNL     1     -10.995  15.167 -18.695  1.00  0.00     0.090 A 
ENDROOT
BRANCH   5   6
HETATM    6  N2  UNL     1     -10.604  13.921 -18.131  1.00  0.00    -0.360 N 
ATOM      7  H2  UNL     1      -9.752  13.455 -18.443  1.00  0.00     0.162 HD
BRANCH   6   8
HETATM    8  C5  UNL     1     -11.435  13.322 -17.106  1.00  0.00     0.220 C 
HETATM    9  C6  UNL     1     -10.867  13.658 -15.767  1.00  0.00     0.054 C 
HETATM   10  C7  UNL     1     -11.786  13.055 -14.714  1.00  0.00     0.006 C 
HETATM   11  C8  UNL     1     -13.117  13.744 -14.848  1.00  0.00     0.026 C 
HETATM   12  C9  UNL     1     -13.232  14.450 -16.182  1.00  0.00     0.170 C 
HETATM   13  O4  UNL     1     -12.770  13.697 -17.232  1.00  0.00    -0.367 OA
ENDBRANCH   6   8
ENDBRANCH   5   6
BRANCH   1  14
HETATM   14  N1  UNL     1     -12.164  14.450 -20.784  1.00  0.00    -0.088 N 
HETATM   15  O1  UNL     1     -12.578  13.340 -20.476  1.00  0.00    -0.530 OA
HETATM   16  O2  UNL     1     -12.156  14.800 -22.132  1.00  0.00    -0.530 OA
ENDBRANCH   1  14
TORSDOF 3
ENDMDL
MODEL 4
REMARK VINA RESULT: -5.690281473      1.465      2.557
REMARK  3 active torsions:
REMARK  status: ('A' for Active; 'I' for Inactive)
REMARK    1  A    between atoms: N1_2  and  C1_4 
REMARK    2  A    between atoms: C4_8  and  N2_9 
REMARK    3  A    between atoms: N2_9  and  C5_11 
ROOT
HETATM    1  C1  UNL     1     -11.230  13.245 -16.290  1.00  0.00     0.241 A 
HETATM    2  O3  UNL     1     -10.477  12.161 -16.473  1.00  0.00    -0.299 OA
HETATM    3  C2  UNL     1      -9.442  12.427 -17.219  1.00  0.00     0.147 A 
HETATM    4  C3  UNL     1      -9.506  13.759 -17.553  1.00  0.00     0.058 A 
HETATM    5  C4  UNL     1     -10.654  14.301 -16.963  1.00  0.00     0.090 A 
ENDROOT
BRANCH   5   6
HETATM    6  N2  UNL     1     -11.085  15.653 -17.067  1.00  0.00    -0.360 N 
ATOM      7  H2  UNL     1     -10.761  16.353 -16.399  1.00  0.00     0.162 HD
BRANCH   6   8
HETATM    8  C5  UNL     1     -11.992  16.022 -18.134  1.00  0.00     0.220 C 
HETATM    9  C6  UNL     1     -11.388  17.141 -18.916  1.00  0.00     0.054 C 
HETATM   10  C7  UNL     1     -12.342  17.472 -20.055  1.00  0.00     0.006 C 
HETATM   11  C8  UNL     1     -12.404  16.259 -20.942  1.00  0.00     0.026 C 
HETATM   12  C9  UNL     1     -11.878  15.034 -20.225  1.00  0.00     0.170 C 
HETATM   13  O4  UNL     1     -12.328  14.931 -18.932  1.00  0.00    -0.367 OA
ENDBRANCH   6   8
ENDBRANCH   5   6
BRANCH   1  14
HETATM   14  N1  UNL     1     -12.434  13.296 -15.525  1.00  0.00    -0.088 N 
HETATM   15  O1  UNL     1     -12.504  13.107 -14.318  1.00  0.00    -0.530 OA
HETATM   16  O2  UNL     1     -13.608  13.583 -16.217  1.00  0.00    -0.530 OA
ENDBRANCH   1  14
TORSDOF 3
ENDMDL
MODEL 5
REMARK VINA RESULT: -5.520563780      1.777      2.314
REMARK  3 active torsions:
REMARK  status: ('A' for Active; 'I' for Inactive)
REMARK    1  A    between atoms: N1_2  and  C1_4 
REMARK    2  A    between atoms: C4_8  and  N2_9 
REMARK    3  A    between atoms: N2_9  and  C5_11 
ROOT
HETATM    1  C1  UNL     1     -10.452  11.014 -15.469  1.00  0.00     0.241 A 
HETATM    2  O3  UNL     1     -10.675  10.550 -14.239  1.00  0.00    -0.299 OA
HETATM    3  C2  UNL     1     -11.536  11.294 -13.604  1.00  0.00     0.147 A 
HETATM    4  C3  UNL     1     -11.910  12.309 -14.453  1.00  0.00     0.058 A 
HETATM    5  C4  UNL     1     -11.219  12.143 -15.660  1.00  0.00     0.090 A 
ENDROOT
BRANCH   5   6
HETATM    6  N2  UNL     1     -11.323  12.985 -16.802  1.00  0.00    -0.360 N 
ATOM      7  H2  UNL     1     -11.498  12.588 -17.724  1.00  0.00     0.162 HD
BRANCH   6   8
HETATM    8  C5  UNL     1     -11.177  14.417 -16.635  1.00  0.00     0.220 C 
HETATM    9  C6  UNL     1     -10.398  14.961 -17.787  1.00  0.00     0.054 C 
HETATM   10  C7  UNL     1     -10.302  16.469 -17.605  1.00  0.00     0.006 C 
HETATM   11  C8  UNL     1     -11.704  17.010 -17.686  1.00  0.00     0.026 C 
HETATM   12  C9  UNL     1     -12.724  15.908 -17.494  1.00  0.00     0.170 C 
HETATM   13  O4  UNL     1     -12.406  15.051 -16.471  1.00  0.00    -0.367 OA
ENDBRANCH   6   8
ENDBRANCH   5   6
BRANCH   1  14
HETATM   14  N1  UNL     1      -9.565  10.433 -16.423  1.00  0.00    -0.088 N 
HETATM   15  O1  UNL     1      -9.421   9.231 -16.605  1.00  0.00    -0.530 OA
HETATM   16  O2  UNL     1      -8.811  11.311 -17.199  1.00  0.00    -0.530 OA
ENDBRANCH   1  14
TORSDOF 3
ENDMDL
