MODEL 1
REMARK VINA RESULT: -5.832173140      0.000      0.000
REMARK  4 active torsions:
REMARK  status: ('A' for Active; 'I' for Inactive)
REMARK    1  A    between atoms: C1_4  and  O1_5 
REMARK    2  A    between atoms: C1_4  and  C7_14 
REMARK    3  A    between atoms: O1_5  and  N2_6 
REMARK    4  A    between atoms: C2_8  and  C3_9 
ROOT
HETATM    1  N1  UNL     1     -13.606  14.275 -15.727  1.00  0.00    -0.376 N 
ATOM      2  H11 UNL     1     -13.747  14.201 -14.719  1.00  0.00     0.158 HD
ATOM      3  H12 UNL     1     -14.148  14.924 -16.297  1.00  0.00     0.158 HD
HETATM    4  C1  UNL     1     -12.714  13.507 -16.232  1.00  0.00     0.198 C 
ENDROOT
BRANCH   4   5
HETATM    5  O1  UNL     1     -12.520  13.608 -17.616  1.00  0.00    -0.218 OA
BRANCH   5   6
HETATM    6  N2  UNL     1     -11.413  13.093 -18.237  1.00  0.00    -0.268 N 
HETATM    7  C2  UNL     1     -10.578  13.906 -18.775  1.00  0.00     0.151 C 
ATOM      8  H2  UNL     1     -11.256  12.085 -18.270  1.00  0.00     0.194 HD
BRANCH   7   9
HETATM    9  C3  UNL     1     -10.819  15.343 -18.717  1.00  0.00     0.092 A 
HETATM   10  C4  UNL     1     -10.344  16.201 -17.731  1.00  0.00     0.040 A 
HETATM   11  C5  UNL     1     -10.784  17.482 -18.024  1.00  0.00     0.027 A 
HETATM   12  C6  UNL     1     -11.519  17.327 -19.199  1.00  0.00     0.142 A 
HETATM   13  O2  UNL     1     -11.504  16.083 -19.547  1.00  0.00    -0.321 OA
ENDBRANCH   7   9
ENDBRANCH   5   6
ENDBRANCH   4   5
BRANCH   4  14
HETATM   14  C7  UNL     1     -11.941  12.580 -15.419  1.00  0.00     0.127 A 
HETATM   15  C8  UNL     1     -12.058  12.486 -14.050  1.00  0.00     0.043 A 
HETATM   16  C9  UNL     1     -11.168  11.496 -13.622  1.00  0.00     0.027 A 
HETATM   17  C10 UNL     1     -10.561  11.051 -14.791  1.00  0.00     0.142 A 
HETATM   18  O3  UNL     1     -11.044  11.712 -15.817  1.00  0.00    -0.318 OA
ENDBRANCH   4  14
TORSDOF 4
ENDMDL
MODEL 2
REMARK VINA RESULT: -5.699302233      1.458      5.403
REMARK  4 active torsions:
REMARK  status: ('A' for Active; 'I' for Inactive)
REMARK    1  A    between atoms: C1_4  and  O1_5 
REMARK    2  A    between atoms: C1_4  and  C7_14 
REMARK    3  A    between atoms: O1_5  and  N2_6 
REMARK    4  A    between atoms: C2_8  and  C3_9 
ROOT
HETATM    1  N1  UNL     1     -13.668  14.074 -15.737  1.00  0.00    -0.376 N 
ATOM      2  H11 UNL     1     -13.973  15.030 -15.559  1.00  0.00     0.158 HD
ATOM      3  H12 UNL     1     -14.162  13.272 -15.346  1.00  0.00     0.158 HD
HETATM    4  C1  UNL     1     -12.631  13.938 -16.477  1.00  0.00     0.198 C 
ENDROOT
BRANCH   4   5
HETATM    5  O1  UNL     1     -12.211  12.624 -16.722  1.00  0.00    -0.218 OA
BRANCH   5   6
HETATM    6  N2  UNL     1     -10.923  12.325 -17.078  1.00  0.00    -0.268 N 
HETATM    7  C2  UNL     1     -10.234  11.564 -16.307  1.00  0.00     0.151 C 
ATOM      8  H2  UNL     1     -10.519  12.698 -17.938  1.00  0.00     0.194 HD
BRANCH   7   9
HETATM    9  C3  UNL     1     -10.828  11.040 -15.083  1.00  0.00     0.092 A 
HETATM   10  C4  UNL     1     -10.796  11.662 -13.840  1.00  0.00     0.040 A 
HETATM   11  C5  UNL     1     -11.465  10.855 -12.934  1.00  0.00     0.027 A 
HETATM   12  C6  UNL     1     -11.877   9.761 -13.695  1.00  0.00     0.142 A 
HETATM   13  O2  UNL     1     -11.484   9.923 -14.915  1.00  0.00    -0.321 OA
ENDBRANCH   7   9
ENDBRANCH   5   6
ENDBRANCH   4   5
BRANCH   4  14
HETATM   14  C7  UNL     1     -11.925  15.082 -17.036  1.00  0.00     0.127 A 
HETATM   15  C8  UNL     1     -12.553  16.228 -17.472  1.00  0.00     0.043 A 
HETATM   16  C9  UNL     1     -11.561  17.097 -17.937  1.00  0.00     0.027 A 
HETATM   17  C10 UNL     1     -10.375  16.397 -17.745  1.00  0.00     0.142 A 
HETATM   18  O3  UNL     1     -10.635  15.225 -17.217  1.00  0.00    -0.318 OA
ENDBRANCH   4  14
TORSDOF 4
ENDMDL
MODEL 3
REMARK VINA RESULT: -5.645852836      0.965      1.179
REMARK  4 active torsions:
REMARK  status: ('A' for Active; 'I' for Inactive)
REMARK    1  A    between atoms: C1_4  and  O1_5 
REMARK    2  A    between atoms: C1_4  and  C7_14 
REMARK    3  A    between atoms: O1_5  and  N2_6 
REMARK    4  A    between atoms: C2_8  and  C3_9 
ROOT
HETATM    1  N1  UNL     1     -13.615  14.732 -16.021  1.00  0.00    -0.376 N 
ATOM      2  H11 UNL     1     -13.892  14.661 -15.042  1.00  0.00     0.158 HD
ATOM      3  H12 UNL     1     -13.926  15.504 -16.610  1.00  0.00     0.158 HD
HETATM    4  C1  UNL     1     -12.859  13.798 -16.466  1.00  0.00     0.198 C 
ENDROOT
BRANCH   4   5
HETATM    5  O1  UNL     1     -12.480  13.895 -17.811  1.00  0.00    -0.218 OA
BRANCH   5   6
HETATM    6  N2  UNL     1     -11.227  13.546 -18.242  1.00  0.00    -0.268 N 
HETATM    7  C2  UNL     1     -10.656  14.280 -19.127  1.00  0.00     0.151 C 
ATOM      8  H2  UNL     1     -10.758  12.721 -17.867  1.00  0.00     0.194 HD
BRANCH   7   9
HETATM    9  C3  UNL     1     -11.342  15.455 -19.651  1.00  0.00     0.092 A 
HETATM   10  C4  UNL     1     -11.370  16.709 -19.049  1.00  0.00     0.040 A 
HETATM   11  C5  UNL     1     -12.120  17.556 -19.848  1.00  0.00     0.027 A 
HETATM   12  C6  UNL     1     -12.516  16.753 -20.916  1.00  0.00     0.142 A 
HETATM   13  O2  UNL     1     -12.041  15.563 -20.749  1.00  0.00    -0.321 OA
ENDBRANCH   7   9
ENDBRANCH   5   6
ENDBRANCH   4   5
BRANCH   4  14
HETATM   14  C7  UNL     1     -12.416  12.695 -15.625  1.00  0.00     0.127 A 
HETATM   15  C8  UNL     1     -12.078  12.836 -14.298  1.00  0.00     0.043 A 
HETATM   16  C9  UNL     1     -11.707  11.574 -13.825  1.00  0.00     0.027 A 
HETATM   17  C10 UNL     1     -11.851  10.739 -14.927  1.00  0.00     0.142 A 
HETATM   18  O3  UNL     1     -12.267  11.437 -15.957  1.00  0.00    -0.318 OA
ENDBRANCH   4  14
TORSDOF 4
ENDMDL
MODEL 4
REMARK VINA RESULT: -5.571476183      1.404      5.795
REMARK  4 active torsions:
REMARK  status: ('A' for Active; 'I' for Inactive)
REMARK    1  A    between atoms: C1_4  and  O1_5 
REMARK    2  A    between atoms: C1_4  and  C7_14 
REMARK    3  A    between atoms: O1_5  and  N2_6 
REMARK    4  A    between atoms: C2_8  and  C3_9 
ROOT
HETATM    1  N1  UNL     1      -9.594  14.802 -18.128  1.00  0.00    -0.376 N 
ATOM      2  H11 UNL     1      -9.111  15.013 -19.002  1.00  0.00     0.158 HD
ATOM      3  H12 UNL     1      -9.128  14.314 -17.364  1.00  0.00     0.158 HD
HETATM    4  C1  UNL     1     -10.815  15.181 -18.049  1.00  0.00     0.198 C 
ENDROOT
BRANCH   4   5
HETATM    5  O1  UNL     1     -11.479  14.891 -16.850  1.00  0.00    -0.218 OA
BRANCH   5   6
HETATM    6  N2  UNL     1     -12.823  15.102 -16.692  1.00  0.00    -0.268 N 
HETATM    7  C2  UNL     1     -13.506  14.235 -16.035  1.00  0.00     0.151 C 
ATOM      8  H2  UNL     1     -13.272  15.929 -17.087  1.00  0.00     0.194 HD
BRANCH   7   9
HETATM    9  C3  UNL     1     -12.848  13.060 -15.477  1.00  0.00     0.092 A 
HETATM   10  C4  UNL     1     -12.296  12.973 -14.203  1.00  0.00     0.040 A 
HETATM   11  C5  UNL     1     -11.767  11.702 -14.047  1.00  0.00     0.027 A 
HETATM   12  C6  UNL     1     -12.034  11.072 -15.263  1.00  0.00     0.142 A 
HETATM   13  O2  UNL     1     -12.653  11.898 -16.039  1.00  0.00    -0.321 OA
ENDBRANCH   7   9
ENDBRANCH   5   6
ENDBRANCH   4   5
BRANCH   4  14
HETATM   14  C7  UNL     1     -11.480  15.877 -19.141  1.00  0.00     0.127 A 
HETATM   15  C8  UNL     1     -11.620  17.246 -19.201  1.00  0.00     0.043 A 
HETATM   16  C9  UNL     1     -12.304  17.545 -20.384  1.00  0.00     0.027 A 
HETATM   17  C10 UNL     1     -12.534  16.305 -20.969  1.00  0.00     0.142 A 
HETATM   18  O3  UNL     1     -12.036  15.359 -20.208  1.00  0.00    -0.318 OA
ENDBRANCH   4  14
TORSDOF 4
ENDMDL
MODEL 5
REMARK VINA RESULT: -5.553628324      1.780      3.053
REMARK  4 active torsions:
REMARK  status: ('A' for Active; 'I' for Inactive)
REMARK    1  A    between atoms: C1_4  and  O1_5 
REMARK    2  A    between atoms: C1_4  and  C7_14 
REMARK    3  A    between atoms: O1_5  and  N2_6 
REMARK    4  A    between atoms: C2_8  and  C3_9 
ROOT
HETATM    1  N1  UNL     1     -10.298  11.751 -16.073  1.00  0.00    -0.376 N 
ATOM      2  H11 UNL     1      -9.944  10.801 -16.180  1.00  0.00     0.158 HD
ATOM      3  H12 UNL     1     -10.122  12.471 -16.774  1.00  0.00     0.158 HD
HETATM    4  C1  UNL     1     -10.972  11.989 -15.010  1.00  0.00     0.198 C 
ENDROOT
BRANCH   4   5
HETATM    5  O1  UNL     1     -11.458  13.294 -14.862  1.00  0.00    -0.218 OA
BRANCH   5   6
HETATM    6  N2  UNL     1     -12.795  13.564 -14.732  1.00  0.00    -0.268 N 
HETATM    7  C2  UNL     1     -13.405  14.128 -15.711  1.00  0.00     0.151 C 
ATOM      8  H2  UNL     1     -13.295  13.322 -13.876  1.00  0.00     0.194 HD
BRANCH   7   9
HETATM    9  C3  UNL     1     -12.674  14.466 -16.927  1.00  0.00     0.092 A 
HETATM   10  C4  UNL     1     -12.245  15.740 -17.282  1.00  0.00     0.040 A 
HETATM   11  C5  UNL     1     -11.590  15.652 -18.500  1.00  0.00     0.027 A 
HETATM   12  C6  UNL     1     -11.659  14.298 -18.825  1.00  0.00     0.142 A 
HETATM   13  O2  UNL     1     -12.289  13.670 -17.888  1.00  0.00    -0.321 OA
ENDBRANCH   7   9
ENDBRANCH   5   6
ENDBRANCH   4   5
BRANCH   4  14
HETATM   14  C7  UNL     1     -11.223  10.962 -14.009  1.00  0.00     0.127 A 
HETATM   15  C8  UNL     1     -10.778   9.664 -14.119  1.00  0.00     0.043 A 
HETATM   16  C9  UNL     1     -11.205   8.977 -12.978  1.00  0.00     0.027 A 
HETATM   17  C10 UNL     1     -11.896   9.933 -12.241  1.00  0.00     0.142 A 
HETATM   18  O3  UNL     1     -11.881  11.078 -12.882  1.00  0.00    -0.318 OA
ENDBRANCH   4  14
TORSDOF 4
ENDMDL
