MODEL 1
REMARK VINA RESULT: -5.169296458      0.000      0.000
REMARK  4 active torsions:
REMARK  status: ('A' for Active; 'I' for Inactive)
REMARK    1  A    between atoms: C2_2  and  N1_4 
REMARK    2  A    between atoms: C5_6  and  C6_7 
REMARK    3  A    between atoms: C6_7  and  N2_8 
REMARK    4  A    between atoms: C9_11  and  C10_12 
ROOT
HETATM    1  N1  UNL     1     -12.074  10.850 -15.000  1.00  0.00     0.112 N 
HETATM    2  C4  UNL     1     -10.809  11.561 -15.050  1.00  0.00     0.281 C 
HETATM    3  C5  UNL     1     -10.934  12.197 -16.441  1.00  0.00     0.052 C 
HETATM    4  C9  UNL     1     -12.351  12.612 -16.532  1.00  0.00     0.073 C 
HETATM    5  C14 UNL     1     -12.990  11.956 -15.300  1.00  0.00     0.325 C 
HETATM    6 CL1  UNL     1     -12.848  13.098 -13.934  1.00  0.00    -0.091 Cl
ENDROOT
BRANCH   4   7
HETATM    7  C10 UNL     1     -12.596  14.089 -16.513  1.00  0.00     0.164 A 
HETATM    8  O1  UNL     1     -14.016  14.293 -16.969  1.00  0.00    -0.369 OA
HETATM    9  C11 UNL     1     -12.892  14.755 -17.755  1.00  0.00     0.081 A 
HETATM   10  C12 UNL     1     -12.640  13.996 -19.040  1.00  0.00     0.048 C 
HETATM   11  C13 UNL     1     -12.966  16.246 -17.934  1.00  0.00     0.048 C 
ENDBRANCH   4   7
BRANCH   3  12
HETATM   12  C6  UNL     1      -9.920  13.294 -16.627  1.00  0.00     0.278 C 
BRANCH  12  13
HETATM   13  N2  UNL     1      -9.177  13.002 -17.823  1.00  0.00     0.080 N 
HETATM   14  C7  UNL     1      -9.506  11.755 -18.439  1.00  0.00     0.309 C 
HETATM   15  C8  UNL     1      -9.143  14.065 -18.773  1.00  0.00     0.309 C 
ENDBRANCH  12  13
ENDBRANCH   3  12
BRANCH   1  16
HETATM   16  C2  UNL     1     -12.378  10.301 -13.719  1.00  0.00     0.217 C 
HETATM   17  C1  UNL     1     -11.176  10.203 -12.845  1.00  0.00     0.042 C 
HETATM   18  C3  UNL     1     -12.987   8.914 -13.975  1.00  0.00     0.042 C 
ENDBRANCH   1  16
TORSDOF 4
ENDMDL
MODEL 2
REMARK VINA RESULT: -5.106975102      2.221      5.109
REMARK  4 active torsions:
REMARK  status: ('A' for Active; 'I' for Inactive)
REMARK    1  A    between atoms: C2_2  and  N1_4 
REMARK    2  A    between atoms: C5_6  and  C6_7 
REMARK    3  A    between atoms: C6_7  and  N2_8 
REMARK    4  A    between atoms: C9_11  and  C10_12 
ROOT
HETATM    1  N1  UNL     1     -10.836  15.630 -17.716  1.00  0.00     0.112 N 
HETATM    2  C4  UNL     1     -11.047  14.724 -18.831  1.00  0.00     0.281 C 
HETATM    3  C5  UNL     1     -10.549  13.421 -18.191  1.00  0.00     0.052 C 
HETATM    4  C9  UNL     1     -11.049  13.476 -16.800  1.00  0.00     0.073 C 
HETATM    5  C14 UNL     1     -11.573  14.912 -16.670  1.00  0.00     0.325 C 
HETATM    6 CL1  UNL     1     -13.284  14.922 -17.181  1.00  0.00    -0.091 Cl
ENDROOT
BRANCH   4   7
HETATM    7  C10 UNL     1     -12.135  12.501 -16.464  1.00  0.00     0.164 A 
HETATM    8  O1  UNL     1     -12.351  12.598 -14.976  1.00  0.00    -0.369 OA
HETATM    9  C11 UNL     1     -11.824  11.398 -15.591  1.00  0.00     0.081 A 
HETATM   10  C12 UNL     1     -10.366  11.109 -15.310  1.00  0.00     0.048 C 
HETATM   11  C13 UNL     1     -12.739  10.236 -15.317  1.00  0.00     0.048 C 
ENDBRANCH   4   7
BRANCH   3  12
HETATM   12  C6  UNL     1     -10.982  12.224 -18.993  1.00  0.00     0.278 C 
BRANCH  12  13
HETATM   13  N2  UNL     1      -9.796  11.532 -19.421  1.00  0.00     0.080 N 
HETATM   14  C7  UNL     1      -9.583  10.269 -18.787  1.00  0.00     0.309 C 
HETATM   15  C8  UNL     1      -9.639  11.445 -20.836  1.00  0.00     0.309 C 
ENDBRANCH  12  13
ENDBRANCH   3  12
BRANCH   1  16
HETATM   16  C2  UNL     1     -11.401  16.925 -17.910  1.00  0.00     0.217 C 
HETATM   17  C1  UNL     1     -11.677  17.214 -19.345  1.00  0.00     0.042 C 
HETATM   18  C3  UNL     1     -10.395  17.930 -17.328  1.00  0.00     0.042 C 
ENDBRANCH   1  16
TORSDOF 4
ENDMDL
MODEL 3
REMARK VINA RESULT: -5.004185061      2.478      5.388
REMARK  4 active torsions:
REMARK  status: ('A' for Active; 'I' for Inactive)
REMARK    1  A    between atoms: C2_2  and  N1_4 
REMARK    2  A    between atoms: C5_6  and  C6_7 
REMARK    3  A    between atoms: C6_7  and  N2_8 
REMARK    4  A    between atoms: C9_11  and  C10_12 
ROOT
HETATM    1  N1  UNL     1     -11.893  15.186 -17.444  1.00  0.00     0.112 N 
HETATM    2  C4  UNL     1     -10.952  14.712 -16.445  1.00  0.00     0.281 C 
HETATM    3  C5  UNL     1     -11.712  13.472 -15.954  1.00  0.00     0.052 C 
HETATM    4  C9  UNL     1     -12.294  12.884 -17.182  1.00  0.00     0.073 C 
HETATM    5  C14 UNL     1     -12.042  13.964 -18.243  1.00  0.00     0.325 C 
HETATM    6 CL1  UNL     1     -10.441  13.656 -18.972  1.00  0.00    -0.091 Cl
ENDROOT
BRANCH   4   7
HETATM    7  C10 UNL     1     -11.696  11.583 -17.621  1.00  0.00     0.164 A 
HETATM    8  O1  UNL     1     -12.695  10.948 -18.552  1.00  0.00    -0.369 OA
HETATM    9  C11 UNL     1     -12.372  10.361 -17.269  1.00  0.00     0.081 A 
HETATM   10  C12 UNL     1     -13.466  10.435 -16.225  1.00  0.00     0.048 C 
HETATM   11  C13 UNL     1     -11.807   8.981 -17.461  1.00  0.00     0.048 C 
ENDBRANCH   4   7
BRANCH   3  12
HETATM   12  C6  UNL     1     -10.812  12.565 -15.160  1.00  0.00     0.278 C 
BRANCH  12  13
HETATM   13  N2  UNL     1     -11.330  12.502 -13.820  1.00  0.00     0.080 N 
HETATM   14  C7  UNL     1     -12.650  13.026 -13.666  1.00  0.00     0.309 C 
HETATM   15  C8  UNL     1     -11.192  11.229 -13.190  1.00  0.00     0.309 C 
ENDBRANCH  12  13
ENDBRANCH   3  12
BRANCH   1  16
HETATM   16  C2  UNL     1     -11.387  16.242 -18.259  1.00  0.00     0.217 C 
HETATM   17  C1  UNL     1     -10.592  17.229 -17.477  1.00  0.00     0.042 C 
HETATM   18  C3  UNL     1     -12.607  16.909 -18.912  1.00  0.00     0.042 C 
ENDBRANCH   1  16
TORSDOF 4
ENDMDL
MODEL 4
REMARK VINA RESULT: -5.003157215      2.667      5.692
REMARK  4 active torsions:
REMARK  status: ('A' for Active; 'I' for Inactive)
REMARK    1  A    between atoms: C2_2  and  N1_4 
REMARK    2  A    between atoms: C5_6  and  C6_7 
REMARK    3  A    between atoms: C6_7  and  N2_8 
REMARK    4  A    between atoms: C9_11  and  C10_12 
ROOT
HETATM    1  N1  UNL     1     -11.343  15.337 -18.121  1.00  0.00     0.112 N 
HETATM    2  C4  UNL     1     -11.166  15.034 -16.712  1.00  0.00     0.281 C 
HETATM    3  C5  UNL     1     -11.563  13.551 -16.724  1.00  0.00     0.052 C 
HETATM    4  C9  UNL     1     -10.974  13.020 -17.974  1.00  0.00     0.073 C 
HETATM    5  C14 UNL     1     -10.506  14.284 -18.707  1.00  0.00     0.325 C 
HETATM    6 CL1  UNL     1      -8.835  14.636 -18.186  1.00  0.00    -0.091 Cl
ENDROOT
BRANCH   4   7
HETATM    7  C10 UNL     1      -9.826  12.075 -17.796  1.00  0.00     0.164 A 
HETATM    8  O1  UNL     1      -9.573  11.453 -19.144  1.00  0.00    -0.369 OA
HETATM    9  C11 UNL     1     -10.049  10.670 -18.024  1.00  0.00     0.081 A 
HETATM   10  C12 UNL     1     -11.481  10.190 -18.127  1.00  0.00     0.048 C 
HETATM   11  C13 UNL     1      -9.064   9.581 -17.701  1.00  0.00     0.048 C 
ENDBRANCH   4   7
BRANCH   3  12
HETATM   12  C6  UNL     1     -11.132  12.865 -15.456  1.00  0.00     0.278 C 
BRANCH  12  13
HETATM   13  N2  UNL     1     -12.308  12.323 -14.832  1.00  0.00     0.080 N 
HETATM   14  C7  UNL     1     -12.211  10.942 -14.477  1.00  0.00     0.309 C 
HETATM   15  C8  UNL     1     -12.824  13.107 -13.758  1.00  0.00     0.309 C 
ENDBRANCH  12  13
ENDBRANCH   3  12
BRANCH   1  16
HETATM   16  C2  UNL     1     -10.849  16.620 -18.501  1.00  0.00     0.217 C 
HETATM   17  C1  UNL     1     -10.607  17.505 -17.328  1.00  0.00     0.042 C 
HETATM   18  C3  UNL     1     -11.899  17.228 -19.444  1.00  0.00     0.042 C 
ENDBRANCH   1  16
TORSDOF 4
ENDMDL
MODEL 5
REMARK VINA RESULT: -4.987569977      2.303      5.298
REMARK  4 active torsions:
REMARK  status: ('A' for Active; 'I' for Inactive)
REMARK    1  A    between atoms: C2_2  and  N1_4 
REMARK    2  A    between atoms: C5_6  and  C6_7 
REMARK    3  A    between atoms: C6_7  and  N2_8 
REMARK    4  A    between atoms: C9_11  and  C10_12 
ROOT
HETATM    1  N1  UNL     1     -11.549  13.640 -16.697  1.00  0.00     0.112 N 
HETATM    2  C4  UNL     1     -12.525  12.659 -17.138  1.00  0.00     0.281 C 
HETATM    3  C5  UNL     1     -11.905  11.397 -16.523  1.00  0.00     0.052 C 
HETATM    4  C9  UNL     1     -11.411  11.834 -15.198  1.00  0.00     0.073 C 
HETATM    5  C14 UNL     1     -11.552  13.361 -15.257  1.00  0.00     0.325 C 
HETATM    6 CL1  UNL     1     -13.187  13.786 -14.677  1.00  0.00    -0.091 Cl
ENDROOT
BRANCH   4   7
HETATM    7  C10 UNL     1     -12.159  11.295 -14.019  1.00  0.00     0.164 A 
HETATM    8  O1  UNL     1     -11.263  11.482 -12.823  1.00  0.00    -0.369 OA
HETATM    9  C11 UNL     1     -11.610  10.165 -13.313  1.00  0.00     0.081 A 
HETATM   10  C12 UNL     1     -10.485   9.399 -13.974  1.00  0.00     0.048 C 
HETATM   11  C13 UNL     1     -12.328   9.390 -12.243  1.00  0.00     0.048 C 
ENDBRANCH   4   7
BRANCH   3  12
HETATM   12  C6  UNL     1     -12.893  10.262 -16.508  1.00  0.00     0.278 C 
BRANCH  12  13
HETATM   13  N2  UNL     1     -12.282   9.143 -17.174  1.00  0.00     0.080 N 
HETATM   14  C7  UNL     1     -12.653   7.865 -16.654  1.00  0.00     0.309 C 
HETATM   15  C8  UNL     1     -12.373   9.179 -18.597  1.00  0.00     0.309 C 
ENDBRANCH  12  13
ENDBRANCH   3  12
BRANCH   1  16
HETATM   16  C2  UNL     1     -11.942  14.991 -16.933  1.00  0.00     0.217 C 
HETATM   17  C1  UNL     1     -12.978  15.103 -17.996  1.00  0.00     0.042 C 
HETATM   18  C3  UNL     1     -10.666  15.752 -17.324  1.00  0.00     0.042 C 
ENDBRANCH   1  16
TORSDOF 4
ENDMDL
