MODEL 1
REMARK VINA RESULT: -5.644361542      0.000      0.000
REMARK  4 active torsions:
REMARK  status: ('A' for Active; 'I' for Inactive)
REMARK    1  A    between atoms: C2_2  and  C3_3 
REMARK    2  A    between atoms: C5_7  and  C6_8 
REMARK    3  A    between atoms: C6_8  and  N2_9 
REMARK    4  A    between atoms: N2_9  and  S1_11 
ROOT
HETATM    1  C3  UNL     1     -11.184  11.490 -13.744  1.00  0.00     0.001 A 
HETATM    2  C4  UNL     1     -11.641  12.766 -13.953  1.00  0.00     0.101 A 
HETATM    3  N1  UNL     1     -11.412  13.397 -15.097  1.00  0.00    -0.367 N 
ATOM      4  H1  UNL     1     -11.767  14.343 -15.230  1.00  0.00     0.165 HD
HETATM    5  C5  UNL     1     -10.699  12.790 -16.110  1.00  0.00     0.030 A 
HETATM    6  C9  UNL     1     -10.251  11.525 -15.911  1.00  0.00    -0.016 A 
HETATM    7  C10 UNL     1      -9.533  10.866 -17.049  1.00  0.00     0.052 C 
HETATM    8  C11 UNL     1     -10.474  10.836 -14.739  1.00  0.00     0.053 A 
HETATM    9 CL1  UNL     1      -9.953   9.188 -14.610  1.00  0.00    -0.083 Cl
ENDROOT
BRANCH   5  10
HETATM   10  C6  UNL     1     -10.331  13.613 -17.257  1.00  0.00     0.164 C 
BRANCH  10  11
HETATM   11  N2  UNL     1     -11.289  13.609 -18.318  1.00  0.00    -0.210 NA
HETATM   12  C7  UNL     1     -10.467  14.003 -19.502  1.00  0.00     0.129 C 
BRANCH  11  13
HETATM   13  S1  UNL     1     -12.609  14.608 -18.278  1.00  0.00     0.207 S 
HETATM   14  C8  UNL     1     -12.344  16.310 -17.905  1.00  0.00     0.180 C 
HETATM   15  O1  UNL     1     -13.252  14.536 -19.671  1.00  0.00    -0.212 OA
HETATM   16  O2  UNL     1     -13.720  14.101 -17.360  1.00  0.00    -0.212 OA
ENDBRANCH  11  13
ENDBRANCH  10  11
ENDBRANCH   5  10
BRANCH   1  17
HETATM   17  C2  UNL     1     -11.449  10.831 -12.466  1.00  0.00     0.004 C 
HETATM   18  C1  UNL     1     -12.544  10.182 -12.195  1.00  0.00     0.012 C 
ENDBRANCH   1  17
TORSDOF 4
ENDMDL
MODEL 2
REMARK VINA RESULT: -5.501566307      1.437      1.437
REMARK  4 active torsions:
REMARK  status: ('A' for Active; 'I' for Inactive)
REMARK    1  A    between atoms: C2_2  and  C3_3 
REMARK    2  A    between atoms: C5_7  and  C6_8 
REMARK    3  A    between atoms: C6_8  and  N2_9 
REMARK    4  A    between atoms: N2_9  and  S1_11 
ROOT
HETATM    1  C3  UNL     1     -11.444  11.271 -13.597  1.00  0.00     0.001 A 
HETATM    2  C4  UNL     1     -12.034  12.509 -13.599  1.00  0.00     0.101 A 
HETATM    3  N1  UNL     1     -11.858  13.349 -14.610  1.00  0.00    -0.367 N 
ATOM      4  H1  UNL     1     -12.313  14.262 -14.591  1.00  0.00     0.165 HD
HETATM    5  C5  UNL     1     -11.071  13.005 -15.689  1.00  0.00     0.030 A 
HETATM    6  C9  UNL     1     -10.491  11.778 -15.695  1.00  0.00    -0.016 A 
HETATM    7  C10 UNL     1      -9.691  11.406 -16.906  1.00  0.00     0.052 C 
HETATM    8  C11 UNL     1     -10.654  10.877 -14.666  1.00  0.00     0.053 A 
HETATM    9 CL1  UNL     1      -9.959   9.295 -14.804  1.00  0.00    -0.083 Cl
ENDROOT
BRANCH   5  10
HETATM   10  C6  UNL     1     -10.779  14.048 -16.667  1.00  0.00     0.164 C 
BRANCH  10  11
HETATM   11  N2  UNL     1     -11.928  14.756 -17.137  1.00  0.00    -0.210 NA
HETATM   12  C7  UNL     1     -12.515  13.806 -18.128  1.00  0.00     0.129 C 
BRANCH  11  13
HETATM   13  S1  UNL     1     -11.776  16.224 -17.889  1.00  0.00     0.207 S 
HETATM   14  C8  UNL     1     -10.469  17.285 -17.367  1.00  0.00     0.180 C 
HETATM   15  O1  UNL     1     -11.563  15.929 -19.380  1.00  0.00    -0.212 OA
HETATM   16  O2  UNL     1     -13.067  17.041 -17.880  1.00  0.00    -0.212 OA
ENDBRANCH  11  13
ENDBRANCH  10  11
ENDBRANCH   5  10
BRANCH   1  17
HETATM   17  C2  UNL     1     -11.653  10.376 -12.460  1.00  0.00     0.004 C 
HETATM   18  C1  UNL     1     -12.564   9.447 -12.422  1.00  0.00     0.012 C 
ENDBRANCH   1  17
TORSDOF 4
ENDMDL
MODEL 3
REMARK VINA RESULT: -5.494844910      3.765      5.813
REMARK  4 active torsions:
REMARK  status: ('A' for Active; 'I' for Inactive)
REMARK    1  A    between atoms: C2_2  and  C3_3 
REMARK    2  A    between atoms: C5_7  and  C6_8 
REMARK    3  A    between atoms: C6_8  and  N2_9 
REMARK    4  A    between atoms: N2_9  and  S1_11 
ROOT
HETATM    1  C3  UNL     1     -10.923  15.190 -17.469  1.00  0.00     0.001 A 
HETATM    2  C4  UNL     1      -9.772  14.444 -17.444  1.00  0.00     0.101 A 
HETATM    3  N1  UNL     1      -9.751  13.237 -16.893  1.00  0.00    -0.367 N 
ATOM      4  H1  UNL     1      -8.884  12.700 -16.892  1.00  0.00     0.165 HD
HETATM    5  C5  UNL     1     -10.885  12.698 -16.322  1.00  0.00     0.030 A 
HETATM    6  C9  UNL     1     -12.028  13.429 -16.351  1.00  0.00    -0.016 A 
HETATM    7  C10 UNL     1     -13.260  12.797 -15.780  1.00  0.00     0.052 C 
HETATM    8  C11 UNL     1     -12.091  14.684 -16.919  1.00  0.00     0.053 A 
HETATM    9 CL1  UNL     1     -13.615  15.503 -17.001  1.00  0.00    -0.083 Cl
ENDROOT
BRANCH   5  10
HETATM   10  C6  UNL     1     -10.735  11.453 -15.578  1.00  0.00     0.164 C 
BRANCH  10  11
HETATM   11  N2  UNL     1     -10.944  10.271 -16.353  1.00  0.00    -0.210 NA
HETATM   12  C7  UNL     1     -11.573   9.341 -15.369  1.00  0.00     0.129 C 
BRANCH  11  13
HETATM   13  S1  UNL     1      -9.671   9.470 -17.047  1.00  0.00     0.207 S 
HETATM   14  C8  UNL     1      -9.978   8.557 -18.523  1.00  0.00     0.180 C 
HETATM   15  O1  UNL     1      -8.614  10.535 -17.375  1.00  0.00    -0.212 OA
HETATM   16  O2  UNL     1      -8.940   8.547 -16.075  1.00  0.00    -0.212 OA
ENDBRANCH  11  13
ENDBRANCH  10  11
ENDBRANCH   5  10
BRANCH   1  17
HETATM   17  C2  UNL     1     -10.905  16.519 -18.077  1.00  0.00     0.004 C 
HETATM   18  C1  UNL     1     -10.471  17.589 -17.475  1.00  0.00     0.012 C 
ENDBRANCH   1  17
TORSDOF 4
ENDMDL
MODEL 4
REMARK VINA RESULT: -5.457130652      1.814      2.752
REMARK  4 active torsions:
REMARK  status: ('A' for Active; 'I' for Inactive)
REMARK    1  A    between atoms: C2_2  and  C3_3 
REMARK    2  A    between atoms: C5_7  and  C6_8 
REMARK    3  A    between atoms: C6_8  and  N2_9 
REMARK    4  A    between atoms: N2_9  and  S1_11 
ROOT
HETATM    1  C3  UNL     1     -10.801  10.129 -14.238  1.00  0.00     0.001 A 
HETATM    2  C4  UNL     1     -10.204  10.536 -15.404  1.00  0.00     0.101 A 
HETATM    3  N1  UNL     1     -10.454  11.732 -15.920  1.00  0.00    -0.367 N 
ATOM      4  H1  UNL     1      -9.992  12.013 -16.785  1.00  0.00     0.165 HD
HETATM    5  C5  UNL     1     -11.329  12.601 -15.304  1.00  0.00     0.030 A 
HETATM    6  C9  UNL     1     -11.918  12.206 -14.146  1.00  0.00    -0.016 A 
HETATM    7  C10 UNL     1     -12.816  13.192 -13.465  1.00  0.00     0.052 C 
HETATM    8  C11 UNL     1     -11.678  10.975 -13.576  1.00  0.00     0.053 A 
HETATM    9 CL1  UNL     1     -12.395  10.594 -12.045  1.00  0.00    -0.083 Cl
ENDROOT
BRANCH   5  10
HETATM   10  C6  UNL     1     -11.691  13.815 -16.028  1.00  0.00     0.164 C 
BRANCH  10  11
HETATM   11  N2  UNL     1     -11.100  13.929 -17.324  1.00  0.00    -0.210 NA
HETATM   12  C7  UNL     1     -10.712  15.370 -17.380  1.00  0.00     0.129 C 
BRANCH  11  13
HETATM   13  S1  UNL     1     -11.973  13.598 -18.691  1.00  0.00     0.207 S 
HETATM   14  C8  UNL     1     -11.188  13.845 -20.250  1.00  0.00     0.180 C 
HETATM   15  O1  UNL     1     -12.372  12.118 -18.605  1.00  0.00    -0.212 OA
HETATM   16  O2  UNL     1     -13.321  14.316 -18.733  1.00  0.00    -0.212 OA
ENDBRANCH  11  13
ENDBRANCH  10  11
ENDBRANCH   5  10
BRANCH   1  17
HETATM   17  C2  UNL     1     -10.508   8.800 -13.705  1.00  0.00     0.004 C 
HETATM   18  C1  UNL     1      -9.782   7.913 -14.321  1.00  0.00     0.012 C 
ENDBRANCH   1  17
TORSDOF 4
ENDMDL
MODEL 5
REMARK VINA RESULT: -5.449213105      1.737      2.446
REMARK  4 active torsions:
REMARK  status: ('A' for Active; 'I' for Inactive)
REMARK    1  A    between atoms: C2_2  and  C3_3 
REMARK    2  A    between atoms: C5_7  and  C6_8 
REMARK    3  A    between atoms: C6_8  and  N2_9 
REMARK    4  A    between atoms: N2_9  and  S1_11 
ROOT
HETATM    1  C3  UNL     1     -10.996   9.774 -14.103  1.00  0.00     0.001 A 
HETATM    2  C4  UNL     1     -10.212  10.130 -15.171  1.00  0.00     0.101 A 
HETATM    3  N1  UNL     1     -10.213  11.372 -15.637  1.00  0.00    -0.367 N 
ATOM      4  H1  UNL     1      -9.617  11.612 -16.429  1.00  0.00     0.165 HD
HETATM    5  C5  UNL     1     -11.009  12.342 -15.067  1.00  0.00     0.030 A 
HETATM    6  C9  UNL     1     -11.781  11.998 -14.005  1.00  0.00    -0.016 A 
HETATM    7  C10 UNL     1     -12.589  13.085 -13.365  1.00  0.00     0.052 C 
HETATM    8  C11 UNL     1     -11.802  10.720 -13.489  1.00  0.00     0.053 A 
HETATM    9 CL1  UNL     1     -12.742  10.394 -12.070  1.00  0.00    -0.083 Cl
ENDROOT
BRANCH   5  10
HETATM   10  C6  UNL     1     -11.093  13.629 -15.750  1.00  0.00     0.164 C 
BRANCH  10  11
HETATM   11  N2  UNL     1     -11.519  13.549 -17.111  1.00  0.00    -0.210 NA
HETATM   12  C7  UNL     1     -10.354  14.116 -17.853  1.00  0.00     0.129 C 
BRANCH  11  13
HETATM   13  S1  UNL     1     -12.873  14.351 -17.629  1.00  0.00     0.207 S 
HETATM   14  C8  UNL     1     -12.817  16.112 -17.683  1.00  0.00     0.180 C 
HETATM   15  O1  UNL     1     -13.155  13.854 -19.054  1.00  0.00    -0.212 OA
HETATM   16  O2  UNL     1     -14.136  13.951 -16.869  1.00  0.00    -0.212 OA
ENDBRANCH  11  13
ENDBRANCH  10  11
ENDBRANCH   5  10
BRANCH   1  17
HETATM   17  C2  UNL     1     -10.975   8.394 -13.623  1.00  0.00     0.004 C 
HETATM   18  C1  UNL     1     -10.136   7.944 -12.736  1.00  0.00     0.012 C 
ENDBRANCH   1  17
TORSDOF 4
ENDMDL
