MODEL 1
REMARK VINA RESULT: -5.370949626      0.000      0.000
REMARK  7 active torsions:
REMARK  status: ('A' for Active; 'I' for Inactive)
REMARK    1  A    between atoms: C2_2  and  O1_3 
REMARK    2  A    between atoms: O1_3  and  C3_4 
REMARK    3  A    between atoms: C3_4  and  C4_6 
REMARK    4  A    between atoms: C5_7  and  C6_8 
REMARK    5  A    between atoms: C7_9  and  C8_10 
REMARK    6  A    between atoms: C7_9  and  S1_14 
REMARK    7  A    between atoms: C9_11  and  C10_12 
ROOT
HETATM    1  C6  UNL     1     -10.986  13.153 -14.965  1.00  0.00     0.033 C 
HETATM    2  C7  UNL     1     -11.363  13.415 -16.190  1.00  0.00     0.112 C 
ENDROOT
BRANCH   2   3
HETATM    3  C8  UNL     1     -11.161  14.743 -16.769  1.00  0.00    -0.054 C 
HETATM    4  C9  UNL     1     -10.974  15.833 -17.250  1.00  0.00    -0.085 C 
BRANCH   4   5
HETATM    5  C10 UNL     1     -10.762  17.160 -17.833  1.00  0.00     0.208 C 
HETATM    6 CL1  UNL     1     -11.678  17.373 -19.345  1.00  0.00    -0.117 Cl
ENDBRANCH   4   5
ENDBRANCH   2   3
BRANCH   2   7
HETATM    7  S1  UNL     1     -12.115  12.250 -17.226  1.00  0.00     0.179 S 
HETATM    8  C11 UNL     1     -10.943  11.026 -17.784  1.00  0.00     0.167 C 
HETATM    9  O3  UNL     1     -13.316  11.641 -16.577  1.00  0.00    -0.222 OA
HETATM   10  O4  UNL     1     -12.646  12.958 -18.479  1.00  0.00    -0.222 OA
ENDBRANCH   2   7
BRANCH   1  11
HETATM   11  C5  UNL     1     -11.110  11.923 -14.267  1.00  0.00     0.008 C 
HETATM   12  C4  UNL     1     -11.782  11.831 -13.133  1.00  0.00     0.082 C 
BRANCH  12  13
HETATM   13  C3  UNL     1     -11.930  10.590 -12.393  1.00  0.00     0.282 C 
HETATM   14  O2  UNL     1     -12.914  10.370 -11.644  1.00  0.00    -0.260 OA
BRANCH  13  15
HETATM   15  O1  UNL     1     -10.979   9.590 -12.485  1.00  0.00    -0.319 OA
BRANCH  15  16
HETATM   16  C2  UNL     1     -11.239   8.401 -13.241  1.00  0.00     0.174 C 
HETATM   17  C1  UNL     1     -10.246   8.259 -14.376  1.00  0.00     0.034 C 
ENDBRANCH  15  16
ENDBRANCH  13  15
ENDBRANCH  12  13
ENDBRANCH   1  11
TORSDOF 7
ENDMDL
MODEL 2
REMARK VINA RESULT: -5.334180405      1.647      1.685
REMARK  7 active torsions:
REMARK  status: ('A' for Active; 'I' for Inactive)
REMARK    1  A    between atoms: C2_2  and  O1_3 
REMARK    2  A    between atoms: O1_3  and  C3_4 
REMARK    3  A    between atoms: C3_4  and  C4_6 
REMARK    4  A    between atoms: C5_7  and  C6_8 
REMARK    5  A    between atoms: C7_9  and  C8_10 
REMARK    6  A    between atoms: C7_9  and  S1_14 
REMARK    7  A    between atoms: C9_11  and  C10_12 
ROOT
HETATM    1  C6  UNL     1     -11.122  13.309 -15.254  1.00  0.00     0.033 C 
HETATM    2  C7  UNL     1     -10.625  13.572 -16.435  1.00  0.00     0.112 C 
ENDROOT
BRANCH   2   3
HETATM    3  C8  UNL     1     -10.665  14.928 -16.980  1.00  0.00    -0.054 C 
HETATM    4  C9  UNL     1     -10.703  16.055 -17.410  1.00  0.00    -0.085 C 
BRANCH   4   5
HETATM    5  C10 UNL     1     -10.744  17.418 -17.945  1.00  0.00     0.208 C 
HETATM    6 CL1  UNL     1     -11.680  17.508 -19.457  1.00  0.00    -0.117 Cl
ENDBRANCH   4   5
ENDBRANCH   2   3
BRANCH   2   7
HETATM    7  S1  UNL     1      -9.883  12.378 -17.446  1.00  0.00     0.179 S 
HETATM    8  C11 UNL     1      -9.594  13.008 -19.089  1.00  0.00     0.167 C 
HETATM    9  O3  UNL     1      -8.644  11.826 -16.816  1.00  0.00    -0.222 OA
HETATM   10  O4  UNL     1     -10.832  11.181 -17.590  1.00  0.00    -0.222 OA
ENDBRANCH   2   7
BRANCH   1  11
HETATM   11  C5  UNL     1     -11.157  12.053 -14.591  1.00  0.00     0.008 C 
HETATM   12  C4  UNL     1     -11.692  11.914 -13.391  1.00  0.00     0.082 C 
BRANCH  12  13
HETATM   13  C3  UNL     1     -11.745  10.646 -12.685  1.00  0.00     0.282 C 
HETATM   14  O2  UNL     1     -12.547  10.438 -11.741  1.00  0.00    -0.260 OA
BRANCH  13  15
HETATM   15  O1  UNL     1     -10.902   9.605 -13.029  1.00  0.00    -0.319 OA
BRANCH  15  16
HETATM   16  C2  UNL     1     -10.951   8.360 -12.322  1.00  0.00     0.174 C 
HETATM   17  C1  UNL     1      -9.788   7.473 -12.716  1.00  0.00     0.034 C 
ENDBRANCH  15  16
ENDBRANCH  13  15
ENDBRANCH  12  13
ENDBRANCH   1  11
TORSDOF 7
ENDMDL
MODEL 3
REMARK VINA RESULT: -5.282283515      1.594      1.764
REMARK  7 active torsions:
REMARK  status: ('A' for Active; 'I' for Inactive)
REMARK    1  A    between atoms: C2_2  and  O1_3 
REMARK    2  A    between atoms: O1_3  and  C3_4 
REMARK    3  A    between atoms: C3_4  and  C4_6 
REMARK    4  A    between atoms: C5_7  and  C6_8 
REMARK    5  A    between atoms: C7_9  and  C8_10 
REMARK    6  A    between atoms: C7_9  and  S1_14 
REMARK    7  A    between atoms: C9_11  and  C10_12 
ROOT
HETATM    1  C6  UNL     1     -11.103  13.301 -15.252  1.00  0.00     0.033 C 
HETATM    2  C7  UNL     1     -10.633  13.560 -16.445  1.00  0.00     0.112 C 
ENDROOT
BRANCH   2   3
HETATM    3  C8  UNL     1     -10.686  14.915 -16.993  1.00  0.00    -0.054 C 
HETATM    4  C9  UNL     1     -10.731  16.041 -17.426  1.00  0.00    -0.085 C 
BRANCH   4   5
HETATM    5  C10 UNL     1     -10.783  17.402 -17.964  1.00  0.00     0.208 C 
HETATM    6 CL1  UNL     1     -11.724  17.480 -19.474  1.00  0.00    -0.117 Cl
ENDBRANCH   4   5
ENDBRANCH   2   3
BRANCH   2   7
HETATM    7  S1  UNL     1      -9.915  12.363 -17.469  1.00  0.00     0.179 S 
HETATM    8  C11 UNL     1     -11.018  10.984 -17.727  1.00  0.00     0.167 C 
HETATM    9  O3  UNL     1      -9.435  12.962 -18.752  1.00  0.00    -0.222 OA
HETATM   10  O4  UNL     1      -8.659  11.805 -16.787  1.00  0.00    -0.222 OA
ENDBRANCH   2   7
BRANCH   1  11
HETATM   11  C5  UNL     1     -11.121  12.048 -14.584  1.00  0.00     0.008 C 
HETATM   12  C4  UNL     1     -11.699  11.895 -13.406  1.00  0.00     0.082 C 
BRANCH  12  13
HETATM   13  C3  UNL     1     -11.737  10.629 -12.695  1.00  0.00     0.282 C 
HETATM   14  O2  UNL     1     -12.520  10.424 -11.735  1.00  0.00    -0.260 OA
BRANCH  13  15
HETATM   15  O1  UNL     1     -10.902   9.587 -13.053  1.00  0.00    -0.319 OA
BRANCH  15  16
HETATM   16  C2  UNL     1     -10.933   8.345 -12.340  1.00  0.00     0.174 C 
HETATM   17  C1  UNL     1      -9.814   7.434 -12.799  1.00  0.00     0.034 C 
ENDBRANCH  15  16
ENDBRANCH  13  15
ENDBRANCH  12  13
ENDBRANCH   1  11
TORSDOF 7
ENDMDL
MODEL 4
REMARK VINA RESULT: -5.176220005      3.786      6.865
REMARK  7 active torsions:
REMARK  status: ('A' for Active; 'I' for Inactive)
REMARK    1  A    between atoms: C2_2  and  O1_3 
REMARK    2  A    between atoms: O1_3  and  C3_4 
REMARK    3  A    between atoms: C3_4  and  C4_6 
REMARK    4  A    between atoms: C5_7  and  C6_8 
REMARK    5  A    between atoms: C7_9  and  C8_10 
REMARK    6  A    between atoms: C7_9  and  S1_14 
REMARK    7  A    between atoms: C9_11  and  C10_12 
ROOT
HETATM    1  C6  UNL     1     -11.811  12.625 -15.110  1.00  0.00     0.033 C 
HETATM    2  C7  UNL     1     -11.090  11.538 -15.216  1.00  0.00     0.112 C 
ENDROOT
BRANCH   2   3
HETATM    3  C8  UNL     1     -11.086  10.535 -14.152  1.00  0.00    -0.054 C 
HETATM    4  C9  UNL     1     -11.088   9.692 -13.289  1.00  0.00    -0.085 C 
BRANCH   4   5
HETATM    5  C10 UNL     1     -11.085   8.679 -12.231  1.00  0.00     0.208 C 
HETATM    6 CL1  UNL     1      -9.931   7.367 -12.574  1.00  0.00    -0.117 Cl
ENDBRANCH   4   5
ENDBRANCH   2   3
BRANCH   2   7
HETATM    7  S1  UNL     1     -10.098  11.181 -16.589  1.00  0.00     0.179 S 
HETATM    8  C11 UNL     1     -11.084  10.940 -18.057  1.00  0.00     0.167 C 
HETATM    9  O3  UNL     1      -9.035  12.216 -16.775  1.00  0.00    -0.222 OA
HETATM   10  O4  UNL     1      -9.346   9.867 -16.339  1.00  0.00    -0.222 OA
ENDBRANCH   2   7
BRANCH   1  11
HETATM   11  C5  UNL     1     -11.921  13.683 -16.051  1.00  0.00     0.008 C 
HETATM   12  C4  UNL     1     -13.013  13.861 -16.773  1.00  0.00     0.082 C 
BRANCH  12  13
HETATM   13  C3  UNL     1     -13.160  14.932 -17.744  1.00  0.00     0.282 C 
HETATM   14  O2  UNL     1     -13.242  14.711 -18.977  1.00  0.00    -0.260 OA
BRANCH  13  15
HETATM   15  O1  UNL     1     -13.217  16.253 -17.340  1.00  0.00    -0.319 OA
BRANCH  15  16
HETATM   16  C2  UNL     1     -12.491  17.266 -18.048  1.00  0.00     0.174 C 
HETATM   17  C1  UNL     1     -11.020  17.219 -17.692  1.00  0.00     0.034 C 
ENDBRANCH  15  16
ENDBRANCH  13  15
ENDBRANCH  12  13
ENDBRANCH   1  11
TORSDOF 7
ENDMDL
MODEL 5
REMARK VINA RESULT: -5.096023191      3.249      4.782
REMARK  7 active torsions:
REMARK  status: ('A' for Active; 'I' for Inactive)
REMARK    1  A    between atoms: C2_2  and  O1_3 
REMARK    2  A    between atoms: O1_3  and  C3_4 
REMARK    3  A    between atoms: C3_4  and  C4_6 
REMARK    4  A    between atoms: C5_7  and  C6_8 
REMARK    5  A    between atoms: C7_9  and  C8_10 
REMARK    6  A    between atoms: C7_9  and  S1_14 
REMARK    7  A    between atoms: C9_11  and  C10_12 
ROOT
HETATM    1  C6  UNL     1     -12.724  16.157 -18.565  1.00  0.00     0.033 C 
HETATM    2  C7  UNL     1     -12.533  15.966 -19.846  1.00  0.00     0.112 C 
ENDROOT
BRANCH   2   3
HETATM    3  C8  UNL     1     -12.669  17.070 -20.795  1.00  0.00    -0.054 C 
HETATM    4  C9  UNL     1     -12.800  17.984 -21.572  1.00  0.00    -0.085 C 
BRANCH   4   5
HETATM    5  C10 UNL     1     -12.946  19.093 -22.518  1.00  0.00     0.208 C 
HETATM    6 CL1  UNL     1     -12.130  18.754 -24.064  1.00  0.00    -0.117 Cl
ENDBRANCH   4   5
ENDBRANCH   2   3
BRANCH   2   7
HETATM    7  S1  UNL     1     -12.109  14.434 -20.529  1.00  0.00     0.179 S 
HETATM    8  C11 UNL     1     -10.517  13.880 -19.943  1.00  0.00     0.167 C 
HETATM    9  O3  UNL     1     -13.187  13.422 -20.306  1.00  0.00    -0.222 OA
HETATM   10  O4  UNL     1     -11.995  14.576 -22.053  1.00  0.00    -0.222 OA
ENDBRANCH   2   7
BRANCH   1  11
HETATM   11  C5  UNL     1     -12.628  15.194 -17.525  1.00  0.00     0.008 C 
HETATM   12  C4  UNL     1     -13.702  14.641 -16.988  1.00  0.00     0.082 C 
BRANCH  12  13
HETATM   13  C3  UNL     1     -13.641  13.655 -15.924  1.00  0.00     0.282 C 
HETATM   14  O2  UNL     1     -13.899  12.442 -16.120  1.00  0.00    -0.260 OA
BRANCH  13  15
HETATM   15  O1  UNL     1     -13.293  14.019 -14.636  1.00  0.00    -0.319 OA
BRANCH  15  16
HETATM   16  C2  UNL     1     -12.803  13.044 -13.707  1.00  0.00     0.174 C 
HETATM   17  C1  UNL     1     -11.337  12.758 -13.952  1.00  0.00     0.034 C 
ENDBRANCH  15  16
ENDBRANCH  13  15
ENDBRANCH  12  13
ENDBRANCH   1  11
TORSDOF 7
ENDMDL
