MODEL 1
REMARK VINA RESULT: -5.265804354      0.000      0.000
REMARK  3 active torsions:
REMARK  status: ('A' for Active; 'I' for Inactive)
REMARK    1  A    between atoms: C2_2  and  N1_3 
REMARK    2  A    between atoms: N1_3  and  C3_4 
REMARK    3  A    between atoms: N1_3  and  S1_15 
ROOT
HETATM    1  C3  UNL     1     -12.356  14.921 -16.837  1.00  0.00     0.141 A 
HETATM    2  N2  UNL     1     -13.587  14.733 -16.275  1.00  0.00    -0.283 N 
ATOM      3  H2  UNL     1     -14.424  15.264 -16.516  1.00  0.00     0.188 HD
HETATM    4  N3  UNL     1     -13.539  13.767 -15.377  1.00  0.00    -0.284 N 
ATOM      5  H3  UNL     1     -14.327  13.440 -14.820  1.00  0.00     0.188 HD
HETATM    6  C4  UNL     1     -12.289  13.283 -15.310  1.00  0.00     0.123 A 
HETATM    7  N4  UNL     1     -11.826  12.335 -14.561  1.00  0.00    -0.384 N 
ATOM      8  H41 UNL     1     -10.877  11.967 -14.510  1.00  0.00     0.157 HD
ATOM      9  H42 UNL     1     -12.376  11.804 -13.886  1.00  0.00     0.157 HD
HETATM   10  C5  UNL     1     -11.531  14.015 -16.241  1.00  0.00     0.029 A 
HETATM   11  C6  UNL     1     -10.099  13.771 -16.463  1.00  0.00     0.056 C 
ENDROOT
BRANCH   1  12
HETATM   12  N1  UNL     1     -12.066  15.870 -17.831  1.00  0.00    -0.260 N 
BRANCH  12  13
HETATM   13  C2  UNL     1     -11.693  17.208 -17.455  1.00  0.00     0.138 C 
HETATM   14  C1  UNL     1     -10.269  17.402 -17.079  1.00  0.00     0.028 C 
ENDBRANCH  12  13
BRANCH  12  15
HETATM   15  S1  UNL     1     -12.121  15.448 -19.489  1.00  0.00     0.230 S 
HETATM   16  C7  UNL     1     -12.305  16.821 -20.579  1.00  0.00     0.186 C 
HETATM   17  O1  UNL     1     -13.240  14.489 -19.790  1.00  0.00    -0.206 OA
HETATM   18  O2  UNL     1     -10.842  14.686 -19.810  1.00  0.00    -0.206 OA
ENDBRANCH  12  15
ENDBRANCH   1  12
TORSDOF 3
ENDMDL
MODEL 2
REMARK VINA RESULT: -5.166295126      1.044      1.315
REMARK  3 active torsions:
REMARK  status: ('A' for Active; 'I' for Inactive)
REMARK    1  A    between atoms: C2_2  and  N1_3 
REMARK    2  A    between atoms: N1_3  and  C3_4 
REMARK    3  A    between atoms: N1_3  and  S1_15 
ROOT
HETATM    1  C3  UNL     1     -12.314  14.860 -16.809  1.00  0.00     0.141 A 
HETATM    2  N2  UNL     1     -13.568  14.746 -16.279  1.00  0.00    -0.283 N 
ATOM      3  H2  UNL     1     -14.386  15.264 -16.601  1.00  0.00     0.188 HD
HETATM    4  N3  UNL     1     -13.571  13.870 -15.291  1.00  0.00    -0.284 N 
ATOM      5  H3  UNL     1     -14.386  13.610 -14.736  1.00  0.00     0.188 HD
HETATM    6  C4  UNL     1     -12.334  13.375 -15.131  1.00  0.00     0.123 A 
HETATM    7  N4  UNL     1     -11.917  12.497 -14.277  1.00  0.00    -0.384 N 
ATOM      8  H41 UNL     1     -10.977  12.121 -14.156  1.00  0.00     0.157 HD
ATOM      9  H42 UNL     1     -12.501  12.042 -13.576  1.00  0.00     0.157 HD
HETATM   10  C5  UNL     1     -11.529  14.004 -16.098  1.00  0.00     0.029 A 
HETATM   11  C6  UNL     1     -10.094  13.717 -16.240  1.00  0.00     0.056 C 
ENDROOT
BRANCH   1  12
HETATM   12  N1  UNL     1     -11.970  15.705 -17.877  1.00  0.00    -0.260 N 
BRANCH  12  13
HETATM   13  C2  UNL     1     -11.633  17.081 -17.620  1.00  0.00     0.138 C 
HETATM   14  C1  UNL     1     -10.259  17.327 -17.113  1.00  0.00     0.028 C 
ENDBRANCH  12  13
BRANCH  12  15
HETATM   15  S1  UNL     1     -11.915  15.111 -19.481  1.00  0.00     0.230 S 
HETATM   16  C7  UNL     1     -10.663  13.902 -19.762  1.00  0.00     0.186 C 
HETATM   17  O1  UNL     1     -11.701  16.213 -20.483  1.00  0.00    -0.206 OA
HETATM   18  O2  UNL     1     -13.287  14.535 -19.803  1.00  0.00    -0.206 OA
ENDBRANCH  12  15
ENDBRANCH   1  12
TORSDOF 3
ENDMDL
MODEL 3
REMARK VINA RESULT: -5.069048613      2.888      4.826
REMARK  3 active torsions:
REMARK  status: ('A' for Active; 'I' for Inactive)
REMARK    1  A    between atoms: C2_2  and  N1_3 
REMARK    2  A    between atoms: N1_3  and  C3_4 
REMARK    3  A    between atoms: N1_3  and  S1_15 
ROOT
HETATM    1  C3  UNL     1     -12.682  13.217 -15.962  1.00  0.00     0.141 A 
HETATM    2  N2  UNL     1     -13.926  13.757 -16.129  1.00  0.00    -0.283 N 
ATOM      3  H2  UNL     1     -14.801  13.287 -15.896  1.00  0.00     0.188 HD
HETATM    4  N3  UNL     1     -13.835  14.973 -16.635  1.00  0.00    -0.284 N 
ATOM      5  H3  UNL     1     -14.623  15.582 -16.852  1.00  0.00     0.188 HD
HETATM    6  C4  UNL     1     -12.543  15.282 -16.820  1.00  0.00     0.123 A 
HETATM    7  N4  UNL     1     -12.030  16.372 -17.291  1.00  0.00    -0.384 N 
ATOM      8  H41 UNL     1     -11.048  16.607 -17.431  1.00  0.00     0.157 HD
ATOM      9  H42 UNL     1     -12.566  17.182 -17.602  1.00  0.00     0.157 HD
HETATM   10  C5  UNL     1     -11.803  14.165 -16.391  1.00  0.00     0.029 A 
HETATM   11  C6  UNL     1     -10.335  14.124 -16.435  1.00  0.00     0.056 C 
ENDROOT
BRANCH   1  12
HETATM   12  N1  UNL     1     -12.428  11.938 -15.441  1.00  0.00    -0.260 N 
BRANCH  12  13
HETATM   13  C2  UNL     1     -11.897  11.800 -14.111  1.00  0.00     0.138 C 
HETATM   14  C1  UNL     1     -10.479  11.365 -14.022  1.00  0.00     0.028 C 
ENDBRANCH  12  13
BRANCH  12  15
HETATM   15  S1  UNL     1     -12.773  10.534 -16.358  1.00  0.00     0.230 S 
HETATM   16  C7  UNL     1     -12.992   9.076 -15.392  1.00  0.00     0.186 C 
HETATM   17  O1  UNL     1     -11.696  10.241 -17.366  1.00  0.00    -0.206 OA
HETATM   18  O2  UNL     1     -14.025  10.818 -17.177  1.00  0.00    -0.206 OA
ENDBRANCH  12  15
ENDBRANCH   1  12
TORSDOF 3
ENDMDL
MODEL 4
REMARK VINA RESULT: -5.057319280      2.518      3.584
REMARK  3 active torsions:
REMARK  status: ('A' for Active; 'I' for Inactive)
REMARK    1  A    between atoms: C2_2  and  N1_3 
REMARK    2  A    between atoms: N1_3  and  C3_4 
REMARK    3  A    between atoms: N1_3  and  S1_15 
ROOT
HETATM    1  C3  UNL     1     -11.038  12.352 -15.275  1.00  0.00     0.141 A 
HETATM    2  N2  UNL     1     -10.193  11.288 -15.417  1.00  0.00    -0.283 N 
ATOM      3  H2  UNL     1      -9.629  11.099 -16.246  1.00  0.00     0.188 HD
HETATM    4  N3  UNL     1     -10.209  10.541 -14.328  1.00  0.00    -0.284 N 
ATOM      5  H3  UNL     1      -9.664   9.691 -14.189  1.00  0.00     0.188 HD
HETATM    6  C4  UNL     1     -11.054  11.075 -13.434  1.00  0.00     0.123 A 
HETATM    7  N4  UNL     1     -11.353  10.652 -12.249  1.00  0.00    -0.384 N 
ATOM      8  H41 UNL     1     -11.996  11.058 -11.569  1.00  0.00     0.157 HD
ATOM      9  H42 UNL     1     -10.969   9.814 -11.815  1.00  0.00     0.157 HD
HETATM   10  C5  UNL     1     -11.585  12.231 -14.034  1.00  0.00     0.029 A 
HETATM   11  C6  UNL     1     -12.559  13.099 -13.354  1.00  0.00     0.056 C 
ENDROOT
BRANCH   1  12
HETATM   12  N1  UNL     1     -11.251  13.341 -16.250  1.00  0.00    -0.260 N 
BRANCH  12  13
HETATM   13  C2  UNL     1     -10.256  14.358 -16.465  1.00  0.00     0.138 C 
HETATM   14  C1  UNL     1      -9.217  14.044 -17.480  1.00  0.00     0.028 C 
ENDBRANCH  12  13
BRANCH  12  15
HETATM   15  S1  UNL     1     -12.667  13.334 -17.211  1.00  0.00     0.230 S 
HETATM   16  C7  UNL     1     -13.389  14.925 -17.445  1.00  0.00     0.186 C 
HETATM   17  O1  UNL     1     -13.734  12.444 -16.635  1.00  0.00    -0.206 OA
HETATM   18  O2  UNL     1     -12.307  12.715 -18.554  1.00  0.00    -0.206 OA
ENDBRANCH  12  15
ENDBRANCH   1  12
TORSDOF 3
ENDMDL
MODEL 5
REMARK VINA RESULT: -5.013957281      3.087      4.704
REMARK  3 active torsions:
REMARK  status: ('A' for Active; 'I' for Inactive)
REMARK    1  A    between atoms: C2_2  and  N1_3 
REMARK    2  A    between atoms: N1_3  and  C3_4 
REMARK    3  A    between atoms: N1_3  and  S1_15 
ROOT
HETATM    1  C3  UNL     1     -12.694  13.220 -15.988  1.00  0.00     0.141 A 
HETATM    2  N2  UNL     1     -13.939  13.754 -16.163  1.00  0.00    -0.283 N 
ATOM      3  H2  UNL     1     -14.814  13.277 -15.945  1.00  0.00     0.188 HD
HETATM    4  N3  UNL     1     -13.849  14.977 -16.654  1.00  0.00    -0.284 N 
ATOM      5  H3  UNL     1     -14.638  15.584 -16.874  1.00  0.00     0.188 HD
HETATM    6  C4  UNL     1     -12.556  15.295 -16.820  1.00  0.00     0.123 A 
HETATM    7  N4  UNL     1     -12.044  16.394 -17.273  1.00  0.00    -0.384 N 
ATOM      8  H41 UNL     1     -11.062  16.636 -17.399  1.00  0.00     0.157 HD
ATOM      9  H42 UNL     1     -12.581  17.204 -17.581  1.00  0.00     0.157 HD
HETATM   10  C5  UNL     1     -11.815  14.178 -16.395  1.00  0.00     0.029 A 
HETATM   11  C6  UNL     1     -10.346  14.145 -16.423  1.00  0.00     0.056 C 
ENDROOT
BRANCH   1  12
HETATM   12  N1  UNL     1     -12.438  11.936 -15.478  1.00  0.00    -0.260 N 
BRANCH  12  13
HETATM   13  C2  UNL     1     -11.874  11.789 -14.162  1.00  0.00     0.138 C 
HETATM   14  C1  UNL     1     -10.466  11.318 -14.110  1.00  0.00     0.028 C 
ENDBRANCH  12  13
BRANCH  12  15
HETATM   15  S1  UNL     1     -12.819  10.539 -16.391  1.00  0.00     0.230 S 
HETATM   16  C7  UNL     1     -11.565  10.058 -17.532  1.00  0.00     0.186 C 
HETATM   17  O1  UNL     1     -14.092  10.708 -17.175  1.00  0.00    -0.206 OA
HETATM   18  O2  UNL     1     -13.100   9.411 -15.407  1.00  0.00    -0.206 OA
ENDBRANCH  12  15
ENDBRANCH   1  12
TORSDOF 3
ENDMDL
