MODEL 1
REMARK VINA RESULT: -6.447515375      0.000      0.000
REMARK  3 active torsions:
REMARK  status: ('A' for Active; 'I' for Inactive)
REMARK    1  A    between atoms: C2_2  and  N1_3 
REMARK    2  A    between atoms: C2_2  and  C12_15 
REMARK       I    between atoms: N1_3  and  C3_5 
REMARK    3  A    between atoms: C3_5  and  C4_7 
ROOT
HETATM    1  N1  UNL     1     -12.078  14.081 -15.493  1.00  0.00    -0.348 N 
ATOM      2  H1  UNL     1     -11.607  14.817 -14.967  1.00  0.00     0.163 HD
HETATM    3  C3  UNL     1     -12.579  14.380 -16.790  1.00  0.00     0.223 C 
HETATM    4  O1  UNL     1     -13.155  13.457 -17.416  1.00  0.00    -0.273 OA
ENDROOT
BRANCH   3   5
HETATM    5  C4  UNL     1     -12.428  15.702 -17.365  1.00  0.00     0.090 C 
HETATM    6  C5  UNL     1     -13.004  15.831 -18.739  1.00  0.00     0.000 C 
HETATM    7  C6  UNL     1     -12.503  17.214 -19.179  1.00  0.00     0.011 C 
HETATM    8  C8  UNL     1     -11.898  15.301 -19.637  1.00  0.00     0.011 C 
HETATM    9  C7  UNL     1     -11.141  16.525 -19.098  1.00  0.00    -0.005 C 
HETATM   10  C9  UNL     1     -10.973  16.106 -17.660  1.00  0.00    -0.032 C 
HETATM   11  C10 UNL     1     -10.041  14.941 -17.639  1.00  0.00     0.016 C 
HETATM   12  C11 UNL     1     -10.563  17.211 -16.748  1.00  0.00     0.016 C 
ENDBRANCH   3   5
BRANCH   1  13
HETATM   13  C2  UNL     1     -12.214  12.772 -14.892  1.00  0.00     0.169 C 
HETATM   14  C1  UNL     1     -12.651  13.039 -13.446  1.00  0.00     0.042 C 
BRANCH  13  15
HETATM   15  C12 UNL     1     -10.897  12.108 -14.889  1.00  0.00     0.253 C 
HETATM   16  N2  UNL     1     -10.377  11.454 -13.727  1.00  0.00    -0.060 NA
HETATM   17  O2  UNL     1     -10.220  12.127 -15.947  1.00  0.00    -0.275 OA
ENDBRANCH  13  15
ENDBRANCH   1  13
TORSDOF 3
ENDMDL
MODEL 2
REMARK VINA RESULT: -6.341293087      1.816      5.403
REMARK  3 active torsions:
REMARK  status: ('A' for Active; 'I' for Inactive)
REMARK    1  A    between atoms: C2_2  and  N1_3 
REMARK    2  A    between atoms: C2_2  and  C12_15 
REMARK       I    between atoms: N1_3  and  C3_5 
REMARK    3  A    between atoms: C3_5  and  C4_7 
ROOT
HETATM    1  N1  UNL     1     -11.104  15.066 -16.465  1.00  0.00    -0.348 N 
ATOM      2  H1  UNL     1     -11.577  15.498 -15.672  1.00  0.00     0.163 HD
HETATM    3  C3  UNL     1     -10.610  13.740 -16.328  1.00  0.00     0.223 C 
HETATM    4  O1  UNL     1     -10.031  13.231 -17.320  1.00  0.00    -0.273 OA
ENDROOT
BRANCH   3   5
HETATM    5  C4  UNL     1     -10.772  13.004 -15.090  1.00  0.00     0.090 C 
HETATM    6  C5  UNL     1     -10.094  11.671 -15.088  1.00  0.00     0.000 C 
HETATM    7  C6  UNL     1     -10.618  11.036 -13.792  1.00  0.00     0.011 C 
HETATM    8  C8  UNL     1     -11.103  10.762 -15.772  1.00  0.00     0.011 C 
HETATM    9  C7  UNL     1     -11.952  11.097 -14.535  1.00  0.00    -0.005 C 
HETATM   10  C9  UNL     1     -12.214  12.558 -14.797  1.00  0.00    -0.032 C 
HETATM   11  C10 UNL     1     -13.094  12.646 -15.999  1.00  0.00     0.016 C 
HETATM   12  C11 UNL     1     -12.742  13.302 -13.619  1.00  0.00     0.016 C 
ENDBRANCH   3   5
BRANCH   1  13
HETATM   13  C2  UNL     1     -10.957  15.826 -17.688  1.00  0.00     0.169 C 
HETATM   14  C1  UNL     1     -10.300  17.145 -17.264  1.00  0.00     0.042 C 
BRANCH  13  15
HETATM   15  C12 UNL     1     -12.296  16.103 -18.242  1.00  0.00     0.253 C 
HETATM   16  N2  UNL     1     -13.197  15.056 -18.614  1.00  0.00    -0.060 NA
HETATM   17  O2  UNL     1     -12.642  17.302 -18.387  1.00  0.00    -0.275 OA
ENDBRANCH  13  15
ENDBRANCH   1  13
TORSDOF 3
ENDMDL
MODEL 3
REMARK VINA RESULT: -6.043878253      1.790      2.317
REMARK  3 active torsions:
REMARK  status: ('A' for Active; 'I' for Inactive)
REMARK    1  A    between atoms: C2_2  and  N1_3 
REMARK    2  A    between atoms: C2_2  and  C12_15 
REMARK       I    between atoms: N1_3  and  C3_5 
REMARK    3  A    between atoms: C3_5  and  C4_7 
ROOT
HETATM    1  N1  UNL     1     -11.592  12.788 -15.499  1.00  0.00    -0.348 N 
ATOM      2  H1  UNL     1     -10.609  12.557 -15.639  1.00  0.00     0.163 HD
HETATM    3  C3  UNL     1     -12.062  14.062 -15.921  1.00  0.00     0.223 C 
HETATM    4  O1  UNL     1     -13.277  14.322 -15.738  1.00  0.00    -0.273 OA
ENDROOT
BRANCH   3   5
HETATM    5  C4  UNL     1     -11.171  15.023 -16.540  1.00  0.00     0.090 C 
HETATM    6  C5  UNL     1     -11.850  16.283 -16.974  1.00  0.00     0.000 C 
HETATM    7  C6  UNL     1     -10.753  16.987 -17.785  1.00  0.00     0.011 C 
HETATM    8  C8  UNL     1     -12.425  15.922 -18.335  1.00  0.00     0.011 C 
HETATM    9  C7  UNL     1     -10.941  15.784 -18.709  1.00  0.00    -0.005 C 
HETATM   10  C9  UNL     1     -10.585  14.571 -17.888  1.00  0.00    -0.032 C 
HETATM   11  C10 UNL     1     -11.317  13.408 -18.469  1.00  0.00     0.016 C 
HETATM   12  C11 UNL     1      -9.120  14.340 -17.749  1.00  0.00     0.016 C 
ENDBRANCH   3   5
BRANCH   1  13
HETATM   13  C2  UNL     1     -12.457  11.809 -14.877  1.00  0.00     0.169 C 
HETATM   14  C1  UNL     1     -11.578  11.100 -13.840  1.00  0.00     0.042 C 
BRANCH  13  15
HETATM   15  C12 UNL     1     -12.889  10.836 -15.898  1.00  0.00     0.253 C 
HETATM   16  N2  UNL     1     -13.941  11.122 -16.825  1.00  0.00    -0.060 NA
HETATM   17  O2  UNL     1     -12.306   9.724 -15.944  1.00  0.00    -0.275 OA
ENDBRANCH  13  15
ENDBRANCH   1  13
TORSDOF 3
ENDMDL
MODEL 4
REMARK VINA RESULT: -5.931360289      1.734      2.179
REMARK  3 active torsions:
REMARK  status: ('A' for Active; 'I' for Inactive)
REMARK    1  A    between atoms: C2_2  and  N1_3 
REMARK    2  A    between atoms: C2_2  and  C12_15 
REMARK       I    between atoms: N1_3  and  C3_5 
REMARK    3  A    between atoms: C3_5  and  C4_7 
ROOT
HETATM    1  N1  UNL     1     -11.238  12.724 -15.110  1.00  0.00    -0.348 N 
ATOM      2  H1  UNL     1     -10.236  12.586 -15.238  1.00  0.00     0.163 HD
HETATM    3  C3  UNL     1     -11.848  13.877 -15.676  1.00  0.00     0.223 C 
HETATM    4  O1  UNL     1     -13.084  14.023 -15.504  1.00  0.00    -0.273 OA
ENDROOT
BRANCH   3   5
HETATM    5  C4  UNL     1     -11.071  14.846 -16.423  1.00  0.00     0.090 C 
HETATM    6  C5  UNL     1     -11.871  16.008 -16.918  1.00  0.00     0.000 C 
HETATM    7  C6  UNL     1     -10.879  16.721 -17.847  1.00  0.00     0.011 C 
HETATM    8  C8  UNL     1     -12.485  15.488 -18.209  1.00  0.00     0.011 C 
HETATM    9  C7  UNL     1     -11.016  15.432 -18.657  1.00  0.00    -0.005 C 
HETATM   10  C9  UNL     1     -10.521  14.325 -17.761  1.00  0.00    -0.032 C 
HETATM   11  C10 UNL     1     -11.186  13.064 -18.200  1.00  0.00     0.016 C 
HETATM   12  C11 UNL     1      -9.037  14.220 -17.689  1.00  0.00     0.016 C 
ENDBRANCH   3   5
BRANCH   1  13
HETATM   13  C2  UNL     1     -11.987  11.740 -14.359  1.00  0.00     0.169 C 
HETATM   14  C1  UNL     1     -11.056  11.315 -13.216  1.00  0.00     0.042 C 
BRANCH  13  15
HETATM   15  C12 UNL     1     -12.256  10.578 -15.227  1.00  0.00     0.253 C 
HETATM   16  N2  UNL     1     -11.456   9.393 -15.182  1.00  0.00    -0.060 NA
HETATM   17  O2  UNL     1     -13.221  10.647 -16.029  1.00  0.00    -0.275 OA
ENDBRANCH  13  15
ENDBRANCH   1  13
TORSDOF 3
ENDMDL
MODEL 5
REMARK VINA RESULT: -5.835192640      1.954      2.965
REMARK  3 active torsions:
REMARK  status: ('A' for Active; 'I' for Inactive)
REMARK    1  A    between atoms: C2_2  and  N1_3 
REMARK    2  A    between atoms: C2_2  and  C12_15 
REMARK       I    between atoms: N1_3  and  C3_5 
REMARK    3  A    between atoms: C3_5  and  C4_7 
ROOT
HETATM    1  N1  UNL     1     -11.331  12.737 -17.228  1.00  0.00    -0.348 N 
ATOM      2  H1  UNL     1     -11.664  12.472 -18.155  1.00  0.00     0.163 HD
HETATM    3  C3  UNL     1     -10.970  14.091 -16.991  1.00  0.00     0.223 C 
HETATM    4  O1  UNL     1     -10.562  14.390 -15.841  1.00  0.00    -0.273 OA
ENDROOT
BRANCH   3   5
HETATM    5  C4  UNL     1     -11.069  15.088 -18.039  1.00  0.00     0.090 C 
HETATM    6  C5  UNL     1     -10.573  16.439 -17.634  1.00  0.00     0.000 C 
HETATM    7  C6  UNL     1     -11.009  17.319 -18.815  1.00  0.00     0.011 C 
HETATM    8  C8  UNL     1     -11.768  17.054 -16.921  1.00  0.00     0.011 C 
HETATM    9  C7  UNL     1     -12.406  16.951 -18.315  1.00  0.00    -0.005 C 
HETATM   10  C9  UNL     1     -12.509  15.452 -18.437  1.00  0.00    -0.032 C 
HETATM   11  C10 UNL     1     -13.513  14.991 -17.434  1.00  0.00     0.016 C 
HETATM   12  C11 UNL     1     -12.786  14.972 -19.819  1.00  0.00     0.016 C 
ENDBRANCH   3   5
BRANCH   1  13
HETATM   13  C2  UNL     1     -11.242  11.719 -16.203  1.00  0.00     0.169 C 
HETATM   14  C1  UNL     1     -10.187  10.729 -16.712  1.00  0.00     0.042 C 
BRANCH  13  15
HETATM   15  C12 UNL     1     -12.544  11.034 -16.096  1.00  0.00     0.253 C 
HETATM   16  N2  UNL     1     -13.703  11.488 -16.801  1.00  0.00    -0.060 NA
HETATM   17  O2  UNL     1     -12.623  10.020 -15.358  1.00  0.00    -0.275 OA
ENDBRANCH  13  15
ENDBRANCH   1  13
TORSDOF 3
ENDMDL
