MODEL 1
REMARK VINA RESULT: -5.896893160      0.000      0.000
REMARK  3 active torsions:
REMARK  status: ('A' for Active; 'I' for Inactive)
REMARK    1  A    between atoms: C5_5  and  C7_7 
REMARK       I    between atoms: C7_7  and  N1_9 
REMARK    2  A    between atoms: N1_9  and  C8_11 
REMARK    3  A    between atoms: C10_13  and  C11_14 
ROOT
HETATM    1  C7  UNL     1     -12.030  14.922 -16.650  1.00  0.00     0.227 C 
HETATM    2  O1  UNL     1     -13.237  15.236 -16.317  1.00  0.00    -0.273 OA
HETATM    3  N1  UNL     1     -11.414  13.774 -16.124  1.00  0.00    -0.356 N 
ATOM      4  H1  UNL     1     -10.481  13.504 -16.435  1.00  0.00     0.162 HD
ENDROOT
BRANCH   3   5
HETATM    5  C8  UNL     1     -12.095  12.996 -15.162  1.00  0.00     0.086 C 
HETATM    6  C9  UNL     1     -12.162  11.511 -15.166  1.00  0.00     0.039 C 
HETATM    7  C10 UNL     1     -12.186  11.658 -13.610  1.00  0.00     0.079 C 
HETATM    8  C12 UNL     1     -11.328  12.871 -13.831  1.00  0.00     0.039 C 
BRANCH   7   9
HETATM    9  C11 UNL     1     -11.660  10.535 -12.900  1.00  0.00     0.235 C 
HETATM   10  N2  UNL     1     -12.238  10.091 -11.692  1.00  0.00    -0.062 NA
HETATM   11  O2  UNL     1     -10.671   9.917 -13.337  1.00  0.00    -0.277 OA
ENDBRANCH   7   9
ENDBRANCH   3   5
BRANCH   1  12
HETATM   12  C5  UNL     1     -11.418  15.891 -17.596  1.00  0.00     0.045 A 
HETATM   13  C2  UNL     1     -11.964  15.940 -18.981  1.00  0.00    -0.030 A 
HETATM   14  C1  UNL     1     -12.215  17.296 -19.612  1.00  0.00     0.016 C 
HETATM   15  C3  UNL     1     -12.945  14.857 -19.439  1.00  0.00     0.016 C 
HETATM   16  C4  UNL     1     -10.609  15.417 -18.767  1.00  0.00     0.029 A 
HETATM   17  C6  UNL     1     -10.786  17.091 -16.918  1.00  0.00     0.026 C 
ENDBRANCH   1  12
TORSDOF 3
ENDMDL
MODEL 2
REMARK VINA RESULT: -5.880368101      1.455      2.060
REMARK  3 active torsions:
REMARK  status: ('A' for Active; 'I' for Inactive)
REMARK    1  A    between atoms: C5_5  and  C7_7 
REMARK       I    between atoms: C7_7  and  N1_9 
REMARK    2  A    between atoms: N1_9  and  C8_11 
REMARK    3  A    between atoms: C10_13  and  C11_14 
ROOT
HETATM    1  C7  UNL     1     -11.138  14.319 -17.275  1.00  0.00     0.227 C 
HETATM    2  O1  UNL     1      -9.858  14.433 -17.155  1.00  0.00    -0.273 OA
HETATM    3  N1  UNL     1     -11.903  13.703 -16.270  1.00  0.00    -0.356 N 
ATOM      4  H1  UNL     1     -12.919  13.666 -16.348  1.00  0.00     0.162 HD
ENDROOT
BRANCH   3   5
HETATM    5  C8  UNL     1     -11.255  13.134 -15.151  1.00  0.00     0.086 C 
HETATM    6  C9  UNL     1     -11.927  12.772 -13.876  1.00  0.00     0.039 C 
HETATM    7  C10 UNL     1     -10.874  11.619 -13.822  1.00  0.00     0.079 C 
HETATM    8  C12 UNL     1     -10.961  11.631 -15.321  1.00  0.00     0.039 C 
BRANCH   7   9
HETATM    9  C11 UNL     1     -11.295  10.464 -13.094  1.00  0.00     0.235 C 
HETATM   10  N2  UNL     1     -12.012   9.422 -13.719  1.00  0.00    -0.062 NA
HETATM   11  O2  UNL     1     -11.034  10.350 -11.883  1.00  0.00    -0.277 OA
ENDBRANCH   7   9
ENDBRANCH   3   5
BRANCH   1  12
HETATM   12  C5  UNL     1     -11.655  14.883 -18.549  1.00  0.00     0.045 A 
HETATM   13  C2  UNL     1     -12.037  16.323 -18.561  1.00  0.00    -0.030 A 
HETATM   14  C1  UNL     1     -11.605  17.176 -19.737  1.00  0.00     0.016 C 
HETATM   15  C3  UNL     1     -12.110  17.090 -17.237  1.00  0.00     0.016 C 
HETATM   16  C4  UNL     1     -13.088  15.305 -18.679  1.00  0.00     0.029 A 
HETATM   17  C6  UNL     1     -11.165  14.152 -19.784  1.00  0.00     0.026 C 
ENDBRANCH   1  12
TORSDOF 3
ENDMDL
MODEL 3
REMARK VINA RESULT: -5.873774080      2.056      6.980
REMARK  3 active torsions:
REMARK  status: ('A' for Active; 'I' for Inactive)
REMARK    1  A    between atoms: C5_5  and  C7_7 
REMARK       I    between atoms: C7_7  and  N1_9 
REMARK    2  A    between atoms: N1_9  and  C8_11 
REMARK    3  A    between atoms: C10_13  and  C11_14 
ROOT
HETATM    1  C7  UNL     1     -11.298  11.010 -13.815  1.00  0.00     0.227 C 
HETATM    2  O1  UNL     1     -10.321  11.643 -13.259  1.00  0.00    -0.273 OA
HETATM    3  N1  UNL     1     -12.008  11.579 -14.885  1.00  0.00    -0.356 N 
ATOM      4  H1  UNL     1     -12.743  11.049 -15.354  1.00  0.00     0.162 HD
ENDROOT
BRANCH   3   5
HETATM    5  C8  UNL     1     -11.698  12.890 -15.308  1.00  0.00     0.086 C 
HETATM    6  C9  UNL     1     -11.474  13.295 -16.722  1.00  0.00     0.039 C 
HETATM    7  C10 UNL     1     -12.102  14.654 -16.275  1.00  0.00     0.079 C 
HETATM    8  C12 UNL     1     -12.922  13.827 -15.326  1.00  0.00     0.039 C 
BRANCH   7   9
HETATM    9  C11 UNL     1     -12.746  15.382 -17.322  1.00  0.00     0.235 C 
HETATM   10  N2  UNL     1     -12.528  16.765 -17.499  1.00  0.00    -0.062 NA
HETATM   11  O2  UNL     1     -13.520  14.807 -18.109  1.00  0.00    -0.277 OA
ENDBRANCH   7   9
ENDBRANCH   3   5
BRANCH   1  12
HETATM   12  C5  UNL     1     -11.560   9.685 -13.195  1.00  0.00     0.045 A 
HETATM   13  C2  UNL     1     -10.721   8.537 -13.641  1.00  0.00    -0.030 A 
HETATM   14  C1  UNL     1     -10.168   7.594 -12.590  1.00  0.00     0.016 C 
HETATM   15  C3  UNL     1      -9.809   8.705 -14.859  1.00  0.00     0.016 C 
HETATM   16  C4  UNL     1     -12.145   8.561 -13.997  1.00  0.00     0.029 A 
HETATM   17  C6  UNL     1     -12.169   9.768 -11.808  1.00  0.00     0.026 C 
ENDBRANCH   1  12
TORSDOF 3
ENDMDL
MODEL 4
REMARK VINA RESULT: -5.861435247      2.584      6.854
REMARK  3 active torsions:
REMARK  status: ('A' for Active; 'I' for Inactive)
REMARK    1  A    between atoms: C5_5  and  C7_7 
REMARK       I    between atoms: C7_7  and  N1_9 
REMARK    2  A    between atoms: N1_9  and  C8_11 
REMARK    3  A    between atoms: C10_13  and  C11_14 
ROOT
HETATM    1  C7  UNL     1     -11.422  13.847 -16.155  1.00  0.00     0.227 C 
HETATM    2  O1  UNL     1     -10.464  14.617 -15.763  1.00  0.00    -0.273 OA
HETATM    3  N1  UNL     1     -11.984  13.991 -17.435  1.00  0.00    -0.356 N 
ATOM      4  H1  UNL     1     -12.702  13.343 -17.757  1.00  0.00     0.162 HD
ENDROOT
BRANCH   3   5
HETATM    5  C8  UNL     1     -11.547  15.041 -18.273  1.00  0.00     0.086 C 
HETATM    6  C9  UNL     1     -11.610  15.022 -19.758  1.00  0.00     0.039 C 
HETATM    7  C10 UNL     1     -11.839  16.562 -19.618  1.00  0.00     0.079 C 
HETATM    8  C12 UNL     1     -12.538  16.220 -18.333  1.00  0.00     0.039 C 
BRANCH   7   9
HETATM    9  C11 UNL     1     -12.574  17.152 -20.691  1.00  0.00     0.235 C 
HETATM   10  N2  UNL     1     -12.373  16.752 -22.030  1.00  0.00    -0.062 NA
HETATM   11  O2  UNL     1     -13.418  18.039 -20.467  1.00  0.00    -0.277 OA
ENDBRANCH   7   9
ENDBRANCH   3   5
BRANCH   1  12
HETATM   12  C5  UNL     1     -11.831  12.856 -15.125  1.00  0.00     0.045 A 
HETATM   13  C2  UNL     1     -10.903  11.724 -14.851  1.00  0.00    -0.030 A 
HETATM   14  C1  UNL     1     -10.636  11.340 -13.408  1.00  0.00     0.016 C 
HETATM   15  C3  UNL     1      -9.708  11.491 -15.781  1.00  0.00     0.016 C 
HETATM   16  C4  UNL     1     -12.187  11.451 -15.507  1.00  0.00     0.029 A 
HETATM   17  C6  UNL     1     -12.775  13.417 -14.079  1.00  0.00     0.026 C 
ENDBRANCH   1  12
TORSDOF 3
ENDMDL
MODEL 5
REMARK VINA RESULT: -5.726064057      1.717      2.155
REMARK  3 active torsions:
REMARK  status: ('A' for Active; 'I' for Inactive)
REMARK    1  A    between atoms: C5_5  and  C7_7 
REMARK       I    between atoms: C7_7  and  N1_9 
REMARK    2  A    between atoms: N1_9  and  C8_11 
REMARK    3  A    between atoms: C10_13  and  C11_14 
ROOT
HETATM    1  C7  UNL     1     -10.786  13.546 -16.416  1.00  0.00     0.227 C 
HETATM    2  O1  UNL     1     -10.521  14.538 -15.636  1.00  0.00    -0.273 OA
HETATM    3  N1  UNL     1     -10.995  12.257 -15.897  1.00  0.00    -0.356 N 
ATOM      4  H1  UNL     1     -11.258  11.490 -16.517  1.00  0.00     0.162 HD
ENDROOT
BRANCH   3   5
HETATM    5  C8  UNL     1     -10.840  12.030 -14.512  1.00  0.00     0.086 C 
HETATM    6  C9  UNL     1     -11.957  11.787 -13.562  1.00  0.00     0.039 C 
HETATM    7  C10 UNL     1     -10.927  10.878 -12.817  1.00  0.00     0.079 C 
HETATM    8  C12 UNL     1     -10.364  10.602 -14.182  1.00  0.00     0.039 C 
BRANCH   7   9
HETATM    9  C11 UNL     1     -11.510   9.816 -12.061  1.00  0.00     0.235 C 
HETATM   10  N2  UNL     1     -10.862   8.571 -11.918  1.00  0.00    -0.062 NA
HETATM   11  O2  UNL     1     -12.613   9.968 -11.503  1.00  0.00    -0.277 OA
ENDBRANCH   7   9
ENDBRANCH   3   5
BRANCH   1  12
HETATM   12  C5  UNL     1     -10.823  13.929 -17.852  1.00  0.00     0.045 A 
HETATM   13  C2  UNL     1     -11.951  14.789 -18.307  1.00  0.00    -0.030 A 
HETATM   14  C1  UNL     1     -11.646  15.955 -19.227  1.00  0.00     0.016 C 
HETATM   15  C3  UNL     1     -13.130  15.041 -17.362  1.00  0.00     0.016 C 
HETATM   16  C4  UNL     1     -11.886  13.396 -18.765  1.00  0.00     0.029 A 
HETATM   17  C6  UNL     1      -9.459  13.943 -18.516  1.00  0.00     0.026 C 
ENDBRANCH   1  12
TORSDOF 3
ENDMDL
