MODEL 1
REMARK VINA RESULT: -5.785040257      0.000      0.000
REMARK  1 active torsions:
REMARK  status: ('A' for Active; 'I' for Inactive)
REMARK    1  A    between atoms: C2_2  and  N1_3 
REMARK       I    between atoms: N1_3  and  C3_5 
REMARK       I    between atoms: C3_5  and  N2_7 
ROOT
HETATM    1  N1  UNL     1     -12.633  14.005 -21.373  1.00  0.00    -0.343 N 
ATOM      2  H1  UNL     1     -12.628  13.229 -20.711  1.00  0.00     0.164 HD
HETATM    3  C3  UNL     1     -12.440  15.319 -20.866  1.00  0.00     0.318 C 
HETATM    4  O1  UNL     1     -12.454  16.254 -21.737  1.00  0.00    -0.247 OA
HETATM    5  N2  UNL     1     -12.242  15.588 -19.487  1.00  0.00    -0.329 N 
HETATM    6  C4  UNL     1     -12.056  16.959 -19.089  1.00  0.00     0.153 C 
HETATM    7  C5  UNL     1     -11.724  17.019 -17.634  1.00  0.00     0.189 C 
HETATM    8  O2  UNL     1     -12.634  16.200 -16.972  1.00  0.00    -0.377 OA
HETATM    9  C6  UNL     1     -12.267  14.839 -17.122  1.00  0.00     0.077 C 
HETATM   10  C7  UNL     1     -13.340  14.065 -16.429  1.00  0.00     0.040 C 
HETATM   11  C8  UNL     1     -13.009  12.641 -16.137  1.00  0.00     0.003 C 
HETATM   12  C9  UNL     1     -11.563  12.301 -16.279  1.00  0.00     0.000 C 
HETATM   13  C10 UNL     1     -10.748  13.433 -15.702  1.00  0.00     0.003 C 
HETATM   14  C11 UNL     1     -10.917  14.720 -16.458  1.00  0.00     0.040 C 
HETATM   15  C12 UNL     1     -12.239  14.503 -18.572  1.00  0.00     0.165 C 
ENDROOT
BRANCH   1  16
HETATM   16  C2  UNL     1     -12.834  13.707 -22.758  1.00  0.00     0.120 C 
HETATM   17  C1  UNL     1     -14.291  13.508 -23.111  1.00  0.00     0.026 C 
ENDBRANCH   1  16
TORSDOF 1
ENDMDL
MODEL 2
REMARK VINA RESULT: -5.448332366      1.464      1.551
REMARK  1 active torsions:
REMARK  status: ('A' for Active; 'I' for Inactive)
REMARK    1  A    between atoms: C2_2  and  N1_3 
REMARK       I    between atoms: N1_3  and  C3_5 
REMARK       I    between atoms: C3_5  and  N2_7 
ROOT
HETATM    1  N1  UNL     1     -12.679  15.481 -21.768  1.00  0.00    -0.343 N 
ATOM      2  H1  UNL     1     -12.333  14.554 -21.518  1.00  0.00     0.164 HD
HETATM    3  C3  UNL     1     -12.633  16.502 -20.779  1.00  0.00     0.318 C 
HETATM    4  O1  UNL     1     -13.077  17.643 -21.144  1.00  0.00    -0.247 OA
HETATM    5  N2  UNL     1     -12.129  16.281 -19.471  1.00  0.00    -0.329 N 
HETATM    6  C4  UNL     1     -12.132  17.390 -18.553  1.00  0.00     0.153 C 
HETATM    7  C5  UNL     1     -11.438  16.998 -17.290  1.00  0.00     0.189 C 
HETATM    8  O2  UNL     1     -11.943  15.758 -16.913  1.00  0.00    -0.377 OA
HETATM    9  C6  UNL     1     -11.356  14.731 -17.696  1.00  0.00     0.077 C 
HETATM   10  C7  UNL     1     -12.015  13.469 -17.244  1.00  0.00     0.040 C 
HETATM   11  C8  UNL     1     -11.328  12.211 -17.656  1.00  0.00     0.003 C 
HETATM   12  C9  UNL     1      -9.938  12.404 -18.161  1.00  0.00     0.000 C 
HETATM   13  C10 UNL     1      -9.250  13.426 -17.288  1.00  0.00     0.003 C 
HETATM   14  C11 UNL     1      -9.882  14.786 -17.374  1.00  0.00     0.040 C 
HETATM   15  C12 UNL     1     -11.653  14.988 -19.131  1.00  0.00     0.165 C 
ENDROOT
BRANCH   1  16
HETATM   16  C2  UNL     1     -13.181  15.677 -23.093  1.00  0.00     0.120 C 
HETATM   17  C1  UNL     1     -14.614  15.221 -23.253  1.00  0.00     0.026 C 
ENDBRANCH   1  16
TORSDOF 1
ENDMDL
MODEL 3
REMARK VINA RESULT: -5.334584694      3.037      4.253
REMARK  1 active torsions:
REMARK  status: ('A' for Active; 'I' for Inactive)
REMARK    1  A    between atoms: C2_2  and  N1_3 
REMARK       I    between atoms: N1_3  and  C3_5 
REMARK       I    between atoms: C3_5  and  N2_7 
ROOT
HETATM    1  N1  UNL     1      -9.728  13.059 -21.374  1.00  0.00    -0.343 N 
ATOM      2  H1  UNL     1     -10.003  14.015 -21.152  1.00  0.00     0.164 HD
HETATM    3  C3  UNL     1      -9.795  12.085 -20.340  1.00  0.00     0.318 C 
HETATM    4  O1  UNL     1      -9.441  10.903 -20.671  1.00  0.00    -0.247 OA
HETATM    5  N2  UNL     1     -10.226  12.393 -19.023  1.00  0.00    -0.329 N 
HETATM    6  C4  UNL     1     -10.253  11.326 -18.058  1.00  0.00     0.153 C 
HETATM    7  C5  UNL     1     -10.864  11.815 -16.785  1.00  0.00     0.189 C 
HETATM    8  O2  UNL     1     -10.265  13.034 -16.485  1.00  0.00    -0.377 OA
HETATM    9  C6  UNL     1     -10.820  14.063 -17.288  1.00  0.00     0.077 C 
HETATM   10  C7  UNL     1     -10.062  15.297 -16.921  1.00  0.00     0.040 C 
HETATM   11  C8  UNL     1     -10.685  16.579 -17.360  1.00  0.00     0.003 C 
HETATM   12  C9  UNL     1     -12.106  16.457 -17.798  1.00  0.00     0.000 C 
HETATM   13  C10 UNL     1     -12.818  15.519 -16.853  1.00  0.00     0.003 C 
HETATM   14  C11 UNL     1     -12.279  14.118 -16.904  1.00  0.00     0.040 C 
HETATM   15  C12 UNL     1     -10.604  13.728 -18.722  1.00  0.00     0.165 C 
ENDROOT
BRANCH   1  16
HETATM   16  C2  UNL     1      -9.298  12.775 -22.709  1.00  0.00     0.120 C 
HETATM   17  C1  UNL     1      -7.829  13.060 -22.927  1.00  0.00     0.026 C 
ENDBRANCH   1  16
TORSDOF 1
ENDMDL
MODEL 4
REMARK VINA RESULT: -5.326640722      4.133      6.816
REMARK  1 active torsions:
REMARK  status: ('A' for Active; 'I' for Inactive)
REMARK    1  A    between atoms: C2_2  and  N1_3 
REMARK       I    between atoms: N1_3  and  C3_5 
REMARK       I    between atoms: C3_5  and  N2_7 
ROOT
HETATM    1  N1  UNL     1     -10.948  10.979 -13.362  1.00  0.00    -0.343 N 
ATOM      2  H1  UNL     1     -11.238  11.951 -13.471  1.00  0.00     0.164 HD
HETATM    3  C3  UNL     1     -10.512  10.277 -14.519  1.00  0.00     0.318 C 
HETATM    4  O1  UNL     1     -10.158   9.064 -14.328  1.00  0.00    -0.247 OA
HETATM    5  N2  UNL     1     -10.466  10.873 -15.806  1.00  0.00    -0.329 N 
HETATM    6  C4  UNL     1     -10.007  10.065 -16.905  1.00  0.00     0.153 C 
HETATM    7  C5  UNL     1      -9.897  10.906 -18.135  1.00  0.00     0.189 C 
HETATM    8  O2  UNL     1     -11.073  11.643 -18.233  1.00  0.00    -0.377 OA
HETATM    9  C6  UNL     1     -11.040  12.740 -17.335  1.00  0.00     0.077 C 
HETATM   10  C7  UNL     1     -12.366  13.411 -17.488  1.00  0.00     0.040 C 
HETATM   11  C8  UNL     1     -12.450  14.788 -16.920  1.00  0.00     0.003 C 
HETATM   12  C9  UNL     1     -11.131  15.400 -16.588  1.00  0.00     0.000 C 
HETATM   13  C10 UNL     1     -10.157  15.063 -17.691  1.00  0.00     0.003 C 
HETATM   14  C11 UNL     1      -9.880  13.590 -17.795  1.00  0.00     0.040 C 
HETATM   15  C12 UNL     1     -10.875  12.225 -15.949  1.00  0.00     0.165 C 
ENDROOT
BRANCH   1  16
HETATM   16  C2  UNL     1     -11.002  10.402 -12.054  1.00  0.00     0.120 C 
HETATM   17  C1  UNL     1     -12.245   9.569 -11.830  1.00  0.00     0.026 C 
ENDBRANCH   1  16
TORSDOF 1
ENDMDL
MODEL 5
REMARK VINA RESULT: -5.133723657      4.284      6.355
REMARK  1 active torsions:
REMARK  status: ('A' for Active; 'I' for Inactive)
REMARK    1  A    between atoms: C2_2  and  N1_3 
REMARK       I    between atoms: N1_3  and  C3_5 
REMARK       I    between atoms: C3_5  and  N2_7 
ROOT
HETATM    1  N1  UNL     1      -9.528   9.250 -16.853  1.00  0.00    -0.343 N 
ATOM      2  H1  UNL     1      -9.776   9.998 -17.501  1.00  0.00     0.164 HD
HETATM    3  C3  UNL     1      -9.886   9.403 -15.485  1.00  0.00     0.318 C 
HETATM    4  O1  UNL     1      -9.552   8.438 -14.716  1.00  0.00    -0.247 OA
HETATM    5  N2  UNL     1     -10.570  10.545 -14.994  1.00  0.00    -0.329 N 
HETATM    6  C4  UNL     1     -10.881  10.590 -13.590  1.00  0.00     0.153 C 
HETATM    7  C5  UNL     1     -11.718  11.793 -13.299  1.00  0.00     0.189 C 
HETATM    8  O2  UNL     1     -11.115  12.875 -13.932  1.00  0.00    -0.377 OA
HETATM    9  C6  UNL     1     -11.408  12.857 -15.319  1.00  0.00     0.077 C 
HETATM   10  C7  UNL     1     -10.663  14.019 -15.892  1.00  0.00     0.040 C 
HETATM   11  C8  UNL     1     -11.084  14.430 -17.262  1.00  0.00     0.003 C 
HETATM   12  C9  UNL     1     -12.381  13.845 -17.711  1.00  0.00     0.000 C 
HETATM   13  C10 UNL     1     -13.345  13.874 -16.550  1.00  0.00     0.003 C 
HETATM   14  C11 UNL     1     -12.908  13.005 -15.406  1.00  0.00     0.040 C 
HETATM   15  C12 UNL     1     -10.909  11.582 -15.902  1.00  0.00     0.165 C 
ENDROOT
BRANCH   1  16
HETATM   16  C2  UNL     1      -8.839   8.109 -17.373  1.00  0.00     0.120 C 
HETATM   17  C1  UNL     1      -9.193   7.815 -18.814  1.00  0.00     0.026 C 
ENDBRANCH   1  16
TORSDOF 1
ENDMDL
