MODEL 1
REMARK VINA RESULT: -6.270054595      0.000      0.000
REMARK  2 active torsions:
REMARK  status: ('A' for Active; 'I' for Inactive)
REMARK    1  A    between atoms: C2_2  and  O1_3 
REMARK    2  A    between atoms: C6_8  and  C8_10 
REMARK       I    between atoms: C8_10  and  N1_12 
ROOT
HETATM    1  C1  UNL     1     -11.114  12.732 -15.634  1.00  0.00     0.047 C 
HETATM    2  C2  UNL     1     -11.284  12.900 -17.125  1.00  0.00     0.070 C 
HETATM    3  C3  UNL     1      -9.891  12.731 -17.732  1.00  0.00     0.038 C 
HETATM    4  C4  UNL     1      -9.221  14.019 -17.350  1.00  0.00     0.004 C 
HETATM    5  C5  UNL     1     -10.291  15.049 -17.507  1.00  0.00     0.022 C 
HETATM    6  C6  UNL     1     -11.628  14.312 -17.511  1.00  0.00     0.068 C 
HETATM    7  C7  UNL     1     -12.605  14.939 -16.551  1.00  0.00     0.028 C 
ENDROOT
BRANCH   6   8
HETATM    8  C8  UNL     1     -12.133  14.329 -18.895  1.00  0.00     0.231 C 
HETATM    9  O2  UNL     1     -12.523  13.208 -19.392  1.00  0.00    -0.272 OA
HETATM   10  N1  UNL     1     -12.248  15.425 -19.754  1.00  0.00    -0.351 N 
HETATM   11  C9  UNL     1     -12.789  15.258 -21.089  1.00  0.00     0.125 C 
HETATM   12  C13 UNL     1     -11.840  16.743 -19.386  1.00  0.00     0.125 C 
HETATM   13  C10 UNL     1     -12.684  16.562 -21.840  1.00  0.00     0.020 C 
HETATM   14  C11 UNL     1     -13.355  17.696 -21.092  1.00  0.00     0.003 C 
HETATM   15  C12 UNL     1     -12.997  17.710 -19.624  1.00  0.00     0.020 C 
ENDBRANCH   6   8
BRANCH   2  16
HETATM   16  O1  UNL     1     -12.110  11.925 -17.596  1.00  0.00    -0.389 OA
ATOM     17  H1  UNL     1     -12.079  11.918 -18.546  1.00  0.00     0.210 HD
ENDBRANCH   2  16
TORSDOF 2
ENDMDL
MODEL 2
REMARK VINA RESULT: -6.165612660      2.777      6.270
REMARK  2 active torsions:
REMARK  status: ('A' for Active; 'I' for Inactive)
REMARK    1  A    between atoms: C2_2  and  O1_3 
REMARK    2  A    between atoms: C6_8  and  C8_10 
REMARK       I    between atoms: C8_10  and  N1_12 
ROOT
HETATM    1  C1  UNL     1     -12.132  13.898 -18.927  1.00  0.00     0.047 C 
HETATM    2  C2  UNL     1     -12.363  13.851 -17.435  1.00  0.00     0.070 C 
HETATM    3  C3  UNL     1     -12.240  15.293 -16.941  1.00  0.00     0.038 C 
HETATM    4  C4  UNL     1     -10.759  15.528 -17.017  1.00  0.00     0.004 C 
HETATM    5  C5  UNL     1     -10.160  14.234 -16.570  1.00  0.00     0.022 C 
HETATM    6  C6  UNL     1     -11.244  13.168 -16.699  1.00  0.00     0.068 C 
HETATM    7  C7  UNL     1     -10.739  11.955 -17.437  1.00  0.00     0.028 C 
ENDROOT
BRANCH   6   8
HETATM    8  C8  UNL     1     -11.692  12.832 -15.336  1.00  0.00     0.231 C 
HETATM    9  O2  UNL     1     -12.678  13.507 -14.858  1.00  0.00    -0.272 OA
HETATM   10  N1  UNL     1     -11.177  11.856 -14.479  1.00  0.00    -0.351 N 
HETATM   11  C9  UNL     1     -11.758  11.650 -13.167  1.00  0.00     0.125 C 
HETATM   12  C13 UNL     1     -10.065  11.029 -14.827  1.00  0.00     0.125 C 
HETATM   13  C10 UNL     1     -10.940  10.635 -12.409  1.00  0.00     0.020 C 
HETATM   14  C11 UNL     1     -10.799   9.338 -13.179  1.00  0.00     0.003 C 
HETATM   15  C12 UNL     1     -10.451   9.565 -14.632  1.00  0.00     0.020 C 
ENDBRANCH   6   8
BRANCH   2  16
HETATM   16  O1  UNL     1     -13.621  13.389 -17.190  1.00  0.00    -0.389 OA
ATOM     17  H1  UNL     1     -13.673  13.079 -16.292  1.00  0.00     0.210 HD
ENDBRANCH   2  16
TORSDOF 2
ENDMDL
MODEL 3
REMARK VINA RESULT: -6.078740114      1.488      2.409
REMARK  2 active torsions:
REMARK  status: ('A' for Active; 'I' for Inactive)
REMARK    1  A    between atoms: C2_2  and  O1_3 
REMARK    2  A    between atoms: C6_8  and  C8_10 
REMARK       I    between atoms: C8_10  and  N1_12 
ROOT
HETATM    1  C1  UNL     1     -11.448  12.884 -14.464  1.00  0.00     0.047 C 
HETATM    2  C2  UNL     1     -12.112  13.057 -15.810  1.00  0.00     0.070 C 
HETATM    3  C3  UNL     1     -12.991  11.822 -16.010  1.00  0.00     0.038 C 
HETATM    4  C4  UNL     1     -11.976  10.754 -16.300  1.00  0.00     0.004 C 
HETATM    5  C5  UNL     1     -10.957  11.438 -17.152  1.00  0.00     0.022 C 
HETATM    6  C6  UNL     1     -11.140  12.940 -16.951  1.00  0.00     0.068 C 
HETATM    7  C7  UNL     1      -9.828  13.618 -16.648  1.00  0.00     0.028 C 
ENDROOT
BRANCH   6   8
HETATM    8  C8  UNL     1     -11.761  13.473 -18.177  1.00  0.00     0.231 C 
HETATM    9  O2  UNL     1     -12.392  12.639 -18.926  1.00  0.00    -0.272 OA
HETATM   10  N1  UNL     1     -11.755  14.792 -18.639  1.00  0.00    -0.351 N 
HETATM   11  C9  UNL     1     -12.440  15.142 -19.868  1.00  0.00     0.125 C 
HETATM   12  C13 UNL     1     -11.081  15.849 -17.954  1.00  0.00     0.125 C 
HETATM   13  C10 UNL     1     -12.170  16.589 -20.198  1.00  0.00     0.020 C 
HETATM   14  C11 UNL     1     -12.552  17.506 -19.054  1.00  0.00     0.003 C 
HETATM   15  C12 UNL     1     -12.061  16.996 -17.718  1.00  0.00     0.020 C 
ENDBRANCH   6   8
BRANCH   2  16
HETATM   16  O1  UNL     1     -12.890  14.174 -15.789  1.00  0.00    -0.389 OA
ATOM     17  H1  UNL     1     -12.764  14.661 -16.595  1.00  0.00     0.210 HD
ENDBRANCH   2  16
TORSDOF 2
ENDMDL
MODEL 4
REMARK VINA RESULT: -6.002988684      2.269      5.667
REMARK  2 active torsions:
REMARK  status: ('A' for Active; 'I' for Inactive)
REMARK    1  A    between atoms: C2_2  and  O1_3 
REMARK    2  A    between atoms: C6_8  and  C8_10 
REMARK       I    between atoms: C8_10  and  N1_12 
ROOT
HETATM    1  C1  UNL     1     -11.544  14.998 -19.623  1.00  0.00     0.047 C 
HETATM    2  C2  UNL     1     -11.927  14.609 -18.215  1.00  0.00     0.070 C 
HETATM    3  C3  UNL     1     -12.505  15.870 -17.571  1.00  0.00     0.038 C 
HETATM    4  C4  UNL     1     -11.275  16.700 -17.340  1.00  0.00     0.004 C 
HETATM    5  C5  UNL     1     -10.240  15.710 -16.913  1.00  0.00     0.022 C 
HETATM    6  C6  UNL     1     -10.730  14.332 -17.348  1.00  0.00     0.068 C 
HETATM    7  C7  UNL     1      -9.658  13.576 -18.089  1.00  0.00     0.028 C 
ENDROOT
BRANCH   6   8
HETATM    8  C8  UNL     1     -11.164  13.618 -16.134  1.00  0.00     0.231 C 
HETATM    9  O2  UNL     1     -12.153  14.117 -15.480  1.00  0.00    -0.272 OA
HETATM   10  N1  UNL     1     -10.631  12.446 -15.590  1.00  0.00    -0.351 N 
HETATM   11  C9  UNL     1     -11.201  11.869 -14.389  1.00  0.00     0.125 C 
HETATM   12  C13 UNL     1      -9.514  11.766 -16.163  1.00  0.00     0.125 C 
HETATM   13  C10 UNL     1     -10.365  10.692 -13.951  1.00  0.00     0.020 C 
HETATM   14  C11 UNL     1     -10.217   9.667 -15.058  1.00  0.00     0.003 C 
HETATM   15  C12 UNL     1      -9.882  10.301 -16.389  1.00  0.00     0.020 C 
ENDBRANCH   6   8
BRANCH   2  16
HETATM   16  O1  UNL     1     -12.881  13.639 -18.259  1.00  0.00    -0.389 OA
ATOM     17  H1  UNL     1     -13.031  13.305 -17.382  1.00  0.00     0.210 HD
ENDBRANCH   2  16
TORSDOF 2
ENDMDL
MODEL 5
REMARK VINA RESULT: -5.999847398      3.281      6.646
REMARK  2 active torsions:
REMARK  status: ('A' for Active; 'I' for Inactive)
REMARK    1  A    between atoms: C2_2  and  O1_3 
REMARK    2  A    between atoms: C6_8  and  C8_10 
REMARK       I    between atoms: C8_10  and  N1_12 
ROOT
HETATM    1  C1  UNL     1     -11.517  12.497 -18.580  1.00  0.00     0.047 C 
HETATM    2  C2  UNL     1     -11.942  12.487 -17.130  1.00  0.00     0.070 C 
HETATM    3  C3  UNL     1     -12.832  13.716 -16.941  1.00  0.00     0.038 C 
HETATM    4  C4  UNL     1     -11.832  14.836 -16.963  1.00  0.00     0.004 C 
HETATM    5  C5  UNL     1     -10.657  14.294 -16.216  1.00  0.00     0.022 C 
HETATM    6  C6  UNL     1     -10.802  12.775 -16.193  1.00  0.00     0.068 C 
HETATM    7  C7  UNL     1      -9.529  12.094 -16.625  1.00  0.00     0.028 C 
ENDROOT
BRANCH   6   8
HETATM    8  C8  UNL     1     -11.189  12.392 -14.824  1.00  0.00     0.231 C 
HETATM    9  O2  UNL     1     -11.786  13.282 -14.111  1.00  0.00    -0.272 OA
HETATM   10  N1  UNL     1     -10.990  11.165 -14.186  1.00  0.00    -0.351 N 
HETATM   11  C9  UNL     1     -11.457  10.958 -12.829  1.00  0.00     0.125 C 
HETATM   12  C13 UNL     1     -10.321  10.068 -14.810  1.00  0.00     0.125 C 
HETATM   13  C10 UNL     1     -11.004   9.604 -12.343  1.00  0.00     0.020 C 
HETATM   14  C11 UNL     1     -11.452   8.495 -13.273  1.00  0.00     0.003 C 
HETATM   15  C12 UNL     1     -11.208   8.829 -14.727  1.00  0.00     0.020 C 
ENDBRANCH   6   8
BRANCH   2  16
HETATM   16  O1  UNL     1     -12.662  11.358 -16.880  1.00  0.00    -0.389 OA
ATOM     17  H1  UNL     1     -12.067  10.634 -16.723  1.00  0.00     0.210 HD
ENDBRANCH   2  16
TORSDOF 2
ENDMDL
