MODEL 1
REMARK VINA RESULT: -5.259527458      0.000      0.000
REMARK  3 active torsions:
REMARK  status: ('A' for Active; 'I' for Inactive)
REMARK    1  A    between atoms: N1_6  and  N2_7 
REMARK    2  A    between atoms: N2_7  and  C6_9 
REMARK    3  A    between atoms: C6_9  and  N3_11 
ROOT
HETATM    1  N2  UNL     1     -10.847  12.337 -17.989  1.00  0.00    -0.295 N 
ATOM      2  H2  UNL     1      -9.992  11.939 -17.601  1.00  0.00     0.183 HD
ENDROOT
BRANCH   1   3
HETATM    3  N1  UNL     1     -12.061  11.858 -17.510  1.00  0.00    -0.220 NA
HETATM    4  C2  UNL     1     -12.338  12.356 -16.176  1.00  0.00     0.026 C 
HETATM    5  C1  UNL     1     -13.346  13.474 -16.172  1.00  0.00     0.034 C 
HETATM    6  C3  UNL     1     -11.129  12.698 -15.350  1.00  0.00     0.034 C 
HETATM    7  C4  UNL     1     -12.893  10.995 -15.820  1.00  0.00     0.042 C 
HETATM    8  C5  UNL     1     -12.014  10.523 -16.954  1.00  0.00     0.116 C 
ENDBRANCH   1   3
BRANCH   1   9
HETATM    9  C6  UNL     1     -10.715  13.345 -18.984  1.00  0.00     0.184 C 
HETATM   10  S1  UNL     1     -10.237  12.908 -20.497  1.00  0.00    -0.040 SA
BRANCH   9  11
HETATM   11  N3  UNL     1     -10.974  14.711 -18.738  1.00  0.00    -0.357 N 
HETATM   12  C7  UNL     1     -10.288  15.409 -17.711  1.00  0.00     0.125 C 
HETATM   13  C8  UNL     1     -11.127  16.409 -16.967  1.00  0.00     0.020 C 
HETATM   14  C9  UNL     1     -12.223  17.008 -17.770  1.00  0.00     0.003 C 
HETATM   15  C10 UNL     1     -11.906  16.895 -19.260  1.00  0.00     0.020 C 
HETATM   16  C11 UNL     1     -11.965  15.393 -19.567  1.00  0.00     0.125 C 
ENDBRANCH   9  11
ENDBRANCH   1   9
TORSDOF 3
ENDMDL
MODEL 2
REMARK VINA RESULT: -5.217382392      1.654      2.303
REMARK  3 active torsions:
REMARK  status: ('A' for Active; 'I' for Inactive)
REMARK    1  A    between atoms: N1_6  and  N2_7 
REMARK    2  A    between atoms: N2_7  and  C6_9 
REMARK    3  A    between atoms: C6_9  and  N3_11 
ROOT
HETATM    1  N2  UNL     1     -11.747  12.835 -16.286  1.00  0.00    -0.295 N 
ATOM      2  H2  UNL     1     -12.736  12.650 -16.452  1.00  0.00     0.183 HD
ENDROOT
BRANCH   1   3
HETATM    3  N1  UNL     1     -11.242  12.569 -15.017  1.00  0.00    -0.220 NA
HETATM    4  C2  UNL     1     -11.348  11.160 -14.691  1.00  0.00     0.026 C 
HETATM    5  C1  UNL     1     -10.036  10.434 -14.822  1.00  0.00     0.034 C 
HETATM    6  C3  UNL     1     -12.461  10.418 -15.378  1.00  0.00     0.034 C 
HETATM    7  C4  UNL     1     -11.723  11.549 -13.279  1.00  0.00     0.042 C 
HETATM    8  C5  UNL     1     -12.153  12.845 -13.927  1.00  0.00     0.116 C 
ENDBRANCH   1   3
BRANCH   1   9
HETATM    9  C6  UNL     1     -10.979  13.348 -17.366  1.00  0.00     0.184 C 
HETATM   10  S1  UNL     1      -9.845  12.379 -18.063  1.00  0.00    -0.040 SA
BRANCH   9  11
HETATM   11  N3  UNL     1     -11.138  14.655 -17.876  1.00  0.00    -0.357 N 
HETATM   12  C7  UNL     1     -10.363  15.733 -17.373  1.00  0.00     0.125 C 
HETATM   13  C8  UNL     1     -11.102  17.035 -17.264  1.00  0.00     0.020 C 
HETATM   14  C9  UNL     1     -12.192  17.208 -18.257  1.00  0.00     0.003 C 
HETATM   15  C10 UNL     1     -11.951  16.305 -19.465  1.00  0.00     0.020 C 
HETATM   16  C11 UNL     1     -12.119  14.876 -18.935  1.00  0.00     0.125 C 
ENDBRANCH   9  11
ENDBRANCH   1   9
TORSDOF 3
ENDMDL
MODEL 3
REMARK VINA RESULT: -5.215029394      1.442      2.178
REMARK  3 active torsions:
REMARK  status: ('A' for Active; 'I' for Inactive)
REMARK    1  A    between atoms: N1_6  and  N2_7 
REMARK    2  A    between atoms: N2_7  and  C6_9 
REMARK    3  A    between atoms: C6_9  and  N3_11 
ROOT
HETATM    1  N2  UNL     1     -10.629  13.457 -16.052  1.00  0.00    -0.295 N 
ATOM      2  H2  UNL     1      -9.864  13.651 -15.407  1.00  0.00     0.183 HD
ENDROOT
BRANCH   1   3
HETATM    3  N1  UNL     1     -11.721  12.745 -15.567  1.00  0.00    -0.220 NA
HETATM    4  C2  UNL     1     -11.303  11.546 -14.866  1.00  0.00     0.026 C 
HETATM    5  C1  UNL     1     -11.369  11.697 -13.369  1.00  0.00     0.034 C 
HETATM    6  C3  UNL     1      -9.987  10.965 -15.305  1.00  0.00     0.034 C 
HETATM    7  C4  UNL     1     -12.473  10.816 -15.485  1.00  0.00     0.042 C 
HETATM    8  C5  UNL     1     -12.376  11.895 -16.539  1.00  0.00     0.116 C 
ENDBRANCH   1   3
BRANCH   1   9
HETATM    9  C6  UNL     1     -10.506  13.931 -17.387  1.00  0.00     0.184 C 
HETATM   10  S1  UNL     1      -9.445  13.184 -18.400  1.00  0.00    -0.040 SA
BRANCH   9  11
HETATM   11  N3  UNL     1     -11.251  15.020 -17.892  1.00  0.00    -0.357 N 
HETATM   12  C7  UNL     1     -12.131  14.852 -18.992  1.00  0.00     0.125 C 
HETATM   13  C8  UNL     1     -12.162  16.008 -19.949  1.00  0.00     0.020 C 
HETATM   14  C9  UNL     1     -11.872  17.326 -19.329  1.00  0.00     0.003 C 
HETATM   15  C10 UNL     1     -12.155  17.275 -17.829  1.00  0.00     0.020 C 
HETATM   16  C11 UNL     1     -11.096  16.325 -17.256  1.00  0.00     0.125 C 
ENDBRANCH   9  11
ENDBRANCH   1   9
TORSDOF 3
ENDMDL
MODEL 4
REMARK VINA RESULT: -5.159071035      0.425      1.372
REMARK  3 active torsions:
REMARK  status: ('A' for Active; 'I' for Inactive)
REMARK    1  A    between atoms: N1_6  and  N2_7 
REMARK    2  A    between atoms: N2_7  and  C6_9 
REMARK    3  A    between atoms: C6_9  and  N3_11 
ROOT
HETATM    1  N2  UNL     1     -10.825  12.253 -17.880  1.00  0.00    -0.295 N 
ATOM      2  H2  UNL     1      -9.974  11.849 -17.489  1.00  0.00     0.183 HD
ENDROOT
BRANCH   1   3
HETATM    3  N1  UNL     1     -12.044  11.754 -17.436  1.00  0.00    -0.220 NA
HETATM    4  C2  UNL     1     -12.346  12.211 -16.093  1.00  0.00     0.026 C 
HETATM    5  C1  UNL     1     -13.360  13.323 -16.073  1.00  0.00     0.034 C 
HETATM    6  C3  UNL     1     -11.153  12.536 -15.237  1.00  0.00     0.034 C 
HETATM    7  C4  UNL     1     -12.899  10.838 -15.785  1.00  0.00     0.042 C 
HETATM    8  C5  UNL     1     -11.999  10.403 -16.918  1.00  0.00     0.116 C 
ENDBRANCH   1   3
BRANCH   1   9
HETATM    9  C6  UNL     1     -10.682  13.289 -18.843  1.00  0.00     0.184 C 
HETATM   10  S1  UNL     1      -9.801  12.994 -20.202  1.00  0.00    -0.040 SA
BRANCH   9  11
HETATM   11  N3  UNL     1     -11.260  14.569 -18.693  1.00  0.00    -0.357 N 
HETATM   12  C7  UNL     1     -12.293  15.008 -19.561  1.00  0.00     0.125 C 
HETATM   13  C8  UNL     1     -12.223  16.463 -19.929  1.00  0.00     0.020 C 
HETATM   14  C9  UNL     1     -11.603  17.328 -18.894  1.00  0.00     0.003 C 
HETATM   15  C10 UNL     1     -11.690  16.657 -17.525  1.00  0.00     0.020 C 
HETATM   16  C11 UNL     1     -10.771  15.433 -17.621  1.00  0.00     0.125 C 
ENDBRANCH   9  11
ENDBRANCH   1   9
TORSDOF 3
ENDMDL
MODEL 5
REMARK VINA RESULT: -5.136565919      1.663      4.971
REMARK  3 active torsions:
REMARK  status: ('A' for Active; 'I' for Inactive)
REMARK    1  A    between atoms: N1_6  and  N2_7 
REMARK    2  A    between atoms: N2_7  and  C6_9 
REMARK    3  A    between atoms: C6_9  and  N3_11 
ROOT
HETATM    1  N2  UNL     1     -11.571  13.999 -17.959  1.00  0.00    -0.295 N 
ATOM      2  H2  UNL     1     -12.519  13.654 -18.103  1.00  0.00     0.183 HD
ENDROOT
BRANCH   1   3
HETATM    3  N1  UNL     1     -11.182  15.137 -18.658  1.00  0.00    -0.220 NA
HETATM    4  C2  UNL     1     -11.541  16.346 -17.943  1.00  0.00     0.026 C 
HETATM    5  C1  UNL     1     -10.365  16.979 -17.246  1.00  0.00     0.034 C 
HETATM    6  C3  UNL     1     -12.727  16.228 -17.026  1.00  0.00     0.034 C 
HETATM    7  C4  UNL     1     -11.914  16.978 -19.264  1.00  0.00     0.042 C 
HETATM    8  C5  UNL     1     -12.085  15.545 -19.712  1.00  0.00     0.116 C 
ENDBRANCH   1   3
BRANCH   1   9
HETATM    9  C6  UNL     1     -10.736  13.284 -17.057  1.00  0.00     0.184 C 
HETATM   10  S1  UNL     1      -9.113  13.258 -17.329  1.00  0.00    -0.040 SA
BRANCH   9  11
HETATM   11  N3  UNL     1     -11.231  12.589 -15.932  1.00  0.00    -0.357 N 
HETATM   12  C7  UNL     1     -12.399  13.033 -15.257  1.00  0.00     0.125 C 
HETATM   13  C8  UNL     1     -12.354  12.878 -13.764  1.00  0.00     0.020 C 
HETATM   14  C9  UNL     1     -11.516  11.748 -13.289  1.00  0.00     0.003 C 
HETATM   15  C10 UNL     1     -11.358  10.709 -14.397  1.00  0.00     0.020 C 
HETATM   16  C11 UNL     1     -10.515  11.401 -15.476  1.00  0.00     0.125 C 
ENDBRANCH   9  11
ENDBRANCH   1   9
TORSDOF 3
ENDMDL
