MODEL 1
REMARK VINA RESULT: -5.359816942      0.000      0.000
REMARK  4 active torsions:
REMARK  status: ('A' for Active; 'I' for Inactive)
REMARK    1  A    between atoms: C2_2  and  C5_5 
REMARK    2  A    between atoms: C5_5  and  N2_8 
REMARK    3  A    between atoms: N2_8  and  C7_10 
REMARK    4  A    between atoms: C7_10  and  N3_12 
ROOT
HETATM    1  C5  UNL     1     -10.699  12.218 -16.272  1.00  0.00     0.198 C 
HETATM    2  C6  UNL     1      -9.787  11.070 -16.482  1.00  0.00     0.085 C 
HETATM    3  N1  UNL     1      -9.045  10.168 -16.632  1.00  0.00    -0.195 NA
ENDROOT
BRANCH   1   4
HETATM    4  C2  UNL     1     -11.545  11.907 -15.097  1.00  0.00    -0.018 C 
HETATM    5  C1  UNL     1     -12.501  13.101 -14.901  1.00  0.00     0.018 C 
HETATM    6  C3  UNL     1     -12.453  10.712 -15.316  1.00  0.00     0.018 C 
HETATM    7  C4  UNL     1     -10.865  11.734 -13.775  1.00  0.00     0.018 C 
ENDBRANCH   1   4
BRANCH   1   8
HETATM    8  N2  UNL     1     -11.278  12.607 -17.479  1.00  0.00    -0.349 N 
ATOM      9  H2  UNL     1     -12.166  12.164 -17.708  1.00  0.00     0.163 HD
BRANCH   8  10
HETATM   10  C7  UNL     1     -10.795  13.530 -18.417  1.00  0.00     0.170 C 
HETATM   11  S1  UNL     1      -9.821  13.089 -19.650  1.00  0.00    -0.041 SA
BRANCH  10  12
HETATM   12  N3  UNL     1     -11.102  14.936 -18.318  1.00  0.00    -0.358 N 
HETATM   13  C8  UNL     1     -11.955  15.616 -19.261  1.00  0.00     0.125 C 
HETATM   14  C9  UNL     1     -11.703  17.058 -18.966  1.00  0.00     0.021 C 
HETATM   15  C10 UNL     1     -11.488  17.051 -17.464  1.00  0.00     0.021 C 
HETATM   16  C11 UNL     1     -10.615  15.807 -17.306  1.00  0.00     0.125 C 
ENDBRANCH  10  12
ENDBRANCH   8  10
ENDBRANCH   1   8
TORSDOF 4
ENDMDL
MODEL 2
REMARK VINA RESULT: -5.345547730      0.119      1.046
REMARK  4 active torsions:
REMARK  status: ('A' for Active; 'I' for Inactive)
REMARK    1  A    between atoms: C2_2  and  C5_5 
REMARK    2  A    between atoms: C5_5  and  N2_8 
REMARK    3  A    between atoms: N2_8  and  C7_10 
REMARK    4  A    between atoms: C7_10  and  N3_12 
ROOT
HETATM    1  C5  UNL     1     -10.667  12.247 -16.274  1.00  0.00     0.198 C 
HETATM    2  C6  UNL     1      -9.793  11.070 -16.483  1.00  0.00     0.085 C 
HETATM    3  N1  UNL     1      -9.081  10.144 -16.631  1.00  0.00    -0.195 NA
ENDROOT
BRANCH   1   4
HETATM    4  C2  UNL     1     -11.492  11.984 -15.073  1.00  0.00    -0.018 C 
HETATM    5  C1  UNL     1     -12.407  10.789 -15.406  1.00  0.00     0.018 C 
HETATM    6  C3  UNL     1     -10.676  11.531 -13.878  1.00  0.00     0.018 C 
HETATM    7  C4  UNL     1     -12.419  13.066 -14.614  1.00  0.00     0.018 C 
ENDBRANCH   1   4
BRANCH   1   8
HETATM    8  N2  UNL     1     -11.264  12.628 -17.475  1.00  0.00    -0.349 N 
ATOM      9  H2  UNL     1     -12.153  12.178 -17.691  1.00  0.00     0.163 HD
BRANCH   8  10
HETATM   10  C7  UNL     1     -10.800  13.550 -18.423  1.00  0.00     0.170 C 
HETATM   11  S1  UNL     1      -9.847  13.110 -19.672  1.00  0.00    -0.041 SA
BRANCH  10  12
HETATM   12  N3  UNL     1     -11.106  14.956 -18.320  1.00  0.00    -0.358 N 
HETATM   13  C8  UNL     1     -11.947  15.642 -19.271  1.00  0.00     0.125 C 
HETATM   14  C9  UNL     1     -11.699  17.082 -18.965  1.00  0.00     0.021 C 
HETATM   15  C10 UNL     1     -11.503  17.066 -17.460  1.00  0.00     0.021 C 
HETATM   16  C11 UNL     1     -10.632  15.821 -17.297  1.00  0.00     0.125 C 
ENDBRANCH  10  12
ENDBRANCH   8  10
ENDBRANCH   1   8
TORSDOF 4
ENDMDL
MODEL 3
REMARK VINA RESULT: -5.267659880      1.128      2.092
REMARK  4 active torsions:
REMARK  status: ('A' for Active; 'I' for Inactive)
REMARK    1  A    between atoms: C2_2  and  C5_5 
REMARK    2  A    between atoms: C5_5  and  N2_8 
REMARK    3  A    between atoms: N2_8  and  C7_10 
REMARK    4  A    between atoms: C7_10  and  N3_12 
ROOT
HETATM    1  C5  UNL     1     -11.531  12.209 -16.344  1.00  0.00     0.198 C 
HETATM    2  C6  UNL     1     -12.801  12.969 -16.276  1.00  0.00     0.085 C 
HETATM    3  N1  UNL     1     -13.823  13.551 -16.229  1.00  0.00    -0.195 NA
ENDROOT
BRANCH   1   4
HETATM    4  C2  UNL     1     -11.361  11.505 -15.052  1.00  0.00    -0.018 C 
HETATM    5  C1  UNL     1     -12.263  10.255 -15.097  1.00  0.00     0.018 C 
HETATM    6  C3  UNL     1      -9.958  10.967 -14.848  1.00  0.00     0.018 C 
HETATM    7  C4  UNL     1     -11.764  12.229 -13.806  1.00  0.00     0.018 C 
ENDBRANCH   1   4
BRANCH   1   8
HETATM    8  N2  UNL     1     -10.511  13.011 -16.853  1.00  0.00    -0.349 N 
ATOM      9  H2  UNL     1      -9.676  13.088 -16.274  1.00  0.00     0.163 HD
BRANCH   8  10
HETATM   10  C7  UNL     1     -10.485  13.724 -18.060  1.00  0.00     0.170 C 
HETATM   11  S1  UNL     1      -9.813  13.116 -19.416  1.00  0.00    -0.041 SA
BRANCH  10  12
HETATM   12  N3  UNL     1     -11.017  15.061 -18.156  1.00  0.00    -0.358 N 
HETATM   13  C8  UNL     1     -11.841  15.494 -19.258  1.00  0.00     0.125 C 
HETATM   14  C9  UNL     1     -11.857  16.979 -19.105  1.00  0.00     0.021 C 
HETATM   15  C10 UNL     1     -11.833  17.152 -17.598  1.00  0.00     0.021 C 
HETATM   16  C11 UNL     1     -10.803  16.095 -17.204  1.00  0.00     0.125 C 
ENDBRANCH  10  12
ENDBRANCH   8  10
ENDBRANCH   1   8
TORSDOF 4
ENDMDL
MODEL 4
REMARK VINA RESULT: -5.250150041      1.096      2.309
REMARK  4 active torsions:
REMARK  status: ('A' for Active; 'I' for Inactive)
REMARK    1  A    between atoms: C2_2  and  C5_5 
REMARK    2  A    between atoms: C5_5  and  N2_8 
REMARK    3  A    between atoms: N2_8  and  C7_10 
REMARK    4  A    between atoms: C7_10  and  N3_12 
ROOT
HETATM    1  C5  UNL     1     -11.502  12.200 -16.431  1.00  0.00     0.198 C 
HETATM    2  C6  UNL     1     -12.774  12.950 -16.320  1.00  0.00     0.085 C 
HETATM    3  N1  UNL     1     -13.799  13.525 -16.238  1.00  0.00    -0.195 NA
ENDROOT
BRANCH   1   4
HETATM    4  C2  UNL     1     -11.286  11.493 -15.148  1.00  0.00    -0.018 C 
HETATM    5  C1  UNL     1     -12.253  10.292 -15.125  1.00  0.00     0.018 C 
HETATM    6  C3  UNL     1      -9.903  10.882 -15.030  1.00  0.00     0.018 C 
HETATM    7  C4  UNL     1     -11.569  12.241 -13.884  1.00  0.00     0.018 C 
ENDBRANCH   1   4
BRANCH   1   8
HETATM    8  N2  UNL     1     -10.505  13.010 -16.971  1.00  0.00    -0.349 N 
ATOM      9  H2  UNL     1      -9.656  13.100 -16.413  1.00  0.00     0.163 HD
BRANCH   8  10
HETATM   10  C7  UNL     1     -10.518  13.716 -18.181  1.00  0.00     0.170 C 
HETATM   11  S1  UNL     1      -9.889  13.100 -19.555  1.00  0.00    -0.041 SA
BRANCH  10  12
HETATM   12  N3  UNL     1     -11.053  15.052 -18.268  1.00  0.00    -0.358 N 
HETATM   13  C8  UNL     1     -10.810  16.056 -17.261  1.00  0.00     0.125 C 
HETATM   14  C9  UNL     1     -11.808  17.116 -17.592  1.00  0.00     0.021 C 
HETATM   15  C10 UNL     1     -11.864  17.050 -19.107  1.00  0.00     0.021 C 
HETATM   16  C11 UNL     1     -11.866  15.538 -19.328  1.00  0.00     0.125 C 
ENDBRANCH  10  12
ENDBRANCH   8  10
ENDBRANCH   1   8
TORSDOF 4
ENDMDL
MODEL 5
REMARK VINA RESULT: -5.235240654      0.098      1.084
REMARK  4 active torsions:
REMARK  status: ('A' for Active; 'I' for Inactive)
REMARK    1  A    between atoms: C2_2  and  C5_5 
REMARK    2  A    between atoms: C5_5  and  N2_8 
REMARK    3  A    between atoms: N2_8  and  C7_10 
REMARK    4  A    between atoms: C7_10  and  N3_12 
ROOT
HETATM    1  C5  UNL     1     -10.740  12.209 -16.252  1.00  0.00     0.198 C 
HETATM    2  C6  UNL     1      -9.823  11.062 -16.444  1.00  0.00     0.085 C 
HETATM    3  N1  UNL     1      -9.078  10.161 -16.578  1.00  0.00    -0.195 NA
ENDROOT
BRANCH   1   4
HETATM    4  C2  UNL     1     -11.611  11.897 -15.096  1.00  0.00    -0.018 C 
HETATM    5  C1  UNL     1     -10.689  11.711 -13.873  1.00  0.00     0.018 C 
HETATM    6  C3  UNL     1     -12.533  13.040 -14.719  1.00  0.00     0.018 C 
HETATM    7  C4  UNL     1     -12.429  10.646 -15.157  1.00  0.00     0.018 C 
ENDBRANCH   1   4
BRANCH   1   8
HETATM    8  N2  UNL     1     -11.293  12.600 -17.470  1.00  0.00    -0.349 N 
ATOM      9  H2  UNL     1     -12.170  12.146 -17.725  1.00  0.00     0.163 HD
BRANCH   8  10
HETATM   10  C7  UNL     1     -10.799  13.535 -18.390  1.00  0.00     0.170 C 
HETATM   11  S1  UNL     1      -9.804  13.112 -19.612  1.00  0.00    -0.041 SA
BRANCH  10  12
HETATM   12  N3  UNL     1     -11.111  14.938 -18.279  1.00  0.00    -0.358 N 
HETATM   13  C8  UNL     1     -11.936  15.631 -19.238  1.00  0.00     0.125 C 
HETATM   14  C9  UNL     1     -11.697  17.069 -18.913  1.00  0.00     0.021 C 
HETATM   15  C10 UNL     1     -11.528  17.039 -17.405  1.00  0.00     0.021 C 
HETATM   16  C11 UNL     1     -10.657  15.795 -17.239  1.00  0.00     0.125 C 
ENDBRANCH  10  12
ENDBRANCH   8  10
ENDBRANCH   1   8
TORSDOF 4
ENDMDL
