MODEL 1
REMARK VINA RESULT: -5.009894631      0.000      0.000
REMARK  5 active torsions:
REMARK  status: ('A' for Active; 'I' for Inactive)
REMARK    1  A    between atoms: C2_2  and  N1_5 
REMARK    2  A    between atoms: N1_5  and  C5_6 
REMARK    3  A    between atoms: C5_6  and  N2_7 
REMARK    4  A    between atoms: C5_6  and  C7_13 
REMARK    5  A    between atoms: N2_7  and  S1_9 
ROOT
HETATM    1  C5  UNL     1     -10.210  13.862 -17.763  1.00  0.00     0.166 C 
ENDROOT
BRANCH   1   2
HETATM    2  N1  UNL     1     -10.530  15.006 -17.730  1.00  0.00    -0.423 NA
BRANCH   2   3
HETATM    3  C2  UNL     1     -11.199  16.172 -17.766  1.00  0.00     0.084 C 
HETATM    4  C1  UNL     1     -12.540  15.982 -17.005  1.00  0.00     0.053 C 
HETATM    5  C3  UNL     1     -11.680  16.677 -19.139  1.00  0.00     0.053 C 
HETATM    6  C4  UNL     1     -10.580  17.383 -17.097  1.00  0.00     0.053 C 
ENDBRANCH   2   3
ENDBRANCH   1   2
BRANCH   1   7
HETATM    7  N2  UNL     1      -9.340  13.357 -18.808  1.00  0.00    -0.262 N 
ATOM      8  H2  UNL     1      -8.358  13.210 -18.574  1.00  0.00     0.181 HD
BRANCH   7   9
HETATM    9  S1  UNL     1      -9.832  12.996 -20.382  1.00  0.00     0.228 S 
HETATM   10  C6  UNL     1     -10.277  11.252 -20.474  1.00  0.00     0.186 C 
HETATM   11  O1  UNL     1      -8.681  13.161 -21.329  1.00  0.00    -0.206 OA
HETATM   12  O2  UNL     1     -11.032  13.742 -20.857  1.00  0.00    -0.206 OA
ENDBRANCH   7   9
ENDBRANCH   1   7
BRANCH   1  13
HETATM   13  C7  UNL     1     -10.633  12.842 -16.784  1.00  0.00     0.021 C 
HETATM   14  C8  UNL     1     -10.934  13.324 -15.413  1.00  0.00     0.024 C 
HETATM   15  C9  UNL     1      -9.589  11.710 -16.744  1.00  0.00     0.024 C 
HETATM   16  C10 UNL     1     -11.913  12.129 -17.266  1.00  0.00     0.024 C 
ENDBRANCH   1  13
TORSDOF 5
ENDMDL
MODEL 2
REMARK VINA RESULT: -4.984224075      1.477      3.694
REMARK  5 active torsions:
REMARK  status: ('A' for Active; 'I' for Inactive)
REMARK    1  A    between atoms: C2_2  and  N1_5 
REMARK    2  A    between atoms: N1_5  and  C5_6 
REMARK    3  A    between atoms: C5_6  and  N2_7 
REMARK    4  A    between atoms: C5_6  and  C7_13 
REMARK    5  A    between atoms: N2_7  and  S1_9 
ROOT
HETATM    1  C5  UNL     1     -10.708  14.436 -17.197  1.00  0.00     0.166 C 
ENDROOT
BRANCH   1   2
HETATM    2  N1  UNL     1     -10.976  13.728 -16.281  1.00  0.00    -0.423 NA
BRANCH   2   3
HETATM    3  C2  UNL     1     -11.402  12.728 -15.491  1.00  0.00     0.084 C 
HETATM    4  C1  UNL     1     -12.613  12.046 -16.187  1.00  0.00     0.053 C 
HETATM    5  C3  UNL     1     -11.992  13.103 -14.119  1.00  0.00     0.053 C 
HETATM    6  C4  UNL     1     -10.459  11.574 -15.211  1.00  0.00     0.053 C 
ENDBRANCH   2   3
ENDBRANCH   1   2
BRANCH   1   7
HETATM    7  N2  UNL     1      -9.697  14.056 -18.166  1.00  0.00    -0.262 N 
ATOM      8  H2  UNL     1      -8.857  14.632 -18.223  1.00  0.00     0.181 HD
BRANCH   7   9
HETATM    9  S1  UNL     1      -9.807  12.732 -19.206  1.00  0.00     0.228 S 
HETATM   10  C6  UNL     1     -11.537  12.458 -19.631  1.00  0.00     0.186 C 
HETATM   11  O1  UNL     1      -9.373  11.484 -18.497  1.00  0.00    -0.206 OA
HETATM   12  O2  UNL     1      -9.095  12.888 -20.507  1.00  0.00    -0.206 OA
ENDBRANCH   7   9
ENDBRANCH   1   7
BRANCH   1  13
HETATM   13  C7  UNL     1     -11.340  15.742 -17.465  1.00  0.00     0.021 C 
HETATM   14  C8  UNL     1     -10.570  16.945 -17.067  1.00  0.00     0.024 C 
HETATM   15  C9  UNL     1     -12.747  15.766 -16.836  1.00  0.00     0.024 C 
HETATM   16  C10 UNL     1     -11.623  15.907 -18.972  1.00  0.00     0.024 C 
ENDBRANCH   1  13
TORSDOF 5
ENDMDL
MODEL 3
REMARK VINA RESULT: -4.947853415      0.998      3.558
REMARK  5 active torsions:
REMARK  status: ('A' for Active; 'I' for Inactive)
REMARK    1  A    between atoms: C2_2  and  N1_5 
REMARK    2  A    between atoms: N1_5  and  C5_6 
REMARK    3  A    between atoms: C5_6  and  N2_7 
REMARK    4  A    between atoms: C5_6  and  C7_13 
REMARK    5  A    between atoms: N2_7  and  S1_9 
ROOT
HETATM    1  C5  UNL     1     -10.822  14.458 -17.762  1.00  0.00     0.166 C 
ENDROOT
BRANCH   1   2
HETATM    2  N1  UNL     1     -10.779  13.674 -16.870  1.00  0.00    -0.423 NA
BRANCH   2   3
HETATM    3  C2  UNL     1     -10.975  12.635 -16.041  1.00  0.00     0.084 C 
HETATM    4  C1  UNL     1     -12.208  11.838 -16.550  1.00  0.00     0.053 C 
HETATM    5  C3  UNL     1     -11.374  12.947 -14.587  1.00  0.00     0.053 C 
HETATM    6  C4  UNL     1      -9.892  11.580 -15.933  1.00  0.00     0.053 C 
ENDBRANCH   2   3
ENDBRANCH   1   2
BRANCH   1   7
HETATM    7  N2  UNL     1     -10.287  14.134 -19.071  1.00  0.00    -0.262 N 
ATOM      8  H2  UNL     1      -9.445  14.626 -19.372  1.00  0.00     0.181 HD
BRANCH   7   9
HETATM    9  S1  UNL     1     -10.953  13.004 -20.133  1.00  0.00     0.228 S 
HETATM   10  C6  UNL     1     -10.201  11.395 -19.828  1.00  0.00     0.186 C 
HETATM   11  O1  UNL     1     -10.587  13.350 -21.545  1.00  0.00    -0.206 OA
HETATM   12  O2  UNL     1     -12.422  12.793 -19.993  1.00  0.00    -0.206 OA
ENDBRANCH   7   9
ENDBRANCH   1   7
BRANCH   1  13
HETATM   13  C7  UNL     1     -11.405  15.810 -17.665  1.00  0.00     0.021 C 
HETATM   14  C8  UNL     1     -10.532  16.868 -17.100  1.00  0.00     0.024 C 
HETATM   15  C9  UNL     1     -12.738  15.738 -16.896  1.00  0.00     0.024 C 
HETATM   16  C10 UNL     1     -11.827  16.318 -19.059  1.00  0.00     0.024 C 
ENDBRANCH   1  13
TORSDOF 5
ENDMDL
MODEL 4
REMARK VINA RESULT: -4.932514226      1.620      3.706
REMARK  5 active torsions:
REMARK  status: ('A' for Active; 'I' for Inactive)
REMARK    1  A    between atoms: C2_2  and  N1_5 
REMARK    2  A    between atoms: N1_5  and  C5_6 
REMARK    3  A    between atoms: C5_6  and  N2_7 
REMARK    4  A    between atoms: C5_6  and  C7_13 
REMARK    5  A    between atoms: N2_7  and  S1_9 
ROOT
HETATM    1  C5  UNL     1     -10.879  13.986 -17.079  1.00  0.00     0.166 C 
ENDROOT
BRANCH   1   2
HETATM    2  N1  UNL     1     -11.131  13.400 -16.076  1.00  0.00    -0.423 NA
BRANCH   2   3
HETATM    3  C2  UNL     1     -11.598  12.542 -15.153  1.00  0.00     0.084 C 
HETATM    4  C1  UNL     1     -12.703  11.675 -15.817  1.00  0.00     0.053 C 
HETATM    5  C3  UNL     1     -12.341  13.133 -13.940  1.00  0.00     0.053 C 
HETATM    6  C4  UNL     1     -10.646  11.517 -14.570  1.00  0.00     0.053 C 
ENDBRANCH   2   3
ENDBRANCH   1   2
BRANCH   1   7
HETATM    7  N2  UNL     1     -10.021  13.401 -18.092  1.00  0.00    -0.262 N 
ATOM      8  H2  UNL     1      -9.116  13.843 -18.257  1.00  0.00     0.181 HD
BRANCH   7   9
HETATM    9  S1  UNL     1     -10.407  12.044 -19.018  1.00  0.00     0.228 S 
HETATM   10  C6  UNL     1      -9.995  10.558 -18.086  1.00  0.00     0.186 C 
HETATM   11  O1  UNL     1      -9.543  11.995 -20.242  1.00  0.00    -0.206 OA
HETATM   12  O2  UNL     1     -11.850  11.909 -19.370  1.00  0.00    -0.206 OA
ENDBRANCH   7   9
ENDBRANCH   1   7
BRANCH   1  13
HETATM   13  C7  UNL     1     -11.384  15.331 -17.418  1.00  0.00     0.021 C 
HETATM   14  C8  UNL     1     -10.504  16.474 -17.075  1.00  0.00     0.024 C 
HETATM   15  C9  UNL     1     -12.784  15.519 -16.803  1.00  0.00     0.024 C 
HETATM   16  C10 UNL     1     -11.644  15.443 -18.934  1.00  0.00     0.024 C 
ENDBRANCH   1  13
TORSDOF 5
ENDMDL
MODEL 5
REMARK VINA RESULT: -4.891810522      0.984      3.567
REMARK  5 active torsions:
REMARK  status: ('A' for Active; 'I' for Inactive)
REMARK    1  A    between atoms: C2_2  and  N1_5 
REMARK    2  A    between atoms: N1_5  and  C5_6 
REMARK    3  A    between atoms: C5_6  and  N2_7 
REMARK    4  A    between atoms: C5_6  and  C7_13 
REMARK    5  A    between atoms: N2_7  and  S1_9 
ROOT
HETATM    1  C5  UNL     1     -10.854  14.451 -17.836  1.00  0.00     0.166 C 
ENDROOT
BRANCH   1   2
HETATM    2  N1  UNL     1     -10.832  13.703 -16.913  1.00  0.00    -0.423 NA
BRANCH   2   3
HETATM    3  C2  UNL     1     -10.966  12.650 -16.089  1.00  0.00     0.084 C 
HETATM    4  C1  UNL     1     -12.180  11.810 -16.572  1.00  0.00     0.053 C 
HETATM    5  C3  UNL     1     -11.337  12.934 -14.622  1.00  0.00     0.053 C 
HETATM    6  C4  UNL     1      -9.840  11.636 -16.020  1.00  0.00     0.053 C 
ENDBRANCH   2   3
ENDBRANCH   1   2
BRANCH   1   7
HETATM    7  N2  UNL     1     -10.280  14.080 -19.116  1.00  0.00    -0.262 N 
ATOM      8  H2  UNL     1      -9.406  14.529 -19.390  1.00  0.00     0.181 HD
BRANCH   7   9
HETATM    9  S1  UNL     1     -10.950  12.958 -20.185  1.00  0.00     0.228 S 
HETATM   10  C6  UNL     1     -10.243  11.334 -19.853  1.00  0.00     0.186 C 
HETATM   11  O1  UNL     1     -10.545  13.285 -21.591  1.00  0.00    -0.206 OA
HETATM   12  O2  UNL     1     -12.426  12.783 -20.075  1.00  0.00    -0.206 OA
ENDBRANCH   7   9
ENDBRANCH   1   7
BRANCH   1  13
HETATM   13  C7  UNL     1     -11.445  15.803 -17.809  1.00  0.00     0.021 C 
HETATM   14  C8  UNL     1     -11.864  16.369 -19.115  1.00  0.00     0.024 C 
HETATM   15  C9  UNL     1     -10.485  16.765 -17.083  1.00  0.00     0.024 C 
HETATM   16  C10 UNL     1     -12.706  15.823 -16.921  1.00  0.00     0.024 C 
ENDBRANCH   1  13
TORSDOF 5
ENDMDL
