MODEL 1
REMARK VINA RESULT: -6.149750414      0.000      0.000
REMARK  3 active torsions:
REMARK  status: ('A' for Active; 'I' for Inactive)
REMARK    1  A    between atoms: C1_2  and  N1_3 
REMARK    2  A    between atoms: C1_2  and  N3_13 
REMARK    3  A    between atoms: N1_3  and  N2_5 
ROOT
HETATM    1  N1  UNL     1     -10.716  13.125 -15.448  1.00  0.00    -0.276 N 
ATOM      2  H1  UNL     1     -10.109  13.640 -14.810  1.00  0.00     0.189 HD
ENDROOT
BRANCH   1   3
HETATM    3  C1  UNL     1     -11.786  13.800 -16.091  1.00  0.00     0.188 C 
HETATM    4  S1  UNL     1     -13.290  13.161 -15.905  1.00  0.00    -0.039 SA
BRANCH   3   5
HETATM    5  N3  UNL     1     -11.579  14.974 -16.863  1.00  0.00    -0.357 N 
HETATM    6  C8  UNL     1     -12.553  15.921 -17.334  1.00  0.00     0.125 C 
HETATM    7  C9  UNL     1     -11.768  17.201 -17.640  1.00  0.00     0.021 C 
HETATM    8  C10 UNL     1     -10.399  16.930 -17.037  1.00  0.00     0.021 C 
HETATM    9  C11 UNL     1     -10.286  15.425 -17.322  1.00  0.00     0.125 C 
ENDBRANCH   3   5
ENDBRANCH   1   3
BRANCH   1  10
HETATM   10  N2  UNL     1     -10.483  11.778 -15.673  1.00  0.00    -0.307 N 
HETATM   11  C2  UNL     1     -10.498  10.957 -14.683  1.00  0.00     0.004 C 
HETATM   12  C3  UNL     1     -10.238   9.534 -15.027  1.00  0.00     0.054 C 
HETATM   13  C7  UNL     1     -10.759  11.451 -13.337  1.00  0.00     0.054 C 
HETATM   14  C4  UNL     1     -10.162   8.693 -13.778  1.00  0.00     0.006 C 
HETATM   15  C5  UNL     1     -11.385   9.081 -12.936  1.00  0.00     0.001 C 
HETATM   16  C6  UNL     1     -11.084  10.410 -12.325  1.00  0.00     0.006 C 
ATOM     17  H2  UNL     1     -10.300  11.440 -16.618  1.00  0.00     0.186 HD
ENDBRANCH   1  10
TORSDOF 3
ENDMDL
MODEL 2
REMARK VINA RESULT: -6.131126244      2.373      5.935
REMARK  3 active torsions:
REMARK  status: ('A' for Active; 'I' for Inactive)
REMARK    1  A    between atoms: C1_2  and  N1_3 
REMARK    2  A    between atoms: C1_2  and  N3_13 
REMARK    3  A    between atoms: N1_3  and  N2_5 
ROOT
HETATM    1  N1  UNL     1      -9.742  13.109 -17.312  1.00  0.00    -0.276 N 
ATOM      2  H1  UNL     1      -8.820  13.487 -17.093  1.00  0.00     0.189 HD
ENDROOT
BRANCH   1   3
HETATM    3  C1  UNL     1     -10.278  12.069 -16.509  1.00  0.00     0.188 C 
HETATM    4  S1  UNL     1      -9.629  10.570 -16.700  1.00  0.00    -0.039 SA
BRANCH   3   5
HETATM    5  N3  UNL     1     -11.326  12.300 -15.580  1.00  0.00    -0.357 N 
HETATM    6  C8  UNL     1     -11.246  12.422 -14.150  1.00  0.00     0.125 C 
HETATM    7  C9  UNL     1     -12.522  13.157 -13.727  1.00  0.00     0.021 C 
HETATM    8  C10 UNL     1     -13.108  13.637 -15.045  1.00  0.00     0.021 C 
HETATM    9  C11 UNL     1     -12.714  12.458 -15.946  1.00  0.00     0.125 C 
ENDBRANCH   3   5
ENDBRANCH   1   3
BRANCH   1  10
HETATM   10  N2  UNL     1     -10.450  13.618 -18.387  1.00  0.00    -0.307 N 
HETATM   11  C2  UNL     1     -10.952  14.800 -18.315  1.00  0.00     0.004 C 
HETATM   12  C3  UNL     1     -11.693  15.257 -19.521  1.00  0.00     0.054 C 
HETATM   13  C7  UNL     1     -10.772  15.591 -17.103  1.00  0.00     0.054 C 
HETATM   14  C4  UNL     1     -12.333  16.600 -19.272  1.00  0.00     0.006 C 
HETATM   15  C5  UNL     1     -11.239  17.477 -18.650  1.00  0.00     0.001 C 
HETATM   16  C6  UNL     1     -11.088  17.038 -17.230  1.00  0.00     0.006 C 
ATOM     17  H2  UNL     1     -10.573  13.060 -19.232  1.00  0.00     0.186 HD
ENDBRANCH   1  10
TORSDOF 3
ENDMDL
MODEL 3
REMARK VINA RESULT: -6.066910926      2.264      5.882
REMARK  3 active torsions:
REMARK  status: ('A' for Active; 'I' for Inactive)
REMARK    1  A    between atoms: C1_2  and  N1_3 
REMARK    2  A    between atoms: C1_2  and  N3_13 
REMARK    3  A    between atoms: N1_3  and  N2_5 
ROOT
HETATM    1  N1  UNL     1      -9.607  12.834 -17.399  1.00  0.00    -0.276 N 
ATOM      2  H1  UNL     1      -9.097  12.603 -18.251  1.00  0.00     0.189 HD
ENDROOT
BRANCH   1   3
HETATM    3  C1  UNL     1     -10.283  11.808 -16.689  1.00  0.00     0.188 C 
HETATM    4  S1  UNL     1      -9.825  10.260 -17.002  1.00  0.00    -0.039 SA
BRANCH   3   5
HETATM    5  N3  UNL     1     -11.309  12.094 -15.751  1.00  0.00    -0.357 N 
HETATM    6  C8  UNL     1     -11.223  12.151 -14.317  1.00  0.00     0.125 C 
HETATM    7  C9  UNL     1     -12.431  12.977 -13.864  1.00  0.00     0.021 C 
HETATM    8  C10 UNL     1     -12.968  13.559 -15.161  1.00  0.00     0.021 C 
HETATM    9  C11 UNL     1     -12.677  12.387 -16.110  1.00  0.00     0.125 C 
ENDBRANCH   3   5
ENDBRANCH   1   3
BRANCH   1  10
HETATM   10  N2  UNL     1      -9.629  14.146 -16.953  1.00  0.00    -0.307 N 
HETATM   11  C2  UNL     1     -10.314  15.024 -17.595  1.00  0.00     0.004 C 
HETATM   12  C3  UNL     1     -10.274  16.402 -17.037  1.00  0.00     0.054 C 
HETATM   13  C7  UNL     1     -11.059  14.633 -18.786  1.00  0.00     0.054 C 
HETATM   14  C4  UNL     1     -11.012  17.360 -17.938  1.00  0.00     0.006 C 
HETATM   15  C5  UNL     1     -12.352  16.686 -18.259  1.00  0.00     0.001 C 
HETATM   16  C6  UNL     1     -12.069  15.615 -19.261  1.00  0.00     0.006 C 
ATOM     17  H2  UNL     1      -9.105  14.413 -16.120  1.00  0.00     0.186 HD
ENDBRANCH   1  10
TORSDOF 3
ENDMDL
MODEL 4
REMARK VINA RESULT: -5.900036830      1.843      6.445
REMARK  3 active torsions:
REMARK  status: ('A' for Active; 'I' for Inactive)
REMARK    1  A    between atoms: C1_2  and  N1_3 
REMARK    2  A    between atoms: C1_2  and  N3_13 
REMARK    3  A    between atoms: N1_3  and  N2_5 
ROOT
HETATM    1  N1  UNL     1     -12.168  12.876 -17.030  1.00  0.00    -0.276 N 
ATOM      2  H1  UNL     1     -13.013  12.972 -16.465  1.00  0.00     0.189 HD
ENDROOT
BRANCH   1   3
HETATM    3  C1  UNL     1     -11.060  12.158 -16.511  1.00  0.00     0.188 C 
HETATM    4  S1  UNL     1      -9.861  11.773 -17.569  1.00  0.00    -0.039 SA
BRANCH   3   5
HETATM    5  N3  UNL     1     -10.979  11.784 -15.144  1.00  0.00    -0.357 N 
HETATM    6  C8  UNL     1     -11.680  12.341 -14.019  1.00  0.00     0.125 C 
HETATM    7  C9  UNL     1     -11.621  11.270 -12.926  1.00  0.00     0.021 C 
HETATM    8  C10 UNL     1     -11.094  10.046 -13.657  1.00  0.00     0.021 C 
HETATM    9  C11 UNL     1     -10.133  10.728 -14.641  1.00  0.00     0.125 C 
ENDBRANCH   3   5
ENDBRANCH   1   3
BRANCH   1  10
HETATM   10  N2  UNL     1     -12.123  13.448 -18.291  1.00  0.00    -0.307 N 
HETATM   11  C2  UNL     1     -12.187  14.727 -18.411  1.00  0.00     0.004 C 
HETATM   12  C3  UNL     1     -12.129  15.244 -19.804  1.00  0.00     0.054 C 
HETATM   13  C7  UNL     1     -12.306  15.561 -17.221  1.00  0.00     0.054 C 
HETATM   14  C4  UNL     1     -12.333  16.737 -19.824  1.00  0.00     0.006 C 
HETATM   15  C5  UNL     1     -11.401  17.301 -18.743  1.00  0.00     0.001 C 
HETATM   16  C6  UNL     1     -12.040  17.010 -17.426  1.00  0.00     0.006 C 
ATOM     17  H2  UNL     1     -12.040  12.858 -19.119  1.00  0.00     0.186 HD
ENDBRANCH   1  10
TORSDOF 3
ENDMDL
MODEL 5
REMARK VINA RESULT: -5.865902970      1.904      6.172
REMARK  3 active torsions:
REMARK  status: ('A' for Active; 'I' for Inactive)
REMARK    1  A    between atoms: C1_2  and  N1_3 
REMARK    2  A    between atoms: C1_2  and  N3_13 
REMARK    3  A    between atoms: N1_3  and  N2_5 
ROOT
HETATM    1  N1  UNL     1      -9.678  13.112 -17.389  1.00  0.00    -0.276 N 
ATOM      2  H1  UNL     1      -8.796  13.567 -17.153  1.00  0.00     0.189 HD
ENDROOT
BRANCH   1   3
HETATM    3  C1  UNL     1     -10.086  11.962 -16.665  1.00  0.00     0.188 C 
HETATM    4  S1  UNL     1      -9.982  10.517 -17.444  1.00  0.00    -0.039 SA
BRANCH   3   5
HETATM    5  N3  UNL     1     -10.564  12.042 -15.331  1.00  0.00    -0.357 N 
HETATM    6  C8  UNL     1     -11.451  13.015 -14.754  1.00  0.00     0.125 C 
HETATM    7  C9  UNL     1     -12.022  12.357 -13.494  1.00  0.00     0.021 C 
HETATM    8  C10 UNL     1     -11.586  10.906 -13.625  1.00  0.00     0.021 C 
HETATM    9  C11 UNL     1     -10.215  11.108 -14.287  1.00  0.00     0.125 C 
ENDBRANCH   3   5
ENDBRANCH   1   3
BRANCH   1  10
HETATM   10  N2  UNL     1     -10.459  13.628 -18.410  1.00  0.00    -0.307 N 
HETATM   11  C2  UNL     1     -10.942  14.816 -18.302  1.00  0.00     0.004 C 
HETATM   12  C3  UNL     1     -11.766  15.279 -19.451  1.00  0.00     0.054 C 
HETATM   13  C7  UNL     1     -10.665  15.605 -17.108  1.00  0.00     0.054 C 
HETATM   14  C4  UNL     1     -12.372  16.628 -19.157  1.00  0.00     0.006 C 
HETATM   15  C5  UNL     1     -11.226  17.495 -18.619  1.00  0.00     0.001 C 
HETATM   16  C6  UNL     1     -10.975  17.056 -17.213  1.00  0.00     0.006 C 
ATOM     17  H2  UNL     1     -10.650  13.071 -19.242  1.00  0.00     0.186 HD
ENDBRANCH   1  10
TORSDOF 3
ENDMDL
