MODEL 1
REMARK VINA RESULT: -6.362941693      0.000      0.000
REMARK  3 active torsions:
REMARK  status: ('A' for Active; 'I' for Inactive)
REMARK    1  A    between atoms: C4_4  and  C5_5 
REMARK    2  A    between atoms: C5_5  and  N1_6 
REMARK    3  A    between atoms: N1_6  and  C6_9 
ROOT
HETATM    1  C6  UNL     1     -10.956  13.791 -17.331  1.00  0.00     0.231 C 
HETATM    2  C7  UNL     1     -11.582  14.744 -16.380  1.00  0.00     0.039 C 
HETATM    3  C8  UNL     1     -12.964  14.327 -15.923  1.00  0.00     0.002 C 
HETATM    4  C9  UNL     1     -12.925  14.133 -14.450  1.00  0.00     0.000 C 
HETATM    5  C10 UNL     1     -12.928  12.671 -14.022  1.00  0.00     0.000 C 
HETATM    6  C11 UNL     1     -11.581  12.082 -13.873  1.00  0.00     0.000 C 
HETATM    7  C12 UNL     1     -10.830  11.717 -15.099  1.00  0.00     0.006 C 
HETATM    8  C13 UNL     1     -11.606  11.433 -16.322  1.00  0.00     0.054 C 
HETATM    9  C14 UNL     1     -11.516  12.451 -17.401  1.00  0.00     0.010 C 
HETATM   10  N2  UNL     1     -11.990  12.146 -18.582  1.00  0.00    -0.404 N 
ATOM     11  H21 UNL     1     -12.383  11.206 -18.631  1.00  0.00     0.155 HD
ATOM     12  H22 UNL     1     -11.929  12.845 -19.322  1.00  0.00     0.155 HD
ENDROOT
BRANCH   1  13
HETATM   13  N1  UNL     1     -10.756  14.376 -18.635  1.00  0.00    -0.063 N 
ATOM     14  H12 UNL     1     -11.136  13.766 -19.359  1.00  0.00     0.278 HD
ATOM     15  H11 UNL     1      -9.767  14.352 -18.887  1.00  0.00     0.278 HD
BRANCH  13  16
HETATM   16  C5  UNL     1     -11.278  15.712 -18.781  1.00  0.00     0.260 C 
BRANCH  16  17
HETATM   17  C4  UNL     1     -12.194  15.741 -19.933  1.00  0.00     0.002 C 
HETATM   18  C2  UNL     1     -12.775  16.874 -20.291  1.00  0.00    -0.090 C 
HETATM   19  C1  UNL     1     -13.711  16.885 -21.474  1.00  0.00     0.042 C 
HETATM   20  C3  UNL     1     -12.515  18.133 -19.539  1.00  0.00     0.042 C 
ENDBRANCH  16  17
ENDBRANCH  13  16
ENDBRANCH   1  13
TORSDOF 3
ENDMDL
MODEL 2
REMARK VINA RESULT: -5.967626786      1.299      5.967
REMARK  3 active torsions:
REMARK  status: ('A' for Active; 'I' for Inactive)
REMARK    1  A    between atoms: C4_4  and  C5_5 
REMARK    2  A    between atoms: C5_5  and  N1_6 
REMARK    3  A    between atoms: N1_6  and  C6_9 
ROOT
HETATM    1  C6  UNL     1     -12.417  14.751 -19.103  1.00  0.00     0.231 C 
HETATM    2  C7  UNL     1     -12.747  16.069 -18.505  1.00  0.00     0.039 C 
HETATM    3  C8  UNL     1     -12.063  17.235 -19.189  1.00  0.00     0.002 C 
HETATM    4  C9  UNL     1     -13.115  18.127 -19.743  1.00  0.00     0.000 C 
HETATM    5  C10 UNL     1     -13.271  18.027 -21.255  1.00  0.00     0.000 C 
HETATM    6  C11 UNL     1     -14.260  17.021 -21.695  1.00  0.00     0.000 C 
HETATM    7  C12 UNL     1     -13.880  15.589 -21.645  1.00  0.00     0.006 C 
HETATM    8  C13 UNL     1     -12.444  15.255 -21.701  1.00  0.00     0.054 C 
HETATM    9  C14 UNL     1     -11.843  14.748 -20.440  1.00  0.00     0.010 C 
HETATM   10  N2  UNL     1     -10.645  14.223 -20.491  1.00  0.00    -0.404 N 
ATOM     11  H21 UNL     1     -10.243  14.222 -21.428  1.00  0.00     0.155 HD
ATOM     12  H22 UNL     1     -10.232  13.876 -19.625  1.00  0.00     0.155 HD
ENDROOT
BRANCH   1  13
HETATM   13  N1  UNL     1     -11.691  13.904 -18.188  1.00  0.00    -0.063 N 
ATOM     14  H12 UNL     1     -10.834  13.564 -18.624  1.00  0.00     0.278 HD
ATOM     15  H11 UNL     1     -12.183  13.020 -18.055  1.00  0.00     0.278 HD
BRANCH  13  16
HETATM   16  C5  UNL     1     -11.397  14.510 -16.912  1.00  0.00     0.260 C 
BRANCH  16  17
HETATM   17  C4  UNL     1     -11.427  13.469 -15.873  1.00  0.00     0.002 C 
HETATM   18  C2  UNL     1     -12.407  13.444 -14.986  1.00  0.00    -0.090 C 
HETATM   19  C1  UNL     1     -12.422  12.369 -13.927  1.00  0.00     0.042 C 
HETATM   20  C3  UNL     1     -13.492  14.463 -15.023  1.00  0.00     0.042 C 
ENDBRANCH  16  17
ENDBRANCH  13  16
ENDBRANCH   1  13
TORSDOF 3
ENDMDL
MODEL 3
REMARK VINA RESULT: -5.854994238      1.930      3.354
REMARK  3 active torsions:
REMARK  status: ('A' for Active; 'I' for Inactive)
REMARK    1  A    between atoms: C4_4  and  C5_5 
REMARK    2  A    between atoms: C5_5  and  N1_6 
REMARK    3  A    between atoms: N1_6  and  C6_9 
ROOT
HETATM    1  C6  UNL     1     -10.842  11.022 -16.055  1.00  0.00     0.231 C 
HETATM    2  C7  UNL     1     -10.927  11.845 -14.823  1.00  0.00     0.039 C 
HETATM    3  C8  UNL     1     -12.262  11.744 -14.115  1.00  0.00     0.002 C 
HETATM    4  C9  UNL     1     -12.025  11.185 -12.758  1.00  0.00     0.000 C 
HETATM    5  C10 UNL     1     -12.445   9.728 -12.613  1.00  0.00     0.000 C 
HETATM    6  C11 UNL     1     -11.373   8.757 -12.915  1.00  0.00     0.000 C 
HETATM    7  C12 UNL     1     -11.025   8.509 -14.336  1.00  0.00     0.006 C 
HETATM    8  C13 UNL     1     -12.058   8.778 -15.355  1.00  0.00     0.054 C 
HETATM    9  C14 UNL     1     -11.826   9.963 -16.221  1.00  0.00     0.010 C 
HETATM   10  N2  UNL     1     -12.580  10.114 -17.280  1.00  0.00    -0.404 N 
ATOM     11  H21 UNL     1     -13.270   9.372 -17.395  1.00  0.00     0.155 HD
ATOM     12  H22 UNL     1     -12.421  10.928 -17.874  1.00  0.00     0.155 HD
ENDROOT
BRANCH   1  13
HETATM   13  N1  UNL     1     -10.696  11.831 -17.241  1.00  0.00    -0.063 N 
ATOM     14  H12 UNL     1     -11.610  12.120 -17.588  1.00  0.00     0.278 HD
ATOM     15  H11 UNL     1     -10.384  11.257 -18.026  1.00  0.00     0.278 HD
BRANCH  13  16
HETATM   16  C5  UNL     1      -9.833  12.976 -17.084  1.00  0.00     0.260 C 
BRANCH  16  17
HETATM   17  C4  UNL     1     -10.273  14.032 -18.011  1.00  0.00     0.002 C 
HETATM   18  C2  UNL     1     -11.082  14.989 -17.591  1.00  0.00    -0.090 C 
HETATM   19  C1  UNL     1     -11.523  16.064 -18.554  1.00  0.00     0.042 C 
HETATM   20  C3  UNL     1     -11.561  15.016 -16.181  1.00  0.00     0.042 C 
ENDBRANCH  16  17
ENDBRANCH  13  16
ENDBRANCH   1  13
TORSDOF 3
ENDMDL
MODEL 4
REMARK VINA RESULT: -5.625352589      1.017      2.503
REMARK  3 active torsions:
REMARK  status: ('A' for Active; 'I' for Inactive)
REMARK    1  A    between atoms: C4_4  and  C5_5 
REMARK    2  A    between atoms: C5_5  and  N1_6 
REMARK    3  A    between atoms: N1_6  and  C6_9 
ROOT
HETATM    1  C6  UNL     1     -11.820  13.649 -17.899  1.00  0.00     0.231 C 
HETATM    2  C7  UNL     1     -11.625  12.201 -17.634  1.00  0.00     0.039 C 
HETATM    3  C8  UNL     1     -10.554  11.912 -16.603  1.00  0.00     0.002 C 
HETATM    4  C9  UNL     1     -11.192  11.213 -15.457  1.00  0.00     0.000 C 
HETATM    5  C10 UNL     1     -11.380  12.093 -14.227  1.00  0.00     0.000 C 
HETATM    6  C11 UNL     1     -12.678  12.797 -14.183  1.00  0.00     0.000 C 
HETATM    7  C12 UNL     1     -12.868  13.983 -15.054  1.00  0.00     0.006 C 
HETATM    8  C13 UNL     1     -11.665  14.721 -15.485  1.00  0.00     0.054 C 
HETATM    9  C14 UNL     1     -11.296  14.585 -16.918  1.00  0.00     0.010 C 
HETATM   10  N2  UNL     1     -10.385  15.392 -17.402  1.00  0.00    -0.404 N 
ATOM     11  H21 UNL     1     -10.018  16.048 -16.713  1.00  0.00     0.155 HD
ATOM     12  H22 UNL     1     -10.132  15.298 -18.385  1.00  0.00     0.155 HD
ENDROOT
BRANCH   1  13
HETATM   13  N1  UNL     1     -11.465  14.008 -19.251  1.00  0.00    -0.063 N 
ATOM     14  H12 UNL     1     -11.008  13.224 -19.717  1.00  0.00     0.278 HD
ATOM     15  H11 UNL     1     -10.699  14.682 -19.249  1.00  0.00     0.278 HD
BRANCH  13  16
HETATM   16  C5  UNL     1     -12.562  14.496 -20.050  1.00  0.00     0.260 C 
BRANCH  16  17
HETATM   17  C4  UNL     1     -12.561  15.968 -20.009  1.00  0.00     0.002 C 
HETATM   18  C2  UNL     1     -13.260  16.657 -20.894  1.00  0.00    -0.090 C 
HETATM   19  C1  UNL     1     -13.247  18.165 -20.837  1.00  0.00     0.042 C 
HETATM   20  C3  UNL     1     -14.056  15.962 -21.943  1.00  0.00     0.042 C 
ENDBRANCH  16  17
ENDBRANCH  13  16
ENDBRANCH   1  13
TORSDOF 3
ENDMDL
MODEL 5
REMARK VINA RESULT: -5.622623328      2.552      6.425
REMARK  3 active torsions:
REMARK  status: ('A' for Active; 'I' for Inactive)
REMARK    1  A    between atoms: C4_4  and  C5_5 
REMARK    2  A    between atoms: C5_5  and  N1_6 
REMARK    3  A    between atoms: N1_6  and  C6_9 
ROOT
HETATM    1  C6  UNL     1     -11.802  13.397 -15.291  1.00  0.00     0.231 C 
HETATM    2  C7  UNL     1     -10.909  12.452 -16.009  1.00  0.00     0.039 C 
HETATM    3  C8  UNL     1     -11.390  12.103 -17.402  1.00  0.00     0.002 C 
HETATM    4  C9  UNL     1     -10.360  12.553 -18.374  1.00  0.00     0.000 C 
HETATM    5  C10 UNL     1     -10.746  13.813 -19.139  1.00  0.00     0.000 C 
HETATM    6  C11 UNL     1     -10.312  15.068 -18.493  1.00  0.00     0.000 C 
HETATM    7  C12 UNL     1     -11.071  15.557 -17.317  1.00  0.00     0.006 C 
HETATM    8  C13 UNL     1     -12.476  15.127 -17.177  1.00  0.00     0.054 C 
HETATM    9  C14 UNL     1     -12.754  14.155 -16.088  1.00  0.00     0.010 C 
HETATM   10  N2  UNL     1     -14.002  13.918 -15.772  1.00  0.00    -0.404 N 
ATOM     11  H21 UNL     1     -14.669  14.449 -16.331  1.00  0.00     0.155 HD
ATOM     12  H22 UNL     1     -14.193  13.250 -15.025  1.00  0.00     0.155 HD
ENDROOT
BRANCH   1  13
HETATM   13  N1  UNL     1     -12.409  12.795 -14.128  1.00  0.00    -0.063 N 
ATOM     14  H12 UNL     1     -13.316  12.396 -14.369  1.00  0.00     0.278 HD
ATOM     15  H11 UNL     1     -12.703  13.516 -13.469  1.00  0.00     0.278 HD
BRANCH  13  16
HETATM   16  C5  UNL     1     -11.589  11.812 -13.464  1.00  0.00     0.260 C 
BRANCH  16  17
HETATM   17  C4  UNL     1     -12.435  10.671 -13.077  1.00  0.00     0.002 C 
HETATM   18  C2  UNL     1     -12.154   9.457 -13.518  1.00  0.00    -0.090 C 
HETATM   19  C1  UNL     1     -13.033   8.299 -13.112  1.00  0.00     0.042 C 
HETATM   20  C3  UNL     1     -10.984   9.223 -14.408  1.00  0.00     0.042 C 
ENDBRANCH  16  17
ENDBRANCH  13  16
ENDBRANCH   1  13
TORSDOF 3
ENDMDL
