MODEL 1
REMARK VINA RESULT: -5.635695350      0.000      0.000
REMARK  6 active torsions:
REMARK  status: ('A' for Active; 'I' for Inactive)
REMARK    1  A    between atoms: C4_4  and  C5_5 
REMARK    2  A    between atoms: C5_5  and  C6_6 
REMARK    3  A    between atoms: C6_6  and  C7_11 
REMARK    4  A    between atoms: N1_7  and  O1_9 
REMARK    5  A    between atoms: C7_11  and  O2_12 
REMARK    6  A    between atoms: C9_15  and  C10_16 
ROOT
HETATM    1  C6  UNL     1     -12.816  14.210 -16.760  1.00  0.00     0.048 C 
HETATM    2  N1  UNL     1     -13.933  14.518 -16.204  1.00  0.00    -0.274 N 
ATOM      3  H1  UNL     1     -14.402  13.798 -15.655  1.00  0.00     0.193 HD
ENDROOT
BRANCH   1   4
HETATM    4  C5  UNL     1     -12.044  15.172 -17.579  1.00  0.00     0.085 C 
BRANCH   4   5
HETATM    5  C4  UNL     1     -12.528  15.244 -18.972  1.00  0.00    -0.019 C 
HETATM    6  C2  UNL     1     -12.613  16.348 -19.702  1.00  0.00    -0.091 C 
HETATM    7  C1  UNL     1     -12.222  17.689 -19.200  1.00  0.00     0.042 C 
HETATM    8  C3  UNL     1     -13.125  16.260 -21.109  1.00  0.00     0.042 C 
ENDBRANCH   4   5
ENDBRANCH   1   4
BRANCH   1   9
HETATM    9  C7  UNL     1     -12.298  12.843 -16.564  1.00  0.00     0.103 A 
HETATM   10  C8  UNL     1     -10.845  12.784 -16.137  1.00  0.00     0.053 A 
HETATM   11  C9  UNL     1     -11.985  12.384 -15.201  1.00  0.00     0.036 A 
BRANCH   9  12
HETATM   12  O2  UNL     1     -12.646  11.955 -17.575  1.00  0.00    -0.383 OA
ATOM     13  H2  UNL     1     -12.524  11.041 -17.346  1.00  0.00     0.211 HD
ENDBRANCH   9  12
BRANCH  11  14
HETATM   14  C10 UNL     1     -11.957  10.931 -14.823  1.00  0.00    -0.044 C 
HETATM   15  C11 UNL     1     -10.821  10.181 -15.472  1.00  0.00     0.015 C 
HETATM   16  C12 UNL     1     -13.243  10.224 -15.237  1.00  0.00     0.015 C 
HETATM   17  C13 UNL     1     -11.768  10.826 -13.325  1.00  0.00     0.015 C 
ENDBRANCH  11  14
ENDBRANCH   1   9
BRANCH   2  18
HETATM   18  O1  UNL     1     -14.535  15.737 -16.293  1.00  0.00    -0.290 OA
ATOM     19  H1  UNL     1     -15.408  15.934 -15.975  1.00  0.00     0.244 HD
ENDBRANCH   2  18
TORSDOF 6
ENDMDL
MODEL 2
REMARK VINA RESULT: -5.515310585      2.353      5.144
REMARK  6 active torsions:
REMARK  status: ('A' for Active; 'I' for Inactive)
REMARK    1  A    between atoms: C4_4  and  C5_5 
REMARK    2  A    between atoms: C5_5  and  C6_6 
REMARK    3  A    between atoms: C6_6  and  C7_11 
REMARK    4  A    between atoms: N1_7  and  O1_9 
REMARK    5  A    between atoms: C7_11  and  O2_12 
REMARK    6  A    between atoms: C9_15  and  C10_16 
ROOT
HETATM    1  C6  UNL     1     -11.968  11.597 -14.418  1.00  0.00     0.048 C 
HETATM    2  N1  UNL     1     -12.381  11.440 -13.211  1.00  0.00    -0.274 N 
ATOM      3  H1  UNL     1     -13.149  12.031 -12.894  1.00  0.00     0.193 HD
ENDROOT
BRANCH   1   4
HETATM    4  C5  UNL     1     -10.860  10.797 -14.988  1.00  0.00     0.085 C 
BRANCH   4   5
HETATM    5  C4  UNL     1     -11.249  10.093 -16.225  1.00  0.00    -0.019 C 
HETATM    6  C2  UNL     1     -10.749  10.321 -17.432  1.00  0.00    -0.091 C 
HETATM    7  C1  UNL     1      -9.706  11.342 -17.702  1.00  0.00     0.042 C 
HETATM    8  C3  UNL     1     -11.247   9.518 -18.597  1.00  0.00     0.042 C 
ENDBRANCH   4   5
ENDBRANCH   1   4
BRANCH   1   9
HETATM    9  C7  UNL     1     -12.633  12.615 -15.251  1.00  0.00     0.103 A 
HETATM   10  C8  UNL     1     -12.786  13.965 -14.579  1.00  0.00     0.053 A 
HETATM   11  C9  UNL     1     -11.846  13.749 -15.764  1.00  0.00     0.036 A 
BRANCH   9  12
HETATM   12  O2  UNL     1     -13.770  12.157 -15.906  1.00  0.00    -0.383 OA
ATOM     13  H2  UNL     1     -13.971  12.626 -16.707  1.00  0.00     0.211 HD
ENDBRANCH   9  12
BRANCH  11  14
HETATM   14  C10 UNL     1     -12.246  14.524 -16.986  1.00  0.00    -0.044 C 
HETATM   15  C11 UNL     1     -13.533  15.288 -16.796  1.00  0.00     0.015 C 
HETATM   16  C12 UNL     1     -12.453  13.606 -18.185  1.00  0.00     0.015 C 
HETATM   17  C13 UNL     1     -11.162  15.537 -17.289  1.00  0.00     0.015 C 
ENDBRANCH  11  14
ENDBRANCH   1   9
BRANCH   2  18
HETATM   18  O1  UNL     1     -11.868  10.542 -12.325  1.00  0.00    -0.290 OA
ATOM     19  H1  UNL     1     -12.363  10.123 -11.629  1.00  0.00     0.244 HD
ENDBRANCH   2  18
TORSDOF 6
ENDMDL
MODEL 3
REMARK VINA RESULT: -5.463944937      2.009      3.018
REMARK  6 active torsions:
REMARK  status: ('A' for Active; 'I' for Inactive)
REMARK    1  A    between atoms: C4_4  and  C5_5 
REMARK    2  A    between atoms: C5_5  and  C6_6 
REMARK    3  A    between atoms: C6_6  and  C7_11 
REMARK    4  A    between atoms: N1_7  and  O1_9 
REMARK    5  A    between atoms: C7_11  and  O2_12 
REMARK    6  A    between atoms: C9_15  and  C10_16 
ROOT
HETATM    1  C6  UNL     1     -12.317  14.200 -19.435  1.00  0.00     0.048 C 
HETATM    2  N1  UNL     1     -13.009  13.215 -19.887  1.00  0.00    -0.274 N 
ATOM      3  H1  UNL     1     -13.340  12.522 -19.217  1.00  0.00     0.193 HD
ENDROOT
BRANCH   1   4
HETATM    4  C5  UNL     1     -11.784  15.266 -20.313  1.00  0.00     0.085 C 
BRANCH   4   5
HETATM    5  C4  UNL     1     -12.811  16.257 -20.687  1.00  0.00    -0.019 C 
HETATM    6  C2  UNL     1     -12.922  17.479 -20.183  1.00  0.00    -0.091 C 
HETATM    7  C1  UNL     1     -12.003  18.022 -19.151  1.00  0.00     0.042 C 
HETATM    8  C3  UNL     1     -14.023  18.376 -20.668  1.00  0.00     0.042 C 
ENDBRANCH   4   5
ENDBRANCH   1   4
BRANCH   1   9
HETATM    9  C7  UNL     1     -12.057  14.255 -17.985  1.00  0.00     0.103 A 
HETATM   10  C8  UNL     1     -13.266  14.626 -17.149  1.00  0.00     0.053 A 
HETATM   11  C9  UNL     1     -12.648  13.228 -17.110  1.00  0.00     0.036 A 
BRANCH   9  12
HETATM   12  O2  UNL     1     -10.885  14.921 -17.645  1.00  0.00    -0.383 OA
ATOM     13  H2  UNL     1     -10.861  15.226 -16.745  1.00  0.00     0.211 HD
ENDBRANCH   9  12
BRANCH  11  14
HETATM   14  C10 UNL     1     -12.069  12.875 -15.771  1.00  0.00    -0.044 C 
HETATM   15  C11 UNL     1     -12.124  14.020 -14.791  1.00  0.00     0.015 C 
HETATM   16  C12 UNL     1     -10.604  12.468 -15.888  1.00  0.00     0.015 C 
HETATM   17  C13 UNL     1     -12.877  11.738 -15.182  1.00  0.00     0.015 C 
ENDBRANCH  11  14
ENDBRANCH   1   9
BRANCH   2  18
HETATM   18  O1  UNL     1     -13.331  13.029 -21.198  1.00  0.00    -0.290 OA
ATOM     19  H1  UNL     1     -14.081  12.533 -21.506  1.00  0.00     0.244 HD
ENDBRANCH   2  18
TORSDOF 6
ENDMDL
MODEL 4
REMARK VINA RESULT: -5.413967051      1.623      5.905
REMARK  6 active torsions:
REMARK  status: ('A' for Active; 'I' for Inactive)
REMARK    1  A    between atoms: C4_4  and  C5_5 
REMARK    2  A    between atoms: C5_5  and  C6_6 
REMARK    3  A    between atoms: C6_6  and  C7_11 
REMARK    4  A    between atoms: N1_7  and  O1_9 
REMARK    5  A    between atoms: C7_11  and  O2_12 
REMARK    6  A    between atoms: C9_15  and  C10_16 
ROOT
HETATM    1  C6  UNL     1     -12.124  13.755 -15.361  1.00  0.00     0.048 C 
HETATM    2  N1  UNL     1     -13.133  14.373 -14.857  1.00  0.00    -0.274 N 
ATOM      3  H1  UNL     1     -13.589  15.081 -15.432  1.00  0.00     0.193 HD
ENDROOT
BRANCH   1   4
HETATM    4  C5  UNL     1     -11.384  12.708 -14.621  1.00  0.00     0.085 C 
BRANCH   4   5
HETATM    5  C4  UNL     1     -11.911  11.354 -14.877  1.00  0.00    -0.019 C 
HETATM    6  C2  UNL     1     -12.326  10.500 -13.951  1.00  0.00    -0.091 C 
HETATM    7  C1  UNL     1     -12.313  10.804 -12.498  1.00  0.00     0.042 C 
HETATM    8  C3  UNL     1     -12.839   9.154 -14.371  1.00  0.00     0.042 C 
ENDBRANCH   4   5
ENDBRANCH   1   4
BRANCH   1   9
HETATM    9  C7  UNL     1     -11.705  14.114 -16.728  1.00  0.00     0.103 A 
HETATM   10  C8  UNL     1     -12.728  13.789 -17.798  1.00  0.00     0.053 A 
HETATM   11  C9  UNL     1     -12.379  15.227 -17.416  1.00  0.00     0.036 A 
BRANCH   9  12
HETATM   12  O2  UNL     1     -10.401  13.744 -17.035  1.00  0.00    -0.383 OA
ATOM     13  H2  UNL     1     -10.229  13.671 -17.967  1.00  0.00     0.211 HD
ENDBRANCH   9  12
BRANCH  11  14
HETATM   14  C10 UNL     1     -11.735  15.995 -18.534  1.00  0.00    -0.044 C 
HETATM   15  C11 UNL     1     -12.624  17.085 -19.080  1.00  0.00     0.015 C 
HETATM   16  C12 UNL     1     -11.386  15.086 -19.706  1.00  0.00     0.015 C 
HETATM   17  C13 UNL     1     -10.483  16.659 -18.002  1.00  0.00     0.015 C 
ENDBRANCH  11  14
ENDBRANCH   1   9
BRANCH   2  18
HETATM   18  O1  UNL     1     -13.636  14.152 -13.611  1.00  0.00    -0.290 OA
ATOM     19  H1  UNL     1     -13.249  14.472 -12.805  1.00  0.00     0.244 HD
ENDBRANCH   2  18
TORSDOF 6
ENDMDL
MODEL 5
REMARK VINA RESULT: -5.400506928      3.045      4.134
REMARK  6 active torsions:
REMARK  status: ('A' for Active; 'I' for Inactive)
REMARK    1  A    between atoms: C4_4  and  C5_5 
REMARK    2  A    between atoms: C5_5  and  C6_6 
REMARK    3  A    between atoms: C6_6  and  C7_11 
REMARK    4  A    between atoms: N1_7  and  O1_9 
REMARK    5  A    between atoms: C7_11  and  O2_12 
REMARK    6  A    between atoms: C9_15  and  C10_16 
ROOT
HETATM    1  C6  UNL     1     -10.871  11.280 -16.201  1.00  0.00     0.048 C 
HETATM    2  N1  UNL     1     -10.264  10.872 -17.258  1.00  0.00    -0.274 N 
ATOM      3  H1  UNL     1     -10.405   9.902 -17.539  1.00  0.00     0.193 HD
ENDROOT
BRANCH   1   4
HETATM    4  C5  UNL     1     -10.743  12.666 -15.697  1.00  0.00     0.085 C 
BRANCH   4   5
HETATM    5  C4  UNL     1     -11.788  13.561 -16.231  1.00  0.00    -0.019 C 
HETATM    6  C2  UNL     1     -12.833  14.017 -15.553  1.00  0.00    -0.091 C 
HETATM    7  C1  UNL     1     -13.094  13.676 -14.132  1.00  0.00     0.042 C 
HETATM    8  C3  UNL     1     -13.812  14.925 -16.237  1.00  0.00     0.042 C 
ENDBRANCH   4   5
ENDBRANCH   1   4
BRANCH   1   9
HETATM    9  C7  UNL     1     -11.723  10.320 -15.477  1.00  0.00     0.103 A 
HETATM   10  C8  UNL     1     -11.264   8.879 -15.584  1.00  0.00     0.053 A 
HETATM   11  C9  UNL     1     -11.195   9.659 -14.271  1.00  0.00     0.036 A 
BRANCH   9  12
HETATM   12  O2  UNL     1     -13.086  10.514 -15.668  1.00  0.00    -0.383 OA
ATOM     13  H2  UNL     1     -13.618  10.292 -14.914  1.00  0.00     0.211 HD
ENDBRANCH   9  12
BRANCH  11  14
HETATM   14  C10 UNL     1     -12.085   9.097 -13.201  1.00  0.00    -0.044 C 
HETATM   15  C11 UNL     1     -13.225   8.282 -13.759  1.00  0.00     0.015 C 
HETATM   16  C12 UNL     1     -12.708  10.203 -12.358  1.00  0.00     0.015 C 
HETATM   17  C13 UNL     1     -11.262   8.178 -12.324  1.00  0.00     0.015 C 
ENDBRANCH  11  14
ENDBRANCH   1   9
BRANCH   2  18
HETATM   18  O1  UNL     1      -9.447  11.641 -18.030  1.00  0.00    -0.290 OA
ATOM     19  H1  UNL     1      -8.932  11.319 -18.762  1.00  0.00     0.244 HD
ENDBRANCH   2  18
TORSDOF 6
ENDMDL
