MODEL 1
REMARK VINA RESULT: -6.806273705      0.000      0.000
REMARK  3 active torsions:
REMARK  status: ('A' for Active; 'I' for Inactive)
REMARK    1  A    between atoms: C1_2  and  C2_3 
REMARK    2  A    between atoms: C2_3  and  C3_4 
REMARK    3  A    between atoms: C4_5  and  C5_6 
ROOT
HETATM    1  C5  UNL     1      -4.272 166.851 399.703  1.00  0.00    -0.013 A 
HETATM    2  C6  UNL     1      -4.655 165.967 400.695  1.00  0.00     0.100 A 
HETATM    3  N1  UNL     1      -5.990 165.976 400.825  1.00  0.00    -0.368 N 
ATOM      4  H1  UNL     1      -6.528 165.415 401.486  1.00  0.00     0.165 HD
HETATM    5  C7  UNL     1      -6.499 166.845 399.940  1.00  0.00     0.016 A 
HETATM    6  C8  UNL     1      -5.434 167.404 399.226  1.00  0.00    -0.024 A 
HETATM    7  C9  UNL     1      -5.742 168.392 398.192  1.00  0.00     0.041 C 
HETATM    8  C10 UNL     1      -6.814 167.783 397.311  1.00  0.00     0.005 C 
HETATM    9  C11 UNL     1      -8.050 167.519 398.102  1.00  0.00     0.006 C 
HETATM   10  C12 UNL     1      -7.855 167.324 399.566  1.00  0.00     0.057 C 
ENDROOT
BRANCH   1  11
HETATM   11  C4  UNL     1      -2.933 167.149 399.242  1.00  0.00     0.009 C 
HETATM   12  C3  UNL     1      -2.519 166.731 398.050  1.00  0.00    -0.025 C 
BRANCH  12  13
HETATM   13  C2  UNL     1      -1.155 167.031 397.571  1.00  0.00     0.038 C 
BRANCH  13  14
HETATM   14  C1  UNL     1      -0.092 166.224 398.293  1.00  0.00     0.089 C 
HETATM   15 BR1  UNL     1       1.503 166.100 397.206  1.00  0.00    -0.096 Br
ENDBRANCH  13  14
ENDBRANCH  12  13
ENDBRANCH   1  11
TORSDOF 3
ENDMDL
MODEL 2
REMARK VINA RESULT: -6.776428236      1.442      2.397
REMARK  3 active torsions:
REMARK  status: ('A' for Active; 'I' for Inactive)
REMARK    1  A    between atoms: C1_2  and  C2_3 
REMARK    2  A    between atoms: C2_3  and  C3_4 
REMARK    3  A    between atoms: C4_5  and  C5_6 
ROOT
HETATM    1  C5  UNL     1      -4.230 168.364 398.883  1.00  0.00    -0.013 A 
HETATM    2  C6  UNL     1      -5.104 169.338 398.435  1.00  0.00     0.100 A 
HETATM    3  N1  UNL     1      -6.370 168.943 398.632  1.00  0.00    -0.368 N 
ATOM      4  H1  UNL     1      -7.205 169.476 398.390  1.00  0.00     0.165 HD
HETATM    5  C7  UNL     1      -6.355 167.728 399.202  1.00  0.00     0.016 A 
HETATM    6  C8  UNL     1      -5.018 167.350 399.366  1.00  0.00    -0.024 A 
HETATM    7  C9  UNL     1      -4.742 166.047 399.974  1.00  0.00     0.041 C 
HETATM    8  C10 UNL     1      -5.558 165.978 401.249  1.00  0.00     0.005 C 
HETATM    9  C11 UNL     1      -7.014 166.062 400.940  1.00  0.00     0.006 C 
HETATM   10  C12 UNL     1      -7.370 166.750 399.668  1.00  0.00     0.057 C 
ENDROOT
BRANCH   1  11
HETATM   11  C4  UNL     1      -2.784 168.384 398.861  1.00  0.00     0.009 C 
HETATM   12  C3  UNL     1      -2.112 167.683 397.953  1.00  0.00    -0.025 C 
BRANCH  12  13
HETATM   13  C2  UNL     1      -0.635 167.696 397.922  1.00  0.00     0.038 C 
BRANCH  13  14
HETATM   14  C1  UNL     1      -0.033 166.335 398.211  1.00  0.00     0.089 C 
HETATM   15 BR1  UNL     1       1.577 166.083 397.169  1.00  0.00    -0.096 Br
ENDBRANCH  13  14
ENDBRANCH  12  13
ENDBRANCH   1  11
TORSDOF 3
ENDMDL
MODEL 3
REMARK VINA RESULT: -6.638194724      1.652      1.758
REMARK  3 active torsions:
REMARK  status: ('A' for Active; 'I' for Inactive)
REMARK    1  A    between atoms: C1_2  and  C2_3 
REMARK    2  A    between atoms: C2_3  and  C3_4 
REMARK    3  A    between atoms: C4_5  and  C5_6 
ROOT
HETATM    1  C5  UNL     1      -5.198 166.400 400.237  1.00  0.00    -0.013 A 
HETATM    2  C6  UNL     1      -5.943 165.651 401.130  1.00  0.00     0.100 A 
HETATM    3  N1  UNL     1      -7.224 166.046 401.103  1.00  0.00    -0.368 N 
ATOM      4  H1  UNL     1      -7.980 165.655 401.666  1.00  0.00     0.165 HD
HETATM    5  C7  UNL     1      -7.345 167.041 400.211  1.00  0.00     0.016 A 
HETATM    6  C8  UNL     1      -6.082 167.276 399.658  1.00  0.00    -0.024 A 
HETATM    7  C9  UNL     1      -5.958 168.329 398.649  1.00  0.00     0.041 C 
HETATM    8  C10 UNL     1      -7.039 168.074 397.618  1.00  0.00     0.005 C 
HETATM    9  C11 UNL     1      -8.389 168.169 398.243  1.00  0.00     0.006 C 
HETATM   10  C12 UNL     1      -8.446 167.901 399.707  1.00  0.00     0.057 C 
ENDROOT
BRANCH   1  11
HETATM   11  C4  UNL     1      -3.783 166.303 399.952  1.00  0.00     0.009 C 
HETATM   12  C3  UNL     1      -3.330 166.458 398.713  1.00  0.00    -0.025 C 
BRANCH  12  13
HETATM   13  C2  UNL     1      -1.888 166.360 398.412  1.00  0.00     0.038 C 
BRANCH  13  14
HETATM   14  C1  UNL     1      -1.248 167.714 398.175  1.00  0.00     0.089 C 
HETATM   15 BR1  UNL     1      -2.318 169.107 398.984  1.00  0.00    -0.096 Br
ENDBRANCH  13  14
ENDBRANCH  12  13
ENDBRANCH   1  11
TORSDOF 3
ENDMDL
MODEL 4
REMARK VINA RESULT: -6.308708497      1.757      2.349
REMARK  3 active torsions:
REMARK  status: ('A' for Active; 'I' for Inactive)
REMARK    1  A    between atoms: C1_2  and  C2_3 
REMARK    2  A    between atoms: C2_3  and  C3_4 
REMARK    3  A    between atoms: C4_5  and  C5_6 
ROOT
HETATM    1  C5  UNL     1      -4.503 168.242 398.775  1.00  0.00    -0.013 A 
HETATM    2  C6  UNL     1      -4.427 169.580 398.432  1.00  0.00     0.100 A 
HETATM    3  N1  UNL     1      -5.660 170.094 398.316  1.00  0.00    -0.368 N 
ATOM      4  H1  UNL     1      -5.883 171.059 398.071  1.00  0.00     0.165 HD
HETATM    5  C7  UNL     1      -6.552 169.126 398.575  1.00  0.00     0.016 A 
HETATM    6  C8  UNL     1      -5.843 167.956 398.865  1.00  0.00    -0.024 A 
HETATM    7  C9  UNL     1      -6.607 166.750 399.184  1.00  0.00     0.041 C 
HETATM    8  C10 UNL     1      -7.610 167.137 400.252  1.00  0.00     0.005 C 
HETATM    9  C11 UNL     1      -8.548 168.173 399.733  1.00  0.00     0.006 C 
HETATM   10  C12 UNL     1      -8.033 169.017 398.619  1.00  0.00     0.057 C 
ENDROOT
BRANCH   1  11
HETATM   11  C4  UNL     1      -3.416 167.315 399.000  1.00  0.00     0.009 C 
HETATM   12  C3  UNL     1      -2.305 167.386 398.274  1.00  0.00    -0.025 C 
BRANCH  12  13
HETATM   13  C2  UNL     1      -1.190 166.444 398.494  1.00  0.00     0.038 C 
BRANCH  13  14
HETATM   14  C1  UNL     1       0.026 166.770 397.648  1.00  0.00     0.089 C 
HETATM   15 BR1  UNL     1       1.501 165.614 398.127  1.00  0.00    -0.096 Br
ENDBRANCH  13  14
ENDBRANCH  12  13
ENDBRANCH   1  11
TORSDOF 3
ENDMDL
MODEL 5
REMARK VINA RESULT: -6.205003817      3.288      5.610
REMARK  3 active torsions:
REMARK  status: ('A' for Active; 'I' for Inactive)
REMARK    1  A    between atoms: C1_2  and  C2_3 
REMARK    2  A    between atoms: C2_3  and  C3_4 
REMARK    3  A    between atoms: C4_5  and  C5_6 
ROOT
HETATM    1  C5  UNL     1      -4.686 166.683 397.970  1.00  0.00    -0.013 A 
HETATM    2  C6  UNL     1      -3.970 165.568 397.575  1.00  0.00     0.100 A 
HETATM    3  N1  UNL     1      -2.662 165.857 397.525  1.00  0.00    -0.368 N 
ATOM      4  H1  UNL     1      -1.918 165.210 397.262  1.00  0.00     0.165 HD
HETATM    5  C7  UNL     1      -2.495 167.140 397.880  1.00  0.00     0.016 A 
HETATM    6  C8  UNL     1      -3.756 167.674 398.162  1.00  0.00    -0.024 A 
HETATM    7  C9  UNL     1      -3.833 169.076 398.576  1.00  0.00     0.041 C 
HETATM    8  C10 UNL     1      -2.828 169.257 399.695  1.00  0.00     0.005 C 
HETATM    9  C11 UNL     1      -1.448 168.978 399.206  1.00  0.00     0.006 C 
HETATM   10  C12 UNL     1      -1.346 168.070 398.030  1.00  0.00     0.057 C 
ENDROOT
BRANCH   1  11
HETATM   11  C4  UNL     1      -6.116 166.808 398.152  1.00  0.00     0.009 C 
HETATM   12  C3  UNL     1      -6.820 167.659 397.413  1.00  0.00    -0.025 C 
BRANCH  12  13
HETATM   13  C2  UNL     1      -8.280 167.794 397.591  1.00  0.00     0.038 C 
BRANCH  13  14
HETATM   14  C1  UNL     1      -8.650 168.909 398.551  1.00  0.00     0.089 C 
HETATM   15 BR1  UNL     1      -7.329 170.319 398.476  1.00  0.00    -0.096 Br
ENDBRANCH  13  14
ENDBRANCH  12  13
ENDBRANCH   1  11
TORSDOF 3
ENDMDL
