MODEL 1
REMARK VINA RESULT: -6.887689139      0.000      0.000
REMARK  4 active torsions:
REMARK  status: ('A' for Active; 'I' for Inactive)
REMARK    1  A    between atoms: C2_2  and  C3_3 
REMARK    2  A    between atoms: C2_2  and  N1_9 
REMARK    3  A    between atoms: C12_14  and  O1_15 
REMARK    4  A    between atoms: C12_14  and  C13_17 
ROOT
HETATM    1  N1  UNL     1      -4.777 168.029 398.869  1.00  0.00    -0.038 N 
HETATM    2  C8  UNL     1      -5.665 169.018 398.265  1.00  0.00     0.244 C 
HETATM    3  C9  UNL     1      -6.802 168.273 397.606  1.00  0.00     0.038 C 
HETATM    4  C10 UNL     1      -6.585 166.891 398.198  1.00  0.00     0.050 C 
HETATM    5  C11 UNL     1      -5.051 166.848 398.048  1.00  0.00     0.251 C 
HETATM    6  C12 UNL     1      -6.742 167.037 399.665  1.00  0.00     0.087 C 
HETATM    7  C15 UNL     1      -5.360 167.567 400.105  1.00  0.00     0.281 C 
ENDROOT
BRANCH   1   8
HETATM    8  C2  UNL     1      -3.458 168.446 398.899  1.00  0.00     0.109 C 
HETATM    9  C1  UNL     1      -3.162 169.505 399.679  1.00  0.00     0.046 C 
BRANCH   8  10
HETATM   10  C3  UNL     1      -2.371 167.804 398.189  1.00  0.00     0.045 C 
HETATM   11  C4  UNL     1      -1.830 166.576 398.937  1.00  0.00     0.013 C 
HETATM   12  C5  UNL     1      -0.545 166.238 398.250  1.00  0.00     0.038 C 
HETATM   13  C6  UNL     1      -0.201 167.418 397.410  1.00  0.00     0.170 C 
HETATM   14  F1  UNL     1      -0.622 167.213 396.110  1.00  0.00    -0.249 F 
HETATM   15  C7  UNL     1      -1.098 168.541 397.959  1.00  0.00     0.048 C 
ENDBRANCH   8  10
ENDBRANCH   1   8
BRANCH   6  16
HETATM   16  O1  UNL     1      -7.706 167.983 400.027  1.00  0.00    -0.388 OA
ATOM     17  H1  UNL     1      -7.650 168.247 400.937  1.00  0.00     0.210 HD
ENDBRANCH   6  16
BRANCH   6  18
HETATM   18  C13 UNL     1      -7.024 165.777 400.410  1.00  0.00     0.035 C 
HETATM   19  C14 UNL     1      -5.861 165.541 401.369  1.00  0.00     0.008 C 
ENDBRANCH   6  18
TORSDOF 4
ENDMDL
MODEL 2
REMARK VINA RESULT: -6.830514349      1.683      3.011
REMARK  4 active torsions:
REMARK  status: ('A' for Active; 'I' for Inactive)
REMARK    1  A    between atoms: C2_2  and  C3_3 
REMARK    2  A    between atoms: C2_2  and  N1_9 
REMARK    3  A    between atoms: C12_14  and  O1_15 
REMARK    4  A    between atoms: C12_14  and  C13_17 
ROOT
HETATM    1  N1  UNL     1      -6.234 167.082 399.329  1.00  0.00    -0.038 N 
HETATM    2  C8  UNL     1      -7.078 165.946 398.968  1.00  0.00     0.244 C 
HETATM    3  C9  UNL     1      -8.480 166.245 399.445  1.00  0.00     0.038 C 
HETATM    4  C10 UNL     1      -8.334 167.722 399.771  1.00  0.00     0.050 C 
HETATM    5  C11 UNL     1      -6.963 167.638 400.472  1.00  0.00     0.251 C 
HETATM    6  C12 UNL     1      -7.983 168.396 398.498  1.00  0.00     0.087 C 
HETATM    7  C15 UNL     1      -6.462 168.153 398.392  1.00  0.00     0.281 C 
ENDROOT
BRANCH   1   8
HETATM    8  C2  UNL     1      -4.924 166.714 399.576  1.00  0.00     0.109 C 
HETATM    9  C1  UNL     1      -4.680 166.007 400.698  1.00  0.00     0.046 C 
BRANCH   8  10
HETATM   10  C3  UNL     1      -3.806 166.996 398.699  1.00  0.00     0.045 C 
HETATM   11  C4  UNL     1      -3.639 165.930 397.606  1.00  0.00     0.013 C 
HETATM   12  C5  UNL     1      -2.292 166.192 397.010  1.00  0.00     0.038 C 
HETATM   13  C6  UNL     1      -1.593 167.109 397.952  1.00  0.00     0.170 C 
HETATM   14  F1  UNL     1      -1.724 168.417 397.524  1.00  0.00    -0.249 F 
HETATM   15  C7  UNL     1      -2.421 167.017 399.246  1.00  0.00     0.048 C 
ENDBRANCH   8  10
ENDBRANCH   1   8
BRANCH   6  16
HETATM   16  O1  UNL     1      -8.595 167.822 397.380  1.00  0.00    -0.388 OA
ATOM     17  H1  UNL     1      -8.375 168.257 396.565  1.00  0.00     0.210 HD
ENDBRANCH   6  16
BRANCH   6  18
HETATM   18  C13 UNL     1      -8.230 169.866 398.460  1.00  0.00     0.035 C 
HETATM   19  C14 UNL     1      -6.876 170.557 398.335  1.00  0.00     0.008 C 
ENDBRANCH   6  18
TORSDOF 4
ENDMDL
MODEL 3
REMARK VINA RESULT: -6.777869621      1.619      2.840
REMARK  4 active torsions:
REMARK  status: ('A' for Active; 'I' for Inactive)
REMARK    1  A    between atoms: C2_2  and  C3_3 
REMARK    2  A    between atoms: C2_2  and  N1_9 
REMARK    3  A    between atoms: C12_14  and  O1_15 
REMARK    4  A    between atoms: C12_14  and  C13_17 
ROOT
HETATM    1  N1  UNL     1      -5.377 167.199 398.931  1.00  0.00    -0.038 N 
HETATM    2  C8  UNL     1      -5.494 166.697 397.565  1.00  0.00     0.244 C 
HETATM    3  C9  UNL     1      -6.961 166.683 397.205  1.00  0.00     0.038 C 
HETATM    4  C10 UNL     1      -7.519 167.506 398.353  1.00  0.00     0.050 C 
HETATM    5  C11 UNL     1      -6.691 166.860 399.482  1.00  0.00     0.251 C 
HETATM    6  C12 UNL     1      -6.893 168.846 398.248  1.00  0.00     0.087 C 
HETATM    7  C15 UNL     1      -5.518 168.634 398.918  1.00  0.00     0.281 C 
ENDROOT
BRANCH   1   8
HETATM    8  C2  UNL     1      -4.290 166.668 399.602  1.00  0.00     0.109 C 
HETATM    9  C1  UNL     1      -4.539 165.972 400.730  1.00  0.00     0.046 C 
BRANCH   8  10
HETATM   10  C3  UNL     1      -2.915 166.770 399.161  1.00  0.00     0.045 C 
HETATM   11  C4  UNL     1      -2.478 168.226 398.942  1.00  0.00     0.013 C 
HETATM   12  C5  UNL     1      -1.182 168.136 398.202  1.00  0.00     0.038 C 
HETATM   13  C6  UNL     1      -1.080 166.734 397.712  1.00  0.00     0.170 C 
HETATM   14  F1  UNL     1      -0.311 165.984 398.580  1.00  0.00    -0.249 F 
HETATM   15  C7  UNL     1      -2.511 166.186 397.852  1.00  0.00     0.048 C 
ENDBRANCH   8  10
ENDBRANCH   1   8
BRANCH   6  16
HETATM   16  O1  UNL     1      -6.676 169.253 396.928  1.00  0.00    -0.388 OA
ATOM     17  H1  UNL     1      -6.842 170.178 396.788  1.00  0.00     0.210 HD
ENDBRANCH   6  16
BRANCH   6  18
HETATM   18  C13 UNL     1      -7.603 169.945 398.963  1.00  0.00     0.035 C 
HETATM   19  C14 UNL     1      -7.166 171.262 398.330  1.00  0.00     0.008 C 
ENDBRANCH   6  18
TORSDOF 4
ENDMDL
MODEL 4
REMARK VINA RESULT: -6.675957810      2.877      5.680
REMARK  4 active torsions:
REMARK  status: ('A' for Active; 'I' for Inactive)
REMARK    1  A    between atoms: C2_2  and  C3_3 
REMARK    2  A    between atoms: C2_2  and  N1_9 
REMARK    3  A    between atoms: C12_14  and  O1_15 
REMARK    4  A    between atoms: C12_14  and  C13_17 
ROOT
HETATM    1  N1  UNL     1      -4.020 167.545 398.306  1.00  0.00    -0.038 N 
HETATM    2  C8  UNL     1      -3.801 168.985 398.425  1.00  0.00     0.244 C 
HETATM    3  C9  UNL     1      -2.710 169.200 399.449  1.00  0.00     0.038 C 
HETATM    4  C10 UNL     1      -2.194 167.778 399.582  1.00  0.00     0.050 C 
HETATM    5  C11 UNL     1      -3.563 167.070 399.614  1.00  0.00     0.251 C 
HETATM    6  C12 UNL     1      -1.685 167.393 398.243  1.00  0.00     0.087 C 
HETATM    7  C15 UNL     1      -2.971 166.976 397.497  1.00  0.00     0.281 C 
ENDROOT
BRANCH   1   8
HETATM    8  C2  UNL     1      -5.326 167.232 397.977  1.00  0.00     0.109 C 
HETATM    9  C1  UNL     1      -5.528 166.124 397.235  1.00  0.00     0.046 C 
BRANCH   8  10
HETATM   10  C3  UNL     1      -6.490 167.980 398.404  1.00  0.00     0.045 C 
HETATM   11  C4  UNL     1      -7.137 167.385 399.664  1.00  0.00     0.013 C 
HETATM   12  C5  UNL     1      -8.466 168.062 399.775  1.00  0.00     0.038 C 
HETATM   13  C6  UNL     1      -8.706 168.722 398.463  1.00  0.00     0.170 C 
HETATM   14  F1  UNL     1      -8.340 170.053 398.528  1.00  0.00    -0.249 F 
HETATM   15  C7  UNL     1      -7.685 168.062 397.520  1.00  0.00     0.048 C 
ENDBRANCH   8  10
ENDBRANCH   1   8
BRANCH   6  16
HETATM   16  O1  UNL     1      -1.101 168.455 397.546  1.00  0.00    -0.388 OA
ATOM     17  H1  UNL     1      -0.169 168.344 397.403  1.00  0.00     0.210 HD
ENDBRANCH   6  16
BRANCH   6  18
HETATM   18  C13 UNL     1      -0.735 166.244 398.222  1.00  0.00     0.035 C 
HETATM   19  C14 UNL     1       0.493 166.678 397.428  1.00  0.00     0.008 C 
ENDBRANCH   6  18
TORSDOF 4
ENDMDL
MODEL 5
REMARK VINA RESULT: -6.663418906      1.459      2.551
REMARK  4 active torsions:
REMARK  status: ('A' for Active; 'I' for Inactive)
REMARK    1  A    between atoms: C2_2  and  C3_3 
REMARK    2  A    between atoms: C2_2  and  N1_9 
REMARK    3  A    between atoms: C12_14  and  O1_15 
REMARK    4  A    between atoms: C12_14  and  C13_17 
ROOT
HETATM    1  N1  UNL     1      -5.258 167.341 398.712  1.00  0.00    -0.038 N 
HETATM    2  C8  UNL     1      -5.701 166.675 397.490  1.00  0.00     0.244 C 
HETATM    3  C9  UNL     1      -7.205 166.553 397.552  1.00  0.00     0.038 C 
HETATM    4  C10 UNL     1      -7.493 167.481 398.720  1.00  0.00     0.050 C 
HETATM    5  C11 UNL     1      -6.345 167.011 399.636  1.00  0.00     0.251 C 
HETATM    6  C12 UNL     1      -7.022 168.825 398.309  1.00  0.00     0.087 C 
HETATM    7  C15 UNL     1      -5.505 168.756 398.592  1.00  0.00     0.281 C 
ENDROOT
BRANCH   1   8
HETATM    8  C2  UNL     1      -3.993 166.942 399.107  1.00  0.00     0.109 C 
HETATM    9  C1  UNL     1      -3.893 166.268 400.270  1.00  0.00     0.046 C 
BRANCH   8  10
HETATM   10  C3  UNL     1      -2.781 167.159 398.345  1.00  0.00     0.045 C 
HETATM   11  C4  UNL     1      -1.697 166.120 398.664  1.00  0.00     0.013 C 
HETATM   12  C5  UNL     1      -0.445 166.665 398.054  1.00  0.00     0.038 C 
HETATM   13  C6  UNL     1      -0.726 168.091 397.733  1.00  0.00     0.170 C 
HETATM   14  F1  UNL     1      -1.090 168.215 396.406  1.00  0.00    -0.249 F 
HETATM   15  C7  UNL     1      -1.998 168.410 398.539  1.00  0.00     0.048 C 
ENDBRANCH   8  10
ENDBRANCH   1   8
BRANCH   6  16
HETATM   16  O1  UNL     1      -7.200 169.083 396.947  1.00  0.00    -0.388 OA
ATOM     17  H1  UNL     1      -7.847 169.756 396.772  1.00  0.00     0.210 HD
ENDBRANCH   6  16
BRANCH   6  18
HETATM   18  C13 UNL     1      -7.593 169.969 399.077  1.00  0.00     0.035 C 
HETATM   19  C14 UNL     1      -7.227 171.250 398.334  1.00  0.00     0.008 C 
ENDBRANCH   6  18
TORSDOF 4
ENDMDL
