MODEL 1
REMARK VINA RESULT: -7.809624367      0.000      0.000
REMARK  3 active torsions:
REMARK  status: ('A' for Active; 'I' for Inactive)
REMARK    1  A    between atoms: C2_2  and  C3_3 
REMARK    2  A    between atoms: C3_3  and  C4_4 
REMARK    3  A    between atoms: C9_9  and  C10_10 
ROOT
HETATM    1  C4  UNL     1      -0.099 166.309 398.248  1.00  0.00     0.009 A 
HETATM    2  C5  UNL     1       0.162 166.958 397.128  1.00  0.00     0.025 A 
HETATM    3  C6  UNL     1      -0.750 167.982 396.663  1.00  0.00     0.004 A 
HETATM    4  C7  UNL     1      -1.871 168.302 397.340  1.00  0.00     0.029 A 
HETATM    5  C8  UNL     1      -2.196 167.616 398.573  1.00  0.00     0.032 A 
HETATM    6  C9  UNL     1      -3.295 167.904 399.270  1.00  0.00     0.030 C 
HETATM    7  N1  UNL     1      -1.266 166.609 398.997  1.00  0.00    -0.360 N 
ATOM      8  H1  UNL     1      -1.448 166.095 399.859  1.00  0.00     0.166 HD
ENDROOT
BRANCH   6   9
HETATM    9  C10 UNL     1      -4.265 168.879 398.927  1.00  0.00     0.008 C 
HETATM   10  C11 UNL     1      -5.379 168.624 398.296  1.00  0.00    -0.046 C 
HETATM   11  C12 UNL     1      -6.277 169.817 398.029  1.00  0.00     0.037 C 
HETATM   12  C17 UNL     1      -5.713 167.268 397.889  1.00  0.00     0.199 C 
HETATM   13  C13 UNL     1      -7.478 169.765 398.940  1.00  0.00     0.004 C 
HETATM   14  C14 UNL     1      -8.113 168.414 399.038  1.00  0.00     0.000 C 
HETATM   15  C15 UNL     1      -7.354 167.396 399.797  1.00  0.00     0.003 C 
HETATM   16  C16 UNL     1      -6.392 166.573 399.021  1.00  0.00     0.042 C 
HETATM   17  F1  UNL     1      -6.477 167.234 396.723  1.00  0.00    -0.245 F 
ENDBRANCH   6   9
BRANCH   1  18
HETATM   18  C3  UNL     1       0.856 165.269 398.692  1.00  0.00     0.056 C 
BRANCH  18  19
HETATM   19  C2  UNL     1       2.258 165.538 398.245  1.00  0.00     0.002 C 
HETATM   20  C1  UNL     1       2.511 164.661 397.017  1.00  0.00     0.005 C 
ENDBRANCH  18  19
ENDBRANCH   1  18
TORSDOF 3
ENDMDL
MODEL 2
REMARK VINA RESULT: -6.990483341      1.447      2.115
REMARK  3 active torsions:
REMARK  status: ('A' for Active; 'I' for Inactive)
REMARK    1  A    between atoms: C2_2  and  C3_3 
REMARK    2  A    between atoms: C3_3  and  C4_4 
REMARK    3  A    between atoms: C9_9  and  C10_10 
ROOT
HETATM    1  C4  UNL     1       0.430 166.296 397.797  1.00  0.00     0.009 A 
HETATM    2  C5  UNL     1       0.509 167.381 397.050  1.00  0.00     0.025 A 
HETATM    3  C6  UNL     1      -0.699 167.976 396.517  1.00  0.00     0.004 A 
HETATM    4  C7  UNL     1      -1.919 167.456 396.761  1.00  0.00     0.029 A 
HETATM    5  C8  UNL     1      -2.052 166.267 397.575  1.00  0.00     0.032 A 
HETATM    6  C9  UNL     1      -3.241 165.723 397.836  1.00  0.00     0.030 C 
HETATM    7  N1  UNL     1      -0.830 165.710 398.081  1.00  0.00    -0.360 N 
ATOM      8  H1  UNL     1      -0.869 164.871 398.660  1.00  0.00     0.166 HD
ENDROOT
BRANCH   6   9
HETATM    9  C10 UNL     1      -4.494 166.204 397.380  1.00  0.00     0.008 C 
HETATM   10  C11 UNL     1      -5.355 166.845 398.124  1.00  0.00    -0.046 C 
HETATM   11  C12 UNL     1      -6.637 167.272 397.434  1.00  0.00     0.037 C 
HETATM   12  C17 UNL     1      -5.074 167.119 399.524  1.00  0.00     0.199 C 
HETATM   13  C13 UNL     1      -6.621 168.763 397.210  1.00  0.00     0.004 C 
HETATM   14  C14 UNL     1      -6.161 169.555 398.394  1.00  0.00     0.000 C 
HETATM   15  C15 UNL     1      -4.717 169.475 398.703  1.00  0.00     0.003 C 
HETATM   16  C16 UNL     1      -4.297 168.390 399.625  1.00  0.00     0.042 C 
HETATM   17  F1  UNL     1      -6.229 167.152 400.304  1.00  0.00    -0.245 F 
ENDBRANCH   6   9
BRANCH   1  18
HETATM   18  C3  UNL     1       1.686 165.715 398.323  1.00  0.00     0.056 C 
BRANCH  18  19
HETATM   19  C2  UNL     1       2.486 165.014 397.271  1.00  0.00     0.002 C 
HETATM   20  C1  UNL     1       3.961 165.226 397.618  1.00  0.00     0.005 C 
ENDBRANCH  18  19
ENDBRANCH   1  18
TORSDOF 3
ENDMDL
MODEL 3
REMARK VINA RESULT: -6.751378713      1.591      2.279
REMARK  3 active torsions:
REMARK  status: ('A' for Active; 'I' for Inactive)
REMARK    1  A    between atoms: C2_2  and  C3_3 
REMARK    2  A    between atoms: C3_3  and  C4_4 
REMARK    3  A    between atoms: C9_9  and  C10_10 
ROOT
HETATM    1  C4  UNL     1      -1.477 166.819 398.384  1.00  0.00     0.009 A 
HETATM    2  C5  UNL     1      -1.504 168.067 398.814  1.00  0.00     0.025 A 
HETATM    3  C6  UNL     1      -2.730 168.832 398.724  1.00  0.00     0.004 A 
HETATM    4  C7  UNL     1      -3.862 168.310 398.210  1.00  0.00     0.029 A 
HETATM    5  C8  UNL     1      -3.878 166.945 397.726  1.00  0.00     0.032 A 
HETATM    6  C9  UNL     1      -4.978 166.395 397.211  1.00  0.00     0.030 C 
HETATM    7  N1  UNL     1      -2.642 166.224 397.834  1.00  0.00    -0.360 N 
ATOM      8  H1  UNL     1      -2.600 165.259 397.507  1.00  0.00     0.166 HD
ENDROOT
BRANCH   6   9
HETATM    9  C10 UNL     1      -6.236 167.030 397.066  1.00  0.00     0.008 C 
HETATM   10  C11 UNL     1      -7.252 166.848 397.866  1.00  0.00    -0.046 C 
HETATM   11  C12 UNL     1      -8.508 167.629 397.529  1.00  0.00     0.037 C 
HETATM   12  C17 UNL     1      -7.156 165.947 399.003  1.00  0.00     0.199 C 
HETATM   13  C13 UNL     1      -8.692 168.750 398.520  1.00  0.00     0.004 C 
HETATM   14  C14 UNL     1      -8.475 168.347 399.945  1.00  0.00     0.000 C 
HETATM   15  C15 UNL     1      -7.072 168.084 400.336  1.00  0.00     0.003 C 
HETATM   16  C16 UNL     1      -6.590 166.690 400.167  1.00  0.00     0.042 C 
HETATM   17  F1  UNL     1      -8.374 165.344 399.312  1.00  0.00    -0.245 F 
ENDBRANCH   6   9
BRANCH   1  18
HETATM   18  C3  UNL     1      -0.206 166.069 398.492  1.00  0.00     0.056 C 
BRANCH  18  19
HETATM   19  C2  UNL     1       0.788 166.457 397.444  1.00  0.00     0.002 C 
HETATM   20  C1  UNL     1       2.014 165.563 397.639  1.00  0.00     0.005 C 
ENDBRANCH  18  19
ENDBRANCH   1  18
TORSDOF 3
ENDMDL
MODEL 4
REMARK VINA RESULT: -6.698033288      1.243      2.241
REMARK  3 active torsions:
REMARK  status: ('A' for Active; 'I' for Inactive)
REMARK    1  A    between atoms: C2_2  and  C3_3 
REMARK    2  A    between atoms: C3_3  and  C4_4 
REMARK    3  A    between atoms: C9_9  and  C10_10 
ROOT
HETATM    1  C4  UNL     1      -1.582 167.380 398.159  1.00  0.00     0.009 A 
HETATM    2  C5  UNL     1      -1.837 166.521 399.129  1.00  0.00     0.025 A 
HETATM    3  C6  UNL     1      -3.099 166.589 399.836  1.00  0.00     0.004 A 
HETATM    4  C7  UNL     1      -4.038 167.510 399.536  1.00  0.00     0.029 A 
HETATM    5  C8  UNL     1      -3.800 168.471 398.479  1.00  0.00     0.032 A 
HETATM    6  C9  UNL     1      -4.704 169.397 398.155  1.00  0.00     0.030 C 
HETATM    7  N1  UNL     1      -2.537 168.369 397.806  1.00  0.00    -0.360 N 
ATOM      8  H1  UNL     1      -2.320 169.023 397.055  1.00  0.00     0.166 HD
ENDROOT
BRANCH   6   9
HETATM    9  C10 UNL     1      -5.971 169.571 398.764  1.00  0.00     0.008 C 
HETATM   10  C11 UNL     1      -7.042 168.894 398.447  1.00  0.00    -0.046 C 
HETATM   11  C12 UNL     1      -8.298 169.239 399.225  1.00  0.00     0.037 C 
HETATM   12  C17 UNL     1      -7.003 167.876 397.409  1.00  0.00     0.199 C 
HETATM   13  C13 UNL     1      -8.612 168.133 400.202  1.00  0.00     0.004 C 
HETATM   14  C14 UNL     1      -8.498 166.757 399.624  1.00  0.00     0.000 C 
HETATM   15  C15 UNL     1      -7.123 166.281 399.356  1.00  0.00     0.003 C 
HETATM   16  C16 UNL     1      -6.569 166.582 398.013  1.00  0.00     0.042 C 
HETATM   17  F1  UNL     1      -8.217 167.755 396.733  1.00  0.00    -0.245 F 
ENDBRANCH   6   9
BRANCH   1  18
HETATM   18  C3  UNL     1      -0.282 167.280 397.460  1.00  0.00     0.056 C 
BRANCH  18  19
HETATM   19  C2  UNL     1       0.612 166.232 398.043  1.00  0.00     0.002 C 
HETATM   20  C1  UNL     1       1.655 165.891 396.977  1.00  0.00     0.005 C 
ENDBRANCH  18  19
ENDBRANCH   1  18
TORSDOF 3
ENDMDL
MODEL 5
REMARK VINA RESULT: -6.435426031      1.675      2.474
REMARK  3 active torsions:
REMARK  status: ('A' for Active; 'I' for Inactive)
REMARK    1  A    between atoms: C2_2  and  C3_3 
REMARK    2  A    between atoms: C3_3  and  C4_4 
REMARK    3  A    between atoms: C9_9  and  C10_10 
ROOT
HETATM    1  C4  UNL     1      -1.154 166.871 397.908  1.00  0.00     0.009 A 
HETATM    2  C5  UNL     1      -1.611 166.198 396.868  1.00  0.00     0.025 A 
HETATM    3  C6  UNL     1      -2.993 165.767 396.842  1.00  0.00     0.004 A 
HETATM    4  C7  UNL     1      -3.844 166.031 397.854  1.00  0.00     0.029 A 
HETATM    5  C8  UNL     1      -3.385 166.767 399.014  1.00  0.00     0.032 A 
HETATM    6  C9  UNL     1      -4.196 167.046 400.035  1.00  0.00     0.030 C 
HETATM    7  N1  UNL     1      -2.009 167.174 398.999  1.00  0.00    -0.360 N 
ATOM      8  H1  UNL     1      -1.636 167.694 399.792  1.00  0.00     0.166 HD
ENDROOT
BRANCH   6   9
HETATM    9  C10 UNL     1      -5.563 166.685 400.134  1.00  0.00     0.008 C 
HETATM   10  C11 UNL     1      -6.556 167.437 399.741  1.00  0.00    -0.046 C 
HETATM   11  C12 UNL     1      -7.944 166.856 399.939  1.00  0.00     0.037 C 
HETATM   12  C17 UNL     1      -6.316 168.744 399.151  1.00  0.00     0.199 C 
HETATM   13  C13 UNL     1      -8.515 166.437 398.608  1.00  0.00     0.004 C 
HETATM   14  C14 UNL     1      -8.322 167.442 397.516  1.00  0.00     0.000 C 
HETATM   15  C15 UNL     1      -6.941 167.583 397.004  1.00  0.00     0.003 C 
HETATM   16  C16 UNL     1      -6.081 168.582 397.686  1.00  0.00     0.042 C 
HETATM   17  F1  UNL     1      -7.345 169.647 399.417  1.00  0.00    -0.245 F 
ENDBRANCH   6   9
BRANCH   1  18
HETATM   18  C3  UNL     1       0.264 167.295 397.899  1.00  0.00     0.056 C 
BRANCH  18  19
HETATM   19  C2  UNL     1       1.168 166.284 397.267  1.00  0.00     0.002 C 
HETATM   20  C1  UNL     1       1.688 165.385 398.392  1.00  0.00     0.005 C 
ENDBRANCH  18  19
ENDBRANCH   1  18
TORSDOF 3
ENDMDL
