MODEL 1
REMARK VINA RESULT: -6.269645690      0.000      0.000
REMARK  3 active torsions:
REMARK  status: ('A' for Active; 'I' for Inactive)
REMARK    1  A    between atoms: C4_5  and  C5_6 
REMARK    2  A    between atoms: C5_6  and  N1_7 
REMARK       I    between atoms: N1_7  and  C6_9 
REMARK    3  A    between atoms: C6_9  and  C7_11 
ROOT
HETATM    1  N1  UNL     1      -3.900 168.247 399.123  1.00  0.00    -0.360 N 
ATOM      2  H1  UNL     1      -4.023 167.439 399.732  1.00  0.00     0.162 HD
HETATM    3  C6  UNL     1      -5.040 169.018 398.813  1.00  0.00     0.222 C 
HETATM    4  O1  UNL     1      -4.912 170.012 398.066  1.00  0.00    -0.273 OA
ENDROOT
BRANCH   3   5
HETATM    5  C7  UNL     1      -6.348 168.664 399.353  1.00  0.00     0.087 C 
HETATM    6  C8  UNL     1      -6.315 167.231 399.908  1.00  0.00     0.024 C 
HETATM    7  C9  UNL     1      -7.758 167.114 399.409  1.00  0.00    -0.039 C 
HETATM    8  C10 UNL     1      -8.765 167.601 400.401  1.00  0.00     0.015 C 
HETATM    9  C11 UNL     1      -8.090 165.805 398.758  1.00  0.00     0.015 C 
HETATM   10  C12 UNL     1      -7.389 168.177 398.379  1.00  0.00    -0.029 C 
HETATM   11  C13 UNL     1      -8.555 169.076 398.142  1.00  0.00     0.016 C 
HETATM   12  C14 UNL     1      -6.840 167.601 397.096  1.00  0.00     0.016 C 
ENDBRANCH   3   5
BRANCH   1  13
HETATM   13  C5  UNL     1      -2.565 168.526 398.634  1.00  0.00     0.129 C 
BRANCH  13  14
HETATM   14  C4  UNL     1      -1.694 167.295 398.566  1.00  0.00     0.028 A 
HETATM   15  C2  UNL     1      -0.759 167.046 397.483  1.00  0.00     0.039 A 
HETATM   16  C1  UNL     1      -0.615 167.905 396.272  1.00  0.00     0.033 C 
HETATM   17 CL1  UNL     1       0.734 166.133 397.895  1.00  0.00    -0.119 Cl
HETATM   18  C3  UNL     1      -2.063 166.264 397.544  1.00  0.00     0.034 A 
ENDBRANCH  13  14
ENDBRANCH   1  13
TORSDOF 3
ENDMDL
MODEL 2
REMARK VINA RESULT: -6.196602180      3.179      6.285
REMARK  3 active torsions:
REMARK  status: ('A' for Active; 'I' for Inactive)
REMARK    1  A    between atoms: C4_5  and  C5_6 
REMARK    2  A    between atoms: C5_6  and  N1_7 
REMARK       I    between atoms: N1_7  and  C6_9 
REMARK    3  A    between atoms: C6_9  and  C7_11 
ROOT
HETATM    1  N1  UNL     1      -5.990 167.306 397.665  1.00  0.00    -0.360 N 
ATOM      2  H1  UNL     1      -5.886 168.310 397.807  1.00  0.00     0.162 HD
HETATM    3  C6  UNL     1      -4.822 166.550 397.430  1.00  0.00     0.222 C 
HETATM    4  O1  UNL     1      -4.926 165.317 397.251  1.00  0.00    -0.273 OA
ENDROOT
BRANCH   3   5
HETATM    5  C7  UNL     1      -3.513 167.193 397.396  1.00  0.00     0.087 C 
HETATM    6  C8  UNL     1      -2.429 166.157 397.054  1.00  0.00     0.024 C 
HETATM    7  C9  UNL     1      -1.523 166.943 398.005  1.00  0.00    -0.039 C 
HETATM    8  C10 UNL     1      -0.814 168.079 397.339  1.00  0.00     0.015 C 
HETATM    9  C11 UNL     1      -0.665 166.094 398.894  1.00  0.00     0.015 C 
HETATM   10  C12 UNL     1      -2.802 167.383 398.710  1.00  0.00    -0.029 C 
HETATM   11  C13 UNL     1      -2.654 168.786 399.193  1.00  0.00     0.016 C 
HETATM   12  C14 UNL     1      -3.233 166.442 399.808  1.00  0.00     0.016 C 
ENDBRANCH   3   5
BRANCH   1  13
HETATM   13  C5  UNL     1      -7.327 166.751 397.718  1.00  0.00     0.129 C 
BRANCH  13  14
HETATM   14  C4  UNL     1      -7.808 166.508 399.128  1.00  0.00     0.028 A 
HETATM   15  C2  UNL     1      -8.253 167.575 400.007  1.00  0.00     0.039 A 
HETATM   16  C1  UNL     1      -8.199 169.028 399.673  1.00  0.00     0.033 C 
HETATM   17 CL1  UNL     1      -9.535 167.162 401.198  1.00  0.00    -0.119 Cl
HETATM   18  C3  UNL     1      -6.892 166.933 400.234  1.00  0.00     0.034 A 
ENDBRANCH  13  14
ENDBRANCH   1  13
TORSDOF 3
ENDMDL
MODEL 3
REMARK VINA RESULT: -5.990735702      0.818      1.591
REMARK  3 active torsions:
REMARK  status: ('A' for Active; 'I' for Inactive)
REMARK    1  A    between atoms: C4_5  and  C5_6 
REMARK    2  A    between atoms: C5_6  and  N1_7 
REMARK       I    between atoms: N1_7  and  C6_9 
REMARK    3  A    between atoms: C6_9  and  C7_11 
ROOT
HETATM    1  N1  UNL     1      -3.889 168.373 398.751  1.00  0.00    -0.360 N 
ATOM      2  H1  UNL     1      -4.288 167.439 398.836  1.00  0.00     0.162 HD
HETATM    3  C6  UNL     1      -4.749 169.423 398.365  1.00  0.00     0.222 C 
HETATM    4  O1  UNL     1      -4.280 170.576 398.252  1.00  0.00    -0.273 OA
ENDROOT
BRANCH   3   5
HETATM    5  C7  UNL     1      -6.161 169.171 398.101  1.00  0.00     0.087 C 
HETATM    6  C8  UNL     1      -7.019 169.768 399.228  1.00  0.00     0.024 C 
HETATM    7  C9  UNL     1      -7.941 168.563 399.026  1.00  0.00    -0.039 C 
HETATM    8  C10 UNL     1      -8.972 168.782 397.965  1.00  0.00     0.015 C 
HETATM    9  C11 UNL     1      -8.455 167.949 400.293  1.00  0.00     0.015 C 
HETATM   10  C12 UNL     1      -6.710 167.827 398.504  1.00  0.00    -0.029 C 
HETATM   11  C13 UNL     1      -7.104 166.907 397.398  1.00  0.00     0.016 C 
HETATM   12  C14 UNL     1      -5.932 167.121 399.587  1.00  0.00     0.016 C 
ENDBRANCH   3   5
BRANCH   1  13
HETATM   13  C5  UNL     1      -2.477 168.533 399.034  1.00  0.00     0.129 C 
BRANCH  13  14
HETATM   14  C4  UNL     1      -1.689 167.261 398.827  1.00  0.00     0.028 A 
HETATM   15  C2  UNL     1      -0.841 167.036 397.670  1.00  0.00     0.039 A 
HETATM   16  C1  UNL     1      -0.719 167.969 396.512  1.00  0.00     0.033 C 
HETATM   17 CL1  UNL     1       0.617 166.014 397.921  1.00  0.00    -0.119 Cl
HETATM   18  C3  UNL     1      -2.184 166.327 397.766  1.00  0.00     0.034 A 
ENDBRANCH  13  14
ENDBRANCH   1  13
TORSDOF 3
ENDMDL
MODEL 4
REMARK VINA RESULT: -5.704986366      1.633      1.987
REMARK  3 active torsions:
REMARK  status: ('A' for Active; 'I' for Inactive)
REMARK    1  A    between atoms: C4_5  and  C5_6 
REMARK    2  A    between atoms: C5_6  and  N1_7 
REMARK       I    between atoms: N1_7  and  C6_9 
REMARK    3  A    between atoms: C6_9  and  C7_11 
ROOT
HETATM    1  N1  UNL     1      -3.751 167.141 399.394  1.00  0.00    -0.360 N 
ATOM      2  H1  UNL     1      -3.642 167.998 398.852  1.00  0.00     0.162 HD
HETATM    3  C6  UNL     1      -5.044 166.812 399.852  1.00  0.00     0.222 C 
HETATM    4  O1  UNL     1      -5.199 165.767 400.521  1.00  0.00    -0.273 OA
ENDROOT
BRANCH   3   5
HETATM    5  C7  UNL     1      -6.182 167.673 399.552  1.00  0.00     0.087 C 
HETATM    6  C8  UNL     1      -7.456 166.825 399.405  1.00  0.00     0.024 C 
HETATM    7  C9  UNL     1      -7.873 167.824 398.322  1.00  0.00    -0.039 C 
HETATM    8  C10 UNL     1      -8.589 169.018 398.867  1.00  0.00     0.015 C 
HETATM    9  C11 UNL     1      -8.501 167.205 397.110  1.00  0.00     0.015 C 
HETATM   10  C12 UNL     1      -6.382 168.078 398.115  1.00  0.00    -0.029 C 
HETATM   11  C13 UNL     1      -6.157 169.516 397.788  1.00  0.00     0.016 C 
HETATM   12  C14 UNL     1      -5.754 167.155 397.101  1.00  0.00     0.016 C 
ENDBRANCH   3   5
BRANCH   1  13
HETATM   13  C5  UNL     1      -2.566 166.346 399.643  1.00  0.00     0.129 C 
BRANCH  13  14
HETATM   14  C4  UNL     1      -1.717 166.153 398.409  1.00  0.00     0.028 A 
HETATM   15  C2  UNL     1      -1.005 167.241 397.762  1.00  0.00     0.039 A 
HETATM   16  C1  UNL     1      -1.099 168.675 398.164  1.00  0.00     0.033 C 
HETATM   17 CL1  UNL     1       0.545 166.826 396.950  1.00  0.00    -0.119 Cl
HETATM   18  C3  UNL     1      -2.269 166.686 397.122  1.00  0.00     0.034 A 
ENDBRANCH  13  14
ENDBRANCH   1  13
TORSDOF 3
ENDMDL
MODEL 5
REMARK VINA RESULT: -5.668080582      1.374      2.180
REMARK  3 active torsions:
REMARK  status: ('A' for Active; 'I' for Inactive)
REMARK    1  A    between atoms: C4_5  and  C5_6 
REMARK    2  A    between atoms: C5_6  and  N1_7 
REMARK       I    between atoms: N1_7  and  C6_9 
REMARK    3  A    between atoms: C6_9  and  C7_11 
ROOT
HETATM    1  N1  UNL     1      -4.146 166.754 397.565  1.00  0.00    -0.360 N 
ATOM      2  H1  UNL     1      -4.627 166.644 396.672  1.00  0.00     0.162 HD
HETATM    3  C6  UNL     1      -4.729 167.607 398.525  1.00  0.00     0.222 C 
HETATM    4  O1  UNL     1      -4.155 167.758 399.626  1.00  0.00    -0.273 OA
ENDROOT
BRANCH   3   5
HETATM    5  C7  UNL     1      -5.979 168.303 398.243  1.00  0.00     0.087 C 
HETATM    6  C8  UNL     1      -6.440 169.079 399.487  1.00  0.00     0.024 C 
HETATM    7  C9  UNL     1      -7.865 168.726 399.054  1.00  0.00    -0.039 C 
HETATM    8  C10 UNL     1      -8.445 169.706 398.084  1.00  0.00     0.015 C 
HETATM    9  C11 UNL     1      -8.778 168.326 400.173  1.00  0.00     0.015 C 
HETATM   10  C12 UNL     1      -7.254 167.510 398.364  1.00  0.00    -0.029 C 
HETATM   11  C13 UNL     1      -7.989 167.227 397.098  1.00  0.00     0.016 C 
HETATM   12  C14 UNL     1      -7.166 166.297 399.258  1.00  0.00     0.016 C 
ENDBRANCH   3   5
BRANCH   1  13
HETATM   13  C5  UNL     1      -2.910 166.024 397.760  1.00  0.00     0.129 C 
BRANCH  13  14
HETATM   14  C4  UNL     1      -1.707 166.741 397.195  1.00  0.00     0.028 A 
HETATM   15  C2  UNL     1      -0.371 166.596 397.745  1.00  0.00     0.039 A 
HETATM   16  C1  UNL     1      -0.038 165.819 398.974  1.00  0.00     0.033 C 
HETATM   17 CL1  UNL     1       1.000 166.729 396.589  1.00  0.00    -0.119 Cl
HETATM   18  C3  UNL     1      -1.157 167.873 398.006  1.00  0.00     0.034 A 
ENDBRANCH  13  14
ENDBRANCH   1  13
TORSDOF 3
ENDMDL
