MODEL 1
REMARK VINA RESULT: -4.930038622      0.000      0.000
REMARK  2 active torsions:
REMARK  status: ('A' for Active; 'I' for Inactive)
REMARK    1  A    between atoms: C1_2  and  C2_3 
REMARK    2  A    between atoms: C2_3  and  C3_4 
ROOT
HETATM    1  C3  UNL     1    -136.632-184.456 298.508  1.00  0.00    -0.008 C 
HETATM    2  C4  UNL     1    -136.013-185.779 298.907  1.00  0.00     0.011 C 
HETATM    3  C5  UNL     1    -136.199-186.702 297.704  1.00  0.00     0.058 C 
HETATM    4  C6  UNL     1    -135.780-186.018 296.469  1.00  0.00     0.016 A 
HETATM    5  N1  UNL     1    -135.570-186.533 295.235  1.00  0.00    -0.367 N 
ATOM      6  H1  UNL     1    -135.684-187.517 294.994  1.00  0.00     0.165 HD
HETATM    7  C7  UNL     1    -135.195-185.582 294.375  1.00  0.00     0.107 A 
HETATM    8  C8  UNL     1    -135.160-184.388 295.084  1.00  0.00     0.034 A 
HETATM    9 BR1  UNL     1    -134.680-182.718 294.299  1.00  0.00    -0.049 Br
HETATM   10  C9  UNL     1    -135.524-184.666 296.385  1.00  0.00    -0.017 A 
HETATM   11  C10 UNL     1    -135.659-183.785 297.575  1.00  0.00     0.046 C 
ENDROOT
BRANCH   1  12
HETATM   12  C2  UNL     1    -136.973-183.607 299.702  1.00  0.00     0.036 C 
BRANCH  12  13
HETATM   13  C1  UNL     1    -138.434-183.241 299.751  1.00  0.00     0.222 C 
HETATM   14  F1  UNL     1    -138.980-183.877 300.860  1.00  0.00    -0.255 F 
ENDBRANCH  12  13
ENDBRANCH   1  12
TORSDOF 2
ENDMDL
MODEL 2
REMARK VINA RESULT: -4.572252493      3.338      4.204
REMARK  2 active torsions:
REMARK  status: ('A' for Active; 'I' for Inactive)
REMARK    1  A    between atoms: C1_2  and  C2_3 
REMARK    2  A    between atoms: C2_3  and  C3_4 
ROOT
HETATM    1  C3  UNL     1    -135.872-183.357 296.647  1.00  0.00    -0.008 C 
HETATM    2  C4  UNL     1    -134.671-183.601 297.537  1.00  0.00     0.011 C 
HETATM    3  C5  UNL     1    -135.147-184.570 298.617  1.00  0.00     0.058 C 
HETATM    4  C6  UNL     1    -135.871-185.698 298.006  1.00  0.00     0.016 A 
HETATM    5  N1  UNL     1    -136.256-186.870 298.563  1.00  0.00    -0.367 N 
ATOM      6  H1  UNL     1    -136.083-187.132 299.533  1.00  0.00     0.165 HD
HETATM    7  C7  UNL     1    -136.894-187.637 297.674  1.00  0.00     0.107 A 
HETATM    8  C8  UNL     1    -136.926-186.929 296.480  1.00  0.00     0.034 A 
HETATM    9 BR1  UNL     1    -137.736-187.598 294.888  1.00  0.00    -0.049 Br
HETATM   10  C9  UNL     1    -136.289-185.724 296.692  1.00  0.00    -0.017 A 
HETATM   11  C10 UNL     1    -136.026-184.579 295.781  1.00  0.00     0.046 C 
ENDROOT
BRANCH   1  12
HETATM   12  C2  UNL     1    -135.736-182.091 295.847  1.00  0.00     0.036 C 
BRANCH  12  13
HETATM   13  C1  UNL     1    -135.359-182.355 294.411  1.00  0.00     0.222 C 
HETATM   14  F1  UNL     1    -133.975-182.484 294.367  1.00  0.00    -0.255 F 
ENDBRANCH  12  13
ENDBRANCH   1  12
TORSDOF 2
ENDMDL
MODEL 3
REMARK VINA RESULT: -4.534812829      1.827      1.959
REMARK  2 active torsions:
REMARK  status: ('A' for Active; 'I' for Inactive)
REMARK    1  A    between atoms: C1_2  and  C2_3 
REMARK    2  A    between atoms: C2_3  and  C3_4 
ROOT
HETATM    1  C3  UNL     1    -137.329-184.074 299.259  1.00  0.00    -0.008 C 
HETATM    2  C4  UNL     1    -135.830-184.207 299.433  1.00  0.00     0.011 C 
HETATM    3  C5  UNL     1    -135.458-185.548 298.803  1.00  0.00     0.058 C 
HETATM    4  C6  UNL     1    -136.074-185.673 297.471  1.00  0.00     0.016 A 
HETATM    5  N1  UNL     1    -135.829-186.579 296.496  1.00  0.00    -0.367 N 
ATOM      6  H1  UNL     1    -135.146-187.334 296.569  1.00  0.00     0.165 HD
HETATM    7  C7  UNL     1    -136.599-186.356 295.428  1.00  0.00     0.107 A 
HETATM    8  C8  UNL     1    -137.385-185.249 295.722  1.00  0.00     0.034 A 
HETATM    9 BR1  UNL     1    -138.665-184.523 294.509  1.00  0.00    -0.049 Br
HETATM   10  C9  UNL     1    -137.054-184.829 296.993  1.00  0.00    -0.017 A 
HETATM   11  C10 UNL     1    -137.567-183.704 297.819  1.00  0.00     0.046 C 
ENDROOT
BRANCH   1  12
HETATM   12  C2  UNL     1    -137.925-183.083 300.220  1.00  0.00     0.036 C 
BRANCH  12  13
HETATM   13  C1  UNL     1    -139.336-182.701 299.853  1.00  0.00     0.222 C 
HETATM   14  F1  UNL     1    -140.126-183.832 300.026  1.00  0.00    -0.255 F 
ENDBRANCH  12  13
ENDBRANCH   1  12
TORSDOF 2
ENDMDL
MODEL 4
REMARK VINA RESULT: -4.462477715      3.283      4.810
REMARK  2 active torsions:
REMARK  status: ('A' for Active; 'I' for Inactive)
REMARK    1  A    between atoms: C1_2  and  C2_3 
REMARK    2  A    between atoms: C2_3  and  C3_4 
ROOT
HETATM    1  C3  UNL     1    -136.161-185.519 296.849  1.00  0.00    -0.008 C 
HETATM    2  C4  UNL     1    -135.849-186.114 298.207  1.00  0.00     0.011 C 
HETATM    3  C5  UNL     1    -135.864-184.941 299.186  1.00  0.00     0.058 C 
HETATM    4  C6  UNL     1    -137.072-184.124 298.981  1.00  0.00     0.016 A 
HETATM    5  N1  UNL     1    -137.584-183.144 299.762  1.00  0.00    -0.367 N 
ATOM      6  H1  UNL     1    -137.171-182.832 300.641  1.00  0.00     0.165 HD
HETATM    7  C7  UNL     1    -138.701-182.639 299.230  1.00  0.00     0.107 A 
HETATM    8  C8  UNL     1    -138.927-183.324 298.043  1.00  0.00     0.034 A 
HETATM    9 BR1  UNL     1    -140.410-182.972 296.898  1.00  0.00    -0.049 Br
HETATM   10  C9  UNL     1    -137.911-184.246 297.894  1.00  0.00    -0.017 A 
HETATM   11  C10 UNL     1    -137.640-185.242 296.825  1.00  0.00     0.046 C 
ENDROOT
BRANCH   1  12
HETATM   12  C2  UNL     1    -135.718-186.414 295.725  1.00  0.00     0.036 C 
BRANCH  12  13
HETATM   13  C1  UNL     1    -135.039-185.652 294.615  1.00  0.00     0.222 C 
HETATM   14  F1  UNL     1    -134.818-184.360 295.079  1.00  0.00    -0.255 F 
ENDBRANCH  12  13
ENDBRANCH   1  12
TORSDOF 2
ENDMDL
MODEL 5
REMARK VINA RESULT: -4.452411889      3.532      4.986
REMARK  2 active torsions:
REMARK  status: ('A' for Active; 'I' for Inactive)
REMARK    1  A    between atoms: C1_2  and  C2_3 
REMARK    2  A    between atoms: C2_3  and  C3_4 
ROOT
HETATM    1  C3  UNL     1    -135.851-184.523 296.778  1.00  0.00    -0.008 C 
HETATM    2  C4  UNL     1    -135.576-185.485 297.914  1.00  0.00     0.011 C 
HETATM    3  C5  UNL     1    -135.724-184.666 299.195  1.00  0.00     0.058 C 
HETATM    4  C6  UNL     1    -136.972-183.883 299.157  1.00  0.00     0.016 A 
HETATM    5  N1  UNL     1    -137.591-183.211 300.156  1.00  0.00    -0.367 N 
ATOM      6  H1  UNL     1    -137.249-183.161 301.115  1.00  0.00     0.165 HD
HETATM    7  C7  UNL     1    -138.708-182.623 299.718  1.00  0.00     0.107 A 
HETATM    8  C8  UNL     1    -138.821-182.927 298.368  1.00  0.00     0.034 A 
HETATM    9 BR1  UNL     1    -140.259-182.316 297.275  1.00  0.00    -0.049 Br
HETATM   10  C9  UNL     1    -137.739-183.710 298.024  1.00  0.00    -0.017 A 
HETATM   11  C10 UNL     1    -137.343-184.323 296.729  1.00  0.00     0.046 C 
ENDROOT
BRANCH   1  12
HETATM   12  C2  UNL     1    -135.288-185.013 295.472  1.00  0.00     0.036 C 
BRANCH  12  13
HETATM   13  C1  UNL     1    -135.599-186.466 295.220  1.00  0.00     0.222 C 
HETATM   14  F1  UNL     1    -134.473-187.032 294.633  1.00  0.00    -0.255 F 
ENDBRANCH  12  13
ENDBRANCH   1  12
TORSDOF 2
ENDMDL
