MODEL 1
REMARK VINA RESULT: -5.200595213      0.000      0.000
REMARK  2 active torsions:
REMARK  status: ('A' for Active; 'I' for Inactive)
REMARK       I    between atoms: C1_2  and  N1_3 
REMARK    1  A    between atoms: C1_2  and  C6_9 
REMARK    2  A    between atoms: N1_3  and  C2_5 
ROOT
HETATM    1  C6  UNL     1    -144.454-182.035 305.618  1.00  0.00     0.085 C 
HETATM    2  C7  UNL     1    -143.699-182.220 304.285  1.00  0.00     0.022 C 
HETATM    3  C8  UNL     1    -143.755-180.798 303.785  1.00  0.00     0.026 C 
HETATM    4  C9  UNL     1    -143.386-180.030 305.065  1.00  0.00     0.016 C 
HETATM    5  C10 UNL     1    -144.742-180.578 305.534  1.00  0.00     0.038 C 
HETATM    6  C11 UNL     1    -145.154-180.334 304.076  1.00  0.00     0.121 C 
HETATM    7 CL1  UNL     1    -146.451-181.407 303.572  1.00  0.00    -0.101 Cl
HETATM    8 CL2  UNL     1    -145.404-178.620 303.719  1.00  0.00    -0.101 Cl
ENDROOT
BRANCH   1   9
HETATM    9  C1  UNL     1    -143.587-182.325 306.770  1.00  0.00     0.222 C 
HETATM   10  O1  UNL     1    -143.804-181.806 307.896  1.00  0.00    -0.273 OA
HETATM   11  N1  UNL     1    -142.469-183.197 306.669  1.00  0.00    -0.356 N 
ATOM     12  H1  UNL     1    -142.270-183.631 305.767  1.00  0.00     0.162 HD
BRANCH  11  13
HETATM   13  C2  UNL     1    -141.610-183.495 307.777  1.00  0.00     0.084 C 
HETATM   14  C3  UNL     1    -140.182-183.074 307.660  1.00  0.00     0.025 C 
HETATM   15  C4  UNL     1    -139.782-184.521 307.966  1.00  0.00     0.004 C 
HETATM   16  C5  UNL     1    -141.211-184.956 307.767  1.00  0.00     0.025 C 
ENDBRANCH  11  13
ENDBRANCH   1   9
TORSDOF 2
ENDMDL
MODEL 2
REMARK VINA RESULT: -4.927623839     10.424     11.372
REMARK  2 active torsions:
REMARK  status: ('A' for Active; 'I' for Inactive)
REMARK       I    between atoms: C1_2  and  N1_3 
REMARK    1  A    between atoms: C1_2  and  C6_9 
REMARK    2  A    between atoms: N1_3  and  C2_5 
ROOT
HETATM    1  C6  UNL     1    -136.162-183.664 297.209  1.00  0.00     0.085 C 
HETATM    2  C7  UNL     1    -137.299-183.594 296.169  1.00  0.00     0.022 C 
HETATM    3  C8  UNL     1    -137.098-184.936 295.511  1.00  0.00     0.026 C 
HETATM    4  C9  UNL     1    -136.902-185.833 296.745  1.00  0.00     0.016 C 
HETATM    5  C10 UNL     1    -135.613-185.008 296.881  1.00  0.00     0.038 C 
HETATM    6  C11 UNL     1    -135.609-185.075 295.347  1.00  0.00     0.121 C 
HETATM    7 CL1  UNL     1    -134.775-183.703 294.632  1.00  0.00    -0.101 Cl
HETATM    8 CL2  UNL     1    -135.124-186.662 294.738  1.00  0.00    -0.101 Cl
ENDROOT
BRANCH   1   9
HETATM    9  C1  UNL     1    -136.689-183.644 298.582  1.00  0.00     0.222 C 
HETATM   10  O1  UNL     1    -136.040-184.143 299.538  1.00  0.00    -0.273 OA
HETATM   11  N1  UNL     1    -137.949-183.065 298.894  1.00  0.00    -0.356 N 
ATOM     12  H1  UNL     1    -138.498-182.654 298.139  1.00  0.00     0.162 HD
BRANCH  11  13
HETATM   13  C2  UNL     1    -138.484-183.033 300.224  1.00  0.00     0.084 C 
HETATM   14  C3  UNL     1    -139.916-183.428 300.388  1.00  0.00     0.025 C 
HETATM   15  C4  UNL     1    -140.151-182.091 301.099  1.00  0.00     0.004 C 
HETATM   16  C5  UNL     1    -138.799-181.611 300.640  1.00  0.00     0.025 C 
ENDBRANCH  11  13
ENDBRANCH   1   9
TORSDOF 2
ENDMDL
MODEL 3
REMARK VINA RESULT: -4.909039171      7.117      7.906
REMARK  2 active torsions:
REMARK  status: ('A' for Active; 'I' for Inactive)
REMARK       I    between atoms: C1_2  and  N1_3 
REMARK    1  A    between atoms: C1_2  and  C6_9 
REMARK    2  A    between atoms: N1_3  and  C2_5 
ROOT
HETATM    1  C6  UNL     1    -139.653-181.422 300.855  1.00  0.00     0.085 C 
HETATM    2  C7  UNL     1    -141.177-181.489 301.082  1.00  0.00     0.022 C 
HETATM    3  C8  UNL     1    -141.606-180.419 300.108  1.00  0.00     0.026 C 
HETATM    4  C9  UNL     1    -140.741-180.781 298.888  1.00  0.00     0.016 C 
HETATM    5  C10 UNL     1    -139.605-180.348 299.827  1.00  0.00     0.038 C 
HETATM    6  C11 UNL     1    -140.622-179.299 300.297  1.00  0.00     0.121 C 
HETATM    7 CL1  UNL     1    -140.327-178.795 301.955  1.00  0.00    -0.101 Cl
HETATM    8 CL2  UNL     1    -140.833-177.987 299.131  1.00  0.00    -0.101 Cl
ENDROOT
BRANCH   1   9
HETATM    9  C1  UNL     1    -139.136-182.685 300.305  1.00  0.00     0.222 C 
HETATM   10  O1  UNL     1    -139.849-183.722 300.272  1.00  0.00    -0.273 OA
HETATM   11  N1  UNL     1    -137.816-182.796 299.790  1.00  0.00    -0.356 N 
ATOM     12  H1  UNL     1    -137.216-181.971 299.805  1.00  0.00     0.162 HD
BRANCH  11  13
HETATM   13  C2  UNL     1    -137.290-184.015 299.249  1.00  0.00     0.084 C 
HETATM   14  C3  UNL     1    -135.811-184.210 299.330  1.00  0.00     0.025 C 
HETATM   15  C4  UNL     1    -135.811-184.452 297.817  1.00  0.00     0.004 C 
HETATM   16  C5  UNL     1    -137.228-183.946 297.737  1.00  0.00     0.025 C 
ENDBRANCH  11  13
ENDBRANCH   1   9
TORSDOF 2
ENDMDL
MODEL 4
REMARK VINA RESULT: -4.859340482      9.245     10.362
REMARK  2 active torsions:
REMARK  status: ('A' for Active; 'I' for Inactive)
REMARK       I    between atoms: C1_2  and  N1_3 
REMARK    1  A    between atoms: C1_2  and  C6_9 
REMARK    2  A    between atoms: N1_3  and  C2_5 
ROOT
HETATM    1  C6  UNL     1    -137.078-184.569 299.100  1.00  0.00     0.085 C 
HETATM    2  C7  UNL     1    -135.536-184.598 299.153  1.00  0.00     0.022 C 
HETATM    3  C8  UNL     1    -135.249-184.480 297.677  1.00  0.00     0.026 C 
HETATM    4  C9  UNL     1    -136.233-183.365 297.282  1.00  0.00     0.016 C 
HETATM    5  C10 UNL     1    -137.269-184.444 297.630  1.00  0.00     0.038 C 
HETATM    6  C11 UNL     1    -136.237-185.396 297.010  1.00  0.00     0.121 C 
HETATM    7 CL1  UNL     1    -136.360-187.019 297.670  1.00  0.00    -0.101 Cl
HETATM    8 CL2  UNL     1    -136.195-185.294 295.245  1.00  0.00    -0.101 Cl
ENDROOT
BRANCH   1   9
HETATM    9  C1  UNL     1    -137.616-183.388 299.792  1.00  0.00     0.222 C 
HETATM   10  O1  UNL     1    -136.933-182.764 300.645  1.00  0.00    -0.273 OA
HETATM   11  N1  UNL     1    -138.925-182.897 299.534  1.00  0.00    -0.356 N 
ATOM     12  H1  UNL     1    -139.501-183.384 298.847  1.00  0.00     0.162 HD
BRANCH  11  13
HETATM   13  C2  UNL     1    -139.472-181.749 300.196  1.00  0.00     0.084 C 
HETATM   14  C3  UNL     1    -140.314-182.000 301.404  1.00  0.00     0.025 C 
HETATM   15  C4  UNL     1    -141.423-181.176 300.740  1.00  0.00     0.004 C 
HETATM   16  C5  UNL     1    -140.668-181.214 299.436  1.00  0.00     0.025 C 
ENDBRANCH  11  13
ENDBRANCH   1   9
TORSDOF 2
ENDMDL
MODEL 5
REMARK VINA RESULT: -4.857732911      9.486     10.495
REMARK  2 active torsions:
REMARK  status: ('A' for Active; 'I' for Inactive)
REMARK       I    between atoms: C1_2  and  N1_3 
REMARK    1  A    between atoms: C1_2  and  C6_9 
REMARK    2  A    between atoms: N1_3  and  C2_5 
ROOT
HETATM    1  C6  UNL     1    -137.705-184.544 298.161  1.00  0.00     0.085 C 
HETATM    2  C7  UNL     1    -136.377-184.127 298.828  1.00  0.00     0.022 C 
HETATM    3  C8  UNL     1    -135.570-183.845 297.586  1.00  0.00     0.026 C 
HETATM    4  C9  UNL     1    -136.589-183.043 296.759  1.00  0.00     0.016 C 
HETATM    5  C10 UNL     1    -137.317-184.394 296.733  1.00  0.00     0.038 C 
HETATM    6  C11 UNL     1    -135.897-184.967 296.641  1.00  0.00     0.121 C 
HETATM    7 CL1  UNL     1    -135.799-186.592 297.301  1.00  0.00    -0.101 Cl
HETATM    8 CL2  UNL     1    -135.181-184.754 295.038  1.00  0.00    -0.101 Cl
ENDROOT
BRANCH   1   9
HETATM    9  C1  UNL     1    -138.791-183.613 298.501  1.00  0.00     0.222 C 
HETATM   10  O1  UNL     1    -139.881-183.625 297.872  1.00  0.00    -0.273 OA
HETATM   11  N1  UNL     1    -138.664-182.661 299.550  1.00  0.00    -0.356 N 
ATOM     12  H1  UNL     1    -137.791-182.629 300.076  1.00  0.00     0.162 HD
BRANCH  11  13
HETATM   13  C2  UNL     1    -139.709-181.744 299.900  1.00  0.00     0.084 C 
HETATM   14  C3  UNL     1    -139.292-180.426 300.467  1.00  0.00     0.025 C 
HETATM   15  C4  UNL     1    -140.205-180.709 301.665  1.00  0.00     0.004 C 
HETATM   16  C5  UNL     1    -140.349-182.139 301.214  1.00  0.00     0.025 C 
ENDBRANCH  11  13
ENDBRANCH   1   9
TORSDOF 2
ENDMDL
