MODEL 1
REMARK VINA RESULT: -4.180252568      0.000      0.000
REMARK  2 active torsions:
REMARK  status: ('A' for Active; 'I' for Inactive)
REMARK    1  A    between atoms: C2_2  and  C3_3 
REMARK    2  A    between atoms: C7_7  and  C8_8 
ROOT
HETATM    1  C3  UNL     1    -137.320-184.151 298.200  1.00  0.00    -0.022 C 
HETATM    2  C4  UNL     1    -136.240-184.067 299.298  1.00  0.00     0.017 C 
HETATM    3  C5  UNL     1    -137.321-185.496 297.536  1.00  0.00     0.005 C 
HETATM    4  C6  UNL     1    -136.151-186.384 297.844  1.00  0.00     0.011 C 
HETATM    5  C7  UNL     1    -137.279-184.786 296.214  1.00  0.00     0.099 C 
HETATM    6  C9  UNL     1    -136.802-183.558 296.926  1.00  0.00     0.034 C 
HETATM    7  C10 UNL     1    -137.442-182.322 296.409  1.00  0.00     0.029 C 
HETATM    8 BR1  UNL     1    -134.866-183.284 296.937  1.00  0.00    -0.084 Br
ENDROOT
BRANCH   1   9
HETATM    9  C2  UNL     1    -138.578-183.671 298.797  1.00  0.00     0.006 C 
HETATM   10  C1  UNL     1    -138.600-183.177 300.186  1.00  0.00     0.006 C 
ENDBRANCH   1   9
BRANCH   5  11
HETATM   11  C8  UNL     1    -136.464-185.448 295.230  1.00  0.00     0.237 C 
HETATM   12  N1  UNL     1    -135.111-185.300 294.901  1.00  0.00    -0.062 NA
HETATM   13  O1  UNL     1    -137.057-186.345 294.505  1.00  0.00    -0.276 OA
ENDBRANCH   5  11
TORSDOF 2
ENDMDL
MODEL 2
REMARK VINA RESULT: -4.118679762      2.533      4.105
REMARK  2 active torsions:
REMARK  status: ('A' for Active; 'I' for Inactive)
REMARK    1  A    between atoms: C2_2  and  C3_3 
REMARK    2  A    between atoms: C7_7  and  C8_8 
ROOT
HETATM    1  C3  UNL     1    -136.003-184.519 296.309  1.00  0.00    -0.022 C 
HETATM    2  C4  UNL     1    -134.965-183.476 296.768  1.00  0.00     0.017 C 
HETATM    3  C5  UNL     1    -137.309-183.873 295.956  1.00  0.00     0.005 C 
HETATM    4  C6  UNL     1    -137.463-182.434 296.357  1.00  0.00     0.011 C 
HETATM    5  C7  UNL     1    -137.987-184.878 296.841  1.00  0.00     0.099 C 
HETATM    6  C9  UNL     1    -136.667-185.139 297.499  1.00  0.00     0.034 C 
HETATM    7  C10 UNL     1    -136.445-186.584 297.762  1.00  0.00     0.029 C 
HETATM    8 BR1  UNL     1    -136.341-184.159 299.159  1.00  0.00    -0.084 Br
ENDROOT
BRANCH   1   9
HETATM    9  C2  UNL     1    -135.347-185.359 295.291  1.00  0.00     0.006 C 
HETATM   10  C1  UNL     1    -134.809-184.749 294.061  1.00  0.00     0.006 C 
ENDBRANCH   1   9
BRANCH   5  11
HETATM   11  C8  UNL     1    -139.101-184.341 297.578  1.00  0.00     0.237 C 
HETATM   12  N1  UNL     1    -139.152-183.611 298.771  1.00  0.00    -0.062 NA
HETATM   13  O1  UNL     1    -140.277-184.552 297.072  1.00  0.00    -0.276 OA
ENDBRANCH   5  11
TORSDOF 2
ENDMDL
MODEL 3
REMARK VINA RESULT: -4.048751914      2.533      3.373
REMARK  2 active torsions:
REMARK  status: ('A' for Active; 'I' for Inactive)
REMARK    1  A    between atoms: C2_2  and  C3_3 
REMARK    2  A    between atoms: C7_7  and  C8_8 
ROOT
HETATM    1  C3  UNL     1    -136.303-185.171 296.913  1.00  0.00    -0.022 C 
HETATM    2  C4  UNL     1    -136.624-185.038 298.415  1.00  0.00     0.017 C 
HETATM    3  C5  UNL     1    -135.100-184.360 296.536  1.00  0.00     0.005 C 
HETATM    4  C6  UNL     1    -134.609-183.388 297.570  1.00  0.00     0.011 C 
HETATM    5  C7  UNL     1    -135.909-183.775 295.415  1.00  0.00     0.099 C 
HETATM    6  C9  UNL     1    -137.151-184.223 296.123  1.00  0.00     0.034 C 
HETATM    7  C10 UNL     1    -138.159-184.785 295.188  1.00  0.00     0.029 C 
HETATM    8 BR1  UNL     1    -138.030-182.872 297.229  1.00  0.00    -0.084 Br
ENDROOT
BRANCH   1   9
HETATM    9  C2  UNL     1    -136.294-186.612 296.602  1.00  0.00     0.006 C 
HETATM   10  C1  UNL     1    -136.854-187.581 297.561  1.00  0.00     0.006 C 
ENDBRANCH   1   9
BRANCH   5  11
HETATM   11  C8  UNL     1    -135.642-182.380 295.178  1.00  0.00     0.237 C 
HETATM   12  N1  UNL     1    -136.310-181.227 295.605  1.00  0.00    -0.062 NA
HETATM   13  O1  UNL     1    -134.607-182.113 294.443  1.00  0.00    -0.276 OA
ENDBRANCH   5  11
TORSDOF 2
ENDMDL
MODEL 4
REMARK VINA RESULT: -4.020986133      2.721      4.315
REMARK  2 active torsions:
REMARK  status: ('A' for Active; 'I' for Inactive)
REMARK    1  A    between atoms: C2_2  and  C3_3 
REMARK    2  A    between atoms: C7_7  and  C8_8 
ROOT
HETATM    1  C3  UNL     1    -135.938-185.504 295.089  1.00  0.00    -0.022 C 
HETATM    2  C4  UNL     1    -137.256-185.681 294.310  1.00  0.00     0.017 C 
HETATM    3  C5  UNL     1    -135.928-186.327 296.342  1.00  0.00     0.005 C 
HETATM    4  C6  UNL     1    -137.242-186.930 296.746  1.00  0.00     0.011 C 
HETATM    5  C7  UNL     1    -135.514-185.092 297.089  1.00  0.00     0.099 C 
HETATM    6  C9  UNL     1    -136.006-184.271 295.936  1.00  0.00     0.034 C 
HETATM    7  C10 UNL     1    -135.094-183.143 295.619  1.00  0.00     0.029 C 
HETATM    8 BR1  UNL     1    -137.818-183.560 296.115  1.00  0.00    -0.084 Br
ENDROOT
BRANCH   1   9
HETATM    9  C2  UNL     1    -134.840-185.696 294.125  1.00  0.00     0.006 C 
HETATM   10  C1  UNL     1    -134.357-187.052 293.810  1.00  0.00     0.006 C 
ENDBRANCH   1   9
BRANCH   5  11
HETATM   11  C8  UNL     1    -136.106-184.981 298.396  1.00  0.00     0.237 C 
HETATM   12  N1  UNL     1    -137.187-184.221 298.858  1.00  0.00    -0.062 NA
HETATM   13  O1  UNL     1    -135.568-185.702 299.330  1.00  0.00    -0.276 OA
ENDBRANCH   5  11
TORSDOF 2
ENDMDL
MODEL 5
REMARK VINA RESULT: -4.020497368      2.728      3.813
REMARK  2 active torsions:
REMARK  status: ('A' for Active; 'I' for Inactive)
REMARK    1  A    between atoms: C2_2  and  C3_3 
REMARK    2  A    between atoms: C7_7  and  C8_8 
ROOT
HETATM    1  C3  UNL     1    -136.116-185.321 296.887  1.00  0.00    -0.022 C 
HETATM    2  C4  UNL     1    -135.703-185.588 298.348  1.00  0.00     0.017 C 
HETATM    3  C5  UNL     1    -135.416-184.117 296.332  1.00  0.00     0.005 C 
HETATM    4  C6  UNL     1    -134.688-183.260 297.326  1.00  0.00     0.011 C 
HETATM    5  C7  UNL     1    -136.755-183.609 295.882  1.00  0.00     0.099 C 
HETATM    6  C9  UNL     1    -137.401-184.552 296.852  1.00  0.00     0.034 C 
HETATM    7  C10 UNL     1    -138.604-185.209 296.281  1.00  0.00     0.029 C 
HETATM    8 BR1  UNL     1    -137.886-183.785 298.584  1.00  0.00    -0.084 Br
ENDROOT
BRANCH   1   9
HETATM    9  C2  UNL     1    -135.982-186.597 296.163  1.00  0.00     0.006 C 
HETATM   10  C1  UNL     1    -135.276-186.646 294.870  1.00  0.00     0.006 C 
ENDBRANCH   1   9
BRANCH   5  11
HETATM   11  C8  UNL     1    -136.905-182.184 296.010  1.00  0.00     0.237 C 
HETATM   12  N1  UNL     1    -137.899-181.410 296.621  1.00  0.00    -0.062 NA
HETATM   13  O1  UNL     1    -135.968-181.461 295.477  1.00  0.00    -0.276 OA
ENDBRANCH   5  11
TORSDOF 2
ENDMDL
