MODEL 1
REMARK VINA RESULT: -5.923985327      0.000      0.000
REMARK  4 active torsions:
REMARK  status: ('A' for Active; 'I' for Inactive)
REMARK    1  A    between atoms: N2_3  and  O1_4 
REMARK    2  A    between atoms: N2_3  and  C2_6 
REMARK    3  A    between atoms: C5_9  and  C6_10 
REMARK    4  A    between atoms: C9_16  and  O3_17 
ROOT
HETATM    1  N1  UNL     1      -1.728  25.943 -22.069  1.00  0.00    -0.176 NA
HETATM    2  C1  UNL     1      -1.047  26.718 -21.519  1.00  0.00     0.184 C 
HETATM    3  N2  UNL     1      -0.247  27.636 -20.843  1.00  0.00    -0.063 NA
ENDROOT
BRANCH   3   4
HETATM    4  O1  UNL     1      -0.949  28.516 -20.114  1.00  0.00    -0.294 OA
ATOM      5  H1  UNL     1      -0.454  28.886 -19.392  1.00  0.00     0.238 HD
ENDBRANCH   3   4
BRANCH   3   6
HETATM    6  C2  UNL     1       0.622  28.351 -21.742  1.00  0.00     0.055 A 
HETATM    7  C3  UNL     1       0.233  29.563 -22.265  1.00  0.00     0.028 A 
HETATM    8  C4  UNL     1       1.076  30.208 -23.107  1.00  0.00     0.019 A 
HETATM    9  C5  UNL     1       2.332  29.703 -23.475  1.00  0.00     0.033 A 
HETATM   10  C9  UNL     1       2.699  28.501 -22.945  1.00  0.00     0.080 A 
HETATM   11  C10 UNL     1       1.842  27.811 -22.069  1.00  0.00     0.064 A 
BRANCH   9  12
HETATM   12  C6  UNL     1       3.175  30.441 -24.375  1.00  0.00     0.113 A 
HETATM   13  C7  UNL     1       3.492  31.764 -24.409  1.00  0.00     0.059 A 
HETATM   14  C8  UNL     1       4.358  31.952 -25.502  1.00  0.00     0.117 A 
HETATM   15  N3  UNL     1       4.496  30.734 -26.040  1.00  0.00    -0.272 N 
HETATM   16  O2  UNL     1       3.814  29.872 -25.389  1.00  0.00    -0.237 OA
ATOM     17  H3  UNL     1       5.068  30.523 -26.858  1.00  0.00     0.194 HD
ENDBRANCH   9  12
BRANCH  10  18
HETATM   18  O3  UNL     1       3.916  27.913 -23.242  1.00  0.00    -0.360 OA
ATOM     19  H3  UNL     1       3.983  26.999 -23.494  1.00  0.00     0.217 HD
ENDBRANCH  10  18
ENDBRANCH   3   6
TORSDOF 4
ENDMDL
MODEL 2
REMARK VINA RESULT: -5.642564287      3.405      5.512
REMARK  4 active torsions:
REMARK  status: ('A' for Active; 'I' for Inactive)
REMARK    1  A    between atoms: N2_3  and  O1_4 
REMARK    2  A    between atoms: N2_3  and  C2_6 
REMARK    3  A    between atoms: C5_9  and  C6_10 
REMARK    4  A    between atoms: C9_16  and  O3_17 
ROOT
HETATM    1  N1  UNL     1      -2.668  34.259 -22.686  1.00  0.00    -0.176 NA
HETATM    2  C1  UNL     1      -1.904  33.648 -23.326  1.00  0.00     0.184 C 
HETATM    3  N2  UNL     1      -0.994  32.938 -24.105  1.00  0.00    -0.063 NA
ENDROOT
BRANCH   3   4
HETATM    4  O1  UNL     1      -1.425  32.715 -25.356  1.00  0.00    -0.294 OA
ATOM      5  H1  UNL     1      -1.362  31.805 -25.619  1.00  0.00     0.238 HD
ENDBRANCH   3   4
BRANCH   3   6
HETATM    6  C2  UNL     1      -0.636  31.682 -23.497  1.00  0.00     0.055 A 
HETATM    7  C3  UNL     1      -1.540  31.013 -22.704  1.00  0.00     0.028 A 
HETATM    8  C4  UNL     1      -1.170  29.834 -22.148  1.00  0.00     0.019 A 
HETATM    9  C5  UNL     1       0.094  29.256 -22.339  1.00  0.00     0.033 A 
HETATM   10  C9  UNL     1       0.976  29.935 -23.128  1.00  0.00     0.080 A 
HETATM   11  C10 UNL     1       0.616  31.160 -23.717  1.00  0.00     0.064 A 
BRANCH   9  12
HETATM   12  C6  UNL     1       0.420  28.003 -21.717  1.00  0.00     0.113 A 
HETATM   13  C7  UNL     1      -0.372  26.951 -21.374  1.00  0.00     0.059 A 
HETATM   14  C8  UNL     1       0.462  25.979 -20.792  1.00  0.00     0.117 A 
HETATM   15  N3  UNL     1       1.688  26.518 -20.829  1.00  0.00    -0.272 N 
HETATM   16  O2  UNL     1       1.656  27.679 -21.360  1.00  0.00    -0.237 OA
ATOM     17  H3  UNL     1       2.532  26.063 -20.480  1.00  0.00     0.194 HD
ENDBRANCH   9  12
BRANCH  10  18
HETATM   18  O3  UNL     1       2.249  29.455 -23.381  1.00  0.00    -0.360 OA
ATOM     19  H3  UNL     1       2.767  29.770 -24.112  1.00  0.00     0.217 HD
ENDBRANCH  10  18
ENDBRANCH   3   6
TORSDOF 4
ENDMDL
MODEL 3
REMARK VINA RESULT: -5.366593225      1.304      1.935
REMARK  4 active torsions:
REMARK  status: ('A' for Active; 'I' for Inactive)
REMARK    1  A    between atoms: N2_3  and  O1_4 
REMARK    2  A    between atoms: N2_3  and  C2_6 
REMARK    3  A    between atoms: C5_9  and  C6_10 
REMARK    4  A    between atoms: C9_16  and  O3_17 
ROOT
HETATM    1  N1  UNL     1      -1.520  25.920 -21.971  1.00  0.00    -0.176 NA
HETATM    2  C1  UNL     1      -0.883  26.744 -21.440  1.00  0.00     0.184 C 
HETATM    3  N2  UNL     1      -0.136  27.720 -20.784  1.00  0.00    -0.063 NA
ENDROOT
BRANCH   3   4
HETATM    4  O1  UNL     1      -0.887  28.592 -20.096  1.00  0.00    -0.294 OA
ATOM      5  H1  UNL     1      -1.815  28.391 -20.121  1.00  0.00     0.238 HD
ENDBRANCH   3   4
BRANCH   3   6
HETATM    6  C2  UNL     1       0.714  28.442 -21.696  1.00  0.00     0.055 A 
HETATM    7  C3  UNL     1       1.997  28.008 -21.939  1.00  0.00     0.028 A 
HETATM    8  C4  UNL     1       2.769  28.711 -22.802  1.00  0.00     0.019 A 
HETATM    9  C5  UNL     1       2.327  29.866 -23.465  1.00  0.00     0.033 A 
HETATM   10  C9  UNL     1       1.053  30.280 -23.210  1.00  0.00     0.080 A 
HETATM   11  C10 UNL     1       0.231  29.567 -22.318  1.00  0.00     0.064 A 
BRANCH   9  12
HETATM   12  C6  UNL     1       3.201  30.564 -24.367  1.00  0.00     0.113 A 
HETATM   13  C7  UNL     1       3.774  30.164 -25.534  1.00  0.00     0.059 A 
HETATM   14  C8  UNL     1       4.540  31.244 -26.009  1.00  0.00     0.117 A 
HETATM   15  N3  UNL     1       4.370  32.208 -25.096  1.00  0.00    -0.272 N 
HETATM   16  O2  UNL     1       3.602  31.812 -24.157  1.00  0.00    -0.237 OA
ATOM     17  H3  UNL     1       4.797  33.134 -25.144  1.00  0.00     0.194 HD
ENDBRANCH   9  12
BRANCH  10  18
HETATM   18  O3  UNL     1       0.516  31.406 -23.810  1.00  0.00    -0.360 OA
ATOM     19  H3  UNL     1      -0.011  32.030 -23.325  1.00  0.00     0.217 HD
ENDBRANCH  10  18
ENDBRANCH   3   6
TORSDOF 4
ENDMDL
MODEL 4
REMARK VINA RESULT: -5.355670422      3.335      5.461
REMARK  4 active torsions:
REMARK  status: ('A' for Active; 'I' for Inactive)
REMARK    1  A    between atoms: N2_3  and  O1_4 
REMARK    2  A    between atoms: N2_3  and  C2_6 
REMARK    3  A    between atoms: C5_9  and  C6_10 
REMARK    4  A    between atoms: C9_16  and  O3_17 
ROOT
HETATM    1  N1  UNL     1      -2.918  32.763 -25.728  1.00  0.00    -0.176 NA
HETATM    2  C1  UNL     1      -1.996  32.845 -25.014  1.00  0.00     0.184 C 
HETATM    3  N2  UNL     1      -0.895  32.968 -24.170  1.00  0.00    -0.063 NA
ENDROOT
BRANCH   3   4
HETATM    4  O1  UNL     1       0.192  33.461 -24.781  1.00  0.00    -0.294 OA
ATOM      5  H1  UNL     1       0.660  34.101 -24.259  1.00  0.00     0.238 HD
ENDBRANCH   3   4
BRANCH   3   6
HETATM    6  C2  UNL     1      -0.559  31.713 -23.545  1.00  0.00     0.055 A 
HETATM    7  C3  UNL     1      -1.478  31.068 -22.749  1.00  0.00     0.028 A 
HETATM    8  C4  UNL     1      -1.129  29.890 -22.178  1.00  0.00     0.019 A 
HETATM    9  C5  UNL     1       0.127  29.289 -22.356  1.00  0.00     0.033 A 
HETATM   10  C9  UNL     1       1.023  29.945 -23.149  1.00  0.00     0.080 A 
HETATM   11  C10 UNL     1       0.685  31.170 -23.753  1.00  0.00     0.064 A 
BRANCH   9  12
HETATM   12  C6  UNL     1       0.430  28.038 -21.719  1.00  0.00     0.113 A 
HETATM   13  C7  UNL     1      -0.378  26.999 -21.376  1.00  0.00     0.059 A 
HETATM   14  C8  UNL     1       0.438  26.024 -20.775  1.00  0.00     0.117 A 
HETATM   15  N3  UNL     1       1.670  26.548 -20.800  1.00  0.00    -0.272 N 
HETATM   16  O2  UNL     1       1.658  27.704 -21.342  1.00  0.00    -0.237 OA
ATOM     17  H3  UNL     1       2.503  26.086 -20.436  1.00  0.00     0.194 HD
ENDBRANCH   9  12
BRANCH  10  18
HETATM   18  O3  UNL     1       2.289  29.443 -23.391  1.00  0.00    -0.360 OA
ATOM     19  H3  UNL     1       2.584  28.623 -23.014  1.00  0.00     0.217 HD
ENDBRANCH  10  18
ENDBRANCH   3   6
TORSDOF 4
ENDMDL
MODEL 5
REMARK VINA RESULT: -5.324054266      3.913      5.692
REMARK  4 active torsions:
REMARK  status: ('A' for Active; 'I' for Inactive)
REMARK    1  A    between atoms: N2_3  and  O1_4 
REMARK    2  A    between atoms: N2_3  and  C2_6 
REMARK    3  A    between atoms: C5_9  and  C6_10 
REMARK    4  A    between atoms: C9_16  and  O3_17 
ROOT
HETATM    1  N1  UNL     1      -5.387  30.797 -25.384  1.00  0.00    -0.176 NA
HETATM    2  C1  UNL     1      -4.303  31.155 -25.133  1.00  0.00     0.184 C 
HETATM    3  N2  UNL     1      -3.016  31.604 -24.848  1.00  0.00    -0.063 NA
ENDROOT
BRANCH   3   4
HETATM    4  O1  UNL     1      -2.323  31.962 -25.939  1.00  0.00    -0.294 OA
ATOM      5  H1  UNL     1      -1.985  32.848 -25.896  1.00  0.00     0.238 HD
ENDBRANCH   3   4
BRANCH   3   6
HETATM    6  C2  UNL     1      -2.261  30.624 -24.108  1.00  0.00     0.055 A 
HETATM    7  C3  UNL     1      -1.562  30.994 -22.982  1.00  0.00     0.028 A 
HETATM    8  C4  UNL     1      -0.864  30.047 -22.310  1.00  0.00     0.019 A 
HETATM    9  C5  UNL     1      -0.815  28.701 -22.704  1.00  0.00     0.033 A 
HETATM   10  C9  UNL     1      -1.515  28.355 -23.823  1.00  0.00     0.080 A 
HETATM   11  C10 UNL     1      -2.248  29.320 -24.538  1.00  0.00     0.064 A 
BRANCH   9  12
HETATM   12  C6  UNL     1      -0.053  27.750 -21.945  1.00  0.00     0.113 A 
HETATM   13  C7  UNL     1       1.238  27.787 -21.517  1.00  0.00     0.059 A 
HETATM   14  C8  UNL     1       1.474  26.592 -20.815  1.00  0.00     0.117 A 
HETATM   15  N3  UNL     1       0.313  25.928 -20.873  1.00  0.00    -0.272 N 
HETATM   16  O2  UNL     1      -0.558  26.597 -21.524  1.00  0.00    -0.237 OA
ATOM     17  H3  UNL     1       0.147  25.012 -20.455  1.00  0.00     0.194 HD
ENDBRANCH   9  12
BRANCH  10  18
HETATM   18  O3  UNL     1      -1.535  27.057 -24.300  1.00  0.00    -0.360 OA
ATOM     19  H3  UNL     1      -1.033  26.794 -25.063  1.00  0.00     0.217 HD
ENDBRANCH  10  18
ENDBRANCH   3   6
TORSDOF 4
ENDMDL
