MODEL 1
REMARK VINA RESULT: -5.423927903      0.000      0.000
REMARK  3 active torsions:
REMARK  status: ('A' for Active; 'I' for Inactive)
REMARK    1  A    between atoms: C3_4  and  N1_5 
REMARK    2  A    between atoms: C4_7  and  C5_8 
REMARK    3  A    between atoms: C8_11  and  N2_12 
ROOT
HETATM    1  N1  UNL     1       1.761  30.309 -23.551  1.00  0.00    -0.342 N 
ATOM      2  H1  UNL     1       2.078  31.239 -23.825  1.00  0.00     0.167 HD
HETATM    3  C4  UNL     1       0.642  30.346 -23.022  1.00  0.00     0.127 C 
ENDROOT
BRANCH   1   4
HETATM    4  C3  UNL     1       2.691  29.341 -23.867  1.00  0.00     0.175 A 
HETATM    5  C2  UNL     1       3.180  29.100 -25.153  1.00  0.00     0.134 A 
HETATM    6  C1  UNL     1       4.081  28.064 -25.063  1.00  0.00     0.269 A 
HETATM    7  O1  UNL     1       4.754  27.526 -25.977  1.00  0.00    -0.266 OA
HETATM    8  N3  UNL     1       4.098  27.734 -23.771  1.00  0.00    -0.224 N 
HETATM    9  O5  UNL     1       3.302  28.465 -23.080  1.00  0.00    -0.217 OA
ATOM     10  H3  UNL     1       4.675  26.990 -23.379  1.00  0.00     0.198 HD
ENDBRANCH   1   4
BRANCH   3  11
HETATM   11  C5  UNL     1      -0.121  29.218 -22.509  1.00  0.00     0.093 A 
HETATM   12  C6  UNL     1      -0.436  28.911 -21.213  1.00  0.00     0.043 A 
HETATM   13  C7  UNL     1      -1.185  27.729 -21.239  1.00  0.00     0.065 A 
HETATM   14  C8  UNL     1      -1.288  27.376 -22.552  1.00  0.00     0.215 A 
HETATM   15  O4  UNL     1      -0.659  28.261 -23.269  1.00  0.00    -0.287 OA
BRANCH  14  16
HETATM   16  N2  UNL     1      -1.979  26.216 -23.036  1.00  0.00    -0.090 N 
HETATM   17  O2  UNL     1      -2.576  25.439 -22.272  1.00  0.00    -0.530 OA
HETATM   18  O3  UNL     1      -1.991  25.942 -24.378  1.00  0.00    -0.530 OA
ENDBRANCH  14  16
ENDBRANCH   3  11
TORSDOF 3
ENDMDL
MODEL 2
REMARK VINA RESULT: -5.407900703      1.952      2.919
REMARK  3 active torsions:
REMARK  status: ('A' for Active; 'I' for Inactive)
REMARK    1  A    between atoms: C3_4  and  N1_5 
REMARK    2  A    between atoms: C4_7  and  C5_8 
REMARK    3  A    between atoms: C8_11  and  N2_12 
ROOT
HETATM    1  N1  UNL     1       0.201  27.802 -21.204  1.00  0.00    -0.342 N 
ATOM      2  H1  UNL     1       0.346  27.813 -20.195  1.00  0.00     0.167 HD
HETATM    3  C4  UNL     1      -0.963  27.497 -21.495  1.00  0.00     0.127 C 
ENDROOT
BRANCH   1   4
HETATM    4  C3  UNL     1       1.353  28.131 -21.888  1.00  0.00     0.175 A 
HETATM    5  C2  UNL     1       1.523  29.293 -22.643  1.00  0.00     0.134 A 
HETATM    6  C1  UNL     1       2.795  29.261 -23.167  1.00  0.00     0.269 A 
HETATM    7  O1  UNL     1       3.362  30.105 -23.905  1.00  0.00    -0.266 OA
HETATM    8  N3  UNL     1       3.322  28.121 -22.720  1.00  0.00    -0.224 N 
HETATM    9  O5  UNL     1       2.499  27.468 -21.984  1.00  0.00    -0.217 OA
ATOM     10  H3  UNL     1       4.268  27.806 -22.938  1.00  0.00     0.198 HD
ENDBRANCH   1   4
BRANCH   3  11
HETATM   11  C5  UNL     1      -1.530  27.381 -22.830  1.00  0.00     0.093 A 
HETATM   12  C6  UNL     1      -1.988  28.370 -23.658  1.00  0.00     0.043 A 
HETATM   13  C7  UNL     1      -2.434  27.752 -24.832  1.00  0.00     0.065 A 
HETATM   14  C8  UNL     1      -2.225  26.415 -24.658  1.00  0.00     0.215 A 
HETATM   15  O4  UNL     1      -1.698  26.228 -23.484  1.00  0.00    -0.287 OA
BRANCH  14  16
HETATM   16  N2  UNL     1      -2.543  25.404 -25.624  1.00  0.00    -0.090 N 
HETATM   17  O2  UNL     1      -3.688  25.276 -26.092  1.00  0.00    -0.530 OA
HETATM   18  O3  UNL     1      -1.567  24.545 -26.057  1.00  0.00    -0.530 OA
ENDBRANCH  14  16
ENDBRANCH   3  11
TORSDOF 3
ENDMDL
MODEL 3
REMARK VINA RESULT: -5.360392242      3.337      5.827
REMARK  3 active torsions:
REMARK  status: ('A' for Active; 'I' for Inactive)
REMARK    1  A    between atoms: C3_4  and  N1_5 
REMARK    2  A    between atoms: C4_7  and  C5_8 
REMARK    3  A    between atoms: C8_11  and  N2_12 
ROOT
HETATM    1  N1  UNL     1      -2.293  29.745 -25.317  1.00  0.00    -0.342 N 
ATOM      2  H1  UNL     1      -2.270  30.259 -26.197  1.00  0.00     0.167 HD
HETATM    3  C4  UNL     1      -1.268  29.936 -24.650  1.00  0.00     0.127 C 
ENDROOT
BRANCH   1   4
HETATM    4  C3  UNL     1      -3.459  29.019 -25.182  1.00  0.00     0.175 A 
HETATM    5  C2  UNL     1      -4.744  29.553 -25.294  1.00  0.00     0.134 A 
HETATM    6  C1  UNL     1      -5.636  28.524 -25.097  1.00  0.00     0.269 A 
HETATM    7  O1  UNL     1      -6.891  28.560 -25.110  1.00  0.00    -0.266 OA
HETATM    8  N3  UNL     1      -4.878  27.449 -24.883  1.00  0.00    -0.224 N 
HETATM    9  O5  UNL     1      -3.626  27.727 -24.931  1.00  0.00    -0.217 OA
ATOM     10  H3  UNL     1      -5.249  26.516 -24.702  1.00  0.00     0.198 HD
ENDBRANCH   1   4
BRANCH   3  11
HETATM   11  C5  UNL     1      -0.954  29.369 -23.347  1.00  0.00     0.093 A 
HETATM   12  C6  UNL     1      -1.152  29.907 -22.104  1.00  0.00     0.043 A 
HETATM   13  C7  UNL     1      -0.684  28.975 -21.171  1.00  0.00     0.065 A 
HETATM   14  C8  UNL     1      -0.224  27.914 -21.894  1.00  0.00     0.215 A 
HETATM   15  O4  UNL     1      -0.394  28.171 -23.158  1.00  0.00    -0.287 OA
BRANCH  14  16
HETATM   16  N2  UNL     1       0.347  26.725 -21.331  1.00  0.00    -0.090 N 
HETATM   17  O2  UNL     1      -0.307  25.676 -21.203  1.00  0.00    -0.530 OA
HETATM   18  O3  UNL     1       1.653  26.729 -20.916  1.00  0.00    -0.530 OA
ENDBRANCH  14  16
ENDBRANCH   3  11
TORSDOF 3
ENDMDL
MODEL 4
REMARK VINA RESULT: -5.307071644      1.117      1.334
REMARK  3 active torsions:
REMARK  status: ('A' for Active; 'I' for Inactive)
REMARK    1  A    between atoms: C3_4  and  N1_5 
REMARK    2  A    between atoms: C4_7  and  C5_8 
REMARK    3  A    between atoms: C8_11  and  N2_12 
ROOT
HETATM    1  N1  UNL     1       1.669  30.035 -24.741  1.00  0.00    -0.342 N 
ATOM      2  H1  UNL     1       1.857  30.724 -25.468  1.00  0.00     0.167 HD
HETATM    3  C4  UNL     1       0.567  30.224 -24.207  1.00  0.00     0.127 C 
ENDROOT
BRANCH   1   4
HETATM    4  C3  UNL     1       2.707  29.136 -24.609  1.00  0.00     0.175 A 
HETATM    5  C2  UNL     1       3.395  28.557 -25.677  1.00  0.00     0.134 A 
HETATM    6  C1  UNL     1       4.351  27.722 -25.146  1.00  0.00     0.269 A 
HETATM    7  O1  UNL     1       5.190  27.006 -25.747  1.00  0.00    -0.266 OA
HETATM    8  N3  UNL     1       4.205  27.829 -23.825  1.00  0.00    -0.224 N 
HETATM    9  O5  UNL     1       3.262  28.640 -23.511  1.00  0.00    -0.217 OA
ATOM     10  H3  UNL     1       4.775  27.325 -23.146  1.00  0.00     0.198 HD
ENDBRANCH   1   4
BRANCH   3  11
HETATM   11  C5  UNL     1      -0.033  29.442 -23.137  1.00  0.00     0.093 A 
HETATM   12  C6  UNL     1      -0.638  29.877 -21.989  1.00  0.00     0.043 A 
HETATM   13  C7  UNL     1      -1.052  28.740 -21.285  1.00  0.00     0.065 A 
HETATM   14  C8  UNL     1      -0.679  27.669 -22.042  1.00  0.00     0.215 A 
HETATM   15  O4  UNL     1      -0.088  28.107 -23.114  1.00  0.00    -0.287 OA
BRANCH  14  16
HETATM   16  N2  UNL     1      -0.910  26.298 -21.691  1.00  0.00    -0.090 N 
HETATM   17  O2  UNL     1      -1.956  25.705 -22.005  1.00  0.00    -0.530 OA
HETATM   18  O3  UNL     1       0.041  25.606 -20.988  1.00  0.00    -0.530 OA
ENDBRANCH  14  16
ENDBRANCH   3  11
TORSDOF 3
ENDMDL
MODEL 5
REMARK VINA RESULT: -5.297885524      1.129      1.313
REMARK  3 active torsions:
REMARK  status: ('A' for Active; 'I' for Inactive)
REMARK    1  A    between atoms: C3_4  and  N1_5 
REMARK    2  A    between atoms: C4_7  and  C5_8 
REMARK    3  A    between atoms: C8_11  and  N2_12 
ROOT
HETATM    1  N1  UNL     1       1.017  29.892 -22.597  1.00  0.00    -0.342 N 
ATOM      2  H1  UNL     1       1.264  30.870 -22.445  1.00  0.00     0.167 HD
HETATM    3  C4  UNL     1      -0.169  29.672 -22.319  1.00  0.00     0.127 C 
ENDROOT
BRANCH   1   4
HETATM    4  C3  UNL     1       2.093  29.162 -23.059  1.00  0.00     0.175 A 
HETATM    5  C2  UNL     1       2.456  29.048 -24.402  1.00  0.00     0.134 A 
HETATM    6  C1  UNL     1       3.571  28.243 -24.460  1.00  0.00     0.269 A 
HETATM    7  O1  UNL     1       4.225  27.879 -25.468  1.00  0.00    -0.266 OA
HETATM    8  N3  UNL     1       3.824  27.916 -23.192  1.00  0.00    -0.224 N 
HETATM    9  O5  UNL     1       2.979  28.441 -22.383  1.00  0.00    -0.217 OA
ATOM     10  H3  UNL     1       4.598  27.318 -22.901  1.00  0.00     0.198 HD
ENDBRANCH   1   4
BRANCH   3  11
HETATM   11  C5  UNL     1      -0.868  28.399 -22.413  1.00  0.00     0.093 A 
HETATM   12  C6  UNL     1      -0.942  27.388 -21.493  1.00  0.00     0.043 A 
HETATM   13  C7  UNL     1      -1.733  26.378 -22.052  1.00  0.00     0.065 A 
HETATM   14  C8  UNL     1      -2.101  26.826 -23.287  1.00  0.00     0.215 A 
HETATM   15  O4  UNL     1      -1.584  28.005 -23.470  1.00  0.00    -0.287 OA
BRANCH  14  16
HETATM   16  N2  UNL     1      -2.922  26.098 -24.209  1.00  0.00    -0.090 N 
HETATM   17  O2  UNL     1      -2.959  24.856 -24.222  1.00  0.00    -0.530 OA
HETATM   18  O3  UNL     1      -3.698  26.777 -25.112  1.00  0.00    -0.530 OA
ENDBRANCH  14  16
ENDBRANCH   3  11
TORSDOF 3
ENDMDL
