MODEL 1
REMARK VINA RESULT: -6.047187213      0.000      0.000
REMARK  5 active torsions:
REMARK  status: ('A' for Active; 'I' for Inactive)
REMARK    1  A    between atoms: C2_2  and  N1_3 
REMARK    2  A    between atoms: C2_2  and  C3_7 
REMARK    3  A    between atoms: N2_8  and  N3_10 
REMARK    4  A    between atoms: C4_12  and  N5_15 
REMARK    5  A    between atoms: N6_17  and  C6_19 
ROOT
HETATM    1  N3  UNL     1       5.079  27.345 -24.633  1.00  0.00    -0.276 N 
ATOM      2  H3  UNL     1       4.930  26.665 -23.887  1.00  0.00     0.189 HD
HETATM    3  C4  UNL     1       4.155  28.185 -24.953  1.00  0.00     0.217 C 
HETATM    4  C5  UNL     1       4.291  29.168 -25.989  1.00  0.00     0.139 C 
HETATM    5  N4  UNL     1       4.401  29.949 -26.841  1.00  0.00    -0.188 NA
ENDROOT
BRANCH   3   6
HETATM    6  N5  UNL     1       2.935  28.122 -24.225  1.00  0.00    -0.275 N 
HETATM    7  N6  UNL     1       3.010  28.297 -22.971  1.00  0.00    -0.299 N 
ATOM      8  H6  UNL     1       3.902  28.474 -22.511  1.00  0.00     0.187 HD
ATOM      9  H5  UNL     1       2.044  27.945 -24.689  1.00  0.00     0.189 HD
BRANCH   7  10
HETATM   10  C6  UNL     1       1.795  28.237 -22.234  1.00  0.00     0.048 A 
HETATM   11  C7  UNL     1       1.614  27.161 -21.401  1.00  0.00     0.031 A 
HETATM   12  C8  UNL     1       0.446  27.095 -20.686  1.00  0.00     0.002 A 
HETATM   13  C9  UNL     1      -0.502  28.087 -20.815  1.00  0.00     0.000 A 
HETATM   14  C10 UNL     1      -0.296  29.159 -21.660  1.00  0.00     0.002 A 
HETATM   15  C11 UNL     1       0.877  29.248 -22.394  1.00  0.00     0.031 A 
ENDBRANCH   7  10
ENDBRANCH   3   6
BRANCH   1  16
HETATM   16  N2  UNL     1       6.286  27.382 -25.328  1.00  0.00    -0.312 N 
HETATM   17  C3  UNL     1       6.807  26.288 -25.748  1.00  0.00     0.112 C 
ATOM     18  H2  UNL     1       6.752  28.273 -25.503  1.00  0.00     0.185 HD
BRANCH  17  19
HETATM   19  C2  UNL     1       6.141  24.983 -25.504  1.00  0.00     0.219 C 
HETATM   20  C1  UNL     1       5.639  24.382 -26.795  1.00  0.00     0.045 C 
BRANCH  19  21
HETATM   21  N1  UNL     1       7.127  24.096 -24.920  1.00  0.00    -0.071 N 
ATOM     22  H13 UNL     1       7.116  23.169 -25.346  1.00  0.00     0.275 HD
ATOM     23  H12 UNL     1       8.080  24.357 -25.170  1.00  0.00     0.275 HD
ATOM     24  H11 UNL     1       6.986  24.060 -23.910  1.00  0.00     0.275 HD
ENDBRANCH  19  21
ENDBRANCH  17  19
ENDBRANCH   1  16
TORSDOF 5
ENDMDL
MODEL 2
REMARK VINA RESULT: -6.042028573      0.032      1.171
REMARK  5 active torsions:
REMARK  status: ('A' for Active; 'I' for Inactive)
REMARK    1  A    between atoms: C2_2  and  N1_3 
REMARK    2  A    between atoms: C2_2  and  C3_7 
REMARK    3  A    between atoms: N2_8  and  N3_10 
REMARK    4  A    between atoms: C4_12  and  N5_15 
REMARK    5  A    between atoms: N6_17  and  C6_19 
ROOT
HETATM    1  N3  UNL     1       5.094  27.334 -24.634  1.00  0.00    -0.276 N 
ATOM      2  H3  UNL     1       4.944  26.653 -23.890  1.00  0.00     0.189 HD
HETATM    3  C4  UNL     1       4.172  28.178 -24.951  1.00  0.00     0.217 C 
HETATM    4  C5  UNL     1       4.309  29.164 -25.982  1.00  0.00     0.139 C 
HETATM    5  N4  UNL     1       4.421  29.949 -26.832  1.00  0.00    -0.188 NA
ENDROOT
BRANCH   3   6
HETATM    6  N5  UNL     1       2.952  28.115 -24.223  1.00  0.00    -0.275 N 
HETATM    7  N6  UNL     1       3.027  28.283 -22.968  1.00  0.00    -0.299 N 
ATOM      8  H6  UNL     1       3.921  28.455 -22.507  1.00  0.00     0.187 HD
ATOM      9  H5  UNL     1       2.060  27.943 -24.687  1.00  0.00     0.189 HD
BRANCH   7  10
HETATM   10  C6  UNL     1       1.813  28.223 -22.230  1.00  0.00     0.048 A 
HETATM   11  C7  UNL     1       0.909  29.239 -22.415  1.00  0.00     0.031 A 
HETATM   12  C8  UNL     1      -0.264  29.188 -21.708  1.00  0.00     0.002 A 
HETATM   13  C9  UNL     1      -0.508  28.142 -20.844  1.00  0.00     0.000 A 
HETATM   14  C10 UNL     1       0.418  27.133 -20.674  1.00  0.00     0.002 A 
HETATM   15  C11 UNL     1       1.613  27.161 -21.378  1.00  0.00     0.031 A 
ENDBRANCH   7  10
ENDBRANCH   3   6
BRANCH   1  16
HETATM   16  N2  UNL     1       6.301  27.372 -25.330  1.00  0.00    -0.312 N 
HETATM   17  C3  UNL     1       6.819  26.278 -25.752  1.00  0.00     0.112 C 
ATOM     18  H2  UNL     1       6.768  28.262 -25.502  1.00  0.00     0.185 HD
BRANCH  17  19
HETATM   19  C2  UNL     1       6.151  24.973 -25.512  1.00  0.00     0.219 C 
HETATM   20  C1  UNL     1       5.651  24.375 -26.805  1.00  0.00     0.045 C 
BRANCH  19  21
HETATM   21  N1  UNL     1       7.134  24.084 -24.928  1.00  0.00    -0.071 N 
ATOM     22  H13 UNL     1       6.762  23.561 -24.135  1.00  0.00     0.275 HD
ATOM     23  H12 UNL     1       7.350  23.292 -25.533  1.00  0.00     0.275 HD
ATOM     24  H11 UNL     1       7.966  24.622 -24.682  1.00  0.00     0.275 HD
ENDBRANCH  19  21
ENDBRANCH  17  19
ENDBRANCH   1  16
TORSDOF 5
ENDMDL
MODEL 3
REMARK VINA RESULT: -5.812843982      6.504      8.266
REMARK  5 active torsions:
REMARK  status: ('A' for Active; 'I' for Inactive)
REMARK    1  A    between atoms: C2_2  and  N1_3 
REMARK    2  A    between atoms: C2_2  and  C3_7 
REMARK    3  A    between atoms: N2_8  and  N3_10 
REMARK    4  A    between atoms: C4_12  and  N5_15 
REMARK    5  A    between atoms: N6_17  and  C6_19 
ROOT
HETATM    1  N3  UNL     1      -4.440  24.099 -24.864  1.00  0.00    -0.276 N 
ATOM      2  H3  UNL     1      -4.964  24.151 -23.990  1.00  0.00     0.189 HD
HETATM    3  C4  UNL     1      -3.397  24.833 -25.051  1.00  0.00     0.217 C 
HETATM    4  C5  UNL     1      -2.610  24.815 -26.249  1.00  0.00     0.139 C 
HETATM    5  N4  UNL     1      -1.988  24.808 -27.231  1.00  0.00    -0.188 NA
ENDROOT
BRANCH   3   6
HETATM    6  N5  UNL     1      -3.016  25.707 -23.996  1.00  0.00    -0.275 N 
HETATM    7  N6  UNL     1      -1.998  26.436 -24.199  1.00  0.00    -0.299 N 
ATOM      8  H6  UNL     1      -1.480  26.393 -25.076  1.00  0.00     0.187 HD
ATOM      9  H5  UNL     1      -3.536  25.747 -23.120  1.00  0.00     0.189 HD
BRANCH   7  10
HETATM   10  C6  UNL     1      -1.608  27.314 -23.150  1.00  0.00     0.048 A 
HETATM   11  C7  UNL     1      -1.662  28.662 -23.402  1.00  0.00     0.031 A 
HETATM   12  C8  UNL     1      -1.289  29.516 -22.397  1.00  0.00     0.002 A 
HETATM   13  C9  UNL     1      -0.875  29.016 -21.181  1.00  0.00     0.000 A 
HETATM   14  C10 UNL     1      -0.829  27.655 -20.952  1.00  0.00     0.002 A 
HETATM   15  C11 UNL     1      -1.201  26.771 -21.953  1.00  0.00     0.031 A 
ENDBRANCH   7  10
ENDBRANCH   3   6
BRANCH   1  16
HETATM   16  N2  UNL     1      -4.838  23.232 -25.879  1.00  0.00    -0.312 N 
HETATM   17  C3  UNL     1      -5.081  22.005 -25.601  1.00  0.00     0.112 C 
ATOM     18  H2  UNL     1      -4.935  23.571 -26.836  1.00  0.00     0.185 HD
BRANCH  17  19
HETATM   19  C2  UNL     1      -4.947  21.494 -24.212  1.00  0.00     0.219 C 
HETATM   20  C1  UNL     1      -6.138  20.650 -23.828  1.00  0.00     0.045 C 
BRANCH  19  21
HETATM   21  N1  UNL     1      -3.751  20.678 -24.164  1.00  0.00    -0.071 N 
ATOM     22  H13 UNL     1      -3.907  19.740 -24.533  1.00  0.00     0.275 HD
ATOM     23  H12 UNL     1      -3.047  20.981 -24.836  1.00  0.00     0.275 HD
ATOM     24  H11 UNL     1      -3.395  20.665 -23.208  1.00  0.00     0.275 HD
ENDBRANCH  19  21
ENDBRANCH  17  19
ENDBRANCH   1  16
TORSDOF 5
ENDMDL
MODEL 4
REMARK VINA RESULT: -5.792691114      6.483      8.169
REMARK  5 active torsions:
REMARK  status: ('A' for Active; 'I' for Inactive)
REMARK    1  A    between atoms: C2_2  and  N1_3 
REMARK    2  A    between atoms: C2_2  and  C3_7 
REMARK    3  A    between atoms: N2_8  and  N3_10 
REMARK    4  A    between atoms: C4_12  and  N5_15 
REMARK    5  A    between atoms: N6_17  and  C6_19 
ROOT
HETATM    1  N3  UNL     1      -4.447  24.138 -24.857  1.00  0.00    -0.276 N 
ATOM      2  H3  UNL     1      -4.972  24.199 -23.984  1.00  0.00     0.189 HD
HETATM    3  C4  UNL     1      -3.396  24.860 -25.045  1.00  0.00     0.217 C 
HETATM    4  C5  UNL     1      -2.607  24.829 -26.242  1.00  0.00     0.139 C 
HETATM    5  N4  UNL     1      -1.984  24.811 -27.222  1.00  0.00    -0.188 NA
ENDROOT
BRANCH   3   6
HETATM    6  N5  UNL     1      -3.007  25.735 -23.993  1.00  0.00    -0.275 N 
HETATM    7  N6  UNL     1      -2.014  26.491 -24.218  1.00  0.00    -0.299 N 
ATOM      8  H6  UNL     1      -1.521  26.470 -25.111  1.00  0.00     0.187 HD
ATOM      9  H5  UNL     1      -3.503  25.753 -23.102  1.00  0.00     0.189 HD
BRANCH   7  10
HETATM   10  C6  UNL     1      -1.617  27.370 -23.172  1.00  0.00     0.048 A 
HETATM   11  C7  UNL     1      -1.194  26.804 -21.996  1.00  0.00     0.031 A 
HETATM   12  C8  UNL     1      -0.809  27.643 -20.984  1.00  0.00     0.002 A 
HETATM   13  C9  UNL     1      -0.855  29.010 -21.162  1.00  0.00     0.000 A 
HETATM   14  C10 UNL     1      -1.285  29.555 -22.355  1.00  0.00     0.002 A 
HETATM   15  C11 UNL     1      -1.679  28.727 -23.395  1.00  0.00     0.031 A 
ENDBRANCH   7  10
ENDBRANCH   3   6
BRANCH   1  16
HETATM   16  N2  UNL     1      -4.853  23.271 -25.869  1.00  0.00    -0.312 N 
HETATM   17  C3  UNL     1      -5.082  22.041 -25.592  1.00  0.00     0.112 C 
ATOM     18  H2  UNL     1      -4.966  23.613 -26.824  1.00  0.00     0.185 HD
BRANCH  17  19
HETATM   19  C2  UNL     1      -4.923  21.527 -24.207  1.00  0.00     0.219 C 
HETATM   20  C1  UNL     1      -6.088  20.649 -23.818  1.00  0.00     0.045 C 
BRANCH  19  21
HETATM   21  N1  UNL     1      -3.706  20.742 -24.172  1.00  0.00    -0.071 N 
ATOM     22  H13 UNL     1      -3.147  20.930 -23.340  1.00  0.00     0.275 HD
ATOM     23  H12 UNL     1      -3.887  19.753 -24.003  1.00  0.00     0.275 HD
ATOM     24  H11 UNL     1      -3.183  20.899 -25.034  1.00  0.00     0.275 HD
ENDBRANCH  19  21
ENDBRANCH  17  19
ENDBRANCH   1  16
TORSDOF 5
ENDMDL
MODEL 5
REMARK VINA RESULT: -5.545759257      5.864      7.809
REMARK  5 active torsions:
REMARK  status: ('A' for Active; 'I' for Inactive)
REMARK    1  A    between atoms: C2_2  and  N1_3 
REMARK    2  A    between atoms: C2_2  and  C3_7 
REMARK    3  A    between atoms: N2_8  and  N3_10 
REMARK    4  A    between atoms: C4_12  and  N5_15 
REMARK    5  A    between atoms: N6_17  and  C6_19 
ROOT
HETATM    1  N3  UNL     1      -3.874  25.805 -25.045  1.00  0.00    -0.276 N 
ATOM      2  H3  UNL     1      -3.577  24.866 -24.775  1.00  0.00     0.189 HD
HETATM    3  C4  UNL     1      -3.243  26.843 -24.613  1.00  0.00     0.217 C 
HETATM    4  C5  UNL     1      -3.599  28.192 -24.948  1.00  0.00     0.139 C 
HETATM    5  N4  UNL     1      -3.905  29.282 -25.208  1.00  0.00    -0.188 NA
ENDROOT
BRANCH   3   6
HETATM    6  N5  UNL     1      -2.130  26.623 -23.757  1.00  0.00    -0.275 N 
HETATM    7  N6  UNL     1      -1.520  27.653 -23.337  1.00  0.00    -0.299 N 
ATOM      8  H6  UNL     1      -1.817  28.591 -23.603  1.00  0.00     0.187 HD
ATOM      9  H5  UNL     1      -1.836  25.682 -23.493  1.00  0.00     0.189 HD
BRANCH   7  10
HETATM   10  C6  UNL     1      -0.405  27.443 -22.479  1.00  0.00     0.048 A 
HETATM   11  C7  UNL     1      -0.491  26.420 -21.568  1.00  0.00     0.031 A 
HETATM   12  C8  UNL     1       0.579  26.211 -20.738  1.00  0.00     0.002 A 
HETATM   13  C9  UNL     1       1.695  27.015 -20.831  1.00  0.00     0.000 A 
HETATM   14  C10 UNL     1       1.757  28.038 -21.756  1.00  0.00     0.002 A 
HETATM   15  C11 UNL     1       0.687  28.270 -22.607  1.00  0.00     0.031 A 
ENDBRANCH   7  10
ENDBRANCH   3   6
BRANCH   1  16
HETATM   16  N2  UNL     1      -4.969  25.989 -25.886  1.00  0.00    -0.312 N 
HETATM   17  C3  UNL     1      -5.463  24.983 -26.507  1.00  0.00     0.112 C 
ATOM     18  H2  UNL     1      -5.374  26.918 -26.006  1.00  0.00     0.185 HD
BRANCH  17  19
HETATM   19  C2  UNL     1      -4.886  23.624 -26.342  1.00  0.00     0.219 C 
HETATM   20  C1  UNL     1      -5.878  22.691 -25.689  1.00  0.00     0.045 C 
BRANCH  19  21
HETATM   21  N1  UNL     1      -4.565  23.125 -27.663  1.00  0.00    -0.071 N 
ATOM     22  H13 UNL     1      -5.386  22.772 -28.155  1.00  0.00     0.275 HD
ATOM     23  H12 UNL     1      -4.322  23.874 -28.312  1.00  0.00     0.275 HD
ATOM     24  H11 UNL     1      -3.827  22.425 -27.585  1.00  0.00     0.275 HD
ENDBRANCH  19  21
ENDBRANCH  17  19
ENDBRANCH   1  16
TORSDOF 5
ENDMDL
