MODEL 1
REMARK VINA RESULT: -4.999473990      0.000      0.000
REMARK  4 active torsions:
REMARK  status: ('A' for Active; 'I' for Inactive)
REMARK    1  A    between atoms: N1_1  and  N2_4 
REMARK    2  A    between atoms: C1_5  and  N3_6 
REMARK    3  A    between atoms: C2_8  and  C3_9 
REMARK    4  A    between atoms: C9_16  and  N4_17 
ROOT
HETATM    1  N2  UNL     1      -2.720  30.612 -24.467  1.00  0.00    -0.225 N 
HETATM    2  C1  UNL     1      -1.704  30.608 -23.588  1.00  0.00     0.128 A 
HETATM    3  C7  UNL     1      -1.418  31.902 -23.212  1.00  0.00     0.054 A 
HETATM    4  C8  UNL     1      -2.306  32.697 -23.900  1.00  0.00     0.060 A 
HETATM    5  C9  UNL     1      -3.108  31.901 -24.674  1.00  0.00     0.196 A 
ENDROOT
BRANCH   2   6
HETATM    6  N3  UNL     1      -1.004  29.482 -23.096  1.00  0.00    -0.348 N 
HETATM    7  C2  UNL     1      -0.771  29.290 -21.839  1.00  0.00     0.127 C 
ATOM      8  H3  UNL     1      -0.668  28.788 -23.765  1.00  0.00     0.167 HD
BRANCH   7   9
HETATM    9  C3  UNL     1      -0.030  28.076 -21.442  1.00  0.00     0.090 A 
HETATM   10  C4  UNL     1       1.339  27.937 -21.339  1.00  0.00     0.040 A 
HETATM   11  C5  UNL     1       1.624  26.655 -20.941  1.00  0.00     0.027 A 
HETATM   12  C6  UNL     1       0.393  26.040 -20.812  1.00  0.00     0.142 A 
HETATM   13  O1  UNL     1      -0.537  26.913 -21.116  1.00  0.00    -0.321 OA
ENDBRANCH   7   9
ENDBRANCH   2   6
BRANCH   1  14
HETATM   14  N1  UNL     1      -3.322  29.522 -25.096  1.00  0.00    -0.335 N 
ATOM     15  H12 UNL     1      -3.693  28.719 -24.588  1.00  0.00     0.177 HD
ATOM     16  H11 UNL     1      -3.470  29.373 -26.094  1.00  0.00     0.177 HD
ENDBRANCH   1  14
BRANCH   5  17
HETATM   17  N4  UNL     1      -4.167  32.306 -25.550  1.00  0.00    -0.096 N 
HETATM   18  O2  UNL     1      -3.923  33.033 -26.525  1.00  0.00    -0.530 OA
HETATM   19  O3  UNL     1      -5.435  31.860 -25.266  1.00  0.00    -0.530 OA
ENDBRANCH   5  17
TORSDOF 4
ENDMDL
MODEL 2
REMARK VINA RESULT: -4.935148986      8.134      9.072
REMARK  4 active torsions:
REMARK  status: ('A' for Active; 'I' for Inactive)
REMARK    1  A    between atoms: N1_1  and  N2_4 
REMARK    2  A    between atoms: C1_5  and  N3_6 
REMARK    3  A    between atoms: C2_8  and  C3_9 
REMARK    4  A    between atoms: C9_16  and  N4_17 
ROOT
HETATM    1  N2  UNL     1      -7.583  37.006 -20.148  1.00  0.00    -0.225 N 
HETATM    2  C1  UNL     1      -6.376  36.461 -20.376  1.00  0.00     0.128 A 
HETATM    3  C7  UNL     1      -6.186  36.324 -21.734  1.00  0.00     0.054 A 
HETATM    4  C8  UNL     1      -7.331  36.810 -22.324  1.00  0.00     0.060 A 
HETATM    5  C9  UNL     1      -8.192  37.230 -21.345  1.00  0.00     0.196 A 
ENDROOT
BRANCH   2   6
HETATM    6  N3  UNL     1      -5.418  36.072 -19.412  1.00  0.00    -0.348 N 
HETATM    7  C2  UNL     1      -4.301  36.698 -19.236  1.00  0.00     0.127 C 
ATOM      8  H3  UNL     1      -5.618  35.260 -18.828  1.00  0.00     0.167 HD
BRANCH   7   9
HETATM    9  C3  UNL     1      -3.376  36.200 -18.198  1.00  0.00     0.090 A 
HETATM   10  C4  UNL     1      -2.900  36.899 -17.108  1.00  0.00     0.040 A 
HETATM   11  C5  UNL     1      -2.067  36.080 -16.387  1.00  0.00     0.027 A 
HETATM   12  C6  UNL     1      -2.063  34.882 -17.077  1.00  0.00     0.142 A 
HETATM   13  O1  UNL     1      -2.842  35.006 -18.123  1.00  0.00    -0.321 OA
ENDBRANCH   7   9
ENDBRANCH   2   6
BRANCH   1  14
HETATM   14  N1  UNL     1      -8.172  37.316 -18.921  1.00  0.00    -0.335 N 
ATOM     15  H12 UNL     1      -7.804  38.027 -18.289  1.00  0.00     0.177 HD
ATOM     16  H11 UNL     1      -9.005  36.905 -18.500  1.00  0.00     0.177 HD
ENDBRANCH   1  14
BRANCH   5  17
HETATM   17  N4  UNL     1      -9.494  37.803 -21.507  1.00  0.00    -0.096 N 
HETATM   18  O2  UNL     1      -9.700  38.982 -21.180  1.00  0.00    -0.530 OA
HETATM   19  O3  UNL     1     -10.482  37.004 -22.031  1.00  0.00    -0.530 OA
ENDBRANCH   5  17
TORSDOF 4
ENDMDL
MODEL 3
REMARK VINA RESULT: -4.915152056      2.674      3.116
REMARK  4 active torsions:
REMARK  status: ('A' for Active; 'I' for Inactive)
REMARK    1  A    between atoms: N1_1  and  N2_4 
REMARK    2  A    between atoms: C1_5  and  N3_6 
REMARK    3  A    between atoms: C2_8  and  C3_9 
REMARK    4  A    between atoms: C9_16  and  N4_17 
ROOT
HETATM    1  N2  UNL     1      -3.686  27.770 -24.747  1.00  0.00    -0.225 N 
HETATM    2  C1  UNL     1      -2.674  28.577 -24.387  1.00  0.00     0.128 A 
HETATM    3  C7  UNL     1      -2.973  29.873 -24.745  1.00  0.00     0.054 A 
HETATM    4  C8  UNL     1      -4.213  29.821 -25.339  1.00  0.00     0.060 A 
HETATM    5  C9  UNL     1      -4.652  28.524 -25.340  1.00  0.00     0.196 A 
ENDROOT
BRANCH   2   6
HETATM    6  N3  UNL     1      -1.472  28.204 -23.742  1.00  0.00    -0.348 N 
HETATM    7  C2  UNL     1      -1.357  28.125 -22.457  1.00  0.00     0.127 C 
ATOM      8  H3  UNL     1      -0.658  27.988 -24.318  1.00  0.00     0.167 HD
BRANCH   7   9
HETATM    9  C3  UNL     1      -0.050  27.725 -21.895  1.00  0.00     0.090 A 
HETATM   10  C4  UNL     1       0.248  26.542 -21.252  1.00  0.00     0.040 A 
HETATM   11  C5  UNL     1       1.570  26.559 -20.884  1.00  0.00     0.027 A 
HETATM   12  C6  UNL     1       2.045  27.781 -21.324  1.00  0.00     0.142 A 
HETATM   13  O1  UNL     1       1.060  28.420 -21.906  1.00  0.00    -0.321 OA
ENDBRANCH   7   9
ENDBRANCH   2   6
BRANCH   1  14
HETATM   14  N1  UNL     1      -3.794  26.390 -24.572  1.00  0.00    -0.335 N 
ATOM     15  H12 UNL     1      -4.620  25.855 -24.841  1.00  0.00     0.177 HD
ATOM     16  H11 UNL     1      -3.107  25.749 -24.174  1.00  0.00     0.177 HD
ENDBRANCH   1  14
BRANCH   5  17
HETATM   17  N4  UNL     1      -5.887  28.015 -25.857  1.00  0.00    -0.096 N 
HETATM   18  O2  UNL     1      -5.879  27.127 -26.723  1.00  0.00    -0.530 OA
HETATM   19  O3  UNL     1      -7.053  28.541 -25.358  1.00  0.00    -0.530 OA
ENDBRANCH   5  17
TORSDOF 4
ENDMDL
MODEL 4
REMARK VINA RESULT: -4.856326648      2.009      2.524
REMARK  4 active torsions:
REMARK  status: ('A' for Active; 'I' for Inactive)
REMARK    1  A    between atoms: N1_1  and  N2_4 
REMARK    2  A    between atoms: C1_5  and  N3_6 
REMARK    3  A    between atoms: C2_8  and  C3_9 
REMARK    4  A    between atoms: C9_16  and  N4_17 
ROOT
HETATM    1  N2  UNL     1      -3.171  29.871 -24.859  1.00  0.00    -0.225 N 
HETATM    2  C1  UNL     1      -2.763  28.679 -24.391  1.00  0.00     0.128 A 
HETATM    3  C7  UNL     1      -3.722  27.728 -24.662  1.00  0.00     0.054 A 
HETATM    4  C8  UNL     1      -4.733  28.392 -25.319  1.00  0.00     0.060 A 
HETATM    5  C9  UNL     1      -4.394  29.713 -25.439  1.00  0.00     0.196 A 
ENDROOT
BRANCH   2   6
HETATM    6  N3  UNL     1      -1.553  28.395 -23.719  1.00  0.00    -0.348 N 
HETATM    7  C2  UNL     1      -1.458  27.511 -22.781  1.00  0.00     0.127 C 
ATOM      8  H3  UNL     1      -0.715  28.912 -23.986  1.00  0.00     0.167 HD
BRANCH   7   9
HETATM    9  C3  UNL     1      -0.139  27.299 -22.149  1.00  0.00     0.090 A 
HETATM   10  C4  UNL     1       0.175  26.371 -21.177  1.00  0.00     0.040 A 
HETATM   11  C5  UNL     1       1.504  26.497 -20.859  1.00  0.00     0.027 A 
HETATM   12  C6  UNL     1       1.967  27.520 -21.666  1.00  0.00     0.142 A 
HETATM   13  O1  UNL     1       0.969  27.951 -22.398  1.00  0.00    -0.321 OA
ENDBRANCH   7   9
ENDBRANCH   2   6
BRANCH   1  14
HETATM   14  N1  UNL     1      -2.507  31.096 -24.797  1.00  0.00    -0.335 N 
ATOM     15  H12 UNL     1      -1.732  31.343 -25.413  1.00  0.00     0.177 HD
ATOM     16  H11 UNL     1      -2.684  31.878 -24.166  1.00  0.00     0.177 HD
ENDBRANCH   1  14
BRANCH   5  17
HETATM   17  N4  UNL     1      -5.150  30.763 -26.052  1.00  0.00    -0.096 N 
HETATM   18  O2  UNL     1      -5.517  30.658 -27.233  1.00  0.00    -0.530 OA
HETATM   19  O3  UNL     1      -5.445  31.866 -25.289  1.00  0.00    -0.530 OA
ENDBRANCH   5  17
TORSDOF 4
ENDMDL
MODEL 5
REMARK VINA RESULT: -4.852769585      1.933      2.178
REMARK  4 active torsions:
REMARK  status: ('A' for Active; 'I' for Inactive)
REMARK    1  A    between atoms: N1_1  and  N2_4 
REMARK    2  A    between atoms: C1_5  and  N3_6 
REMARK    3  A    between atoms: C2_8  and  C3_9 
REMARK    4  A    between atoms: C9_16  and  N4_17 
ROOT
HETATM    1  N2  UNL     1      -3.910  28.545 -24.904  1.00  0.00    -0.225 N 
HETATM    2  C1  UNL     1      -2.768  28.934 -24.312  1.00  0.00     0.128 A 
HETATM    3  C7  UNL     1      -2.560  30.274 -24.555  1.00  0.00     0.054 A 
HETATM    4  C8  UNL     1      -3.627  30.686 -25.320  1.00  0.00     0.060 A 
HETATM    5  C9  UNL     1      -4.459  29.620 -25.536  1.00  0.00     0.196 A 
ENDROOT
BRANCH   2   6
HETATM    6  N3  UNL     1      -1.885  28.133 -23.552  1.00  0.00    -0.348 N 
HETATM    7  C2  UNL     1      -1.112  28.613 -22.634  1.00  0.00     0.127 C 
ATOM      8  H3  UNL     1      -1.856  27.130 -23.738  1.00  0.00     0.167 HD
BRANCH   7   9
HETATM    9  C3  UNL     1      -0.230  27.680 -21.904  1.00  0.00     0.090 A 
HETATM   10  C4  UNL     1       1.109  27.855 -21.621  1.00  0.00     0.040 A 
HETATM   11  C5  UNL     1       1.561  26.761 -20.927  1.00  0.00     0.027 A 
HETATM   12  C6  UNL     1       0.458  25.936 -20.806  1.00  0.00     0.142 A 
HETATM   13  O1  UNL     1      -0.559  26.520 -21.392  1.00  0.00    -0.321 OA
ENDBRANCH   7   9
ENDBRANCH   2   6
BRANCH   1  14
HETATM   14  N1  UNL     1      -4.492  27.277 -24.909  1.00  0.00    -0.335 N 
ATOM     15  H12 UNL     1      -3.951  26.414 -24.860  1.00  0.00     0.177 HD
ATOM     16  H11 UNL     1      -5.482  27.038 -24.960  1.00  0.00     0.177 HD
ENDBRANCH   1  14
BRANCH   5  17
HETATM   17  N4  UNL     1      -5.684  29.596 -26.278  1.00  0.00    -0.096 N 
HETATM   18  O2  UNL     1      -5.709  30.004 -27.449  1.00  0.00    -0.530 OA
HETATM   19  O3  UNL     1      -6.803  29.110 -25.647  1.00  0.00    -0.530 OA
ENDBRANCH   5  17
TORSDOF 4
ENDMDL
