MODEL 1
REMARK VINA RESULT: -5.121837881      0.000      0.000
REMARK  4 active torsions:
REMARK  status: ('A' for Active; 'I' for Inactive)
REMARK    1  A    between atoms: O1_1  and  C1_3 
REMARK    2  A    between atoms: C3_5  and  C4_6 
REMARK    3  A    between atoms: C4_6  and  N1_7 
REMARK    4  A    between atoms: N2_9  and  N3_11 
ROOT
HETATM    1  N1  UNL     1       3.347  27.994 -22.419  1.00  0.00    -0.318 N 
ATOM      2  H1  UNL     1       3.918  27.512 -21.725  1.00  0.00     0.182 HD
HETATM    3  N2  UNL     1       3.728  28.055 -23.626  1.00  0.00    -0.249 N 
ATOM      4  H2  UNL     1       4.613  27.609 -23.870  1.00  0.00     0.207 HD
ENDROOT
BRANCH   1   5
HETATM    5  C4  UNL     1       2.100  28.613 -22.032  1.00  0.00     0.181 C 
BRANCH   5   6
HETATM    6  C3  UNL     1       1.133  27.523 -21.713  1.00  0.00    -0.012 A 
HETATM    7  C2  UNL     1      -0.142  27.463 -22.215  1.00  0.00     0.074 A 
HETATM    8  C1  UNL     1      -0.696  26.315 -21.681  1.00  0.00     0.183 A 
HETATM    9  O3  UNL     1       0.185  25.733 -20.916  1.00  0.00    -0.300 OA
HETATM   10  C10 UNL     1       1.310  26.422 -20.899  1.00  0.00     0.153 A 
BRANCH   8  11
HETATM   11  O1  UNL     1      -1.973  25.850 -21.912  1.00  0.00    -0.341 OA
ATOM     12  H1  UNL     1      -2.392  25.126 -21.463  1.00  0.00     0.220 HD
ENDBRANCH   8  11
ENDBRANCH   5   6
ENDBRANCH   1   5
BRANCH   3  13
HETATM   13  N3  UNL     1       3.019  28.688 -24.640  1.00  0.00    -0.312 N 
HETATM   14  C5  UNL     1       3.369  30.096 -24.858  1.00  0.00     0.146 C 
HETATM   15  C6  UNL     1       4.103  30.109 -26.207  1.00  0.00     0.048 C 
HETATM   16  C7  UNL     1       3.091  29.555 -27.216  1.00  0.00     0.169 C 
HETATM   17  O2  UNL     1       3.302  28.220 -27.426  1.00  0.00    -0.389 OA
HETATM   18  C8  UNL     1       2.562  27.370 -26.659  1.00  0.00     0.189 C 
HETATM   19  C9  UNL     1       2.027  27.976 -25.390  1.00  0.00     0.170 C 
ENDBRANCH   3  13
TORSDOF 4
ENDMDL
MODEL 2
REMARK VINA RESULT: -4.783197706      1.287      2.073
REMARK  4 active torsions:
REMARK  status: ('A' for Active; 'I' for Inactive)
REMARK    1  A    between atoms: O1_1  and  C1_3 
REMARK    2  A    between atoms: C3_5  and  C4_6 
REMARK    3  A    between atoms: C4_6  and  N1_7 
REMARK    4  A    between atoms: N2_9  and  N3_11 
ROOT
HETATM    1  N1  UNL     1       3.436  27.936 -22.671  1.00  0.00    -0.318 N 
ATOM      2  H1  UNL     1       3.920  27.405 -21.947  1.00  0.00     0.182 HD
HETATM    3  N2  UNL     1       3.928  28.022 -23.835  1.00  0.00    -0.249 N 
ATOM      4  H2  UNL     1       4.812  27.547 -24.016  1.00  0.00     0.207 HD
ENDROOT
BRANCH   1   5
HETATM    5  C4  UNL     1       2.185  28.595 -22.375  1.00  0.00     0.181 C 
BRANCH   5   6
HETATM    6  C3  UNL     1       1.235  27.560 -21.872  1.00  0.00    -0.012 A 
HETATM    7  C2  UNL     1      -0.052  27.421 -22.326  1.00  0.00     0.074 A 
HETATM    8  C1  UNL     1      -0.583  26.362 -21.614  1.00  0.00     0.183 A 
HETATM    9  O3  UNL     1       0.322  25.903 -20.795  1.00  0.00    -0.300 OA
HETATM   10  C10 UNL     1       1.441  26.593 -20.909  1.00  0.00     0.153 A 
BRANCH   8  11
HETATM   11  O1  UNL     1      -1.861  25.862 -21.740  1.00  0.00    -0.341 OA
ATOM     12  H1  UNL     1      -2.649  26.374 -21.881  1.00  0.00     0.220 HD
ENDBRANCH   8  11
ENDBRANCH   5   6
ENDBRANCH   1   5
BRANCH   3  13
HETATM   13  N3  UNL     1       3.341  28.722 -24.883  1.00  0.00    -0.312 N 
HETATM   14  C5  UNL     1       2.528  27.911 -25.794  1.00  0.00     0.146 C 
HETATM   15  C6  UNL     1       1.081  28.344 -25.513  1.00  0.00     0.048 C 
HETATM   16  C7  UNL     1       1.048  29.846 -25.818  1.00  0.00     0.169 C 
HETATM   17  O2  UNL     1       1.198  30.573 -24.670  1.00  0.00    -0.389 OA
HETATM   18  C8  UNL     1       2.471  30.958 -24.368  1.00  0.00     0.189 C 
HETATM   19  C9  UNL     1       3.547  30.133 -25.022  1.00  0.00     0.170 C 
ENDBRANCH   3  13
TORSDOF 4
ENDMDL
MODEL 3
REMARK VINA RESULT: -4.722030898      3.807      5.723
REMARK  4 active torsions:
REMARK  status: ('A' for Active; 'I' for Inactive)
REMARK    1  A    between atoms: O1_1  and  C1_3 
REMARK    2  A    between atoms: C3_5  and  C4_6 
REMARK    3  A    between atoms: C4_6  and  N1_7 
REMARK    4  A    between atoms: N2_9  and  N3_11 
ROOT
HETATM    1  N1  UNL     1      -1.557  30.283 -22.792  1.00  0.00    -0.318 N 
ATOM      2  H1  UNL     1      -2.152  31.055 -22.491  1.00  0.00     0.182 HD
HETATM    3  N2  UNL     1      -0.909  29.607 -21.938  1.00  0.00    -0.249 N 
ATOM      4  H2  UNL     1      -1.005  29.863 -20.955  1.00  0.00     0.207 HD
ENDROOT
BRANCH   1   5
HETATM    5  C4  UNL     1      -1.448  29.953 -24.195  1.00  0.00     0.181 C 
BRANCH   5   6
HETATM    6  C3  UNL     1      -2.811  29.594 -24.683  1.00  0.00    -0.012 A 
HETATM    7  C2  UNL     1      -3.354  28.339 -24.573  1.00  0.00     0.074 A 
HETATM    8  C1  UNL     1      -4.612  28.430 -25.140  1.00  0.00     0.183 A 
HETATM    9  O3  UNL     1      -4.804  29.650 -25.557  1.00  0.00    -0.300 OA
HETATM   10  C10 UNL     1      -3.745  30.396 -25.306  1.00  0.00     0.153 A 
BRANCH   8  11
HETATM   11  O1  UNL     1      -5.525  27.403 -25.251  1.00  0.00    -0.341 OA
ATOM     12  H1  UNL     1      -6.308  27.409 -25.789  1.00  0.00     0.220 HD
ENDBRANCH   8  11
ENDBRANCH   5   6
ENDBRANCH   1   5
BRANCH   3  13
HETATM   13  N3  UNL     1      -0.075  28.541 -22.253  1.00  0.00    -0.312 N 
HETATM   14  C5  UNL     1       1.357  28.857 -22.277  1.00  0.00     0.146 C 
HETATM   15  C6  UNL     1       1.933  28.142 -21.046  1.00  0.00     0.048 C 
HETATM   16  C7  UNL     1       1.619  26.658 -21.264  1.00  0.00     0.169 C 
HETATM   17  O2  UNL     1       0.481  26.304 -20.594  1.00  0.00    -0.389 OA
HETATM   18  C8  UNL     1      -0.677  26.355 -21.314  1.00  0.00     0.189 C 
HETATM   19  C9  UNL     1      -0.622  27.245 -22.526  1.00  0.00     0.170 C 
ENDBRANCH   3  13
TORSDOF 4
ENDMDL
MODEL 4
REMARK VINA RESULT: -4.596816140     10.268     11.991
REMARK  4 active torsions:
REMARK  status: ('A' for Active; 'I' for Inactive)
REMARK    1  A    between atoms: O1_1  and  C1_3 
REMARK    2  A    between atoms: C3_5  and  C4_6 
REMARK    3  A    between atoms: C4_6  and  N1_7 
REMARK    4  A    between atoms: N2_9  and  N3_11 
ROOT
HETATM    1  N1  UNL     1       1.156  35.381 -15.333  1.00  0.00    -0.318 N 
ATOM      2  H1  UNL     1       1.548  34.677 -14.707  1.00  0.00     0.182 HD
HETATM    3  N2  UNL     1      -0.060  35.316 -15.683  1.00  0.00    -0.249 N 
ATOM      4  H2  UNL     1      -0.620  34.544 -15.320  1.00  0.00     0.207 HD
ENDROOT
BRANCH   1   5
HETATM    5  C4  UNL     1       1.983  36.459 -15.825  1.00  0.00     0.181 C 
BRANCH   5   6
HETATM    6  C3  UNL     1       2.925  35.885 -16.830  1.00  0.00    -0.012 A 
HETATM    7  C2  UNL     1       4.289  35.995 -16.746  1.00  0.00     0.074 A 
HETATM    8  C1  UNL     1       4.782  35.336 -17.858  1.00  0.00     0.183 A 
HETATM    9  O3  UNL     1       3.783  34.868 -18.552  1.00  0.00    -0.300 OA
HETATM   10  C10 UNL     1       2.636  35.172 -17.976  1.00  0.00     0.153 A 
BRANCH   8  11
HETATM   11  O1  UNL     1       6.112  35.192 -18.189  1.00  0.00    -0.341 OA
ATOM     12  H1  UNL     1       6.673  35.867 -18.551  1.00  0.00     0.220 HD
ENDBRANCH   8  11
ENDBRANCH   5   6
ENDBRANCH   1   5
BRANCH   3  13
HETATM   13  N3  UNL     1      -0.681  36.228 -16.529  1.00  0.00    -0.312 N 
HETATM   14  C5  UNL     1      -1.029  35.707 -17.855  1.00  0.00     0.146 C 
HETATM   15  C6  UNL     1      -2.562  35.612 -17.844  1.00  0.00     0.048 C 
HETATM   16  C7  UNL     1      -3.049  37.043 -17.589  1.00  0.00     0.169 C 
HETATM   17  O2  UNL     1      -3.326  37.226 -16.262  1.00  0.00    -0.389 OA
HETATM   18  C8  UNL     1      -2.316  37.746 -15.507  1.00  0.00     0.189 C 
HETATM   19  C9  UNL     1      -0.941  37.567 -16.092  1.00  0.00     0.170 C 
ENDBRANCH   3  13
TORSDOF 4
ENDMDL
MODEL 5
REMARK VINA RESULT: -4.585673009     10.342     11.473
REMARK  4 active torsions:
REMARK  status: ('A' for Active; 'I' for Inactive)
REMARK    1  A    between atoms: O1_1  and  C1_3 
REMARK    2  A    between atoms: C3_5  and  C4_6 
REMARK    3  A    between atoms: C4_6  and  N1_7 
REMARK    4  A    between atoms: N2_9  and  N3_11 
ROOT
HETATM    1  N1  UNL     1      -0.735  35.545 -15.204  1.00  0.00    -0.318 N 
ATOM      2  H1  UNL     1      -1.321  34.889 -14.687  1.00  0.00     0.182 HD
HETATM    3  N2  UNL     1       0.489  35.287 -15.404  1.00  0.00    -0.249 N 
ATOM      4  H2  UNL     1       0.857  34.410 -15.034  1.00  0.00     0.207 HD
ENDROOT
BRANCH   1   5
HETATM    5  C4  UNL     1      -1.296  36.777 -15.711  1.00  0.00     0.181 C 
BRANCH   5   6
HETATM    6  C3  UNL     1      -2.212  36.429 -16.835  1.00  0.00    -0.012 A 
HETATM    7  C2  UNL     1      -3.206  37.256 -17.293  1.00  0.00     0.074 A 
HETATM    8  C1  UNL     1      -3.812  36.568 -18.327  1.00  0.00     0.183 A 
HETATM    9  O3  UNL     1      -3.222  35.415 -18.476  1.00  0.00    -0.300 OA
HETATM   10  C10 UNL     1      -2.246  35.279 -17.598  1.00  0.00     0.153 A 
BRANCH   8  11
HETATM   11  O1  UNL     1      -4.871  37.017 -19.087  1.00  0.00    -0.341 OA
ATOM     12  H1  UNL     1      -5.503  37.676 -18.827  1.00  0.00     0.220 HD
ENDBRANCH   8  11
ENDBRANCH   5   6
ENDBRANCH   1   5
BRANCH   3  13
HETATM   13  N3  UNL     1       1.363  36.118 -16.095  1.00  0.00    -0.312 N 
HETATM   14  C5  UNL     1       2.118  37.057 -15.259  1.00  0.00     0.146 C 
HETATM   15  C6  UNL     1       3.563  36.537 -15.298  1.00  0.00     0.048 C 
HETATM   16  C7  UNL     1       3.956  36.564 -16.780  1.00  0.00     0.169 C 
HETATM   17  O2  UNL     1       3.788  35.331 -17.345  1.00  0.00    -0.389 OA
HETATM   18  C8  UNL     1       2.593  35.116 -17.967  1.00  0.00     0.189 C 
HETATM   19  C9  UNL     1       1.482  36.027 -17.519  1.00  0.00     0.170 C 
ENDBRANCH   3  13
TORSDOF 4
ENDMDL
