MODEL 1
REMARK VINA RESULT: -5.620030917      0.000      0.000
REMARK  2 active torsions:
REMARK  status: ('A' for Active; 'I' for Inactive)
REMARK    1  A    between atoms: C2_2  and  N1_4 
REMARK       I    between atoms: N1_4  and  C4_6 
REMARK       I    between atoms: C4_6  and  N2_8 
REMARK    2  A    between atoms: N2_8  and  C5_10 
ROOT
HETATM    1  C5  UNL     1    -134.654-183.216 295.309  1.00  0.00     0.042 C 
HETATM    2  C6  UNL     1    -133.504-182.767 294.405  1.00  0.00     0.036 C 
HETATM    3  C7  UNL     1    -132.471-183.839 294.236  1.00  0.00    -0.009 C 
HETATM    4  C8  UNL     1    -131.706-183.929 295.560  1.00  0.00     0.042 C 
HETATM    5  C9  UNL     1    -132.704-184.066 296.647  1.00  0.00     0.177 C 
HETATM    6  F1  UNL     1    -132.341-185.150 297.437  1.00  0.00    -0.249 F 
HETATM    7  C10 UNL     1    -134.109-184.252 296.227  1.00  0.00     0.052 C 
HETATM    8  C11 UNL     1    -134.289-185.251 295.097  1.00  0.00    -0.003 C 
HETATM    9  C12 UNL     1    -133.172-185.170 294.082  1.00  0.00     0.010 C 
HETATM   10  C13 UNL     1    -135.424-184.328 294.619  1.00  0.00     0.036 C 
ENDROOT
BRANCH   1  11
HETATM   11  N2  UNL     1    -135.393-182.138 295.838  1.00  0.00    -0.333 N 
HETATM   12  C4  UNL     1    -136.312-182.221 296.909  1.00  0.00     0.317 C 
HETATM   13  N1  UNL     1    -137.025-181.089 297.390  1.00  0.00    -0.339 N 
HETATM   14  O1  UNL     1    -136.564-183.306 297.513  1.00  0.00    -0.247 OA
ATOM     15  H1  UNL     1    -136.854-180.193 296.933  1.00  0.00     0.164 HD
ATOM     16  H2  UNL     1    -135.253-181.221 295.412  1.00  0.00     0.165 HD
BRANCH  13  17
HETATM   17  C2  UNL     1    -137.963-181.114 298.466  1.00  0.00     0.078 C 
HETATM   18  C1  UNL     1    -139.072-180.107 298.321  1.00  0.00     0.032 C 
HETATM   19  C3  UNL     1    -137.269-180.827 299.799  1.00  0.00     0.032 C 
ENDBRANCH  13  17
ENDBRANCH   1  11
TORSDOF 2
ENDMDL
MODEL 2
REMARK VINA RESULT: -5.589200863      1.325      2.068
REMARK  2 active torsions:
REMARK  status: ('A' for Active; 'I' for Inactive)
REMARK    1  A    between atoms: C2_2  and  N1_4 
REMARK       I    between atoms: N1_4  and  C4_6 
REMARK       I    between atoms: C4_6  and  N2_8 
REMARK    2  A    between atoms: N2_8  and  C5_10 
ROOT
HETATM    1  C5  UNL     1    -134.317-183.718 295.820  1.00  0.00     0.042 C 
HETATM    2  C6  UNL     1    -135.139-184.742 295.033  1.00  0.00     0.036 C 
HETATM    3  C7  UNL     1    -134.271-185.747 294.340  1.00  0.00    -0.009 C 
HETATM    4  C8  UNL     1    -133.608-185.025 293.164  1.00  0.00     0.042 C 
HETATM    5  C9  UNL     1    -132.985-183.787 293.689  1.00  0.00     0.177 C 
HETATM    6  F1  UNL     1    -131.667-183.743 293.251  1.00  0.00    -0.249 F 
HETATM    7  C10 UNL     1    -132.987-183.626 295.159  1.00  0.00     0.052 C 
HETATM    8  C11 UNL     1    -132.598-184.882 295.919  1.00  0.00    -0.003 C 
HETATM    9  C12 UNL     1    -133.140-186.133 295.267  1.00  0.00     0.010 C 
HETATM   10  C13 UNL     1    -133.622-184.421 296.972  1.00  0.00     0.036 C 
ENDROOT
BRANCH   1  11
HETATM   11  N2  UNL     1    -135.034-182.539 296.108  1.00  0.00    -0.333 N 
HETATM   12  C4  UNL     1    -136.054-182.418 297.079  1.00  0.00     0.317 C 
HETATM   13  N1  UNL     1    -136.738-181.193 297.316  1.00  0.00    -0.339 N 
HETATM   14  O1  UNL     1    -136.430-183.386 297.805  1.00  0.00    -0.247 OA
ATOM     15  H1  UNL     1    -136.468-180.385 296.755  1.00  0.00     0.164 HD
ATOM     16  H2  UNL     1    -134.797-181.704 295.571  1.00  0.00     0.165 HD
BRANCH  13  17
HETATM   17  C2  UNL     1    -137.773-181.012 298.282  1.00  0.00     0.078 C 
HETATM   18  C1  UNL     1    -138.822-180.020 297.860  1.00  0.00     0.032 C 
HETATM   19  C3  UNL     1    -137.197-180.517 299.610  1.00  0.00     0.032 C 
ENDBRANCH  13  17
ENDBRANCH   1  11
TORSDOF 2
ENDMDL
MODEL 3
REMARK VINA RESULT: -5.475721707      3.879      5.829
REMARK  2 active torsions:
REMARK  status: ('A' for Active; 'I' for Inactive)
REMARK    1  A    between atoms: C2_2  and  N1_4 
REMARK       I    between atoms: N1_4  and  C4_6 
REMARK       I    between atoms: C4_6  and  N2_8 
REMARK    2  A    between atoms: N2_8  and  C5_10 
ROOT
HETATM    1  C5  UNL     1    -133.519-185.852 295.335  1.00  0.00     0.042 C 
HETATM    2  C6  UNL     1    -132.675-185.468 294.117  1.00  0.00     0.036 C 
HETATM    3  C7  UNL     1    -132.271-184.026 294.146  1.00  0.00    -0.009 C 
HETATM    4  C8  UNL     1    -133.526-183.208 293.827  1.00  0.00     0.042 C 
HETATM    5  C9  UNL     1    -134.603-183.665 294.737  1.00  0.00     0.177 C 
HETATM    6  F1  UNL     1    -135.162-182.548 295.347  1.00  0.00    -0.249 F 
HETATM    7  C10 UNL     1    -134.206-184.616 295.798  1.00  0.00     0.052 C 
HETATM    8  C11 UNL     1    -132.915-184.247 296.508  1.00  0.00    -0.003 C 
HETATM    9  C12 UNL     1    -131.895-183.655 295.563  1.00  0.00     0.010 C 
HETATM   10  C13 UNL     1    -132.660-185.762 296.583  1.00  0.00     0.036 C 
ENDROOT
BRANCH   1  11
HETATM   11  N2  UNL     1    -134.267-187.031 295.138  1.00  0.00    -0.333 N 
HETATM   12  C4  UNL     1    -135.060-187.318 294.003  1.00  0.00     0.317 C 
HETATM   13  N1  UNL     1    -135.791-188.531 293.872  1.00  0.00    -0.339 N 
HETATM   14  O1  UNL     1    -135.175-186.519 293.027  1.00  0.00    -0.247 OA
ATOM     15  H1  UNL     1    -135.728-189.206 294.635  1.00  0.00     0.164 HD
ATOM     16  H2  UNL     1    -134.233-187.736 295.875  1.00  0.00     0.165 HD
BRANCH  13  17
HETATM   17  C2  UNL     1    -136.606-188.874 292.752  1.00  0.00     0.078 C 
HETATM   18  C1  UNL     1    -138.043-188.454 292.903  1.00  0.00     0.032 C 
HETATM   19  C3  UNL     1    -136.603-190.386 292.519  1.00  0.00     0.032 C 
ENDBRANCH  13  17
ENDBRANCH   1  11
TORSDOF 2
ENDMDL
MODEL 4
REMARK VINA RESULT: -5.465420691      3.640      5.530
REMARK  2 active torsions:
REMARK  status: ('A' for Active; 'I' for Inactive)
REMARK    1  A    between atoms: C2_2  and  N1_4 
REMARK       I    between atoms: N1_4  and  C4_6 
REMARK       I    between atoms: C4_6  and  N2_8 
REMARK    2  A    between atoms: N2_8  and  C5_10 
ROOT
HETATM    1  C5  UNL     1    -134.393-185.761 294.441  1.00  0.00     0.042 C 
HETATM    2  C6  UNL     1    -135.098-184.542 295.040  1.00  0.00     0.036 C 
HETATM    3  C7  UNL     1    -134.125-183.537 295.575  1.00  0.00    -0.009 C 
HETATM    4  C8  UNL     1    -133.542-184.126 296.862  1.00  0.00     0.042 C 
HETATM    5  C9  UNL     1    -133.057-185.492 296.552  1.00  0.00     0.177 C 
HETATM    6  F1  UNL     1    -131.751-185.606 297.012  1.00  0.00    -0.249 F 
HETATM    7  C10 UNL     1    -133.079-185.888 295.128  1.00  0.00     0.052 C 
HETATM    8  C11 UNL     1    -132.558-184.821 294.182  1.00  0.00    -0.003 C 
HETATM    9  C12 UNL     1    -132.960-183.430 294.615  1.00  0.00     0.010 C 
HETATM   10  C13 UNL     1    -133.628-185.333 293.201  1.00  0.00     0.036 C 
ENDROOT
BRANCH   1  11
HETATM   11  N2  UNL     1    -135.234-186.888 294.335  1.00  0.00    -0.333 N 
HETATM   12  C4  UNL     1    -136.385-186.977 293.518  1.00  0.00     0.317 C 
HETATM   13  N1  UNL     1    -137.190-188.149 293.462  1.00  0.00    -0.339 N 
HETATM   14  O1  UNL     1    -136.779-186.025 292.782  1.00  0.00    -0.247 OA
ATOM     15  H1  UNL     1    -136.910-188.942 294.039  1.00  0.00     0.164 HD
ATOM     16  H2  UNL     1    -134.993-187.707 294.894  1.00  0.00     0.165 HD
BRANCH  13  17
HETATM   17  C2  UNL     1    -138.359-188.295 292.658  1.00  0.00     0.078 C 
HETATM   18  C1  UNL     1    -139.617-188.502 293.457  1.00  0.00     0.032 C 
HETATM   19  C3  UNL     1    -138.225-189.494 291.716  1.00  0.00     0.032 C 
ENDBRANCH  13  17
ENDBRANCH   1  11
TORSDOF 2
ENDMDL
MODEL 5
REMARK VINA RESULT: -5.394661298      1.884      2.626
REMARK  2 active torsions:
REMARK  status: ('A' for Active; 'I' for Inactive)
REMARK    1  A    between atoms: C2_2  and  N1_4 
REMARK       I    between atoms: N1_4  and  C4_6 
REMARK       I    between atoms: C4_6  and  N2_8 
REMARK    2  A    between atoms: N2_8  and  C5_10 
ROOT
HETATM    1  C5  UNL     1    -133.831-184.237 295.857  1.00  0.00     0.042 C 
HETATM    2  C6  UNL     1    -133.247-185.625 296.130  1.00  0.00     0.036 C 
HETATM    3  C7  UNL     1    -133.078-186.420 294.872  1.00  0.00    -0.009 C 
HETATM    4  C8  UNL     1    -134.480-186.841 294.422  1.00  0.00     0.042 C 
HETATM    5  C9  UNL     1    -135.325-185.624 294.387  1.00  0.00     0.177 C 
HETATM    6  F1  UNL     1    -135.958-185.568 293.151  1.00  0.00    -0.249 F 
HETATM    7  C10 UNL     1    -134.630-184.337 294.606  1.00  0.00     0.052 C 
HETATM    8  C11 UNL     1    -133.324-184.202 293.843  1.00  0.00    -0.003 C 
HETATM    9  C12 UNL     1    -132.561-185.505 293.785  1.00  0.00     0.010 C 
HETATM   10  C13 UNL     1    -132.823-183.420 295.070  1.00  0.00     0.036 C 
ENDROOT
BRANCH   1  11
HETATM   11  N2  UNL     1    -134.403-183.644 297.002  1.00  0.00    -0.333 N 
HETATM   12  C4  UNL     1    -135.543-182.808 297.009  1.00  0.00     0.317 C 
HETATM   13  N1  UNL     1    -136.065-182.242 298.205  1.00  0.00    -0.339 N 
HETATM   14  O1  UNL     1    -136.178-182.504 295.955  1.00  0.00    -0.247 OA
ATOM     15  H1  UNL     1    -135.586-182.459 299.079  1.00  0.00     0.164 HD
ATOM     16  H2  UNL     1    -133.958-183.835 297.900  1.00  0.00     0.165 HD
BRANCH  13  17
HETATM   17  C2  UNL     1    -137.211-181.394 298.271  1.00  0.00     0.078 C 
HETATM   18  C1  UNL     1    -136.885-179.931 298.124  1.00  0.00     0.032 C 
HETATM   19  C3  UNL     1    -137.933-181.559 299.610  1.00  0.00     0.032 C 
ENDBRANCH  13  17
ENDBRANCH   1  11
TORSDOF 2
ENDMDL
