MODEL 1
REMARK VINA RESULT: -5.500327257      0.000      0.000
REMARK  2 active torsions:
REMARK  status: ('A' for Active; 'I' for Inactive)
REMARK    1  A    between atoms: C2_2  and  N1_4 
REMARK       I    between atoms: C4_6  and  N3_8 
REMARK    2  A    between atoms: N3_8  and  C5_10 
ROOT
HETATM    1  C5  UNL     1    -134.979-183.740 295.841  1.00  0.00     0.086 C 
HETATM    2  C6  UNL     1    -134.551-184.278 294.515  1.00  0.00     0.025 C 
HETATM    3  C7  UNL     1    -135.043-185.724 294.354  1.00  0.00     0.002 C 
HETATM    4  C8  UNL     1    -133.867-186.653 294.558  1.00  0.00     0.000 C 
HETATM    5  C9  UNL     1    -133.529-186.580 296.051  1.00  0.00     0.003 C 
HETATM    6  C10 UNL     1    -132.381-185.677 296.257  1.00  0.00     0.037 C 
HETATM    7  C11 UNL     1    -132.667-184.307 296.744  1.00  0.00     0.172 C 
HETATM    8  F1  UNL     1    -131.959-183.335 296.021  1.00  0.00    -0.249 F 
HETATM    9  C12 UNL     1    -134.075-183.944 296.985  1.00  0.00     0.062 C 
ENDROOT
BRANCH   1  10
HETATM   10  N3  UNL     1    -135.330-182.348 295.670  1.00  0.00    -0.360 N 
HETATM   11  C4  UNL     1    -136.429-181.716 296.287  1.00  0.00     0.184 C 
HETATM   12  N1  UNL     1    -136.492-181.439 297.535  1.00  0.00    -0.361 N 
HETATM   13  N2  UNL     1    -137.534-181.366 295.461  1.00  0.00    -0.064 NA
ATOM     14  H1  UNL     1    -135.682-181.704 298.095  1.00  0.00     0.162 HD
ATOM     15  H3  UNL     1    -134.740-181.783 295.059  1.00  0.00     0.162 HD
BRANCH  12  16
HETATM   16  C2  UNL     1    -137.544-180.813 298.229  1.00  0.00     0.076 C 
HETATM   17  C1  UNL     1    -137.376-179.377 298.551  1.00  0.00     0.032 C 
HETATM   18  C3  UNL     1    -137.835-181.573 299.527  1.00  0.00     0.032 C 
ENDBRANCH  12  16
ENDBRANCH   1  10
TORSDOF 2
ENDMDL
MODEL 2
REMARK VINA RESULT: -5.105294198      2.015      2.355
REMARK  2 active torsions:
REMARK  status: ('A' for Active; 'I' for Inactive)
REMARK    1  A    between atoms: C2_2  and  N1_4 
REMARK       I    between atoms: C4_6  and  N3_8 
REMARK    2  A    between atoms: N3_8  and  C5_10 
ROOT
HETATM    1  C5  UNL     1    -133.871-183.472 294.619  1.00  0.00     0.086 C 
HETATM    2  C6  UNL     1    -132.774-184.139 293.854  1.00  0.00     0.025 C 
HETATM    3  C7  UNL     1    -133.328-185.360 293.105  1.00  0.00     0.002 C 
HETATM    4  C8  UNL     1    -132.901-186.607 293.847  1.00  0.00     0.000 C 
HETATM    5  C9  UNL     1    -133.710-186.620 295.148  1.00  0.00     0.003 C 
HETATM    6  C10 UNL     1    -132.876-186.118 296.257  1.00  0.00     0.037 C 
HETATM    7  C11 UNL     1    -133.091-184.720 296.696  1.00  0.00     0.172 C 
HETATM    8  F1  UNL     1    -131.881-184.030 296.865  1.00  0.00    -0.249 F 
HETATM    9  C12 UNL     1    -134.120-183.930 295.996  1.00  0.00     0.062 C 
ENDROOT
BRANCH   1  10
HETATM   10  N3  UNL     1    -133.661-182.043 294.553  1.00  0.00    -0.360 N 
HETATM   11  C4  UNL     1    -134.679-181.091 294.339  1.00  0.00     0.184 C 
HETATM   12  N1  UNL     1    -135.571-180.785 295.204  1.00  0.00    -0.361 N 
HETATM   13  N2  UNL     1    -134.707-180.434 293.077  1.00  0.00    -0.064 NA
ATOM     14  H1  UNL     1    -135.518-181.276 296.096  1.00  0.00     0.162 HD
ATOM     15  H3  UNL     1    -132.707-181.699 294.671  1.00  0.00     0.162 HD
BRANCH  12  16
HETATM   16  C2  UNL     1    -136.615-179.852 295.074  1.00  0.00     0.076 C 
HETATM   17  C1  UNL     1    -136.692-178.781 296.094  1.00  0.00     0.032 C 
HETATM   18  C3  UNL     1    -137.961-180.582 295.032  1.00  0.00     0.032 C 
ENDBRANCH  12  16
ENDBRANCH   1  10
TORSDOF 2
ENDMDL
MODEL 3
REMARK VINA RESULT: -5.007127894      1.520      2.355
REMARK  2 active torsions:
REMARK  status: ('A' for Active; 'I' for Inactive)
REMARK    1  A    between atoms: C2_2  and  N1_4 
REMARK       I    between atoms: C4_6  and  N3_8 
REMARK    2  A    between atoms: N3_8  and  C5_10 
ROOT
HETATM    1  C5  UNL     1    -133.987-183.246 294.879  1.00  0.00     0.086 C 
HETATM    2  C6  UNL     1    -134.112-183.794 296.263  1.00  0.00     0.025 C 
HETATM    3  C7  UNL     1    -132.790-184.451 296.686  1.00  0.00     0.002 C 
HETATM    4  C8  UNL     1    -132.957-185.952 296.606  1.00  0.00     0.000 C 
HETATM    5  C9  UNL     1    -133.033-186.287 295.113  1.00  0.00     0.003 C 
HETATM    6  C10 UNL     1    -134.442-186.477 294.717  1.00  0.00     0.037 C 
HETATM    7  C11 UNL     1    -135.111-185.360 294.012  1.00  0.00     0.172 C 
HETATM    8  F1  UNL     1    -136.387-185.100 294.533  1.00  0.00    -0.249 F 
HETATM    9  C12 UNL     1    -134.325-184.139 293.758  1.00  0.00     0.062 C 
ENDROOT
BRANCH   1  10
HETATM   10  N3  UNL     1    -134.720-182.001 294.820  1.00  0.00    -0.360 N 
HETATM   11  C4  UNL     1    -135.942-181.757 295.480  1.00  0.00     0.184 C 
HETATM   12  N1  UNL     1    -136.059-181.610 296.746  1.00  0.00    -0.361 N 
HETATM   13  N2  UNL     1    -137.115-181.670 294.679  1.00  0.00    -0.064 NA
ATOM     14  H1  UNL     1    -135.197-181.678 297.287  1.00  0.00     0.162 HD
ATOM     15  H3  UNL     1    -134.325-181.246 294.260  1.00  0.00     0.162 HD
BRANCH  12  16
HETATM   16  C2  UNL     1    -137.232-181.364 297.482  1.00  0.00     0.076 C 
HETATM   17  C1  UNL     1    -137.531-179.953 297.820  1.00  0.00     0.032 C 
HETATM   18  C3  UNL     1    -137.213-182.182 298.778  1.00  0.00     0.032 C 
ENDBRANCH  12  16
ENDBRANCH   1  10
TORSDOF 2
ENDMDL
MODEL 4
REMARK VINA RESULT: -4.974622770      2.627      6.390
REMARK  2 active torsions:
REMARK  status: ('A' for Active; 'I' for Inactive)
REMARK    1  A    between atoms: C2_2  and  N1_4 
REMARK       I    between atoms: C4_6  and  N3_8 
REMARK    2  A    between atoms: N3_8  and  C5_10 
ROOT
HETATM    1  C5  UNL     1    -136.583-181.396 297.640  1.00  0.00     0.086 C 
HETATM    2  C6  UNL     1    -137.701-180.837 296.822  1.00  0.00     0.025 C 
HETATM    3  C7  UNL     1    -137.292-179.475 296.240  1.00  0.00     0.002 C 
HETATM    4  C8  UNL     1    -137.986-178.390 297.033  1.00  0.00     0.000 C 
HETATM    5  C9  UNL     1    -137.310-178.380 298.409  1.00  0.00     0.003 C 
HETATM    6  C10 UNL     1    -138.147-179.114 299.378  1.00  0.00     0.037 C 
HETATM    7  C11 UNL     1    -137.743-180.497 299.721  1.00  0.00     0.172 C 
HETATM    8  F1  UNL     1    -138.832-181.381 299.703  1.00  0.00    -0.249 F 
HETATM    9  C12 UNL     1    -136.539-181.043 299.069  1.00  0.00     0.062 C 
ENDROOT
BRANCH   1  10
HETATM   10  N3  UNL     1    -136.546-182.826 297.435  1.00  0.00    -0.360 N 
HETATM   11  C4  UNL     1    -135.623-183.494 296.604  1.00  0.00     0.184 C 
HETATM   12  N1  UNL     1    -134.381-183.637 296.878  1.00  0.00    -0.361 N 
HETATM   13  N2  UNL     1    -136.114-184.041 295.386  1.00  0.00    -0.064 NA
ATOM     14  H1  UNL     1    -134.067-183.232 297.760  1.00  0.00     0.162 HD
ATOM     15  H3  UNL     1    -137.238-183.392 297.926  1.00  0.00     0.162 HD
BRANCH  12  16
HETATM   16  C2  UNL     1    -133.397-184.286 296.111  1.00  0.00     0.076 C 
HETATM   17  C1  UNL     1    -132.457-185.174 296.835  1.00  0.00     0.032 C 
HETATM   18  C3  UNL     1    -132.584-183.251 295.327  1.00  0.00     0.032 C 
ENDBRANCH  12  16
ENDBRANCH   1  10
TORSDOF 2
ENDMDL
MODEL 5
REMARK VINA RESULT: -4.867298662      2.161      3.202
REMARK  2 active torsions:
REMARK  status: ('A' for Active; 'I' for Inactive)
REMARK    1  A    between atoms: C2_2  and  N1_4 
REMARK       I    between atoms: C4_6  and  N3_8 
REMARK    2  A    between atoms: N3_8  and  C5_10 
ROOT
HETATM    1  C5  UNL     1    -132.924-183.456 294.700  1.00  0.00     0.086 C 
HETATM    2  C6  UNL     1    -133.394-183.833 296.067  1.00  0.00     0.025 C 
HETATM    3  C7  UNL     1    -132.451-184.884 296.672  1.00  0.00     0.002 C 
HETATM    4  C8  UNL     1    -133.133-186.232 296.603  1.00  0.00     0.000 C 
HETATM    5  C9  UNL     1    -133.152-186.617 295.119  1.00  0.00     0.003 C 
HETATM    6  C10 UNL     1    -134.480-186.325 294.547  1.00  0.00     0.037 C 
HETATM    7  C11 UNL     1    -134.621-185.092 293.738  1.00  0.00     0.172 C 
HETATM    8  F1  UNL     1    -135.771-184.367 294.082  1.00  0.00    -0.249 F 
HETATM    9  C12 UNL     1    -133.427-184.245 293.563  1.00  0.00     0.062 C 
ENDROOT
BRANCH   1  10
HETATM   10  N3  UNL     1    -133.153-182.040 294.520  1.00  0.00    -0.360 N 
HETATM   11  C4  UNL     1    -134.400-181.462 294.209  1.00  0.00     0.184 C 
HETATM   12  N1  UNL     1    -135.379-181.378 295.030  1.00  0.00    -0.361 N 
HETATM   13  N2  UNL     1    -134.573-180.940 292.897  1.00  0.00    -0.064 NA
ATOM     14  H1  UNL     1    -135.218-181.763 295.961  1.00  0.00     0.162 HD
ATOM     15  H3  UNL     1    -132.353-181.415 294.626  1.00  0.00     0.162 HD
BRANCH  12  16
HETATM   16  C2  UNL     1    -136.650-180.820 294.804  1.00  0.00     0.076 C 
HETATM   17  C1  UNL     1    -137.197-179.943 295.865  1.00  0.00     0.032 C 
HETATM   18  C3  UNL     1    -137.664-181.933 294.522  1.00  0.00     0.032 C 
ENDBRANCH  12  16
ENDBRANCH   1  10
TORSDOF 2
ENDMDL
