MODEL 1
REMARK VINA RESULT: -5.227220559      0.000      0.000
REMARK  4 active torsions:
REMARK  status: ('A' for Active; 'I' for Inactive)
REMARK    1  A    between atoms: C1_2  and  N1_3 
REMARK    2  A    between atoms: C1_2  and  N2_9 
REMARK    3  A    between atoms: N1_3  and  C2_5 
REMARK    4  A    between atoms: N2_9  and  C6_11 
ROOT
HETATM    1  N2  UNL     1    -134.677-182.610 295.314  1.00  0.00    -0.362 N 
ATOM      2  H2  UNL     1    -133.921-182.038 294.938  1.00  0.00     0.162 HD
ENDROOT
BRANCH   1   3
HETATM    3  C1  UNL     1    -135.967-182.072 295.433  1.00  0.00     0.168 C 
HETATM    4  S1  UNL     1    -137.138-182.587 294.423  1.00  0.00    -0.041 SA
BRANCH   3   5
HETATM    5  N1  UNL     1    -136.224-181.096 296.423  1.00  0.00    -0.363 N 
ATOM      6  H1  UNL     1    -135.658-180.249 296.470  1.00  0.00     0.162 HD
BRANCH   5   7
HETATM    7  C2  UNL     1    -137.299-181.312 297.368  1.00  0.00     0.083 C 
HETATM    8  C3  UNL     1    -137.054-182.486 298.278  1.00  0.00     0.025 C 
HETATM    9  C4  UNL     1    -137.489-181.620 299.440  1.00  0.00     0.004 C 
HETATM   10  C5  UNL     1    -137.221-180.406 298.568  1.00  0.00     0.025 C 
ENDBRANCH   5   7
ENDBRANCH   3   5
ENDBRANCH   1   3
BRANCH   1  11
HETATM   11  C6  UNL     1    -134.415-183.962 295.719  1.00  0.00     0.088 C 
HETATM   12  C7  UNL     1    -133.771-183.962 297.099  1.00  0.00     0.030 C 
HETATM   13  C8  UNL     1    -132.512-184.753 296.904  1.00  0.00    -0.012 C 
HETATM   14  C9  UNL     1    -131.508-183.986 296.052  1.00  0.00     0.005 C 
HETATM   15  C12 UNL     1    -132.980-185.764 295.843  1.00  0.00     0.011 C 
HETATM   16  C10 UNL     1    -132.192-183.898 294.683  1.00  0.00     0.007 C 
HETATM   17  C11 UNL     1    -133.444-184.692 294.837  1.00  0.00     0.009 C 
ENDBRANCH   1  11
TORSDOF 4
ENDMDL
MODEL 2
REMARK VINA RESULT: -4.903338829      1.101      1.789
REMARK  4 active torsions:
REMARK  status: ('A' for Active; 'I' for Inactive)
REMARK    1  A    between atoms: C1_2  and  N1_3 
REMARK    2  A    between atoms: C1_2  and  N2_9 
REMARK    3  A    between atoms: N1_3  and  C2_5 
REMARK    4  A    between atoms: N2_9  and  C6_11 
ROOT
HETATM    1  N2  UNL     1    -134.966-183.123 296.574  1.00  0.00    -0.362 N 
ATOM      2  H2  UNL     1    -134.540-183.209 297.497  1.00  0.00     0.162 HD
ENDROOT
BRANCH   1   3
HETATM    3  C1  UNL     1    -136.251-182.573 296.446  1.00  0.00     0.168 C 
HETATM    4  S1  UNL     1    -136.714-181.967 295.006  1.00  0.00    -0.041 SA
BRANCH   3   5
HETATM    5  N1  UNL     1    -137.112-182.553 297.566  1.00  0.00    -0.363 N 
ATOM      6  H1  UNL     1    -137.953-183.131 297.580  1.00  0.00     0.162 HD
BRANCH   5   7
HETATM    7  C2  UNL     1    -136.789-181.705 298.694  1.00  0.00     0.083 C 
HETATM    8  C3  UNL     1    -136.844-180.238 298.360  1.00  0.00     0.025 C 
HETATM    9  C4  UNL     1    -137.617-180.020 299.642  1.00  0.00     0.004 C 
HETATM   10  C5  UNL     1    -137.948-181.503 299.633  1.00  0.00     0.025 C 
ENDBRANCH   5   7
ENDBRANCH   3   5
ENDBRANCH   1   3
BRANCH   1  11
HETATM   11  C6  UNL     1    -134.248-183.565 295.413  1.00  0.00     0.088 C 
HETATM   12  C7  UNL     1    -134.648-184.998 295.086  1.00  0.00     0.030 C 
HETATM   13  C8  UNL     1    -133.338-185.729 295.036  1.00  0.00    -0.012 C 
HETATM   14  C9  UNL     1    -132.724-185.847 296.425  1.00  0.00     0.005 C 
HETATM   15  C12 UNL     1    -132.423-184.624 294.479  1.00  0.00     0.011 C 
HETATM   16  C10 UNL     1    -132.406-184.397 296.802  1.00  0.00     0.007 C 
HETATM   17  C11 UNL     1    -132.758-183.607 295.589  1.00  0.00     0.009 C 
ENDBRANCH   1  11
TORSDOF 4
ENDMDL
MODEL 3
REMARK VINA RESULT: -4.889216528      1.438      5.895
REMARK  4 active torsions:
REMARK  status: ('A' for Active; 'I' for Inactive)
REMARK    1  A    between atoms: C1_2  and  N1_3 
REMARK    2  A    between atoms: C1_2  and  N2_9 
REMARK    3  A    between atoms: N1_3  and  C2_5 
REMARK    4  A    between atoms: N2_9  and  C6_11 
ROOT
HETATM    1  N2  UNL     1    -137.122-182.852 298.045  1.00  0.00    -0.362 N 
ATOM      2  H2  UNL     1    -137.943-183.424 298.247  1.00  0.00     0.162 HD
ENDROOT
BRANCH   1   3
HETATM    3  C1  UNL     1    -136.249-183.225 297.011  1.00  0.00     0.168 C 
HETATM    4  S1  UNL     1    -136.865-183.609 295.552  1.00  0.00    -0.041 SA
BRANCH   3   5
HETATM    5  N1  UNL     1    -134.858-183.263 297.258  1.00  0.00    -0.363 N 
ATOM      6  H1  UNL     1    -134.459-182.742 298.038  1.00  0.00     0.162 HD
BRANCH   5   7
HETATM    7  C2  UNL     1    -134.006-184.050 296.391  1.00  0.00     0.083 C 
HETATM    8  C3  UNL     1    -133.248-183.212 295.396  1.00  0.00     0.025 C 
HETATM    9  C4  UNL     1    -132.006-184.003 295.742  1.00  0.00     0.004 C 
HETATM   10  C5  UNL     1    -132.694-184.421 297.030  1.00  0.00     0.025 C 
ENDBRANCH   5   7
ENDBRANCH   3   5
ENDBRANCH   1   3
BRANCH   1  11
HETATM   11  C6  UNL     1    -136.866-181.671 298.818  1.00  0.00     0.088 C 
HETATM   12  C7  UNL     1    -137.941-181.522 299.886  1.00  0.00     0.030 C 
HETATM   13  C8  UNL     1    -138.478-180.139 299.660  1.00  0.00    -0.012 C 
HETATM   14  C9  UNL     1    -139.268-180.064 298.359  1.00  0.00     0.005 C 
HETATM   15  C12 UNL     1    -137.202-179.419 299.190  1.00  0.00     0.011 C 
HETATM   16  C10 UNL     1    -138.207-180.309 297.280  1.00  0.00     0.007 C 
HETATM   17  C11 UNL     1    -136.922-180.394 298.029  1.00  0.00     0.009 C 
ENDBRANCH   1  11
TORSDOF 4
ENDMDL
MODEL 4
REMARK VINA RESULT: -4.765669247      0.963      1.714
REMARK  4 active torsions:
REMARK  status: ('A' for Active; 'I' for Inactive)
REMARK    1  A    between atoms: C1_2  and  N1_3 
REMARK    2  A    between atoms: C1_2  and  N2_9 
REMARK    3  A    between atoms: N1_3  and  C2_5 
REMARK    4  A    between atoms: N2_9  and  C6_11 
ROOT
HETATM    1  N2  UNL     1    -135.000-183.897 296.796  1.00  0.00    -0.362 N 
ATOM      2  H2  UNL     1    -135.223-184.730 297.341  1.00  0.00     0.162 HD
ENDROOT
BRANCH   1   3
HETATM    3  C1  UNL     1    -136.034-183.094 296.293  1.00  0.00     0.168 C 
HETATM    4  S1  UNL     1    -137.107-183.742 295.250  1.00  0.00    -0.041 SA
BRANCH   3   5
HETATM    5  N1  UNL     1    -136.123-181.743 296.697  1.00  0.00    -0.363 N 
ATOM      6  H1  UNL     1    -135.420-181.068 296.396  1.00  0.00     0.162 HD
BRANCH   5   7
HETATM    7  C2  UNL     1    -137.223-181.327 297.541  1.00  0.00     0.083 C 
HETATM    8  C3  UNL     1    -137.278-182.078 298.845  1.00  0.00     0.025 C 
HETATM    9  C4  UNL     1    -137.494-180.755 299.547  1.00  0.00     0.004 C 
HETATM   10  C5  UNL     1    -136.932-180.069 298.314  1.00  0.00     0.025 C 
ENDBRANCH   5   7
ENDBRANCH   3   5
ENDBRANCH   1   3
BRANCH   1  11
HETATM   11  C6  UNL     1    -133.629-183.553 296.546  1.00  0.00     0.088 C 
HETATM   12  C7  UNL     1    -133.439-183.273 295.061  1.00  0.00     0.030 C 
HETATM   13  C8  UNL     1    -132.318-184.189 294.667  1.00  0.00    -0.012 C 
HETATM   14  C9  UNL     1    -132.765-185.646 294.692  1.00  0.00     0.005 C 
HETATM   15  C12 UNL     1    -131.488-184.187 295.963  1.00  0.00     0.011 C 
HETATM   16  C10 UNL     1    -133.050-185.908 296.175  1.00  0.00     0.007 C 
HETATM   17  C11 UNL     1    -132.652-184.649 296.863  1.00  0.00     0.009 C 
ENDBRANCH   1  11
TORSDOF 4
ENDMDL
MODEL 5
REMARK VINA RESULT: -4.596671262      0.975      1.445
REMARK  4 active torsions:
REMARK  status: ('A' for Active; 'I' for Inactive)
REMARK    1  A    between atoms: C1_2  and  N1_3 
REMARK    2  A    between atoms: C1_2  and  N2_9 
REMARK    3  A    between atoms: N1_3  and  C2_5 
REMARK    4  A    between atoms: N2_9  and  C6_11 
ROOT
HETATM    1  N2  UNL     1    -134.781-182.690 295.452  1.00  0.00    -0.362 N 
ATOM      2  H2  UNL     1    -134.082-182.087 295.017  1.00  0.00     0.162 HD
ENDROOT
BRANCH   1   3
HETATM    3  C1  UNL     1    -136.071-182.196 295.700  1.00  0.00     0.168 C 
HETATM    4  S1  UNL     1    -137.220-182.368 294.557  1.00  0.00    -0.041 SA
BRANCH   3   5
HETATM    5  N1  UNL     1    -136.346-181.561 296.932  1.00  0.00    -0.363 N 
ATOM      6  H1  UNL     1    -135.997-181.956 297.805  1.00  0.00     0.162 HD
BRANCH   5   7
HETATM    7  C2  UNL     1    -137.128-180.343 296.941  1.00  0.00     0.083 C 
HETATM    8  C3  UNL     1    -137.150-179.669 298.287  1.00  0.00     0.025 C 
HETATM    9  C4  UNL     1    -136.878-178.356 297.586  1.00  0.00     0.004 C 
HETATM   10  C5  UNL     1    -136.381-179.156 296.394  1.00  0.00     0.025 C 
ENDBRANCH   5   7
ENDBRANCH   3   5
ENDBRANCH   1   3
BRANCH   1  11
HETATM   11  C6  UNL     1    -134.440-184.038 295.808  1.00  0.00     0.088 C 
HETATM   12  C7  UNL     1    -133.729-184.041 297.154  1.00  0.00     0.030 C 
HETATM   13  C8  UNL     1    -132.447-184.770 296.877  1.00  0.00    -0.012 C 
HETATM   14  C9  UNL     1    -131.522-183.937 295.997  1.00  0.00     0.005 C 
HETATM   15  C12 UNL     1    -132.923-185.776 295.814  1.00  0.00     0.011 C 
HETATM   16  C10 UNL     1    -132.277-183.848 294.666  1.00  0.00     0.007 C 
HETATM   17  C11 UNL     1    -133.483-184.701 294.860  1.00  0.00     0.009 C 
ENDBRANCH   1  11
TORSDOF 4
ENDMDL
