MODEL 1
REMARK VINA RESULT: -6.997069722      0.000      0.000
REMARK  4 active torsions:
REMARK  status: ('A' for Active; 'I' for Inactive)
REMARK       I    between atoms: C2_2  and  N1_4 
REMARK    1  A    between atoms: N1_4  and  C3_5 
REMARK    2  A    between atoms: C6_13  and  N5_14 
REMARK    3  A    between atoms: N5_14  and  N6_16 
REMARK    4  A    between atoms: C7_19  and  N7_20 
ROOT
HETATM    1  C3  UNL     1     -20.804 -30.041  -3.636  1.00  0.00     0.179 A 
HETATM    2  C4  UNL     1     -21.847 -30.061  -4.500  1.00  0.00     0.172 A 
HETATM    3  C5  UNL     1     -23.198 -30.339  -4.046  1.00  0.00     0.122 C 
HETATM    4  N2  UNL     1     -24.261 -30.557  -3.662  1.00  0.00    -0.190 NA
HETATM    5  N3  UNL     1     -21.633 -29.800  -5.828  1.00  0.00    -0.286 N 
ATOM      6  H3  UNL     1     -22.423 -29.815  -6.473  1.00  0.00     0.188 HD
HETATM    7  N4  UNL     1     -20.442 -29.532  -6.285  1.00  0.00    -0.281 N 
ATOM      8  H4  UNL     1     -20.316 -29.342  -7.279  1.00  0.00     0.188 HD
HETATM    9  C6  UNL     1     -19.351 -29.502  -5.448  1.00  0.00     0.164 A 
HETATM   10  C7  UNL     1     -19.487 -29.750  -4.115  1.00  0.00     0.117 A 
ENDROOT
BRANCH   1  11
HETATM   11  N1  UNL     1     -20.871 -30.286  -2.274  1.00  0.00    -0.365 NA
HETATM   12  C2  UNL     1     -20.936 -30.522  -0.978  1.00  0.00     0.288 C 
HETATM   13  C1  UNL     1     -20.422 -29.528   0.089  1.00  0.00     0.135 C 
HETATM   14  O1  UNL     1     -21.404 -31.544  -0.407  1.00  0.00    -0.258 OA
ENDBRANCH   1  11
BRANCH  10  15
HETATM   15  N7  UNL     1     -18.611 -29.765  -3.209  1.00  0.00    -0.393 N 
ATOM     16  H72 UNL     1     -18.101 -28.988  -2.787  1.00  0.00     0.156 HD
ATOM     17  H71 UNL     1     -18.400 -30.702  -2.867  1.00  0.00     0.156 HD
ENDBRANCH  10  15
BRANCH   9  18
HETATM   18  N5  UNL     1     -18.255 -29.241  -6.011  1.00  0.00    -0.289 N 
ATOM     19  H5  UNL     1     -18.120 -28.250  -6.210  1.00  0.00     0.188 HD
BRANCH  18  20
HETATM   20  N6  UNL     1     -17.207 -30.034  -6.409  1.00  0.00    -0.344 N 
ATOM     21  H62 UNL     1     -17.215 -30.947  -5.956  1.00  0.00     0.176 HD
ATOM     22  H61 UNL     1     -16.438 -29.880  -7.061  1.00  0.00     0.176 HD
ENDBRANCH  18  20
ENDBRANCH   9  18
TORSDOF 4
ENDMDL
MODEL 2
REMARK VINA RESULT: -6.774835803      2.193      3.602
REMARK  4 active torsions:
REMARK  status: ('A' for Active; 'I' for Inactive)
REMARK       I    between atoms: C2_2  and  N1_4 
REMARK    1  A    between atoms: N1_4  and  C3_5 
REMARK    2  A    between atoms: C6_13  and  N5_14 
REMARK    3  A    between atoms: N5_14  and  N6_16 
REMARK    4  A    between atoms: C7_19  and  N7_20 
ROOT
HETATM    1  C3  UNL     1     -21.539 -30.443  -4.151  1.00  0.00     0.179 A 
HETATM    2  C4  UNL     1     -21.193 -30.583  -2.849  1.00  0.00     0.172 A 
HETATM    3  C5  UNL     1     -22.090 -31.207  -1.893  1.00  0.00     0.122 C 
HETATM    4  N2  UNL     1     -22.816 -31.711  -1.154  1.00  0.00    -0.190 NA
HETATM    5  N3  UNL     1     -19.968 -30.144  -2.421  1.00  0.00    -0.286 N 
ATOM      6  H3  UNL     1     -19.713 -30.254  -1.440  1.00  0.00     0.188 HD
HETATM    7  N4  UNL     1     -19.121 -29.588  -3.242  1.00  0.00    -0.281 N 
ATOM      8  H4  UNL     1     -18.217 -29.271  -2.892  1.00  0.00     0.188 HD
HETATM    9  C6  UNL     1     -19.427 -29.421  -4.573  1.00  0.00     0.164 A 
HETATM   10  C7  UNL     1     -20.626 -29.835  -5.070  1.00  0.00     0.117 A 
ENDROOT
BRANCH   1  11
HETATM   11  N1  UNL     1     -22.739 -30.837  -4.720  1.00  0.00    -0.365 NA
HETATM   12  C2  UNL     1     -23.881 -31.213  -5.264  1.00  0.00     0.288 C 
HETATM   13  C1  UNL     1     -25.149 -31.526  -4.438  1.00  0.00     0.135 C 
HETATM   14  O1  UNL     1     -24.129 -31.376  -6.490  1.00  0.00    -0.258 OA
ENDBRANCH   1  11
BRANCH  10  15
HETATM   15  N7  UNL     1     -21.072 -29.765  -6.246  1.00  0.00    -0.393 N 
ATOM     16  H72 UNL     1     -21.047 -30.461  -6.992  1.00  0.00     0.156 HD
ATOM     17  H71 UNL     1     -21.518 -28.872  -6.457  1.00  0.00     0.156 HD
ENDBRANCH  10  15
BRANCH   9  18
HETATM   18  N5  UNL     1     -18.531 -28.862  -5.259  1.00  0.00    -0.289 N 
ATOM     19  H5  UNL     1     -18.427 -27.866  -5.066  1.00  0.00     0.188 HD
BRANCH  18  20
HETATM   20  N6  UNL     1     -17.667 -29.334  -6.215  1.00  0.00    -0.344 N 
ATOM     21  H62 UNL     1     -17.399 -28.616  -6.888  1.00  0.00     0.176 HD
ATOM     22  H61 UNL     1     -17.253 -30.252  -6.375  1.00  0.00     0.176 HD
ENDBRANCH  18  20
ENDBRANCH   9  18
TORSDOF 4
ENDMDL
MODEL 3
REMARK VINA RESULT: -6.752350781      1.645      1.794
REMARK  4 active torsions:
REMARK  status: ('A' for Active; 'I' for Inactive)
REMARK       I    between atoms: C2_2  and  N1_4 
REMARK    1  A    between atoms: N1_4  and  C3_5 
REMARK    2  A    between atoms: C6_13  and  N5_14 
REMARK    3  A    between atoms: N5_14  and  N6_16 
REMARK    4  A    between atoms: C7_19  and  N7_20 
ROOT
HETATM    1  C3  UNL     1     -21.790 -29.933  -3.237  1.00  0.00     0.179 A 
HETATM    2  C4  UNL     1     -22.327 -30.002  -4.478  1.00  0.00     0.172 A 
HETATM    3  C5  UNL     1     -23.759 -29.884  -4.690  1.00  0.00     0.122 C 
HETATM    4  N2  UNL     1     -24.896 -29.781  -4.833  1.00  0.00    -0.190 NA
HETATM    5  N3  UNL     1     -21.507 -30.174  -5.563  1.00  0.00    -0.286 N 
ATOM      6  H3  UNL     1     -21.918 -30.224  -6.495  1.00  0.00     0.188 HD
HETATM    7  N4  UNL     1     -20.214 -30.274  -5.428  1.00  0.00    -0.281 N 
ATOM      8  H4  UNL     1     -19.632 -30.401  -6.256  1.00  0.00     0.188 HD
HETATM    9  C6  UNL     1     -19.622 -30.211  -4.188  1.00  0.00     0.164 A 
HETATM   10  C7  UNL     1     -20.374 -30.040  -3.065  1.00  0.00     0.117 A 
ENDROOT
BRANCH   1  11
HETATM   11  N1  UNL     1     -22.494 -29.764  -2.055  1.00  0.00    -0.365 NA
HETATM   12  C2  UNL     1     -23.165 -29.606  -0.930  1.00  0.00     0.288 C 
HETATM   13  C1  UNL     1     -22.826 -28.514   0.111  1.00  0.00     0.135 C 
HETATM   14  O1  UNL     1     -24.151 -30.279  -0.524  1.00  0.00    -0.258 OA
ENDBRANCH   1  11
BRANCH  10  15
HETATM   15  N7  UNL     1     -20.009 -29.961  -1.861  1.00  0.00    -0.393 N 
ATOM     16  H72 UNL     1     -20.547 -29.693  -1.037  1.00  0.00     0.156 HD
ATOM     17  H71 UNL     1     -19.029 -30.204  -1.720  1.00  0.00     0.156 HD
ENDBRANCH  10  15
BRANCH   9  18
HETATM   18  N5  UNL     1     -18.369 -30.331  -4.190  1.00  0.00    -0.289 N 
ATOM     19  H5  UNL     1     -17.880 -29.544  -3.762  1.00  0.00     0.188 HD
BRANCH  18  20
HETATM   20  N6  UNL     1     -17.533 -31.314  -4.657  1.00  0.00    -0.344 N 
ATOM     21  H62 UNL     1     -17.592 -32.170  -4.106  1.00  0.00     0.176 HD
ATOM     22  H61 UNL     1     -16.877 -31.346  -5.437  1.00  0.00     0.176 HD
ENDBRANCH  18  20
ENDBRANCH   9  18
TORSDOF 4
ENDMDL
MODEL 4
REMARK VINA RESULT: -6.629318730      1.849      3.518
REMARK  4 active torsions:
REMARK  status: ('A' for Active; 'I' for Inactive)
REMARK       I    between atoms: C2_2  and  N1_4 
REMARK    1  A    between atoms: N1_4  and  C3_5 
REMARK    2  A    between atoms: C6_13  and  N5_14 
REMARK    3  A    between atoms: N5_14  and  N6_16 
REMARK    4  A    between atoms: C7_19  and  N7_20 
ROOT
HETATM    1  C3  UNL     1     -21.340 -30.038  -4.145  1.00  0.00     0.179 A 
HETATM    2  C4  UNL     1     -20.868 -30.142  -2.880  1.00  0.00     0.172 A 
HETATM    3  C5  UNL     1     -21.747 -30.471  -1.771  1.00  0.00     0.122 C 
HETATM    4  N2  UNL     1     -22.462 -30.738  -0.909  1.00  0.00    -0.190 NA
HETATM    5  N3  UNL     1     -19.535 -29.949  -2.635  1.00  0.00    -0.286 N 
ATOM      6  H3  UNL     1     -19.186 -30.030  -1.680  1.00  0.00     0.188 HD
HETATM    7  N4  UNL     1     -18.701 -29.664  -3.597  1.00  0.00    -0.281 N 
ATOM      8  H4  UNL     1     -17.714 -29.526  -3.382  1.00  0.00     0.188 HD
HETATM    9  C6  UNL     1     -19.132 -29.545  -4.898  1.00  0.00     0.164 A 
HETATM   10  C7  UNL     1     -20.445 -29.725  -5.217  1.00  0.00     0.117 A 
ENDROOT
BRANCH   1  11
HETATM   11  N1  UNL     1     -22.659 -30.204  -4.538  1.00  0.00    -0.365 NA
HETATM   12  C2  UNL     1     -23.915 -30.361  -4.911  1.00  0.00     0.288 C 
HETATM   13  C1  UNL     1     -24.327 -31.093  -6.209  1.00  0.00     0.135 C 
HETATM   14  O1  UNL     1     -24.949 -29.965  -4.307  1.00  0.00    -0.258 OA
ENDBRANCH   1  11
BRANCH  10  15
HETATM   15  N7  UNL     1     -21.013 -29.657  -6.339  1.00  0.00    -0.393 N 
ATOM     16  H72 UNL     1     -21.495 -30.384  -6.868  1.00  0.00     0.156 HD
ATOM     17  H71 UNL     1     -20.969 -28.728  -6.759  1.00  0.00     0.156 HD
ENDBRANCH  10  15
BRANCH   9  18
HETATM   18  N5  UNL     1     -18.234 -29.257  -5.732  1.00  0.00    -0.289 N 
ATOM     19  H5  UNL     1     -18.224 -28.274  -6.002  1.00  0.00     0.188 HD
BRANCH  18  20
HETATM   20  N6  UNL     1     -17.266 -30.010  -6.348  1.00  0.00    -0.344 N 
ATOM     21  H62 UNL     1     -17.615 -30.918  -6.656  1.00  0.00     0.176 HD
ATOM     22  H61 UNL     1     -16.282 -29.834  -6.550  1.00  0.00     0.176 HD
ENDBRANCH  18  20
ENDBRANCH   9  18
TORSDOF 4
ENDMDL
MODEL 5
REMARK VINA RESULT: -6.604236399      1.488      1.833
REMARK  4 active torsions:
REMARK  status: ('A' for Active; 'I' for Inactive)
REMARK       I    between atoms: C2_2  and  N1_4 
REMARK    1  A    between atoms: N1_4  and  C3_5 
REMARK    2  A    between atoms: C6_13  and  N5_14 
REMARK    3  A    between atoms: N5_14  and  N6_16 
REMARK    4  A    between atoms: C7_19  and  N7_20 
ROOT
HETATM    1  C3  UNL     1     -21.837 -30.618  -3.527  1.00  0.00     0.179 A 
HETATM    2  C4  UNL     1     -22.508 -30.633  -4.704  1.00  0.00     0.172 A 
HETATM    3  C5  UNL     1     -23.826 -31.233  -4.813  1.00  0.00     0.122 C 
HETATM    4  N2  UNL     1     -24.873 -31.710  -4.874  1.00  0.00    -0.190 NA
HETATM    5  N3  UNL     1     -21.946 -30.060  -5.814  1.00  0.00    -0.286 N 
ATOM      6  H3  UNL     1     -22.457 -30.075  -6.696  1.00  0.00     0.188 HD
HETATM    7  N4  UNL     1     -20.770 -29.498  -5.766  1.00  0.00    -0.281 N 
ATOM      8  H4  UNL     1     -20.379 -29.080  -6.610  1.00  0.00     0.188 HD
HETATM    9  C6  UNL     1     -20.049 -29.458  -4.596  1.00  0.00     0.164 A 
HETATM   10  C7  UNL     1     -20.545 -30.006  -3.452  1.00  0.00     0.117 A 
ENDROOT
BRANCH   1  11
HETATM   11  N1  UNL     1     -22.281 -31.157  -2.331  1.00  0.00    -0.365 NA
HETATM   12  C2  UNL     1     -22.702 -31.670  -1.190  1.00  0.00     0.288 C 
HETATM   13  C1  UNL     1     -24.034 -32.444  -1.051  1.00  0.00     0.135 C 
HETATM   14  O1  UNL     1     -22.126 -31.625  -0.070  1.00  0.00    -0.258 OA
ENDBRANCH   1  11
BRANCH  10  15
HETATM   15  N7  UNL     1     -20.033 -30.063  -2.302  1.00  0.00    -0.393 N 
ATOM     16  H72 UNL     1     -19.997 -29.351  -1.572  1.00  0.00     0.156 HD
ATOM     17  H71 UNL     1     -19.596 -30.961  -2.098  1.00  0.00     0.156 HD
ENDBRANCH  10  15
BRANCH   9  18
HETATM   18  N5  UNL     1     -18.925 -28.897  -4.682  1.00  0.00    -0.289 N 
ATOM     19  H5  UNL     1     -18.478 -28.730  -3.780  1.00  0.00     0.188 HD
BRANCH  18  20
HETATM   20  N6  UNL     1     -18.185 -28.466  -5.754  1.00  0.00    -0.344 N 
ATOM     21  H62 UNL     1     -18.555 -28.801  -6.644  1.00  0.00     0.176 HD
ATOM     22  H61 UNL     1     -17.350 -27.885  -5.825  1.00  0.00     0.176 HD
ENDBRANCH  18  20
ENDBRANCH   9  18
TORSDOF 4
ENDMDL
