MODEL 1
REMARK VINA RESULT: -5.996486603      0.000      0.000
REMARK  6 active torsions:
REMARK  status: ('A' for Active; 'I' for Inactive)
REMARK    1  A    between atoms: C1_4  and  O1_6 
REMARK    2  A    between atoms: O1_6  and  N3_7 
REMARK    3  A    between atoms: C2_9  and  O2_10 
REMARK    4  A    between atoms: C2_9  and  N4_12 
REMARK    5  A    between atoms: N4_12  and  S1_14 
REMARK    6  A    between atoms: S1_14  and  N5_15 
ROOT
HETATM    1  N3  UNL     1     -20.855 -30.795  -3.333  1.00  0.00    -0.221 N 
ATOM      2  H3  UNL     1     -21.723 -31.074  -3.789  1.00  0.00     0.198 HD
HETATM    3  C2  UNL     1     -19.878 -30.368  -4.054  1.00  0.00     0.252 C 
ENDROOT
BRANCH   3   4
HETATM    4  O2  UNL     1     -18.712 -30.001  -3.366  1.00  0.00    -0.331 OA
ATOM      5  H2  UNL     1     -18.771 -29.221  -2.828  1.00  0.00     0.221 HD
ENDBRANCH   3   4
BRANCH   3   6
HETATM    6  N4  UNL     1     -19.966 -30.272  -5.467  1.00  0.00    -0.231 N 
ATOM      7  H4  UNL     1     -20.737 -30.727  -5.955  1.00  0.00     0.184 HD
BRANCH   6   8
HETATM    8  S1  UNL     1     -18.791 -29.398  -6.365  1.00  0.00     0.319 S 
HETATM    9  O3  UNL     1     -18.692 -27.966  -5.914  1.00  0.00    -0.183 OA
HETATM   10  O4  UNL     1     -19.217 -29.370  -7.826  1.00  0.00    -0.183 OA
BRANCH   8  11
HETATM   11  N5  UNL     1     -17.284 -30.206  -6.279  1.00  0.00    -0.311 N 
ATOM     12  H52 UNL     1     -16.852 -30.702  -7.058  1.00  0.00     0.170 HD
ATOM     13  H51 UNL     1     -16.896 -30.111  -5.340  1.00  0.00     0.170 HD
ENDBRANCH   8  11
ENDBRANCH   6   8
ENDBRANCH   3   6
BRANCH   1  14
HETATM   14  O1  UNL     1     -20.762 -30.884  -1.985  1.00  0.00    -0.201 OA
BRANCH  14  15
HETATM   15  C1  UNL     1     -20.651 -29.789  -1.139  1.00  0.00     0.249 C 
HETATM   16  N1  UNL     1     -19.648 -29.747  -0.342  1.00  0.00    -0.366 N 
ATOM     17  H12 UNL     1     -19.567 -28.943   0.280  1.00  0.00     0.159 HD
ATOM     18  H11 UNL     1     -18.953 -30.493  -0.328  1.00  0.00     0.159 HD
HETATM   19  N2  UNL     1     -21.620 -28.748  -1.159  1.00  0.00    -0.055 NA
ENDBRANCH  14  15
ENDBRANCH   1  14
TORSDOF 6
ENDMDL
MODEL 2
REMARK VINA RESULT: -5.908142214      1.574      1.980
REMARK  6 active torsions:
REMARK  status: ('A' for Active; 'I' for Inactive)
REMARK    1  A    between atoms: C1_4  and  O1_6 
REMARK    2  A    between atoms: O1_6  and  N3_7 
REMARK    3  A    between atoms: C2_9  and  O2_10 
REMARK    4  A    between atoms: C2_9  and  N4_12 
REMARK    5  A    between atoms: N4_12  and  S1_14 
REMARK    6  A    between atoms: S1_14  and  N5_15 
ROOT
HETATM    1  N3  UNL     1     -20.860 -29.734  -3.333  1.00  0.00    -0.221 N 
ATOM      2  H3  UNL     1     -21.723 -30.048  -3.777  1.00  0.00     0.198 HD
HETATM    3  C2  UNL     1     -19.731 -30.040  -3.872  1.00  0.00     0.252 C 
ENDROOT
BRANCH   3   4
HETATM    4  O2  UNL     1     -18.583 -29.578  -3.211  1.00  0.00    -0.331 OA
ATOM      5  H2  UNL     1     -18.681 -29.383  -2.287  1.00  0.00     0.221 HD
ENDBRANCH   3   4
BRANCH   3   6
HETATM    6  N4  UNL     1     -19.644 -30.801  -5.065  1.00  0.00    -0.231 N 
ATOM      7  H4  UNL     1     -20.486 -31.229  -5.452  1.00  0.00     0.184 HD
BRANCH   6   8
HETATM    8  S1  UNL     1     -18.140 -31.013  -5.867  1.00  0.00     0.319 S 
HETATM    9  O3  UNL     1     -18.269 -31.896  -7.078  1.00  0.00    -0.183 OA
HETATM   10  O4  UNL     1     -17.175 -31.709  -4.916  1.00  0.00    -0.183 OA
BRANCH   8  11
HETATM   11  N5  UNL     1     -17.474 -29.483  -6.253  1.00  0.00    -0.311 N 
ATOM     12  H52 UNL     1     -18.008 -28.616  -6.291  1.00  0.00     0.170 HD
ATOM     13  H51 UNL     1     -16.474 -29.580  -6.435  1.00  0.00     0.170 HD
ENDBRANCH   8  11
ENDBRANCH   6   8
ENDBRANCH   3   6
BRANCH   1  14
HETATM   14  O1  UNL     1     -20.934 -29.006  -2.194  1.00  0.00    -0.201 OA
BRANCH  14  15
HETATM   15  C1  UNL     1     -21.014 -29.557  -0.923  1.00  0.00     0.249 C 
HETATM   16  N1  UNL     1     -19.921 -29.908  -0.352  1.00  0.00    -0.366 N 
ATOM     17  H12 UNL     1     -19.980 -30.313   0.582  1.00  0.00     0.159 HD
ATOM     18  H11 UNL     1     -19.020 -29.787  -0.815  1.00  0.00     0.159 HD
HETATM   19  N2  UNL     1     -22.270 -29.725  -0.276  1.00  0.00    -0.055 NA
ENDBRANCH  14  15
ENDBRANCH   1  14
TORSDOF 6
ENDMDL
MODEL 3
REMARK VINA RESULT: -5.877927511      2.387      5.217
REMARK  6 active torsions:
REMARK  status: ('A' for Active; 'I' for Inactive)
REMARK    1  A    between atoms: C1_4  and  O1_6 
REMARK    2  A    between atoms: O1_6  and  N3_7 
REMARK    3  A    between atoms: C2_9  and  O2_10 
REMARK    4  A    between atoms: C2_9  and  N4_12 
REMARK    5  A    between atoms: N4_12  and  S1_14 
REMARK    6  A    between atoms: S1_14  and  N5_15 
ROOT
HETATM    1  N3  UNL     1     -19.654 -28.203  -4.863  1.00  0.00    -0.221 N 
ATOM      2  H3  UNL     1     -20.394 -27.567  -5.159  1.00  0.00     0.198 HD
HETATM    3  C2  UNL     1     -19.801 -28.872  -3.774  1.00  0.00     0.252 C 
ENDROOT
BRANCH   3   4
HETATM    4  O2  UNL     1     -18.747 -29.727  -3.423  1.00  0.00    -0.331 OA
ATOM      5  H2  UNL     1     -18.940 -30.657  -3.431  1.00  0.00     0.221 HD
ENDBRANCH   3   4
BRANCH   3   6
HETATM    6  N4  UNL     1     -20.962 -28.756  -2.967  1.00  0.00    -0.231 N 
ATOM      7  H4  UNL     1     -21.620 -27.995  -3.136  1.00  0.00     0.184 HD
BRANCH   6   8
HETATM    8  S1  UNL     1     -21.274 -29.881  -1.706  1.00  0.00     0.319 S 
HETATM    9  O3  UNL     1     -22.586 -29.608  -1.024  1.00  0.00    -0.183 OA
HETATM   10  O4  UNL     1     -20.189 -29.739  -0.647  1.00  0.00    -0.183 OA
BRANCH   8  11
HETATM   11  N5  UNL     1     -21.188 -31.476  -2.325  1.00  0.00    -0.311 N 
ATOM     12  H52 UNL     1     -21.073 -31.705  -3.312  1.00  0.00     0.170 HD
ATOM     13  H51 UNL     1     -21.270 -32.146  -1.560  1.00  0.00     0.170 HD
ENDBRANCH   8  11
ENDBRANCH   6   8
ENDBRANCH   3   6
BRANCH   1  14
HETATM   14  O1  UNL     1     -18.543 -28.319  -5.628  1.00  0.00    -0.201 OA
BRANCH  14  15
HETATM   15  C1  UNL     1     -18.320 -29.357  -6.523  1.00  0.00     0.249 C 
HETATM   16  N1  UNL     1     -17.300 -30.109  -6.325  1.00  0.00    -0.366 N 
ATOM     17  H12 UNL     1     -17.136 -30.871  -6.983  1.00  0.00     0.159 HD
ATOM     18  H11 UNL     1     -16.672 -29.952  -5.538  1.00  0.00     0.159 HD
HETATM   19  N2  UNL     1     -19.195 -29.576  -7.622  1.00  0.00    -0.055 NA
ENDBRANCH  14  15
ENDBRANCH   1  14
TORSDOF 6
ENDMDL
MODEL 4
REMARK VINA RESULT: -5.830021809      2.253      5.239
REMARK  6 active torsions:
REMARK  status: ('A' for Active; 'I' for Inactive)
REMARK    1  A    between atoms: C1_4  and  O1_6 
REMARK    2  A    between atoms: O1_6  and  N3_7 
REMARK    3  A    between atoms: C2_9  and  O2_10 
REMARK    4  A    between atoms: C2_9  and  N4_12 
REMARK    5  A    between atoms: N4_12  and  S1_14 
REMARK    6  A    between atoms: S1_14  and  N5_15 
ROOT
HETATM    1  N3  UNL     1     -19.589 -28.244  -4.817  1.00  0.00    -0.221 N 
ATOM      2  H3  UNL     1     -20.282 -27.534  -5.057  1.00  0.00     0.198 HD
HETATM    3  C2  UNL     1     -19.790 -28.993  -3.790  1.00  0.00     0.252 C 
ENDROOT
BRANCH   3   4
HETATM    4  O2  UNL     1     -18.800 -29.948  -3.515  1.00  0.00    -0.331 OA
ATOM      5  H2  UNL     1     -18.894 -30.787  -3.951  1.00  0.00     0.221 HD
ENDBRANCH   3   4
BRANCH   3   6
HETATM    6  N4  UNL     1     -20.944 -28.866  -2.975  1.00  0.00    -0.231 N 
ATOM      7  H4  UNL     1     -21.604 -28.108  -3.151  1.00  0.00     0.184 HD
BRANCH   6   8
HETATM    8  S1  UNL     1     -21.245 -29.972  -1.695  1.00  0.00     0.319 S 
HETATM    9  O3  UNL     1     -21.487 -31.366  -2.205  1.00  0.00    -0.183 OA
HETATM   10  O4  UNL     1     -22.512 -29.543  -0.969  1.00  0.00    -0.183 OA
BRANCH   8  11
HETATM   11  N5  UNL     1     -19.956 -29.912  -0.569  1.00  0.00    -0.311 N 
ATOM     12  H52 UNL     1     -19.060 -29.458  -0.743  1.00  0.00     0.170 HD
ATOM     13  H51 UNL     1     -20.226 -30.396   0.288  1.00  0.00     0.170 HD
ENDBRANCH   8  11
ENDBRANCH   6   8
ENDBRANCH   3   6
BRANCH   1  14
HETATM   14  O1  UNL     1     -18.485 -28.372  -5.590  1.00  0.00    -0.201 OA
BRANCH  14  15
HETATM   15  C1  UNL     1     -18.295 -29.392  -6.512  1.00  0.00     0.249 C 
HETATM   16  N1  UNL     1     -17.281 -30.161  -6.353  1.00  0.00    -0.366 N 
ATOM     17  H12 UNL     1     -17.141 -30.911  -7.031  1.00  0.00     0.159 HD
ATOM     18  H11 UNL     1     -16.633 -30.029  -5.576  1.00  0.00     0.159 HD
HETATM   19  N2  UNL     1     -19.197 -29.578  -7.595  1.00  0.00    -0.055 NA
ENDBRANCH  14  15
ENDBRANCH   1  14
TORSDOF 6
ENDMDL
MODEL 5
REMARK VINA RESULT: -5.829592487      1.028      1.247
REMARK  6 active torsions:
REMARK  status: ('A' for Active; 'I' for Inactive)
REMARK    1  A    between atoms: C1_4  and  O1_6 
REMARK    2  A    between atoms: O1_6  and  N3_7 
REMARK    3  A    between atoms: C2_9  and  O2_10 
REMARK    4  A    between atoms: C2_9  and  N4_12 
REMARK    5  A    between atoms: N4_12  and  S1_14 
REMARK    6  A    between atoms: S1_14  and  N5_15 
ROOT
HETATM    1  N3  UNL     1     -20.974 -30.979  -3.451  1.00  0.00    -0.221 N 
ATOM      2  H3  UNL     1     -21.837 -31.254  -3.919  1.00  0.00     0.198 HD
HETATM    3  C2  UNL     1     -19.987 -30.552  -4.159  1.00  0.00     0.252 C 
ENDROOT
BRANCH   3   4
HETATM    4  O2  UNL     1     -18.829 -30.191  -3.455  1.00  0.00    -0.331 OA
ATOM      5  H2  UNL     1     -18.013 -30.562  -3.769  1.00  0.00     0.221 HD
ENDBRANCH   3   4
BRANCH   3   6
HETATM    6  N4  UNL     1     -20.057 -30.452  -5.572  1.00  0.00    -0.231 N 
ATOM      7  H4  UNL     1     -20.863 -30.835  -6.065  1.00  0.00     0.184 HD
BRANCH   6   8
HETATM    8  S1  UNL     1     -18.801 -29.691  -6.464  1.00  0.00     0.319 S 
HETATM    9  O3  UNL     1     -19.193 -29.457  -7.897  1.00  0.00    -0.183 OA
HETATM   10  O4  UNL     1     -17.591 -30.615  -6.485  1.00  0.00    -0.183 OA
BRANCH   8  11
HETATM   11  N5  UNL     1     -18.334 -28.242  -5.679  1.00  0.00    -0.311 N 
ATOM     12  H52 UNL     1     -17.624 -28.186  -4.949  1.00  0.00     0.170 HD
ATOM     13  H51 UNL     1     -18.871 -27.460  -6.054  1.00  0.00     0.170 HD
ENDBRANCH   8  11
ENDBRANCH   6   8
ENDBRANCH   3   6
BRANCH   1  14
HETATM   14  O1  UNL     1     -20.899 -31.071  -2.103  1.00  0.00    -0.201 OA
BRANCH  14  15
HETATM   15  C1  UNL     1     -20.917 -29.980  -1.246  1.00  0.00     0.249 C 
HETATM   16  N1  UNL     1     -19.872 -29.759  -0.536  1.00  0.00    -0.366 N 
ATOM     17  H12 UNL     1     -19.885 -28.957   0.094  1.00  0.00     0.159 HD
ATOM     18  H11 UNL     1     -19.054 -30.364  -0.597  1.00  0.00     0.159 HD
HETATM   19  N2  UNL     1     -22.058 -29.135  -1.160  1.00  0.00    -0.055 NA
ENDBRANCH  14  15
ENDBRANCH   1  14
TORSDOF 6
ENDMDL
