MODEL 1
REMARK VINA RESULT: -5.906925429      0.000      0.000
REMARK  3 active torsions:
REMARK  status: ('A' for Active; 'I' for Inactive)
REMARK    1  A    between atoms: O1_2  and  C2_3 
REMARK    2  A    between atoms: C2_3  and  N2_7 
REMARK       I    between atoms: N2_7  and  C3_9 
REMARK       I    between atoms: C3_9  and  N4_13 
REMARK    3  A    between atoms: N4_13  and  S1_15 
ROOT
HETATM    1  N2  UNL     1     -19.975 -29.382  -2.998  1.00  0.00    -0.155 N 
ATOM      2  H2  UNL     1     -19.628 -28.641  -2.389  1.00  0.00     0.188 HD
HETATM    3  C3  UNL     1     -19.536 -29.400  -4.356  1.00  0.00     0.690 C 
HETATM    4  N3  UNL     1     -19.135 -28.308  -4.932  1.00  0.00    -0.234 N 
ATOM      5  H31 UNL     1     -18.822 -28.321  -5.902  1.00  0.00     0.174 HD
ATOM      6  H32 UNL     1     -19.155 -27.458  -4.368  1.00  0.00     0.174 HD
HETATM    7  N4  UNL     1     -19.509 -30.570  -5.133  1.00  0.00    -0.098 N 
ATOM      8  H4  UNL     1     -20.353 -31.133  -5.245  1.00  0.00     0.200 HD
ENDROOT
BRANCH   1   9
HETATM    9  C2  UNL     1     -20.862 -30.335  -2.453  1.00  0.00     0.231 C 
HETATM   10  N1  UNL     1     -20.676 -30.859  -1.277  1.00  0.00    -0.365 N 
ATOM     11  H12 UNL     1     -21.317 -31.548  -0.883  1.00  0.00     0.159 HD
ATOM     12  H11 UNL     1     -19.849 -30.541  -0.773  1.00  0.00     0.159 HD
BRANCH   9  13
HETATM   13  O1  UNL     1     -21.988 -30.768  -3.140  1.00  0.00    -0.327 OA
HETATM   14  C1  UNL     1     -22.184 -32.182  -3.284  1.00  0.00     0.213 C 
ENDBRANCH   9  13
ENDBRANCH   1   9
BRANCH   7  15
HETATM   15  S1  UNL     1     -18.048 -31.041  -5.890  1.00  0.00     0.223 S 
HETATM   16  O2  UNL     1     -18.308 -32.063  -6.973  1.00  0.00    -0.577 OA
HETATM   17  O3  UNL     1     -17.151 -31.747  -4.883  1.00  0.00    -0.577 OA
HETATM   18  O4  UNL     1     -17.227 -29.724  -6.518  1.00  0.00    -0.577 OA
ENDBRANCH   7  15
TORSDOF 3
ENDMDL
MODEL 2
REMARK VINA RESULT: -5.899521450      0.092      1.270
REMARK  3 active torsions:
REMARK  status: ('A' for Active; 'I' for Inactive)
REMARK    1  A    between atoms: O1_2  and  C2_3 
REMARK    2  A    between atoms: C2_3  and  N2_7 
REMARK       I    between atoms: N2_7  and  C3_9 
REMARK       I    between atoms: C3_9  and  N4_13 
REMARK    3  A    between atoms: N4_13  and  S1_15 
ROOT
HETATM    1  N2  UNL     1     -20.023 -29.377  -3.004  1.00  0.00    -0.155 N 
ATOM      2  H2  UNL     1     -19.689 -28.643  -2.379  1.00  0.00     0.188 HD
HETATM    3  C3  UNL     1     -19.567 -29.371  -4.356  1.00  0.00     0.690 C 
HETATM    4  N3  UNL     1     -19.167 -28.267  -4.911  1.00  0.00    -0.234 N 
ATOM      5  H31 UNL     1     -18.842 -28.264  -5.877  1.00  0.00     0.174 HD
ATOM      6  H32 UNL     1     -19.200 -27.427  -4.335  1.00  0.00     0.174 HD
HETATM    7  N4  UNL     1     -19.522 -30.529  -5.150  1.00  0.00    -0.098 N 
ATOM      8  H4  UNL     1     -20.360 -31.096  -5.281  1.00  0.00     0.200 HD
ENDROOT
BRANCH   1   9
HETATM    9  C2  UNL     1     -20.910 -30.343  -2.484  1.00  0.00     0.231 C 
HETATM   10  N1  UNL     1     -20.742 -30.875  -1.308  1.00  0.00    -0.365 N 
ATOM     11  H12 UNL     1     -21.383 -31.574  -0.932  1.00  0.00     0.159 HD
ATOM     12  H11 UNL     1     -19.929 -30.550  -0.784  1.00  0.00     0.159 HD
BRANCH   9  13
HETATM   13  O1  UNL     1     -22.016 -30.785  -3.197  1.00  0.00    -0.327 OA
HETATM   14  C1  UNL     1     -22.227 -32.200  -3.302  1.00  0.00     0.213 C 
ENDBRANCH   9  13
ENDBRANCH   1   9
BRANCH   7  15
HETATM   15  S1  UNL     1     -18.048 -30.979  -5.896  1.00  0.00     0.223 S 
HETATM   16  O2  UNL     1     -17.376 -29.780  -6.524  1.00  0.00    -0.577 OA
HETATM   17  O3  UNL     1     -18.324 -31.932  -7.049  1.00  0.00    -0.577 OA
HETATM   18  O4  UNL     1     -17.013 -31.724  -4.811  1.00  0.00    -0.577 OA
ENDBRANCH   7  15
TORSDOF 3
ENDMDL
MODEL 3
REMARK VINA RESULT: -5.887342477      1.462      2.048
REMARK  3 active torsions:
REMARK  status: ('A' for Active; 'I' for Inactive)
REMARK    1  A    between atoms: O1_2  and  C2_3 
REMARK    2  A    between atoms: C2_3  and  N2_7 
REMARK       I    between atoms: N2_7  and  C3_9 
REMARK       I    between atoms: C3_9  and  N4_13 
REMARK    3  A    between atoms: N4_13  and  S1_15 
ROOT
HETATM    1  N2  UNL     1     -21.138 -29.403  -3.330  1.00  0.00    -0.155 N 
ATOM      2  H2  UNL     1     -21.330 -28.576  -2.765  1.00  0.00     0.188 HD
HETATM    3  C3  UNL     1     -20.907 -29.227  -4.727  1.00  0.00     0.690 C 
HETATM    4  N3  UNL     1     -21.386 -28.192  -5.348  1.00  0.00    -0.234 N 
ATOM      5  H31 UNL     1     -21.221 -28.067  -6.346  1.00  0.00     0.174 HD
ATOM      6  H32 UNL     1     -21.925 -27.531  -4.789  1.00  0.00     0.174 HD
HETATM    7  N4  UNL     1     -20.166 -30.138  -5.498  1.00  0.00    -0.098 N 
ATOM      8  H4  UNL     1     -20.422 -31.126  -5.515  1.00  0.00     0.200 HD
ENDROOT
BRANCH   1   9
HETATM    9  C2  UNL     1     -21.116 -30.660  -2.688  1.00  0.00     0.231 C 
HETATM   10  N1  UNL     1     -20.699 -30.802  -1.463  1.00  0.00    -0.365 N 
ATOM     11  H12 UNL     1     -20.683 -31.711  -0.999  1.00  0.00     0.159 HD
ATOM     12  H11 UNL     1     -20.390 -29.951  -0.995  1.00  0.00     0.159 HD
BRANCH   9  13
HETATM   13  O1  UNL     1     -21.536 -31.819  -3.325  1.00  0.00    -0.327 OA
HETATM   14  C1  UNL     1     -22.933 -32.142  -3.280  1.00  0.00     0.213 C 
ENDBRANCH   9  13
ENDBRANCH   1   9
BRANCH   7  15
HETATM   15  S1  UNL     1     -18.829 -29.576  -6.406  1.00  0.00     0.223 S 
HETATM   16  O2  UNL     1     -18.419 -28.192  -5.958  1.00  0.00    -0.577 OA
HETATM   17  O3  UNL     1     -19.227 -29.420  -7.867  1.00  0.00    -0.577 OA
HETATM   18  O4  UNL     1     -17.531 -30.628  -6.306  1.00  0.00    -0.577 OA
ENDBRANCH   7  15
TORSDOF 3
ENDMDL
MODEL 4
REMARK VINA RESULT: -5.885528434      2.027      2.631
REMARK  3 active torsions:
REMARK  status: ('A' for Active; 'I' for Inactive)
REMARK    1  A    between atoms: O1_2  and  C2_3 
REMARK    2  A    between atoms: C2_3  and  N2_7 
REMARK       I    between atoms: N2_7  and  C3_9 
REMARK       I    between atoms: C3_9  and  N4_13 
REMARK    3  A    between atoms: N4_13  and  S1_15 
ROOT
HETATM    1  N2  UNL     1     -20.804 -31.466  -3.558  1.00  0.00    -0.155 N 
ATOM      2  H2  UNL     1     -20.415 -32.067  -2.832  1.00  0.00     0.188 HD
HETATM    3  C3  UNL     1     -20.028 -30.354  -4.002  1.00  0.00     0.690 C 
HETATM    4  N3  UNL     1     -19.129 -29.828  -3.227  1.00  0.00    -0.234 N 
ATOM      5  H31 UNL     1     -18.575 -29.033  -3.544  1.00  0.00     0.174 HD
ATOM      6  H32 UNL     1     -19.017 -30.248  -2.304  1.00  0.00     0.174 HD
HETATM    7  N4  UNL     1     -20.183 -29.775  -5.273  1.00  0.00    -0.098 N 
ATOM      8  H4  UNL     1     -21.098 -29.446  -5.581  1.00  0.00     0.200 HD
ENDROOT
BRANCH   1   9
HETATM    9  C2  UNL     1     -22.082 -31.780  -4.070  1.00  0.00     0.231 C 
HETATM   10  N1  UNL     1     -22.986 -32.378  -3.352  1.00  0.00    -0.365 N 
ATOM     11  H12 UNL     1     -23.910 -32.606  -3.721  1.00  0.00     0.159 HD
ATOM     12  H11 UNL     1     -22.717 -32.607  -2.395  1.00  0.00     0.159 HD
BRANCH   9  13
HETATM   13  O1  UNL     1     -22.448 -31.468  -5.372  1.00  0.00    -0.327 OA
HETATM   14  C1  UNL     1     -23.823 -31.145  -5.625  1.00  0.00     0.213 C 
ENDBRANCH   9  13
ENDBRANCH   1   9
BRANCH   7  15
HETATM   15  S1  UNL     1     -18.821 -29.628  -6.299  1.00  0.00     0.223 S 
HETATM   16  O2  UNL     1     -18.094 -28.327  -6.045  1.00  0.00    -0.577 OA
HETATM   17  O3  UNL     1     -19.274 -29.555  -7.750  1.00  0.00    -0.577 OA
HETATM   18  O4  UNL     1     -17.774 -30.922  -6.122  1.00  0.00    -0.577 OA
ENDBRANCH   7  15
TORSDOF 3
ENDMDL
MODEL 5
REMARK VINA RESULT: -5.815249595      2.015      2.417
REMARK  3 active torsions:
REMARK  status: ('A' for Active; 'I' for Inactive)
REMARK    1  A    between atoms: O1_2  and  C2_3 
REMARK    2  A    between atoms: C2_3  and  N2_7 
REMARK       I    between atoms: N2_7  and  C3_9 
REMARK       I    between atoms: C3_9  and  N4_13 
REMARK    3  A    between atoms: N4_13  and  S1_15 
ROOT
HETATM    1  N2  UNL     1     -20.761 -31.462  -3.545  1.00  0.00    -0.155 N 
ATOM      2  H2  UNL     1     -20.355 -32.070  -2.833  1.00  0.00     0.188 HD
HETATM    3  C3  UNL     1     -19.995 -30.346  -3.996  1.00  0.00     0.690 C 
HETATM    4  N3  UNL     1     -19.080 -29.827  -3.235  1.00  0.00    -0.234 N 
ATOM      5  H31 UNL     1     -18.533 -29.028  -3.558  1.00  0.00     0.174 HD
ATOM      6  H32 UNL     1     -18.947 -30.255  -2.320  1.00  0.00     0.174 HD
HETATM    7  N4  UNL     1     -20.179 -29.755  -5.257  1.00  0.00    -0.098 N 
ATOM      8  H4  UNL     1     -21.101 -29.424  -5.541  1.00  0.00     0.200 HD
ENDROOT
BRANCH   1   9
HETATM    9  C2  UNL     1     -22.049 -31.772  -4.031  1.00  0.00     0.231 C 
HETATM   10  N1  UNL     1     -22.953 -32.335  -3.283  1.00  0.00    -0.365 N 
ATOM     11  H12 UNL     1     -23.884 -32.560  -3.635  1.00  0.00     0.159 HD
ATOM     12  H11 UNL     1     -22.675 -32.539  -2.324  1.00  0.00     0.159 HD
BRANCH   9  13
HETATM   13  O1  UNL     1     -22.428 -31.495  -5.338  1.00  0.00    -0.327 OA
HETATM   14  C1  UNL     1     -23.792 -31.123  -5.577  1.00  0.00     0.213 C 
ENDBRANCH   9  13
ENDBRANCH   1   9
BRANCH   7  15
HETATM   15  S1  UNL     1     -18.840 -29.597  -6.312  1.00  0.00     0.223 S 
HETATM   16  O2  UNL     1     -17.875 -30.746  -6.131  1.00  0.00    -0.577 OA
HETATM   17  O3  UNL     1     -18.047 -28.349  -5.953  1.00  0.00    -0.577 OA
HETATM   18  O4  UNL     1     -19.326 -29.491  -7.911  1.00  0.00    -0.577 OA
ENDBRANCH   7  15
TORSDOF 3
ENDMDL
