MODEL 1
REMARK VINA RESULT: -7.572533505      0.000      0.000
REMARK  3 active torsions:
REMARK  status: ('A' for Active; 'I' for Inactive)
REMARK    1  A    between atoms: N1_1  and  N2_4 
REMARK       I    between atoms: N2_4  and  C1_6 
REMARK       I    between atoms: C1_6  and  N3_8 
REMARK    2  A    between atoms: N3_8  and  N4_10 
REMARK       I    between atoms: N4_10  and  C2_12 
REMARK    3  A    between atoms: C2_12  and  C3_14 
ROOT
HETATM    1  N4  UNL     1     -19.566 -29.880  -2.603  1.00  0.00    -0.262 N 
ATOM      2  H4  UNL     1     -18.715 -29.640  -2.094  1.00  0.00     0.190 HD
HETATM    3  C2  UNL     1     -20.834 -29.693  -1.996  1.00  0.00     0.270 C 
HETATM    4  O2  UNL     1     -21.892 -29.993  -2.656  1.00  0.00    -0.266 OA
ENDROOT
BRANCH   1   5
HETATM    5  N3  UNL     1     -19.486 -30.390  -3.890  1.00  0.00    -0.247 N 
HETATM    6  C1  UNL     1     -19.415 -29.489  -4.996  1.00  0.00     0.353 C 
HETATM    7  N2  UNL     1     -19.339 -30.037  -6.309  1.00  0.00    -0.257 N 
HETATM    8  O1  UNL     1     -19.424 -28.263  -4.784  1.00  0.00    -0.244 OA
ATOM      9  H2  UNL     1     -19.335 -31.046  -6.457  1.00  0.00     0.191 HD
ATOM     10  H3  UNL     1     -19.477 -31.397  -4.046  1.00  0.00     0.192 HD
BRANCH   7  11
HETATM   11  N1  UNL     1     -19.270 -29.155  -7.386  1.00  0.00    -0.341 N 
ATOM     12  H12 UNL     1     -19.893 -29.277  -8.184  1.00  0.00     0.177 HD
ATOM     13  H11 UNL     1     -18.586 -28.399  -7.347  1.00  0.00     0.177 HD
ENDBRANCH   7  11
ENDBRANCH   1   5
BRANCH   3  14
HETATM   14  C3  UNL     1     -21.064 -29.180  -0.660  1.00  0.00     0.035 A 
HETATM   15  C4  UNL     1     -20.252 -29.543   0.379  1.00  0.00     0.017 A 
HETATM   16  C5  UNL     1     -20.465 -29.052   1.678  1.00  0.00     0.003 A 
HETATM   17  C6  UNL     1     -21.514 -28.189   1.905  1.00  0.00     0.026 A 
HETATM   18  C7  UNL     1     -22.349 -27.806   0.877  1.00  0.00     0.047 A 
HETATM   19  N5  UNL     1     -23.454 -26.915   1.052  1.00  0.00    -0.102 NA
HETATM   20  C8  UNL     1     -22.106 -28.313  -0.396  1.00  0.00     0.043 A 
ENDBRANCH   3  14
TORSDOF 3
ENDMDL
MODEL 2
REMARK VINA RESULT: -7.553103687      1.442      1.997
REMARK  3 active torsions:
REMARK  status: ('A' for Active; 'I' for Inactive)
REMARK    1  A    between atoms: N1_1  and  N2_4 
REMARK       I    between atoms: N2_4  and  C1_6 
REMARK       I    between atoms: C1_6  and  N3_8 
REMARK    2  A    between atoms: N3_8  and  N4_10 
REMARK       I    between atoms: N4_10  and  C2_12 
REMARK    3  A    between atoms: C2_12  and  C3_14 
ROOT
HETATM    1  N4  UNL     1     -20.547 -29.275  -2.250  1.00  0.00    -0.262 N 
ATOM      2  H4  UNL     1     -20.754 -28.319  -2.541  1.00  0.00     0.190 HD
HETATM    3  C2  UNL     1     -21.162 -29.814  -1.092  1.00  0.00     0.270 C 
HETATM    4  O2  UNL     1     -20.894 -31.020  -0.747  1.00  0.00    -0.266 OA
ENDROOT
BRANCH   1   5
HETATM    5  N3  UNL     1     -19.663 -30.050  -2.987  1.00  0.00    -0.247 N 
HETATM    6  C1  UNL     1     -19.142 -29.539  -4.214  1.00  0.00     0.353 C 
HETATM    7  N2  UNL     1     -18.240 -30.356  -4.956  1.00  0.00    -0.257 N 
HETATM    8  O1  UNL     1     -19.486 -28.407  -4.598  1.00  0.00    -0.244 OA
ATOM      9  H2  UNL     1     -17.974 -31.282  -4.620  1.00  0.00     0.191 HD
ATOM     10  H3  UNL     1     -19.389 -30.974  -2.656  1.00  0.00     0.192 HD
BRANCH   7  11
HETATM   11  N1  UNL     1     -17.732 -29.855  -6.153  1.00  0.00    -0.341 N 
ATOM     12  H12 UNL     1     -17.083 -30.416  -6.704  1.00  0.00     0.177 HD
ATOM     13  H11 UNL     1     -18.027 -28.925  -6.450  1.00  0.00     0.177 HD
ENDBRANCH   7  11
ENDBRANCH   1   5
BRANCH   3  14
HETATM   14  C3  UNL     1     -22.093 -29.117  -0.227  1.00  0.00     0.035 A 
HETATM   15  C4  UNL     1     -23.443 -29.217  -0.426  1.00  0.00     0.017 A 
HETATM   16  C5  UNL     1     -24.354 -28.546   0.405  1.00  0.00     0.003 A 
HETATM   17  C6  UNL     1     -23.876 -27.774   1.440  1.00  0.00     0.026 A 
HETATM   18  C7  UNL     1     -22.520 -27.654   1.665  1.00  0.00     0.047 A 
HETATM   19  N5  UNL     1     -21.964 -26.866   2.721  1.00  0.00    -0.102 NA
HETATM   20  C8  UNL     1     -21.648 -28.334   0.820  1.00  0.00     0.043 A 
ENDBRANCH   3  14
TORSDOF 3
ENDMDL
MODEL 3
REMARK VINA RESULT: -7.489952311      2.694      6.317
REMARK  3 active torsions:
REMARK  status: ('A' for Active; 'I' for Inactive)
REMARK    1  A    between atoms: N1_1  and  N2_4 
REMARK       I    between atoms: N2_4  and  C1_6 
REMARK       I    between atoms: C1_6  and  N3_8 
REMARK    2  A    between atoms: N3_8  and  N4_10 
REMARK       I    between atoms: N4_10  and  C2_12 
REMARK    3  A    between atoms: C2_12  and  C3_14 
ROOT
HETATM    1  N4  UNL     1     -20.452 -30.434  -1.786  1.00  0.00    -0.262 N 
ATOM      2  H4  UNL     1     -19.778 -29.732  -1.481  1.00  0.00     0.190 HD
HETATM    3  C2  UNL     1     -20.939 -30.420  -3.118  1.00  0.00     0.270 C 
HETATM    4  O2  UNL     1     -21.780 -31.316  -3.484  1.00  0.00    -0.266 OA
ENDROOT
BRANCH   1   5
HETATM    5  N3  UNL     1     -20.894 -31.405  -0.900  1.00  0.00    -0.247 N 
HETATM    6  C1  UNL     1     -22.014 -31.127  -0.060  1.00  0.00     0.353 C 
HETATM    7  N2  UNL     1     -22.447 -32.138   0.846  1.00  0.00    -0.257 N 
HETATM    8  O1  UNL     1     -22.576 -30.019  -0.140  1.00  0.00    -0.244 OA
ATOM      9  H2  UNL     1     -21.968 -33.038   0.894  1.00  0.00     0.191 HD
ATOM     10  H3  UNL     1     -20.424 -32.308  -0.849  1.00  0.00     0.192 HD
BRANCH   7  11
HETATM   11  N1  UNL     1     -23.540 -31.864   1.665  1.00  0.00    -0.341 N 
ATOM     12  H12 UNL     1     -23.477 -31.131   2.370  1.00  0.00     0.177 HD
ATOM     13  H11 UNL     1     -24.390 -32.414   1.535  1.00  0.00     0.177 HD
ENDBRANCH   7  11
ENDBRANCH   1   5
BRANCH   3  14
HETATM   14  C3  UNL     1     -20.572 -29.463  -4.142  1.00  0.00     0.035 A 
HETATM   15  C4  UNL     1     -20.762 -28.122  -3.948  1.00  0.00     0.017 A 
HETATM   16  C5  UNL     1     -20.410 -27.185  -4.934  1.00  0.00     0.003 A 
HETATM   17  C6  UNL     1     -19.863 -27.629  -6.117  1.00  0.00     0.026 A 
HETATM   18  C7  UNL     1     -19.660 -28.975  -6.341  1.00  0.00     0.047 A 
HETATM   19  N5  UNL     1     -19.100 -29.496  -7.549  1.00  0.00    -0.102 NA
HETATM   20  C8  UNL     1     -20.022 -29.873  -5.341  1.00  0.00     0.043 A 
ENDBRANCH   3  14
TORSDOF 3
ENDMDL
MODEL 4
REMARK VINA RESULT: -7.466205689      1.350      1.750
REMARK  3 active torsions:
REMARK  status: ('A' for Active; 'I' for Inactive)
REMARK    1  A    between atoms: N1_1  and  N2_4 
REMARK       I    between atoms: N2_4  and  C1_6 
REMARK       I    between atoms: C1_6  and  N3_8 
REMARK    2  A    between atoms: N3_8  and  N4_10 
REMARK       I    between atoms: N4_10  and  C2_12 
REMARK    3  A    between atoms: C2_12  and  C3_14 
ROOT
HETATM    1  N4  UNL     1     -19.774 -29.883  -2.369  1.00  0.00    -0.262 N 
ATOM      2  H4  UNL     1     -18.985 -29.518  -1.837  1.00  0.00     0.190 HD
HETATM    3  C2  UNL     1     -21.074 -29.888  -1.801  1.00  0.00     0.270 C 
HETATM    4  O2  UNL     1     -22.055 -30.343  -2.490  1.00  0.00    -0.266 OA
ENDROOT
BRANCH   1   5
HETATM    5  N3  UNL     1     -19.580 -30.375  -3.652  1.00  0.00    -0.247 N 
HETATM    6  C1  UNL     1     -19.524 -29.463  -4.749  1.00  0.00     0.353 C 
HETATM    7  N2  UNL     1     -19.329 -29.993  -6.057  1.00  0.00    -0.257 N 
HETATM    8  O1  UNL     1     -19.646 -28.244  -4.535  1.00  0.00    -0.244 OA
ATOM      9  H2  UNL     1     -19.233 -30.998  -6.207  1.00  0.00     0.191 HD
ATOM     10  H3  UNL     1     -19.480 -31.377  -3.809  1.00  0.00     0.192 HD
BRANCH   7  11
HETATM   11  N1  UNL     1     -19.273 -29.101  -7.126  1.00  0.00    -0.341 N 
ATOM     12  H12 UNL     1     -19.783 -28.220  -7.081  1.00  0.00     0.177 HD
ATOM     13  H11 UNL     1     -18.714 -29.359  -7.940  1.00  0.00     0.177 HD
ENDBRANCH   7  11
ENDBRANCH   1   5
BRANCH   3  14
HETATM   14  C3  UNL     1     -21.417 -29.415  -0.475  1.00  0.00     0.035 A 
HETATM   15  C4  UNL     1     -21.946 -28.166  -0.291  1.00  0.00     0.017 A 
HETATM   16  C5  UNL     1     -22.282 -27.698   0.989  1.00  0.00     0.003 A 
HETATM   17  C6  UNL     1     -22.075 -28.514   2.078  1.00  0.00     0.026 A 
HETATM   18  C7  UNL     1     -21.543 -29.777   1.924  1.00  0.00     0.047 A 
HETATM   19  N5  UNL     1     -21.302 -30.668   3.016  1.00  0.00    -0.102 NA
HETATM   20  C8  UNL     1     -21.221 -30.206   0.640  1.00  0.00     0.043 A 
ENDBRANCH   3  14
TORSDOF 3
ENDMDL
MODEL 5
REMARK VINA RESULT: -7.439735927      2.743      6.478
REMARK  3 active torsions:
REMARK  status: ('A' for Active; 'I' for Inactive)
REMARK    1  A    between atoms: N1_1  and  N2_4 
REMARK       I    between atoms: N2_4  and  C1_6 
REMARK       I    between atoms: C1_6  and  N3_8 
REMARK    2  A    between atoms: N3_8  and  N4_10 
REMARK       I    between atoms: N4_10  and  C2_12 
REMARK    3  A    between atoms: C2_12  and  C3_14 
ROOT
HETATM    1  N4  UNL     1     -20.244 -30.655  -1.987  1.00  0.00    -0.262 N 
ATOM      2  H4  UNL     1     -19.802 -31.451  -2.448  1.00  0.00     0.190 HD
HETATM    3  C2  UNL     1     -20.419 -29.435  -2.688  1.00  0.00     0.270 C 
HETATM    4  O2  UNL     1     -20.984 -28.449  -2.092  1.00  0.00    -0.266 OA
ENDROOT
BRANCH   1   5
HETATM    5  N3  UNL     1     -20.674 -30.765  -0.673  1.00  0.00    -0.247 N 
HETATM    6  C1  UNL     1     -21.915 -31.414  -0.396  1.00  0.00     0.353 C 
HETATM    7  N2  UNL     1     -22.339 -31.509   0.961  1.00  0.00    -0.257 N 
HETATM    8  O1  UNL     1     -22.586 -31.873  -1.337  1.00  0.00    -0.244 OA
ATOM      9  H2  UNL     1     -21.771 -31.123   1.716  1.00  0.00     0.191 HD
ATOM     10  H3  UNL     1     -20.111 -30.385   0.088  1.00  0.00     0.192 HD
BRANCH   7  11
HETATM   11  N1  UNL     1     -23.550 -32.144   1.229  1.00  0.00    -0.341 N 
ATOM     12  H12 UNL     1     -24.302 -32.116   0.541  1.00  0.00     0.177 HD
ATOM     13  H11 UNL     1     -23.654 -32.627   2.122  1.00  0.00     0.177 HD
ENDBRANCH   7  11
ENDBRANCH   1   5
BRANCH   3  14
HETATM   14  C3  UNL     1     -20.011 -29.180  -4.054  1.00  0.00     0.035 A 
HETATM   15  C4  UNL     1     -20.260 -27.971  -4.646  1.00  0.00     0.017 A 
HETATM   16  C5  UNL     1     -19.869 -27.713  -5.970  1.00  0.00     0.003 A 
HETATM   17  C6  UNL     1     -19.222 -28.697  -6.683  1.00  0.00     0.026 A 
HETATM   18  C7  UNL     1     -18.958 -29.925  -6.113  1.00  0.00     0.047 A 
HETATM   19  N5  UNL     1     -18.292 -30.985  -6.804  1.00  0.00    -0.102 NA
HETATM   20  C8  UNL     1     -19.361 -30.144  -4.800  1.00  0.00     0.043 A 
ENDBRANCH   3  14
TORSDOF 3
ENDMDL
