MODEL 1
REMARK VINA RESULT: -7.503411664      0.000      0.000
REMARK  2 active torsions:
REMARK  status: ('A' for Active; 'I' for Inactive)
REMARK    1  A    between atoms: C3_6  and  N2_7 
REMARK    2  A    between atoms: C4_11  and  N4_12 
ROOT
HETATM    1  C1  UNL     1     -20.284 -29.855  -0.494  1.00  0.00     0.211 C 
HETATM    2  O1  UNL     1     -20.266 -29.474  -1.711  1.00  0.00    -0.338 OA
HETATM    3  C2  UNL     1     -20.288 -29.112  -2.968  1.00  0.00     0.203 A 
HETATM    4  N1  UNL     1     -21.026 -28.121  -3.578  1.00  0.00    -0.166 N 
ATOM      5  H1  UNL     1     -21.688 -27.506  -3.103  1.00  0.00     0.186 HD
HETATM    6  C3  UNL     1     -20.747 -28.084  -4.881  1.00  0.00     0.701 A 
HETATM    7  N3  UNL     1     -19.840 -29.019  -5.193  1.00  0.00     0.042 N 
HETATM    8  C4  UNL     1     -19.252 -29.363  -6.368  1.00  0.00     0.703 A 
HETATM    9  N5  UNL     1     -18.345 -30.381  -6.372  1.00  0.00    -0.140 N 
ATOM     10  H5  UNL     1     -17.885 -30.667  -7.236  1.00  0.00     0.189 HD
HETATM   11  C5  UNL     1     -18.073 -30.996  -5.215  1.00  0.00     0.340 A 
HETATM   12  O2  UNL     1     -17.238 -31.935  -5.206  1.00  0.00    -0.246 OA
HETATM   13  N6  UNL     1     -18.658 -30.651  -4.053  1.00  0.00    -0.289 N 
ATOM     14  H6  UNL     1     -18.427 -31.142  -3.188  1.00  0.00     0.172 HD
HETATM   15  C6  UNL     1     -19.555 -29.644  -4.052  1.00  0.00     0.203 A 
ENDROOT
BRANCH   6  16
HETATM   16  N2  UNL     1     -21.292 -27.249  -5.710  1.00  0.00    -0.233 N 
ATOM     17  H22 UNL     1     -21.912 -26.480  -5.461  1.00  0.00     0.174 HD
ATOM     18  H21 UNL     1     -21.149 -27.281  -6.719  1.00  0.00     0.174 HD
ENDBRANCH   6  16
BRANCH   8  19
HETATM   19  N4  UNL     1     -19.491 -28.798  -7.472  1.00  0.00    -0.233 N 
ATOM     20  H42 UNL     1     -19.852 -29.382  -8.226  1.00  0.00     0.174 HD
ATOM     21  H41 UNL     1     -19.347 -27.804  -7.650  1.00  0.00     0.174 HD
ENDBRANCH   8  19
TORSDOF 2
ENDMDL
MODEL 2
REMARK VINA RESULT: -6.598660784      2.979      3.938
REMARK  2 active torsions:
REMARK  status: ('A' for Active; 'I' for Inactive)
REMARK    1  A    between atoms: C3_6  and  N2_7 
REMARK    2  A    between atoms: C4_11  and  N4_12 
ROOT
HETATM    1  C1  UNL     1     -24.759 -30.987  -6.428  1.00  0.00     0.211 C 
HETATM    2  O1  UNL     1     -23.718 -30.892  -5.697  1.00  0.00    -0.338 OA
HETATM    3  C2  UNL     1     -22.667 -30.750  -4.933  1.00  0.00     0.203 A 
HETATM    4  N1  UNL     1     -22.522 -31.020  -3.588  1.00  0.00    -0.166 N 
ATOM      5  H1  UNL     1     -23.256 -31.386  -2.982  1.00  0.00     0.186 HD
HETATM    6  C3  UNL     1     -21.280 -30.733  -3.199  1.00  0.00     0.701 A 
HETATM    7  N3  UNL     1     -20.560 -30.271  -4.230  1.00  0.00     0.042 N 
HETATM    8  C4  UNL     1     -19.271 -29.854  -4.328  1.00  0.00     0.703 A 
HETATM    9  N5  UNL     1     -18.812 -29.430  -5.540  1.00  0.00    -0.140 N 
ATOM     10  H5  UNL     1     -17.849 -29.109  -5.651  1.00  0.00     0.189 HD
HETATM   11  C5  UNL     1     -19.653 -29.444  -6.581  1.00  0.00     0.340 A 
HETATM   12  O2  UNL     1     -19.241 -29.055  -7.702  1.00  0.00    -0.246 OA
HETATM   13  N6  UNL     1     -20.930 -29.858  -6.478  1.00  0.00    -0.289 N 
ATOM     14  H6  UNL     1     -21.545 -29.854  -7.292  1.00  0.00     0.172 HD
HETATM   15  C6  UNL     1     -21.381 -30.276  -5.278  1.00  0.00     0.203 A 
ENDROOT
BRANCH   6  16
HETATM   16  N2  UNL     1     -20.853 -30.887  -1.985  1.00  0.00    -0.233 N 
ATOM     17  H22 UNL     1     -21.255 -31.510  -1.285  1.00  0.00     0.174 HD
ATOM     18  H21 UNL     1     -20.051 -30.388  -1.600  1.00  0.00     0.174 HD
ENDBRANCH   6  16
BRANCH   8  19
HETATM   19  N4  UNL     1     -18.457 -29.832  -3.362  1.00  0.00    -0.233 N 
ATOM     20  H42 UNL     1     -18.851 -29.824  -2.422  1.00  0.00     0.174 HD
ATOM     21  H41 UNL     1     -17.443 -29.823  -3.469  1.00  0.00     0.174 HD
ENDBRANCH   8  19
TORSDOF 2
ENDMDL
MODEL 3
REMARK VINA RESULT: -6.438790840      2.810      3.526
REMARK  2 active torsions:
REMARK  status: ('A' for Active; 'I' for Inactive)
REMARK    1  A    between atoms: C3_6  and  N2_7 
REMARK    2  A    between atoms: C4_11  and  N4_12 
ROOT
HETATM    1  C1  UNL     1     -22.068 -31.436   0.290  1.00  0.00     0.211 C 
HETATM    2  O1  UNL     1     -21.596 -31.056  -0.832  1.00  0.00    -0.338 OA
HETATM    3  C2  UNL     1     -21.128 -30.621  -1.973  1.00  0.00     0.203 A 
HETATM    4  N1  UNL     1     -19.927 -30.002  -2.244  1.00  0.00    -0.166 N 
ATOM      5  H1  UNL     1     -19.207 -29.790  -1.553  1.00  0.00     0.186 HD
HETATM    6  C3  UNL     1     -19.845 -29.720  -3.545  1.00  0.00     0.701 A 
HETATM    7  N3  UNL     1     -20.952 -30.123  -4.182  1.00  0.00     0.042 N 
HETATM    8  C4  UNL     1     -21.329 -30.057  -5.486  1.00  0.00     0.703 A 
HETATM    9  N5  UNL     1     -22.544 -30.564  -5.841  1.00  0.00    -0.140 N 
ATOM     10  H5  UNL     1     -22.860 -30.530  -6.811  1.00  0.00     0.189 HD
HETATM   11  C5  UNL     1     -23.312 -31.107  -4.889  1.00  0.00     0.340 A 
HETATM   12  O2  UNL     1     -24.433 -31.577  -5.205  1.00  0.00    -0.246 OA
HETATM   13  N6  UNL     1     -22.933 -31.170  -3.598  1.00  0.00    -0.289 N 
ATOM     14  H6  UNL     1     -23.544 -31.590  -2.897  1.00  0.00     0.172 HD
HETATM   15  C6  UNL     1     -21.731 -30.666  -3.250  1.00  0.00     0.203 A 
ENDROOT
BRANCH   6  16
HETATM   16  N2  UNL     1     -18.826 -29.135  -4.092  1.00  0.00    -0.233 N 
ATOM     17  H22 UNL     1     -18.267 -28.393  -3.670  1.00  0.00     0.174 HD
ATOM     18  H21 UNL     1     -18.473 -29.365  -5.020  1.00  0.00     0.174 HD
ENDBRANCH   6  16
BRANCH   8  19
HETATM   19  N4  UNL     1     -20.624 -29.551  -6.403  1.00  0.00    -0.233 N 
ATOM     20  H42 UNL     1     -20.605 -28.533  -6.469  1.00  0.00     0.174 HD
ATOM     21  H41 UNL     1     -20.078 -30.095  -7.071  1.00  0.00     0.174 HD
ENDBRANCH   8  19
TORSDOF 2
ENDMDL
MODEL 4
REMARK VINA RESULT: -6.309596988      2.862      4.623
REMARK  2 active torsions:
REMARK  status: ('A' for Active; 'I' for Inactive)
REMARK    1  A    between atoms: C3_6  and  N2_7 
REMARK    2  A    between atoms: C4_11  and  N4_12 
ROOT
HETATM    1  C1  UNL     1     -17.837 -30.269  -6.693  1.00  0.00     0.211 C 
HETATM    2  O1  UNL     1     -18.606 -30.195  -5.679  1.00  0.00    -0.338 OA
HETATM    3  C2  UNL     1     -19.381 -30.164  -4.626  1.00  0.00     0.203 A 
HETATM    4  N1  UNL     1     -19.071 -29.833  -3.323  1.00  0.00    -0.166 N 
ATOM      5  H1  UNL     1     -18.147 -29.555  -2.993  1.00  0.00     0.186 HD
HETATM    6  C3  UNL     1     -20.159 -29.932  -2.559  1.00  0.00     0.701 A 
HETATM    7  N3  UNL     1     -21.212 -30.322  -3.290  1.00  0.00     0.042 N 
HETATM    8  C4  UNL     1     -22.510 -30.557  -2.966  1.00  0.00     0.703 A 
HETATM    9  N5  UNL     1     -23.368 -30.952  -3.950  1.00  0.00    -0.140 N 
ATOM     10  H5  UNL     1     -24.349 -31.139  -3.742  1.00  0.00     0.189 HD
HETATM   11  C5  UNL     1     -22.892 -31.089  -5.193  1.00  0.00     0.340 A 
HETATM   12  O2  UNL     1     -23.674 -31.452  -6.108  1.00  0.00    -0.246 OA
HETATM   13  N6  UNL     1     -21.605 -30.854  -5.509  1.00  0.00    -0.289 N 
ATOM     14  H6  UNL     1     -21.275 -30.969  -6.468  1.00  0.00     0.172 HD
HETATM   15  C6  UNL     1     -20.758 -30.464  -4.533  1.00  0.00     0.203 A 
ENDROOT
BRANCH   6  16
HETATM   16  N2  UNL     1     -20.170 -29.681  -1.287  1.00  0.00    -0.233 N 
ATOM     17  H22 UNL     1     -19.349 -29.607  -0.687  1.00  0.00     0.174 HD
ATOM     18  H21 UNL     1     -21.022 -29.529  -0.748  1.00  0.00     0.174 HD
ENDBRANCH   6  16
BRANCH   8  19
HETATM   19  N4  UNL     1     -22.983 -30.435  -1.801  1.00  0.00    -0.233 N 
ATOM     20  H42 UNL     1     -22.931 -29.512  -1.371  1.00  0.00     0.174 HD
ATOM     21  H41 UNL     1     -23.410 -31.197  -1.274  1.00  0.00     0.174 HD
ENDBRANCH   8  19
TORSDOF 2
ENDMDL
MODEL 5
REMARK VINA RESULT: -6.290325537      2.933      4.065
REMARK  2 active torsions:
REMARK  status: ('A' for Active; 'I' for Inactive)
REMARK    1  A    between atoms: C3_6  and  N2_7 
REMARK    2  A    between atoms: C4_11  and  N4_12 
ROOT
HETATM    1  C1  UNL     1     -25.419 -31.731  -4.258  1.00  0.00     0.211 C 
HETATM    2  O1  UNL     1     -24.266 -31.213  -4.431  1.00  0.00    -0.338 OA
HETATM    3  C2  UNL     1     -23.067 -30.728  -4.620  1.00  0.00     0.203 A 
HETATM    4  N1  UNL     1     -22.473 -30.299  -5.789  1.00  0.00    -0.166 N 
ATOM      5  H1  UNL     1     -22.916 -30.306  -6.708  1.00  0.00     0.186 HD
HETATM    6  C3  UNL     1     -21.234 -29.875  -5.540  1.00  0.00     0.701 A 
HETATM    7  N3  UNL     1     -20.950 -29.998  -4.237  1.00  0.00     0.042 N 
HETATM    8  C4  UNL     1     -19.837 -29.705  -3.515  1.00  0.00     0.703 A 
HETATM    9  N5  UNL     1     -19.847 -29.944  -2.172  1.00  0.00    -0.140 N 
ATOM     10  H5  UNL     1     -19.029 -29.738  -1.599  1.00  0.00     0.189 HD
HETATM   11  C5  UNL     1     -20.955 -30.457  -1.625  1.00  0.00     0.340 A 
HETATM   12  O2  UNL     1     -20.976 -30.682  -0.389  1.00  0.00    -0.246 OA
HETATM   13  N6  UNL     1     -22.056 -30.746  -2.345  1.00  0.00    -0.289 N 
ATOM     14  H6  UNL     1     -22.884 -31.137  -1.895  1.00  0.00     0.172 HD
HETATM   15  C6  UNL     1     -22.042 -30.508  -3.673  1.00  0.00     0.203 A 
ENDROOT
BRANCH   6  16
HETATM   16  N2  UNL     1     -20.435 -29.414  -6.450  1.00  0.00    -0.233 N 
ATOM     17  H22 UNL     1     -19.431 -29.272  -6.346  1.00  0.00     0.174 HD
ATOM     18  H21 UNL     1     -20.739 -29.143  -7.385  1.00  0.00     0.174 HD
ENDBRANCH   6  16
BRANCH   8  19
HETATM   19  N4  UNL     1     -18.780 -29.220  -4.007  1.00  0.00    -0.233 N 
ATOM     20  H42 UNL     1     -18.478 -29.581  -4.911  1.00  0.00     0.174 HD
ATOM     21  H41 UNL     1     -18.219 -28.496  -3.558  1.00  0.00     0.174 HD
ENDBRANCH   8  19
TORSDOF 2
ENDMDL
