MODEL 1
REMARK VINA RESULT: -6.511850353      0.000      0.000
REMARK  5 active torsions:
REMARK  status: ('A' for Active; 'I' for Inactive)
REMARK    1  A    between atoms: N1_1  and  N2_4 
REMARK       I    between atoms: N2_4  and  C1_5 
REMARK    2  A    between atoms: C1_5  and  C2_7 
REMARK    3  A    between atoms: N3_10  and  C5_11 
REMARK    4  A    between atoms: C5_11  and  N4_13 
REMARK    5  A    between atoms: N4_13  and  N5_15 
ROOT
HETATM    1  C2  UNL     1     -21.744 -30.360   1.290  1.00  0.00     0.065 A 
HETATM    2  C3  UNL     1     -22.381 -31.450   0.755  1.00  0.00     0.037 A 
HETATM    3  C4  UNL     1     -22.108 -31.446  -0.614  1.00  0.00     0.100 A 
HETATM    4  N3  UNL     1     -21.339 -30.401  -0.899  1.00  0.00    -0.308 N 
HETATM    5  C6  UNL     1     -21.115 -29.733   0.266  1.00  0.00     0.117 A 
ENDROOT
BRANCH   4   6
HETATM    6  C5  UNL     1     -20.845 -30.049  -2.195  1.00  0.00     0.196 C 
HETATM    7  S1  UNL     1     -21.904 -29.945  -3.459  1.00  0.00    -0.039 SA
BRANCH   6   8
HETATM    8  N4  UNL     1     -19.477 -29.787  -2.441  1.00  0.00    -0.282 N 
ATOM      9  H4  UNL     1     -18.902 -29.384  -1.702  1.00  0.00     0.189 HD
BRANCH   8  10
HETATM   10  N5  UNL     1     -18.905 -30.072  -3.675  1.00  0.00    -0.343 N 
ATOM     11  H52 UNL     1     -19.407 -29.797  -4.519  1.00  0.00     0.176 HD
ATOM     12  H51 UNL     1     -18.003 -30.543  -3.740  1.00  0.00     0.176 HD
ENDBRANCH   8  10
ENDBRANCH   6   8
ENDBRANCH   4   6
BRANCH   1  13
HETATM   13  C1  UNL     1     -21.706 -29.908   2.710  1.00  0.00     0.346 C 
HETATM   14  N2  UNL     1     -22.005 -28.631   3.060  1.00  0.00    -0.288 NA
HETATM   15  O1  UNL     1     -21.364 -30.869   3.474  1.00  0.00    -0.249 OA
BRANCH  14  16
HETATM   16  N1  UNL     1     -22.295 -27.392   3.400  1.00  0.00    -0.276 N 
ATOM     17  H12 UNL     1     -22.110 -28.369   3.171  1.00  0.00     0.191 HD
ATOM     18  H11 UNL     1     -22.518 -26.432   3.662  1.00  0.00     0.191 HD
ENDBRANCH  14  16
ENDBRANCH   1  13
TORSDOF 5
ENDMDL
MODEL 2
REMARK VINA RESULT: -6.427287284      1.802      1.939
REMARK  5 active torsions:
REMARK  status: ('A' for Active; 'I' for Inactive)
REMARK    1  A    between atoms: N1_1  and  N2_4 
REMARK       I    between atoms: N2_4  and  C1_5 
REMARK    2  A    between atoms: C1_5  and  C2_7 
REMARK    3  A    between atoms: N3_10  and  C5_11 
REMARK    4  A    between atoms: C5_11  and  N4_13 
REMARK    5  A    between atoms: N4_13  and  N5_15 
ROOT
HETATM    1  C2  UNL     1     -20.860 -29.325   0.051  1.00  0.00     0.065 A 
HETATM    2  C3  UNL     1     -22.081 -29.101  -0.530  1.00  0.00     0.037 A 
HETATM    3  C4  UNL     1     -21.934 -29.360  -1.893  1.00  0.00     0.100 A 
HETATM    4  N3  UNL     1     -20.679 -29.726  -2.132  1.00  0.00    -0.308 N 
HETATM    5  C6  UNL     1     -20.018 -29.705  -0.941  1.00  0.00     0.117 A 
ENDROOT
BRANCH   4   6
HETATM    6  C5  UNL     1     -20.132 -30.073  -3.407  1.00  0.00     0.196 C 
HETATM    7  S1  UNL     1     -21.149 -30.574  -4.610  1.00  0.00    -0.039 SA
BRANCH   6   8
HETATM    8  N4  UNL     1     -18.747 -30.007  -3.684  1.00  0.00    -0.282 N 
ATOM      9  H4  UNL     1     -18.189 -29.258  -3.276  1.00  0.00     0.189 HD
BRANCH   8  10
HETATM   10  N5  UNL     1     -18.135 -30.947  -4.504  1.00  0.00    -0.343 N 
ATOM     11  H52 UNL     1     -18.711 -31.454  -5.176  1.00  0.00     0.176 HD
ATOM     12  H51 UNL     1     -17.134 -31.129  -4.439  1.00  0.00     0.176 HD
ENDBRANCH   8  10
ENDBRANCH   6   8
ENDBRANCH   4   6
BRANCH   1  13
HETATM   13  C1  UNL     1     -20.474 -29.203   1.486  1.00  0.00     0.346 C 
HETATM   14  N2  UNL     1     -21.406 -29.167   2.473  1.00  0.00    -0.288 NA
HETATM   15  O1  UNL     1     -19.207 -29.141   1.603  1.00  0.00    -0.249 OA
BRANCH  14  16
HETATM   16  N1  UNL     1     -22.309 -29.133   3.431  1.00  0.00    -0.276 N 
ATOM     17  H12 UNL     1     -21.572 -29.141   2.726  1.00  0.00     0.191 HD
ATOM     18  H11 UNL     1     -23.010 -29.106   4.173  1.00  0.00     0.191 HD
ENDBRANCH  14  16
ENDBRANCH   1  13
TORSDOF 5
ENDMDL
MODEL 3
REMARK VINA RESULT: -6.329824214      1.018      1.135
REMARK  5 active torsions:
REMARK  status: ('A' for Active; 'I' for Inactive)
REMARK    1  A    between atoms: N1_1  and  N2_4 
REMARK       I    between atoms: N2_4  and  C1_5 
REMARK    2  A    between atoms: C1_5  and  C2_7 
REMARK    3  A    between atoms: N3_10  and  C5_11 
REMARK    4  A    between atoms: C5_11  and  N4_13 
REMARK    5  A    between atoms: N4_13  and  N5_15 
ROOT
HETATM    1  C2  UNL     1     -21.391 -30.252   0.354  1.00  0.00     0.065 A 
HETATM    2  C3  UNL     1     -21.913 -31.320  -0.329  1.00  0.00     0.037 A 
HETATM    3  C4  UNL     1     -21.490 -31.199  -1.653  1.00  0.00     0.100 A 
HETATM    4  N3  UNL     1     -20.744 -30.107  -1.771  1.00  0.00    -0.308 N 
HETATM    5  C6  UNL     1     -20.681 -29.524  -0.542  1.00  0.00     0.117 A 
ENDROOT
BRANCH   4   6
HETATM    6  C5  UNL     1     -20.126 -29.637  -2.973  1.00  0.00     0.196 C 
HETATM    7  S1  UNL     1     -21.025 -28.771  -4.055  1.00  0.00    -0.039 SA
BRANCH   6   8
HETATM    8  N4  UNL     1     -18.767 -29.887  -3.277  1.00  0.00    -0.282 N 
ATOM      9  H4  UNL     1     -18.038 -29.471  -2.697  1.00  0.00     0.189 HD
BRANCH   8  10
HETATM   10  N5  UNL     1     -18.411 -30.689  -4.354  1.00  0.00    -0.343 N 
ATOM     11  H52 UNL     1     -18.084 -30.239  -5.209  1.00  0.00     0.176 HD
ATOM     12  H51 UNL     1     -18.472 -31.705  -4.295  1.00  0.00     0.176 HD
ENDBRANCH   8  10
ENDBRANCH   6   8
ENDBRANCH   4   6
BRANCH   1  13
HETATM   13  C1  UNL     1     -21.531 -29.911   1.799  1.00  0.00     0.346 C 
HETATM   14  N2  UNL     1     -21.398 -28.636   2.246  1.00  0.00    -0.288 NA
HETATM   15  O1  UNL     1     -21.776 -30.959   2.481  1.00  0.00    -0.249 OA
BRANCH  14  16
HETATM   16  N1  UNL     1     -21.269 -27.400   2.681  1.00  0.00    -0.276 N 
ATOM     17  H12 UNL     1     -21.337 -28.374   2.386  1.00  0.00     0.191 HD
ATOM     18  H11 UNL     1     -21.170 -26.441   3.017  1.00  0.00     0.191 HD
ENDBRANCH  14  16
ENDBRANCH   1  13
TORSDOF 5
ENDMDL
MODEL 4
REMARK VINA RESULT: -6.318841160      2.861      5.537
REMARK  5 active torsions:
REMARK  status: ('A' for Active; 'I' for Inactive)
REMARK    1  A    between atoms: N1_1  and  N2_4 
REMARK       I    between atoms: N2_4  and  C1_5 
REMARK    2  A    between atoms: C1_5  and  C2_7 
REMARK    3  A    between atoms: N3_10  and  C5_11 
REMARK    4  A    between atoms: C5_11  and  N4_13 
REMARK    5  A    between atoms: N4_13  and  N5_15 
ROOT
HETATM    1  C2  UNL     1     -20.808 -29.744  -1.438  1.00  0.00     0.065 A 
HETATM    2  C3  UNL     1     -21.325 -30.973  -1.115  1.00  0.00     0.037 A 
HETATM    3  C4  UNL     1     -21.698 -30.912   0.229  1.00  0.00     0.100 A 
HETATM    4  N3  UNL     1     -21.421 -29.702   0.701  1.00  0.00    -0.308 N 
HETATM    5  C6  UNL     1     -20.875 -28.984  -0.319  1.00  0.00     0.117 A 
ENDROOT
BRANCH   4   6
HETATM    6  C5  UNL     1     -21.655 -29.247   2.037  1.00  0.00     0.196 C 
HETATM    7  S1  UNL     1     -22.168 -30.328   3.178  1.00  0.00    -0.039 SA
BRANCH   6   8
HETATM    8  N4  UNL     1     -21.468 -27.900   2.426  1.00  0.00    -0.282 N 
ATOM      9  H4  UNL     1     -20.751 -27.339   1.964  1.00  0.00     0.189 HD
BRANCH   8  10
HETATM   10  N5  UNL     1     -22.244 -27.329   3.427  1.00  0.00    -0.343 N 
ATOM     11  H52 UNL     1     -23.252 -27.478   3.405  1.00  0.00     0.176 HD
ATOM     12  H51 UNL     1     -21.818 -26.773   4.169  1.00  0.00     0.176 HD
ENDBRANCH   8  10
ENDBRANCH   6   8
ENDBRANCH   4   6
BRANCH   1  13
HETATM   13  C1  UNL     1     -20.273 -29.275  -2.749  1.00  0.00     0.346 C 
HETATM   14  N2  UNL     1     -19.359 -29.999  -3.444  1.00  0.00    -0.288 NA
HETATM   15  O1  UNL     1     -20.791 -28.155  -3.066  1.00  0.00    -0.249 OA
BRANCH  14  16
HETATM   16  N1  UNL     1     -18.472 -30.700  -4.120  1.00  0.00    -0.276 N 
ATOM     17  H12 UNL     1     -19.143 -30.112  -3.625  1.00  0.00     0.191 HD
ATOM     18  H11 UNL     1     -17.785 -31.244  -4.643  1.00  0.00     0.191 HD
ENDBRANCH  14  16
ENDBRANCH   1  13
TORSDOF 5
ENDMDL
MODEL 5
REMARK VINA RESULT: -6.308558882      2.064      2.197
REMARK  5 active torsions:
REMARK  status: ('A' for Active; 'I' for Inactive)
REMARK    1  A    between atoms: N1_1  and  N2_4 
REMARK       I    between atoms: N2_4  and  C1_5 
REMARK    2  A    between atoms: C1_5  and  C2_7 
REMARK    3  A    between atoms: N3_10  and  C5_11 
REMARK    4  A    between atoms: C5_11  and  N4_13 
REMARK    5  A    between atoms: N4_13  and  N5_15 
ROOT
HETATM    1  C2  UNL     1     -21.737 -28.538   0.379  1.00  0.00     0.065 A 
HETATM    2  C3  UNL     1     -20.682 -29.287   0.833  1.00  0.00     0.037 A 
HETATM    3  C4  UNL     1     -20.047 -29.814  -0.292  1.00  0.00     0.100 A 
HETATM    4  N3  UNL     1     -20.686 -29.404  -1.382  1.00  0.00    -0.308 N 
HETATM    5  C6  UNL     1     -21.723 -28.621  -0.974  1.00  0.00     0.117 A 
ENDROOT
BRANCH   4   6
HETATM    6  C5  UNL     1     -20.342 -29.731  -2.732  1.00  0.00     0.196 C 
HETATM    7  S1  UNL     1     -21.520 -30.275  -3.755  1.00  0.00    -0.039 SA
BRANCH   6   8
HETATM    8  N4  UNL     1     -19.024 -29.610  -3.231  1.00  0.00    -0.282 N 
ATOM      9  H4  UNL     1     -18.429 -28.851  -2.899  1.00  0.00     0.189 HD
BRANCH   8  10
HETATM   10  N5  UNL     1     -18.527 -30.510  -4.166  1.00  0.00    -0.343 N 
ATOM     11  H52 UNL     1     -18.718 -30.340  -5.153  1.00  0.00     0.176 HD
ATOM     12  H51 UNL     1     -17.982 -31.321  -3.876  1.00  0.00     0.176 HD
ENDBRANCH   8  10
ENDBRANCH   6   8
ENDBRANCH   4   6
BRANCH   1  13
HETATM   13  C1  UNL     1     -22.731 -27.755   1.168  1.00  0.00     0.346 C 
HETATM   14  N2  UNL     1     -22.529 -27.464   2.479  1.00  0.00    -0.288 NA
HETATM   15  O1  UNL     1     -23.727 -27.437   0.439  1.00  0.00    -0.249 OA
BRANCH  14  16
HETATM   16  N1  UNL     1     -22.335 -27.181   3.750  1.00  0.00    -0.276 N 
ATOM     17  H12 UNL     1     -22.539 -27.413   2.777  1.00  0.00     0.191 HD
ATOM     18  H11 UNL     1     -22.183 -26.961   4.735  1.00  0.00     0.191 HD
ENDBRANCH  14  16
ENDBRANCH   1  13
TORSDOF 5
ENDMDL
