MODEL 1
REMARK VINA RESULT: -7.039602768      0.000      0.000
REMARK  2 active torsions:
REMARK  status: ('A' for Active; 'I' for Inactive)
REMARK       I    between atoms: C1_4  and  N3_6 
REMARK    1  A    between atoms: N3_6  and  N4_8 
REMARK    2  A    between atoms: N6_16  and  N7_18 
ROOT
HETATM    1  N4  UNL     1     -31.036 -13.259 -19.815  1.00  0.00    -0.277 N 
ATOM      2  H4  UNL     1     -31.730 -12.512 -19.814  1.00  0.00     0.189 HD
HETATM    3  C2  UNL     1     -31.393 -14.378 -20.304  1.00  0.00     0.161 C 
HETATM    4  N5  UNL     1     -30.483 -15.463 -20.339  1.00  0.00    -0.369 N 
ATOM      5  H5  UNL     1     -29.673 -15.494 -19.721  1.00  0.00     0.161 HD
HETATM    6  C3  UNL     1     -30.748 -16.527 -21.287  1.00  0.00     0.128 C 
HETATM    7  C4  UNL     1     -32.037 -17.203 -20.861  1.00  0.00     0.086 C 
HETATM    8  C5  UNL     1     -33.166 -16.360 -21.316  1.00  0.00     0.070 C 
HETATM    9  N6  UNL     1     -34.185 -16.797 -21.928  1.00  0.00    -0.304 N 
ATOM     10  H6  UNL     1     -34.902 -16.121 -22.192  1.00  0.00     0.186 HD
HETATM   11  S1  UNL     1     -33.041 -14.600 -20.952  1.00  0.00    -0.038 SA
ENDROOT
BRANCH   1  12
HETATM   12  N3  UNL     1     -29.802 -12.962 -19.287  1.00  0.00    -0.272 N 
HETATM   13  C1  UNL     1     -29.704 -12.309 -18.033  1.00  0.00     0.200 C 
HETATM   14  N1  UNL     1     -30.542 -11.378 -17.708  1.00  0.00    -0.372 N 
HETATM   15  N2  UNL     1     -28.681 -12.666 -17.111  1.00  0.00    -0.062 NA
ATOM     16  H12 UNL     1     -30.471 -10.909 -16.805  1.00  0.00     0.158 HD
ATOM     17  H11 UNL     1     -31.275 -11.122 -18.369  1.00  0.00     0.158 HD
ATOM     18  H3  UNL     1     -28.956 -13.212 -19.798  1.00  0.00     0.189 HD
ENDBRANCH   1  12
BRANCH   9  19
HETATM   19  N7  UNL     1     -34.400 -18.129 -22.267  1.00  0.00    -0.344 N 
ATOM     20  H72 UNL     1     -33.667 -18.584 -22.811  1.00  0.00     0.176 HD
ATOM     21  H71 UNL     1     -35.227 -18.670 -22.014  1.00  0.00     0.176 HD
ENDBRANCH   9  19
TORSDOF 2
ENDMDL
MODEL 2
REMARK VINA RESULT: -6.859134521      1.862      2.482
REMARK  2 active torsions:
REMARK  status: ('A' for Active; 'I' for Inactive)
REMARK       I    between atoms: C1_4  and  N3_6 
REMARK    1  A    between atoms: N3_6  and  N4_8 
REMARK    2  A    between atoms: N6_16  and  N7_18 
ROOT
HETATM    1  N4  UNL     1     -30.233 -15.464 -20.232  1.00  0.00    -0.277 N 
ATOM      2  H4  UNL     1     -29.339 -15.930 -20.384  1.00  0.00     0.189 HD
HETATM    3  C2  UNL     1     -31.243 -15.943 -20.841  1.00  0.00     0.161 C 
HETATM    4  N5  UNL     1     -32.519 -15.350 -20.680  1.00  0.00    -0.369 N 
ATOM      5  H5  UNL     1     -32.618 -14.387 -20.358  1.00  0.00     0.161 HD
HETATM    6  C3  UNL     1     -33.679 -16.162 -20.991  1.00  0.00     0.128 C 
HETATM    7  C4  UNL     1     -33.644 -16.450 -22.479  1.00  0.00     0.086 C 
HETATM    8  C5  UNL     1     -32.672 -17.544 -22.709  1.00  0.00     0.070 C 
HETATM    9  N6  UNL     1     -32.899 -18.566 -23.422  1.00  0.00    -0.304 N 
ATOM     10  H6  UNL     1     -32.152 -19.255 -23.510  1.00  0.00     0.186 HD
HETATM   11  S1  UNL     1     -31.071 -17.367 -21.904  1.00  0.00    -0.038 SA
ENDROOT
BRANCH   1  12
HETATM   12  N3  UNL     1     -30.234 -14.378 -19.391  1.00  0.00    -0.272 N 
HETATM   13  C1  UNL     1     -29.091 -14.084 -18.607  1.00  0.00     0.200 C 
HETATM   14  N1  UNL     1     -28.398 -15.037 -18.071  1.00  0.00    -0.372 N 
HETATM   15  N2  UNL     1     -28.686 -12.738 -18.394  1.00  0.00    -0.062 NA
ATOM     16  H12 UNL     1     -27.575 -14.826 -17.507  1.00  0.00     0.158 HD
ATOM     17  H11 UNL     1     -28.688 -16.003 -18.224  1.00  0.00     0.158 HD
ATOM     18  H3  UNL     1     -31.059 -13.781 -19.332  1.00  0.00     0.189 HD
ENDBRANCH   1  12
BRANCH   9  19
HETATM   19  N7  UNL     1     -34.091 -18.819 -24.095  1.00  0.00    -0.344 N 
ATOM     20  H72 UNL     1     -34.684 -18.012 -24.288  1.00  0.00     0.176 HD
ATOM     21  H71 UNL     1     -34.404 -19.740 -24.402  1.00  0.00     0.176 HD
ENDBRANCH   9  19
TORSDOF 2
ENDMDL
MODEL 3
REMARK VINA RESULT: -6.666371956      1.273      1.518
REMARK  2 active torsions:
REMARK  status: ('A' for Active; 'I' for Inactive)
REMARK       I    between atoms: C1_4  and  N3_6 
REMARK    1  A    between atoms: N3_6  and  N4_8 
REMARK    2  A    between atoms: N6_16  and  N7_18 
ROOT
HETATM    1  N4  UNL     1     -31.299 -14.257 -19.664  1.00  0.00    -0.277 N 
ATOM      2  H4  UNL     1     -32.016 -13.533 -19.690  1.00  0.00     0.189 HD
HETATM    3  C2  UNL     1     -31.443 -15.240 -20.461  1.00  0.00     0.161 C 
HETATM    4  N5  UNL     1     -30.487 -16.284 -20.483  1.00  0.00    -0.369 N 
ATOM      5  H5  UNL     1     -29.866 -16.450 -19.692  1.00  0.00     0.161 HD
HETATM    6  C3  UNL     1     -30.426 -17.110 -21.673  1.00  0.00     0.128 C 
HETATM    7  C4  UNL     1     -31.735 -17.870 -21.764  1.00  0.00     0.086 C 
HETATM    8  C5  UNL     1     -32.759 -16.952 -22.313  1.00  0.00     0.070 C 
HETATM    9  N6  UNL     1     -33.553 -17.245 -23.256  1.00  0.00    -0.304 N 
ATOM     10  H6  UNL     1     -34.218 -16.530 -23.551  1.00  0.00     0.186 HD
HETATM   11  S1  UNL     1     -32.847 -15.318 -21.559  1.00  0.00    -0.038 SA
ENDROOT
BRANCH   1  12
HETATM   12  N3  UNL     1     -30.268 -14.081 -18.773  1.00  0.00    -0.272 N 
HETATM   13  C1  UNL     1     -29.227 -13.164 -19.062  1.00  0.00     0.200 C 
HETATM   14  N1  UNL     1     -28.773 -13.041 -20.268  1.00  0.00    -0.372 N 
HETATM   15  N2  UNL     1     -28.662 -12.363 -18.032  1.00  0.00    -0.062 NA
ATOM     16  H12 UNL     1     -28.024 -12.381 -20.476  1.00  0.00     0.158 HD
ATOM     17  H11 UNL     1     -29.178 -13.616 -21.007  1.00  0.00     0.158 HD
ATOM     18  H3  UNL     1     -30.252 -14.611 -17.902  1.00  0.00     0.189 HD
ENDBRANCH   1  12
BRANCH   9  19
HETATM   19  N7  UNL     1     -33.585 -18.467 -23.919  1.00  0.00    -0.344 N 
ATOM     20  H72 UNL     1     -33.844 -18.443 -24.906  1.00  0.00     0.176 HD
ATOM     21  H71 UNL     1     -33.372 -19.369 -23.492  1.00  0.00     0.176 HD
ENDBRANCH   9  19
TORSDOF 2
ENDMDL
MODEL 4
REMARK VINA RESULT: -6.631509420      2.034      5.886
REMARK  2 active torsions:
REMARK  status: ('A' for Active; 'I' for Inactive)
REMARK       I    between atoms: C1_4  and  N3_6 
REMARK    1  A    between atoms: N3_6  and  N4_8 
REMARK    2  A    between atoms: N6_16  and  N7_18 
ROOT
HETATM    1  N4  UNL     1     -30.292 -16.382 -21.173  1.00  0.00    -0.277 N 
ATOM      2  H4  UNL     1     -29.298 -16.608 -21.168  1.00  0.00     0.189 HD
HETATM    3  C2  UNL     1     -30.645 -15.318 -20.570  1.00  0.00     0.161 C 
HETATM    4  N5  UNL     1     -32.009 -14.938 -20.533  1.00  0.00    -0.369 N 
ATOM      5  H5  UNL     1     -32.752 -15.618 -20.691  1.00  0.00     0.161 HD
HETATM    6  C3  UNL     1     -32.308 -13.546 -20.263  1.00  0.00     0.128 C 
HETATM    7  C4  UNL     1     -31.856 -13.252 -18.846  1.00  0.00     0.086 C 
HETATM    8  C5  UNL     1     -30.389 -13.052 -18.867  1.00  0.00     0.070 C 
HETATM    9  N6  UNL     1     -29.788 -12.087 -18.308  1.00  0.00    -0.304 N 
ATOM     10  H6  UNL     1     -28.772 -12.053 -18.388  1.00  0.00     0.186 HD
HETATM   11  S1  UNL     1     -29.431 -14.290 -19.760  1.00  0.00    -0.038 SA
ENDROOT
BRANCH   1  12
HETATM   12  N3  UNL     1     -31.126 -17.254 -21.831  1.00  0.00    -0.272 N 
HETATM   13  C1  UNL     1     -31.537 -18.455 -21.202  1.00  0.00     0.200 C 
HETATM   14  N1  UNL     1     -30.713 -19.128 -20.464  1.00  0.00    -0.372 N 
HETATM   15  N2  UNL     1     -32.862 -18.944 -21.373  1.00  0.00    -0.062 NA
ATOM     16  H12 UNL     1     -31.010 -19.992 -20.011  1.00  0.00     0.158 HD
ATOM     17  H11 UNL     1     -29.763 -18.777 -20.342  1.00  0.00     0.158 HD
ATOM     18  H3  UNL     1     -31.449 -17.036 -22.774  1.00  0.00     0.189 HD
ENDBRANCH   1  12
BRANCH   9  19
HETATM   19  N7  UNL     1     -30.411 -11.071 -17.591  1.00  0.00    -0.344 N 
ATOM     20  H72 UNL     1     -30.827 -11.333 -16.697  1.00  0.00     0.176 HD
ATOM     21  H71 UNL     1     -30.478 -10.099 -17.894  1.00  0.00     0.176 HD
ENDBRANCH   9  19
TORSDOF 2
ENDMDL
MODEL 5
REMARK VINA RESULT: -6.555349428      1.862      2.305
REMARK  2 active torsions:
REMARK  status: ('A' for Active; 'I' for Inactive)
REMARK       I    between atoms: C1_4  and  N3_6 
REMARK    1  A    between atoms: N3_6  and  N4_8 
REMARK    2  A    between atoms: N6_16  and  N7_18 
ROOT
HETATM    1  N4  UNL     1     -30.926 -14.120 -19.822  1.00  0.00    -0.277 N 
ATOM      2  H4  UNL     1     -29.920 -14.233 -19.704  1.00  0.00     0.189 HD
HETATM    3  C2  UNL     1     -31.538 -15.035 -20.461  1.00  0.00     0.161 C 
HETATM    4  N5  UNL     1     -32.937 -14.948 -20.665  1.00  0.00    -0.369 N 
ATOM      5  H5  UNL     1     -33.426 -14.055 -20.603  1.00  0.00     0.161 HD
HETATM    6  C3  UNL     1     -33.647 -16.176 -20.965  1.00  0.00     0.128 C 
HETATM    7  C4  UNL     1     -33.155 -16.665 -22.313  1.00  0.00     0.086 C 
HETATM    8  C5  UNL     1     -31.850 -17.334 -22.108  1.00  0.00     0.070 C 
HETATM    9  N6  UNL     1     -31.543 -18.467 -22.585  1.00  0.00    -0.304 N 
ATOM     10  H6  UNL     1     -30.612 -18.828 -22.378  1.00  0.00     0.186 HD
HETATM   11  S1  UNL     1     -30.648 -16.440 -21.108  1.00  0.00    -0.038 SA
ENDROOT
BRANCH   1  12
HETATM   12  N3  UNL     1     -31.494 -12.994 -19.277  1.00  0.00    -0.272 N 
HETATM   13  C1  UNL     1     -31.339 -12.716 -17.896  1.00  0.00     0.200 C 
HETATM   14  N1  UNL     1     -31.369 -13.672 -17.025  1.00  0.00    -0.372 N 
HETATM   15  N2  UNL     1     -31.149 -11.380 -17.444  1.00  0.00    -0.062 NA
ATOM     16  H12 UNL     1     -31.256 -13.472 -16.031  1.00  0.00     0.158 HD
ATOM     17  H11 UNL     1     -31.505 -14.629 -17.349  1.00  0.00     0.158 HD
ATOM     18  H3  UNL     1     -32.028 -12.356 -19.868  1.00  0.00     0.189 HD
ENDBRANCH   1  12
BRANCH   9  19
HETATM   19  N7  UNL     1     -32.379 -19.254 -23.370  1.00  0.00    -0.344 N 
ATOM     20  H72 UNL     1     -33.367 -19.262 -23.115  1.00  0.00     0.176 HD
ATOM     21  H71 UNL     1     -32.076 -19.814 -24.167  1.00  0.00     0.176 HD
ENDBRANCH   9  19
TORSDOF 2
ENDMDL
