MODEL 1
REMARK VINA RESULT: -7.826782788      0.000      0.000
REMARK  3 active torsions:
REMARK  status: ('A' for Active; 'I' for Inactive)
REMARK    1  A    between atoms: O1_2  and  N1_3 
REMARK    2  A    between atoms: C7_14  and  N4_15 
REMARK    3  A    between atoms: C8_20  and  N6_21 
ROOT
HETATM    1  N1  UNL     1     -30.299 -17.629 -21.370  1.00  0.00    -0.249 N 
ATOM      2  H1  UNL     1     -30.669 -18.350 -21.989  1.00  0.00     0.196 HD
HETATM    3  C2  UNL     1     -31.127 -16.700 -21.314  1.00  0.00     0.153 A 
HETATM    4  N2  UNL     1     -32.362 -16.767 -22.055  1.00  0.00    -0.352 N 
ATOM      5  H2  UNL     1     -32.483 -17.573 -22.668  1.00  0.00     0.166 HD
HETATM    6  C3  UNL     1     -33.419 -15.835 -22.020  1.00  0.00     0.067 A 
HETATM    7  C4  UNL     1     -33.172 -14.594 -21.266  1.00  0.00     0.089 A 
HETATM    8  C5  UNL     1     -31.914 -14.535 -20.530  1.00  0.00     0.022 A 
HETATM    9  C6  UNL     1     -30.920 -15.490 -20.509  1.00  0.00     0.105 A 
HETATM   10  N3  UNL     1     -29.802 -15.303 -19.773  1.00  0.00    -0.188 N 
ATOM     11  H3  UNL     1     -29.075 -16.019 -19.767  1.00  0.00     0.184 HD
HETATM   12  C7  UNL     1     -29.639 -14.186 -19.051  1.00  0.00     0.678 A 
HETATM   13  N5  UNL     1     -30.592 -13.250 -19.061  1.00  0.00    -0.177 N 
ATOM     14  H5  UNL     1     -30.453 -12.404 -18.508  1.00  0.00     0.185 HD
HETATM   15  C8  UNL     1     -31.721 -13.378 -19.769  1.00  0.00     0.123 A 
ENDROOT
BRANCH   1  16
HETATM   16  O1  UNL     1     -29.145 -18.022 -20.938  1.00  0.00    -0.284 OA
HETATM   17  C1  UNL     1     -28.581 -19.292 -21.211  1.00  0.00     0.237 C 
ENDBRANCH   1  16
BRANCH  15  18
HETATM   18  N6  UNL     1     -32.595 -12.421 -19.726  1.00  0.00    -0.385 N 
ATOM     19  H62 UNL     1     -33.495 -12.559 -20.185  1.00  0.00     0.157 HD
ATOM     20  H61 UNL     1     -32.416 -11.537 -19.249  1.00  0.00     0.157 HD
ENDBRANCH  15  18
BRANCH  12  21
HETATM   21  N4  UNL     1     -28.549 -14.058 -18.365  1.00  0.00    -0.234 N 
ATOM     22  H42 UNL     1     -28.095 -14.848 -17.908  1.00  0.00     0.174 HD
ATOM     23  H41 UNL     1     -28.139 -13.127 -18.285  1.00  0.00     0.174 HD
ENDBRANCH  12  21
TORSDOF 3
ENDMDL
MODEL 2
REMARK VINA RESULT: -7.379946874      1.442      1.679
REMARK  3 active torsions:
REMARK  status: ('A' for Active; 'I' for Inactive)
REMARK    1  A    between atoms: O1_2  and  N1_3 
REMARK    2  A    between atoms: C7_14  and  N4_15 
REMARK    3  A    between atoms: C8_20  and  N6_21 
ROOT
HETATM    1  N1  UNL     1     -32.150 -17.710 -22.797  1.00  0.00    -0.249 N 
ATOM      2  H1  UNL     1     -32.816 -18.169 -23.417  1.00  0.00     0.196 HD
HETATM    3  C2  UNL     1     -32.679 -16.671 -22.356  1.00  0.00     0.153 A 
HETATM    4  N2  UNL     1     -34.017 -16.303 -22.745  1.00  0.00    -0.352 N 
ATOM      5  H2  UNL     1     -34.469 -16.896 -23.441  1.00  0.00     0.166 HD
HETATM    6  C3  UNL     1     -34.766 -15.210 -22.264  1.00  0.00     0.067 A 
HETATM    7  C4  UNL     1     -34.053 -14.265 -21.388  1.00  0.00     0.089 A 
HETATM    8  C5  UNL     1     -32.696 -14.644 -21.010  1.00  0.00     0.022 A 
HETATM    9  C6  UNL     1     -32.001 -15.759 -21.427  1.00  0.00     0.105 A 
HETATM   10  N3  UNL     1     -30.743 -15.988 -20.989  1.00  0.00    -0.188 N 
ATOM     11  H3  UNL     1     -30.241 -16.819 -21.306  1.00  0.00     0.184 HD
HETATM   12  C7  UNL     1     -30.148 -15.135 -20.144  1.00  0.00     0.678 A 
HETATM   13  N5  UNL     1     -30.807 -14.050 -19.732  1.00  0.00    -0.177 N 
ATOM     14  H5  UNL     1     -30.341 -13.408 -19.090  1.00  0.00     0.185 HD
HETATM   15  C8  UNL     1     -32.055 -13.768 -20.129  1.00  0.00     0.123 A 
ENDROOT
BRANCH   1  16
HETATM   16  O1  UNL     1     -31.072 -18.423 -22.762  1.00  0.00    -0.284 OA
HETATM   17  C1  UNL     1     -30.888 -19.551 -21.925  1.00  0.00     0.237 C 
ENDBRANCH   1  16
BRANCH  15  18
HETATM   18  N6  UNL     1     -32.622 -12.691 -19.683  1.00  0.00    -0.385 N 
ATOM     19  H62 UNL     1     -32.987 -12.016 -20.355  1.00  0.00     0.157 HD
ATOM     20  H61 UNL     1     -32.719 -12.496 -18.687  1.00  0.00     0.157 HD
ENDBRANCH  15  18
BRANCH  12  21
HETATM   21  N4  UNL     1     -28.942 -15.403 -19.758  1.00  0.00    -0.234 N 
ATOM     22  H42 UNL     1     -28.165 -15.487 -20.412  1.00  0.00     0.174 HD
ATOM     23  H41 UNL     1     -28.776 -15.533 -18.760  1.00  0.00     0.174 HD
ENDBRANCH  12  21
TORSDOF 3
ENDMDL
MODEL 3
REMARK VINA RESULT: -7.337841898      2.047      3.845
REMARK  3 active torsions:
REMARK  status: ('A' for Active; 'I' for Inactive)
REMARK    1  A    between atoms: O1_2  and  N1_3 
REMARK    2  A    between atoms: C7_14  and  N4_15 
REMARK    3  A    between atoms: C8_20  and  N6_21 
ROOT
HETATM    1  N1  UNL     1     -31.009 -15.911 -21.186  1.00  0.00    -0.249 N 
ATOM      2  H1  UNL     1     -30.560 -16.743 -21.567  1.00  0.00     0.196 HD
HETATM    3  C2  UNL     1     -30.244 -15.405 -20.343  1.00  0.00     0.153 A 
HETATM    4  N2  UNL     1     -28.966 -16.006 -20.054  1.00  0.00    -0.352 N 
ATOM      5  H2  UNL     1     -28.761 -16.889 -20.521  1.00  0.00     0.166 HD
HETATM    6  C3  UNL     1     -27.971 -15.502 -19.191  1.00  0.00     0.067 A 
HETATM    7  C4  UNL     1     -28.337 -14.320 -18.393  1.00  0.00     0.089 A 
HETATM    8  C5  UNL     1     -29.637 -13.728 -18.688  1.00  0.00     0.022 A 
HETATM    9  C6  UNL     1     -30.570 -14.187 -19.592  1.00  0.00     0.105 A 
HETATM   10  N3  UNL     1     -31.739 -13.530 -19.768  1.00  0.00    -0.188 N 
ATOM     11  H3  UNL     1     -32.420 -13.882 -20.442  1.00  0.00     0.184 HD
HETATM   12  C7  UNL     1     -32.012 -12.422 -19.065  1.00  0.00     0.678 A 
HETATM   13  N5  UNL     1     -31.118 -11.965 -18.184  1.00  0.00    -0.177 N 
ATOM     14  H5  UNL     1     -31.340 -11.121 -17.656  1.00  0.00     0.185 HD
HETATM   15  C8  UNL     1     -29.943 -12.570 -17.967  1.00  0.00     0.123 A 
ENDROOT
BRANCH   1  16
HETATM   16  O1  UNL     1     -32.160 -15.774 -21.760  1.00  0.00    -0.284 OA
HETATM   17  C1  UNL     1     -33.352 -16.397 -21.315  1.00  0.00     0.237 C 
ENDBRANCH   1  16
BRANCH  15  18
HETATM   18  N6  UNL     1     -29.134 -12.061 -17.091  1.00  0.00    -0.385 N 
ATOM     19  H62 UNL     1     -28.218 -11.737 -17.402  1.00  0.00     0.157 HD
ATOM     20  H61 UNL     1     -29.379 -11.972 -16.105  1.00  0.00     0.157 HD
ENDBRANCH  15  18
BRANCH  12  21
HETATM   21  N4  UNL     1     -33.145 -11.834 -19.272  1.00  0.00    -0.234 N 
ATOM     22  H42 UNL     1     -33.216 -10.938 -19.754  1.00  0.00     0.174 HD
ATOM     23  H41 UNL     1     -33.992 -12.292 -18.935  1.00  0.00     0.174 HD
ENDBRANCH  12  21
TORSDOF 3
ENDMDL
MODEL 4
REMARK VINA RESULT: -7.226830142      1.036      1.166
REMARK  3 active torsions:
REMARK  status: ('A' for Active; 'I' for Inactive)
REMARK    1  A    between atoms: O1_2  and  N1_3 
REMARK    2  A    between atoms: C7_14  and  N4_15 
REMARK    3  A    between atoms: C8_20  and  N6_21 
ROOT
HETATM    1  N1  UNL     1     -29.866 -18.459 -22.076  1.00  0.00    -0.249 N 
ATOM      2  H1  UNL     1     -30.166 -19.206 -22.701  1.00  0.00     0.196 HD
HETATM    3  C2  UNL     1     -30.790 -17.627 -21.990  1.00  0.00     0.153 A 
HETATM    4  N2  UNL     1     -32.023 -17.818 -22.711  1.00  0.00    -0.352 N 
ATOM      5  H2  UNL     1     -32.066 -18.623 -23.336  1.00  0.00     0.166 HD
HETATM    6  C3  UNL     1     -33.175 -17.008 -22.643  1.00  0.00     0.067 A 
HETATM    7  C4  UNL     1     -33.052 -15.760 -21.872  1.00  0.00     0.089 A 
HETATM    8  C5  UNL     1     -31.795 -15.574 -21.155  1.00  0.00     0.022 A 
HETATM    9  C6  UNL     1     -30.702 -16.414 -21.168  1.00  0.00     0.105 A 
HETATM   10  N3  UNL     1     -29.598 -16.117 -20.447  1.00  0.00    -0.188 N 
ATOM     11  H3  UNL     1     -28.797 -16.749 -20.465  1.00  0.00     0.184 HD
HETATM   12  C7  UNL     1     -29.545 -15.000 -19.708  1.00  0.00     0.678 A 
HETATM   13  N5  UNL     1     -30.595 -14.175 -19.686  1.00  0.00    -0.177 N 
ATOM     14  H5  UNL     1     -30.540 -13.328 -19.121  1.00  0.00     0.185 HD
HETATM   15  C8  UNL     1     -31.716 -14.415 -20.378  1.00  0.00     0.123 A 
ENDROOT
BRANCH   1  16
HETATM   16  O1  UNL     1     -28.668 -18.729 -21.670  1.00  0.00    -0.284 OA
HETATM   17  C1  UNL     1     -28.188 -20.037 -21.415  1.00  0.00     0.237 C 
ENDBRANCH   1  16
BRANCH  15  18
HETATM   18  N6  UNL     1     -32.689 -13.560 -20.303  1.00  0.00    -0.385 N 
ATOM     19  H62 UNL     1     -33.368 -13.656 -19.549  1.00  0.00     0.157 HD
ATOM     20  H61 UNL     1     -32.798 -12.796 -20.969  1.00  0.00     0.157 HD
ENDBRANCH  15  18
BRANCH  12  21
HETATM   21  N4  UNL     1     -28.464 -14.764 -19.038  1.00  0.00    -0.234 N 
ATOM     22  H42 UNL     1     -28.314 -15.126 -18.097  1.00  0.00     0.174 HD
ATOM     23  H41 UNL     1     -27.742 -14.193 -19.478  1.00  0.00     0.174 HD
ENDBRANCH  12  21
TORSDOF 3
ENDMDL
MODEL 5
REMARK VINA RESULT: -7.132250777      2.237      4.609
REMARK  3 active torsions:
REMARK  status: ('A' for Active; 'I' for Inactive)
REMARK    1  A    between atoms: O1_2  and  N1_3 
REMARK    2  A    between atoms: C7_14  and  N4_15 
REMARK    3  A    between atoms: C8_20  and  N6_21 
ROOT
HETATM    1  N1  UNL     1     -33.252 -13.501 -20.582  1.00  0.00    -0.249 N 
ATOM      2  H1  UNL     1     -33.930 -12.760 -20.406  1.00  0.00     0.196 HD
HETATM    3  C2  UNL     1     -32.265 -13.310 -19.845  1.00  0.00     0.153 A 
HETATM    4  N2  UNL     1     -32.225 -12.186 -18.944  1.00  0.00    -0.352 N 
ATOM      5  H2  UNL     1     -33.006 -11.532 -18.995  1.00  0.00     0.166 HD
HETATM    6  C3  UNL     1     -31.218 -11.895 -18.001  1.00  0.00     0.067 A 
HETATM    7  C4  UNL     1     -30.015 -12.744 -18.047  1.00  0.00     0.089 A 
HETATM    8  C5  UNL     1     -30.065 -13.872 -18.970  1.00  0.00     0.022 A 
HETATM    9  C6  UNL     1     -31.091 -14.191 -19.833  1.00  0.00     0.105 A 
HETATM   10  N3  UNL     1     -31.003 -15.277 -20.634  1.00  0.00    -0.188 N 
ATOM     11  H3  UNL     1     -31.772 -15.501 -21.267  1.00  0.00     0.184 HD
HETATM   12  C7  UNL     1     -29.917 -16.061 -20.604  1.00  0.00     0.678 A 
HETATM   13  N5  UNL     1     -28.914 -15.765 -19.774  1.00  0.00    -0.177 N 
ATOM     14  H5  UNL     1     -28.093 -16.370 -19.763  1.00  0.00     0.185 HD
HETATM   15  C8  UNL     1     -28.942 -14.704 -18.957  1.00  0.00     0.123 A 
ENDROOT
BRANCH   1  16
HETATM   16  O1  UNL     1     -33.738 -14.288 -21.486  1.00  0.00    -0.284 OA
HETATM   17  C1  UNL     1     -35.122 -14.502 -21.696  1.00  0.00     0.237 C 
ENDBRANCH   1  16
BRANCH  15  18
HETATM   18  N6  UNL     1     -27.924 -14.486 -18.184  1.00  0.00    -0.385 N 
ATOM     19  H62 UNL     1     -27.202 -15.203 -18.112  1.00  0.00     0.157 HD
ATOM     20  H61 UNL     1     -27.819 -13.625 -17.648  1.00  0.00     0.157 HD
ENDBRANCH  15  18
BRANCH  12  21
HETATM   21  N4  UNL     1     -29.885 -17.087 -21.392  1.00  0.00    -0.234 N 
ATOM     22  H42 UNL     1     -30.338 -17.088 -22.306  1.00  0.00     0.174 HD
ATOM     23  H41 UNL     1     -29.387 -17.919 -21.077  1.00  0.00     0.174 HD
ENDBRANCH  12  21
TORSDOF 3
ENDMDL
