MODEL 1
REMARK VINA RESULT: -7.003086901      0.000      0.000
REMARK  2 active torsions:
REMARK  status: ('A' for Active; 'I' for Inactive)
REMARK    1  A    between atoms: N3_7  and  N4_9 
REMARK    2  A    between atoms: N4_9  and  C4_11 
ROOT
HETATM    1  N1  UNL     1     -28.790 -12.383 -18.042  1.00  0.00    -0.190 NA
HETATM    2  C1  UNL     1     -29.269 -13.183 -18.696  1.00  0.00     0.121 C 
HETATM    3  C2  UNL     1     -29.858 -14.206 -19.511  1.00  0.00     0.171 A 
HETATM    4  N2  UNL     1     -31.090 -14.217 -20.021  1.00  0.00    -0.177 N 
ATOM      5  H2  UNL     1     -31.799 -13.492 -19.905  1.00  0.00     0.185 HD
HETATM    6  C3  UNL     1     -31.225 -15.355 -20.716  1.00  0.00     0.699 A 
HETATM    7  N3  UNL     1     -32.304 -15.717 -21.360  1.00  0.00    -0.130 N 
ATOM      8  H3  UNL     1     -32.311 -16.605 -21.861  1.00  0.00     0.205 HD
HETATM    9  N6  UNL     1     -30.081 -16.065 -20.646  1.00  0.00    -0.174 N 
ATOM     10  H6  UNL     1     -29.913 -16.969 -21.086  1.00  0.00     0.185 HD
HETATM   11  C5  UNL     1     -29.188 -15.373 -19.891  1.00  0.00     0.170 A 
HETATM   12  N7  UNL     1     -27.861 -15.737 -19.553  1.00  0.00    -0.079 NA
ENDROOT
BRANCH   7  13
HETATM   13  N4  UNL     1     -33.440 -14.919 -21.377  1.00  0.00    -0.264 N 
ATOM     14  H4  UNL     1     -33.361 -13.951 -21.066  1.00  0.00     0.189 HD
BRANCH  13  15
HETATM   15  C4  UNL     1     -34.710 -15.393 -21.810  1.00  0.00     0.200 C 
HETATM   16  N5  UNL     1     -35.855 -14.552 -21.746  1.00  0.00    -0.068 NA
HETATM   17  S1  UNL     1     -34.872 -16.902 -22.382  1.00  0.00    -0.043 SA
ENDBRANCH  13  15
ENDBRANCH   7  13
TORSDOF 2
ENDMDL
MODEL 2
REMARK VINA RESULT: -6.919592827      3.143      4.119
REMARK  2 active torsions:
REMARK  status: ('A' for Active; 'I' for Inactive)
REMARK    1  A    between atoms: N3_7  and  N4_9 
REMARK    2  A    between atoms: N4_9  and  C4_11 
ROOT
HETATM    1  N1  UNL     1     -32.505 -12.140 -18.548  1.00  0.00    -0.190 NA
HETATM    2  C1  UNL     1     -31.625 -12.818 -18.797  1.00  0.00     0.121 C 
HETATM    3  C2  UNL     1     -30.505 -13.663 -19.097  1.00  0.00     0.171 A 
HETATM    4  N2  UNL     1     -30.540 -14.886 -19.627  1.00  0.00    -0.177 N 
ATOM      5  H2  UNL     1     -31.376 -15.403 -19.899  1.00  0.00     0.185 HD
HETATM    6  C3  UNL     1     -29.274 -15.310 -19.736  1.00  0.00     0.699 A 
HETATM    7  N3  UNL     1     -28.910 -16.471 -20.216  1.00  0.00    -0.130 N 
ATOM      8  H3  UNL     1     -27.918 -16.705 -20.259  1.00  0.00     0.205 HD
HETATM    9  N6  UNL     1     -28.437 -14.358 -19.276  1.00  0.00    -0.174 N 
ATOM     10  H6  UNL     1     -27.420 -14.423 -19.246  1.00  0.00     0.185 HD
HETATM   11  C5  UNL     1     -29.176 -13.297 -18.861  1.00  0.00     0.170 A 
HETATM   12  N7  UNL     1     -28.719 -12.076 -18.307  1.00  0.00    -0.079 NA
ENDROOT
BRANCH   7  13
HETATM   13  N4  UNL     1     -29.845 -17.393 -20.668  1.00  0.00    -0.264 N 
ATOM     14  H4  UNL     1     -30.791 -17.356 -20.287  1.00  0.00     0.189 HD
BRANCH  13  15
HETATM   15  C4  UNL     1     -29.541 -18.387 -21.641  1.00  0.00     0.200 C 
HETATM   16  N5  UNL     1     -29.941 -18.218 -22.995  1.00  0.00    -0.068 NA
HETATM   17  S1  UNL     1     -28.734 -19.729 -21.219  1.00  0.00    -0.043 SA
ENDBRANCH  13  15
ENDBRANCH   7  13
TORSDOF 2
ENDMDL
MODEL 3
REMARK VINA RESULT: -6.879318843      2.275      3.649
REMARK  2 active torsions:
REMARK  status: ('A' for Active; 'I' for Inactive)
REMARK    1  A    between atoms: N3_7  and  N4_9 
REMARK    2  A    between atoms: N4_9  and  C4_11 
ROOT
HETATM    1  N1  UNL     1     -28.555 -12.726 -17.469  1.00  0.00    -0.190 NA
HETATM    2  C1  UNL     1     -29.344 -13.189 -18.147  1.00  0.00     0.121 C 
HETATM    3  C2  UNL     1     -30.348 -13.754 -19.001  1.00  0.00     0.171 A 
HETATM    4  N2  UNL     1     -30.197 -14.760 -19.863  1.00  0.00    -0.177 N 
ATOM      5  H2  UNL     1     -29.337 -15.279 -20.041  1.00  0.00     0.185 HD
HETATM    6  C3  UNL     1     -31.384 -14.964 -20.451  1.00  0.00     0.699 A 
HETATM    7  N3  UNL     1     -31.625 -15.874 -21.359  1.00  0.00    -0.130 N 
ATOM      8  H3  UNL     1     -32.564 -15.953 -21.750  1.00  0.00     0.205 HD
HETATM    9  N6  UNL     1     -32.286 -14.088 -19.963  1.00  0.00    -0.174 N 
ATOM     10  H6  UNL     1     -33.266 -14.027 -20.239  1.00  0.00     0.185 HD
HETATM   11  C5  UNL     1     -31.671 -13.302 -19.042  1.00  0.00     0.170 A 
HETATM   12  N7  UNL     1     -32.231 -12.250 -18.277  1.00  0.00    -0.079 NA
ENDROOT
BRANCH   7  13
HETATM   13  N4  UNL     1     -30.631 -16.735 -21.803  1.00  0.00    -0.264 N 
ATOM     14  H4  UNL     1     -30.049 -16.445 -22.589  1.00  0.00     0.189 HD
BRANCH  13  15
HETATM   15  C4  UNL     1     -30.388 -18.006 -21.208  1.00  0.00     0.200 C 
HETATM   16  N5  UNL     1     -29.059 -18.437 -20.945  1.00  0.00    -0.068 NA
HETATM   17  S1  UNL     1     -31.625 -18.982 -20.823  1.00  0.00    -0.043 SA
ENDBRANCH  13  15
ENDBRANCH   7  13
TORSDOF 2
ENDMDL
MODEL 4
REMARK VINA RESULT: -6.830163491      0.855      2.123
REMARK  2 active torsions:
REMARK  status: ('A' for Active; 'I' for Inactive)
REMARK    1  A    between atoms: N3_7  and  N4_9 
REMARK    2  A    between atoms: N4_9  and  C4_11 
ROOT
HETATM    1  N1  UNL     1     -27.657 -15.823 -19.489  1.00  0.00    -0.190 NA
HETATM    2  C1  UNL     1     -28.658 -15.300 -19.625  1.00  0.00     0.121 C 
HETATM    3  C2  UNL     1     -29.911 -14.621 -19.793  1.00  0.00     0.171 A 
HETATM    4  N2  UNL     1     -30.981 -15.061 -20.455  1.00  0.00    -0.177 N 
ATOM      5  H2  UNL     1     -31.065 -15.953 -20.944  1.00  0.00     0.185 HD
HETATM    6  C3  UNL     1     -31.926 -14.116 -20.362  1.00  0.00     0.699 A 
HETATM    7  N3  UNL     1     -33.119 -14.193 -20.891  1.00  0.00    -0.130 N 
ATOM      8  H3  UNL     1     -33.773 -13.420 -20.765  1.00  0.00     0.205 HD
HETATM    9  N6  UNL     1     -31.457 -13.078 -19.640  1.00  0.00    -0.174 N 
ATOM     10  H6  UNL     1     -31.972 -12.227 -19.417  1.00  0.00     0.185 HD
HETATM   11  C5  UNL     1     -30.183 -13.357 -19.260  1.00  0.00     0.170 A 
HETATM   12  N7  UNL     1     -29.304 -12.555 -18.491  1.00  0.00    -0.079 NA
ENDROOT
BRANCH   7  13
HETATM   13  N4  UNL     1     -33.518 -15.305 -21.620  1.00  0.00    -0.264 N 
ATOM     14  H4  UNL     1     -32.802 -15.946 -21.964  1.00  0.00     0.189 HD
BRANCH  13  15
HETATM   15  C4  UNL     1     -34.882 -15.591 -21.910  1.00  0.00     0.200 C 
HETATM   16  N5  UNL     1     -35.889 -14.614 -21.679  1.00  0.00    -0.068 NA
HETATM   17  S1  UNL     1     -35.309 -17.037 -22.508  1.00  0.00    -0.043 SA
ENDBRANCH  13  15
ENDBRANCH   7  13
TORSDOF 2
ENDMDL
MODEL 5
REMARK VINA RESULT: -6.695533438      1.018      1.040
REMARK  2 active torsions:
REMARK  status: ('A' for Active; 'I' for Inactive)
REMARK    1  A    between atoms: N3_7  and  N4_9 
REMARK    2  A    between atoms: N4_9  and  C4_11 
ROOT
HETATM    1  N1  UNL     1     -28.823 -12.371 -18.049  1.00  0.00    -0.190 NA
HETATM    2  C1  UNL     1     -29.240 -13.204 -18.703  1.00  0.00     0.121 C 
HETATM    3  C2  UNL     1     -29.751 -14.268 -19.518  1.00  0.00     0.171 A 
HETATM    4  N2  UNL     1     -30.968 -14.355 -20.055  1.00  0.00    -0.177 N 
ATOM      5  H2  UNL     1     -31.720 -13.672 -19.963  1.00  0.00     0.185 HD
HETATM    6  C3  UNL     1     -31.021 -15.507 -20.739  1.00  0.00     0.699 A 
HETATM    7  N3  UNL     1     -32.063 -15.938 -21.402  1.00  0.00    -0.130 N 
ATOM      8  H3  UNL     1     -32.007 -16.830 -21.893  1.00  0.00     0.205 HD
HETATM    9  N6  UNL     1     -29.840 -16.148 -20.635  1.00  0.00    -0.174 N 
ATOM     10  H6  UNL     1     -29.611 -17.047 -21.061  1.00  0.00     0.185 HD
HETATM   11  C5  UNL     1     -29.006 -15.398 -19.870  1.00  0.00     0.170 A 
HETATM   12  N7  UNL     1     -27.668 -15.681 -19.498  1.00  0.00    -0.079 NA
ENDROOT
BRANCH   7  13
HETATM   13  N4  UNL     1     -33.242 -15.207 -21.454  1.00  0.00    -0.264 N 
ATOM     14  H4  UNL     1     -33.253 -14.270 -21.052  1.00  0.00     0.189 HD
BRANCH  13  15
HETATM   15  C4  UNL     1     -34.436 -15.709 -22.044  1.00  0.00     0.200 C 
HETATM   16  N5  UNL     1     -34.703 -17.106 -22.059  1.00  0.00    -0.068 NA
HETATM   17  S1  UNL     1     -35.512 -14.694 -22.710  1.00  0.00    -0.043 SA
ENDBRANCH  13  15
ENDBRANCH   7  13
TORSDOF 2
ENDMDL
