MODEL 1
REMARK VINA RESULT: -6.675976448      0.000      0.000
REMARK  1 active torsions:
REMARK  status: ('A' for Active; 'I' for Inactive)
REMARK    1  A    between atoms: N1_2  and  N2_3 
ROOT
HETATM    1  N2  UNL     1     -31.316 -15.317 -21.008  1.00  0.00    -0.151 N 
HETATM    2  N3  UNL     1     -32.093 -14.239 -20.625  1.00  0.00    -0.221 N 
ATOM      3  H3  UNL     1     -32.428 -13.562 -21.309  1.00  0.00     0.210 HD
HETATM    4  N4  UNL     1     -32.396 -14.111 -19.300  1.00  0.00    -0.281 N 
ATOM      5  H4  UNL     1     -32.990 -14.798 -18.837  1.00  0.00     0.189 HD
HETATM    6  C2  UNL     1     -31.870 -13.006 -18.575  1.00  0.00     0.194 C 
HETATM    7  N5  UNL     1     -31.521 -13.203 -17.202  1.00  0.00    -0.383 N 
ATOM      8  H5  UNL     1     -32.206 -13.423 -16.479  1.00  0.00     0.160 HD
HETATM    9  C3  UNL     1     -30.069 -13.056 -16.928  1.00  0.00     0.148 C 
HETATM   10  C4  UNL     1     -29.300 -13.319 -18.178  1.00  0.00     0.251 C 
HETATM   11  N6  UNL     1     -28.071 -14.070 -18.122  1.00  0.00    -0.073 N 
ATOM     12  H61 UNL     1     -27.955 -14.538 -17.223  1.00  0.00     0.277 HD
ATOM     13  H62 UNL     1     -27.256 -13.458 -18.083  1.00  0.00     0.277 HD
HETATM   14  C5  UNL     1     -27.987 -15.025 -19.252  1.00  0.00     0.241 C 
HETATM   15  C6  UNL     1     -28.866 -14.694 -20.413  1.00  0.00     0.134 C 
HETATM   16  C7  UNL     1     -29.994 -15.636 -20.659  1.00  0.00     0.257 C 
HETATM   17  O1  UNL     1     -29.709 -16.871 -20.531  1.00  0.00    -0.270 OA
ENDROOT
BRANCH   1  18
HETATM   18  N1  UNL     1     -31.942 -16.241 -21.886  1.00  0.00    -0.118 NA
HETATM   19  C1  UNL     1     -33.346 -15.988 -21.987  1.00  0.00     0.161 C 
ENDBRANCH   1  18
TORSDOF 1
ENDMDL
MODEL 2
REMARK VINA RESULT: -6.423860631      2.176      5.209
REMARK  1 active torsions:
REMARK  status: ('A' for Active; 'I' for Inactive)
REMARK    1  A    between atoms: N1_2  and  N2_3 
ROOT
HETATM    1  N2  UNL     1     -30.760 -16.001 -20.831  1.00  0.00    -0.151 N 
HETATM    2  N3  UNL     1     -31.827 -15.232 -20.403  1.00  0.00    -0.221 N 
ATOM      3  H3  UNL     1     -31.926 -14.966 -19.424  1.00  0.00     0.210 HD
HETATM    4  N4  UNL     1     -32.744 -14.841 -21.335  1.00  0.00    -0.281 N 
ATOM      5  H4  UNL     1     -32.482 -14.195 -22.079  1.00  0.00     0.189 HD
HETATM    6  C2  UNL     1     -34.071 -15.348 -21.253  1.00  0.00     0.194 C 
HETATM    7  N5  UNL     1     -34.778 -15.593 -22.473  1.00  0.00    -0.383 N 
ATOM      8  H5  UNL     1     -35.041 -14.853 -23.123  1.00  0.00     0.160 HD
HETATM    9  C3  UNL     1     -35.092 -17.027 -22.702  1.00  0.00     0.148 C 
HETATM   10  C4  UNL     1     -34.124 -17.873 -21.948  1.00  0.00     0.251 C 
HETATM   11  N6  UNL     1     -33.595 -19.071 -22.548  1.00  0.00    -0.073 N 
ATOM     12  H61 UNL     1     -33.789 -19.110 -23.549  1.00  0.00     0.277 HD
ATOM     13  H62 UNL     1     -34.114 -19.900 -22.259  1.00  0.00     0.277 HD
HETATM   14  C5  UNL     1     -32.146 -19.206 -22.265  1.00  0.00     0.241 C 
HETATM   15  C6  UNL     1     -31.666 -18.421 -21.089  1.00  0.00     0.134 C 
HETATM   16  C7  UNL     1     -30.753 -17.285 -21.399  1.00  0.00     0.257 C 
HETATM   17  O1  UNL     1     -29.872 -17.522 -22.286  1.00  0.00    -0.270 OA
ENDROOT
BRANCH   1  18
HETATM   18  N1  UNL     1     -29.478 -15.410 -20.673  1.00  0.00    -0.118 NA
HETATM   19  C1  UNL     1     -29.533 -14.283 -19.794  1.00  0.00     0.161 C 
ENDBRANCH   1  18
TORSDOF 1
ENDMDL
MODEL 3
REMARK VINA RESULT: -6.371996273      1.894      3.270
REMARK  1 active torsions:
REMARK  status: ('A' for Active; 'I' for Inactive)
REMARK    1  A    between atoms: N1_2  and  N2_3 
ROOT
HETATM    1  N2  UNL     1     -32.351 -14.460 -20.388  1.00  0.00    -0.151 N 
HETATM    2  N3  UNL     1     -31.450 -15.510 -20.418  1.00  0.00    -0.221 N 
ATOM      3  H3  UNL     1     -31.746 -16.463 -20.209  1.00  0.00     0.210 HD
HETATM    4  N4  UNL     1     -30.154 -15.228 -20.736  1.00  0.00    -0.281 N 
ATOM      5  H4  UNL     1     -29.910 -14.896 -21.669  1.00  0.00     0.189 HD
HETATM    6  C2  UNL     1     -29.146 -15.402 -19.746  1.00  0.00     0.194 C 
HETATM    7  N5  UNL     1     -28.040 -14.496 -19.740  1.00  0.00    -0.383 N 
ATOM      8  H5  UNL     1     -27.362 -14.437 -20.500  1.00  0.00     0.160 HD
HETATM    9  C3  UNL     1     -27.972 -13.647 -18.522  1.00  0.00     0.148 C 
HETATM   10  C4  UNL     1     -29.331 -13.534 -17.921  1.00  0.00     0.251 C 
HETATM   11  N6  UNL     1     -29.778 -12.273 -17.386  1.00  0.00    -0.073 N 
ATOM     12  H61 UNL     1     -29.171 -11.505 -17.671  1.00  0.00     0.277 HD
ATOM     13  H62 UNL     1     -29.634 -12.217 -16.378  1.00  0.00     0.277 HD
HETATM   14  C5  UNL     1     -31.192 -12.018 -17.753  1.00  0.00     0.241 C 
HETATM   15  C6  UNL     1     -31.966 -13.239 -18.129  1.00  0.00     0.134 C 
HETATM   16  C7  UNL     1     -32.378 -13.328 -19.558  1.00  0.00     0.257 C 
HETATM   17  O1  UNL     1     -32.798 -12.242 -20.072  1.00  0.00    -0.270 OA
ENDROOT
BRANCH   1  18
HETATM   18  N1  UNL     1     -33.408 -14.534 -21.333  1.00  0.00    -0.118 NA
HETATM   19  C1  UNL     1     -34.049 -15.813 -21.293  1.00  0.00     0.161 C 
ENDBRANCH   1  18
TORSDOF 1
ENDMDL
MODEL 4
REMARK VINA RESULT: -6.211327970      2.341      4.273
REMARK  1 active torsions:
REMARK  status: ('A' for Active; 'I' for Inactive)
REMARK    1  A    between atoms: N1_2  and  N2_3 
ROOT
HETATM    1  N2  UNL     1     -30.405 -17.372 -21.471  1.00  0.00    -0.151 N 
HETATM    2  N3  UNL     1     -29.882 -16.657 -20.409  1.00  0.00    -0.221 N 
ATOM      3  H3  UNL     1     -29.573 -17.127 -19.558  1.00  0.00     0.210 HD
HETATM    4  N4  UNL     1     -29.792 -15.301 -20.537  1.00  0.00    -0.281 N 
ATOM      5  H4  UNL     1     -29.160 -14.887 -21.222  1.00  0.00     0.189 HD
HETATM    6  C2  UNL     1     -30.592 -14.474 -19.700  1.00  0.00     0.194 C 
HETATM    7  N5  UNL     1     -31.089 -13.246 -20.240  1.00  0.00    -0.383 N 
ATOM      8  H5  UNL     1     -30.484 -12.474 -20.519  1.00  0.00     0.160 HD
HETATM    9  C3  UNL     1     -32.570 -13.202 -20.354  1.00  0.00     0.148 C 
HETATM   10  C4  UNL     1     -33.102 -14.592 -20.438  1.00  0.00     0.251 C 
HETATM   11  N6  UNL     1     -34.183 -14.896 -21.341  1.00  0.00    -0.073 N 
ATOM     12  H61 UNL     1     -34.342 -14.141 -22.007  1.00  0.00     0.277 HD
ATOM     13  H62 UNL     1     -35.086 -14.878 -20.868  1.00  0.00     0.277 HD
HETATM   14  C5  UNL     1     -33.947 -16.190 -22.026  1.00  0.00     0.241 C 
HETATM   15  C6  UNL     1     -32.983 -17.095 -21.331  1.00  0.00     0.134 C 
HETATM   16  C7  UNL     1     -31.690 -17.324 -22.034  1.00  0.00     0.257 C 
HETATM   17  O1  UNL     1     -31.778 -17.492 -23.294  1.00  0.00    -0.270 OA
ENDROOT
BRANCH   1  18
HETATM   18  N1  UNL     1     -29.517 -18.294 -22.085  1.00  0.00    -0.118 NA
HETATM   19  C1  UNL     1     -29.132 -19.327 -21.173  1.00  0.00     0.161 C 
ENDBRANCH   1  18
TORSDOF 1
ENDMDL
MODEL 5
REMARK VINA RESULT: -6.075656514      2.607      5.667
REMARK  1 active torsions:
REMARK  status: ('A' for Active; 'I' for Inactive)
REMARK    1  A    between atoms: N1_2  and  N2_3 
ROOT
HETATM    1  N2  UNL     1     -31.663 -16.303 -21.274  1.00  0.00    -0.151 N 
HETATM    2  N3  UNL     1     -32.429 -15.331 -20.654  1.00  0.00    -0.221 N 
ATOM      3  H3  UNL     1     -32.418 -15.220 -19.641  1.00  0.00     0.210 HD
HETATM    4  N4  UNL     1     -33.197 -14.526 -21.443  1.00  0.00    -0.281 N 
ATOM      5  H4  UNL     1     -32.762 -13.872 -22.094  1.00  0.00     0.189 HD
HETATM    6  C2  UNL     1     -34.614 -14.612 -21.345  1.00  0.00     0.194 C 
HETATM    7  N5  UNL     1     -35.387 -14.418 -22.533  1.00  0.00    -0.383 N 
ATOM      8  H5  UNL     1     -35.420 -13.533 -23.038  1.00  0.00     0.160 HD
HETATM    9  C3  UNL     1     -36.137 -15.627 -22.960  1.00  0.00     0.148 C 
HETATM   10  C4  UNL     1     -35.466 -16.843 -22.421  1.00  0.00     0.251 C 
HETATM   11  N6  UNL     1     -35.350 -18.024 -23.239  1.00  0.00    -0.073 N 
ATOM     12  H61 UNL     1     -35.568 -17.829 -24.216  1.00  0.00     0.277 HD
ATOM     13  H62 UNL     1     -36.096 -18.692 -23.045  1.00  0.00     0.277 HD
HETATM   14  C5  UNL     1     -34.010 -18.639 -23.087  1.00  0.00     0.241 C 
HETATM   15  C6  UNL     1     -33.284 -18.251 -21.841  1.00  0.00     0.134 C 
HETATM   16  C7  UNL     1     -32.070 -17.410 -22.035  1.00  0.00     0.257 C 
HETATM   17  O1  UNL     1     -31.325 -17.748 -23.011  1.00  0.00    -0.270 OA
ENDROOT
BRANCH   1  18
HETATM   18  N1  UNL     1     -30.258 -16.166 -21.120  1.00  0.00    -0.118 NA
HETATM   19  C1  UNL     1     -29.938 -15.092 -20.231  1.00  0.00     0.161 C 
ENDBRANCH   1  18
TORSDOF 1
ENDMDL
