MODEL 1
REMARK VINA RESULT: -7.053798411      0.000      0.000
REMARK  3 active torsions:
REMARK  status: ('A' for Active; 'I' for Inactive)
REMARK    1  A    between atoms: N1_1  and  C1_5 
REMARK    2  A    between atoms: C1_5  and  O1_6 
REMARK    3  A    between atoms: C1_5  and  C2_8 
ROOT
HETATM    1  C2  UNL     1     -31.071 -15.391 -21.232  1.00  0.00     0.069 C 
HETATM    2  C3  UNL     1     -32.393 -14.829 -20.663  1.00  0.00     0.030 C 
HETATM    3  C4  UNL     1     -32.241 -13.494 -20.022  1.00  0.00     0.119 C 
HETATM    4  N2  UNL     1     -32.038 -13.486 -18.624  1.00  0.00    -0.398 N 
ATOM      5  H2  UNL     1     -32.310 -14.294 -18.064  1.00  0.00     0.158 HD
HETATM    6  C5  UNL     1     -31.468 -12.376 -18.015  1.00  0.00     0.099 C 
HETATM    7  C6  UNL     1     -30.097 -12.587 -17.388  1.00  0.00     0.099 C 
HETATM    8  N3  UNL     1     -29.548 -13.868 -17.582  1.00  0.00    -0.396 N 
ATOM      9  H3  UNL     1     -29.928 -14.691 -17.115  1.00  0.00     0.158 HD
HETATM   10  C7  UNL     1     -28.417 -13.958 -18.481  1.00  0.00     0.146 C 
HETATM   11  C8  UNL     1     -28.125 -15.337 -18.954  1.00  0.00     0.251 C 
HETATM   12  N4  UNL     1     -28.839 -15.786 -20.136  1.00  0.00    -0.073 N 
ATOM     13  H41 UNL     1     -28.878 -16.803 -20.214  1.00  0.00     0.277 HD
ATOM     14  H42 UNL     1     -28.329 -15.605 -21.000  1.00  0.00     0.277 HD
HETATM   15  C9  UNL     1     -30.116 -15.188 -20.117  1.00  0.00     0.241 C 
ENDROOT
BRANCH   1  16
HETATM   16  C1  UNL     1     -31.328 -16.815 -21.607  1.00  0.00     0.321 C 
BRANCH  16  17
HETATM   17  N1  UNL     1     -31.683 -17.598 -20.442  1.00  0.00    -0.053 N 
ATOM     18  H13 UNL     1     -32.670 -17.522 -20.193  1.00  0.00     0.277 HD
ATOM     19  H12 UNL     1     -31.671 -18.603 -20.616  1.00  0.00     0.277 HD
ATOM     20  H11 UNL     1     -31.057 -17.315 -19.688  1.00  0.00     0.277 HD
ENDBRANCH  16  17
BRANCH  16  21
HETATM   21  O1  UNL     1     -30.176 -17.392 -22.153  1.00  0.00    -0.369 OA
ATOM     22  H1  UNL     1     -30.043 -16.994 -23.006  1.00  0.00     0.212 HD
ENDBRANCH  16  21
ENDBRANCH   1  16
TORSDOF 3
ENDMDL
MODEL 2
REMARK VINA RESULT: -6.774484663      2.282      5.050
REMARK  3 active torsions:
REMARK  status: ('A' for Active; 'I' for Inactive)
REMARK    1  A    between atoms: N1_1  and  C1_5 
REMARK    2  A    between atoms: C1_5  and  O1_6 
REMARK    3  A    between atoms: C1_5  and  C2_8 
ROOT
HETATM    1  C2  UNL     1     -29.513 -13.010 -19.020  1.00  0.00     0.069 C 
HETATM    2  C3  UNL     1     -28.554 -14.200 -18.785  1.00  0.00     0.030 C 
HETATM    3  C4  UNL     1     -28.488 -15.143 -19.935  1.00  0.00     0.119 C 
HETATM    4  N2  UNL     1     -29.343 -16.266 -19.877  1.00  0.00    -0.398 N 
ATOM      5  H2  UNL     1     -29.717 -16.579 -18.982  1.00  0.00     0.158 HD
HETATM    6  C5  UNL     1     -29.672 -16.944 -21.045  1.00  0.00     0.099 C 
HETATM    7  C6  UNL     1     -31.133 -16.881 -21.466  1.00  0.00     0.099 C 
HETATM    8  N3  UNL     1     -31.948 -16.068 -20.656  1.00  0.00    -0.396 N 
ATOM      9  H3  UNL     1     -32.197 -16.338 -19.704  1.00  0.00     0.158 HD
HETATM   10  C7  UNL     1     -32.414 -14.830 -21.242  1.00  0.00     0.146 C 
HETATM   11  C8  UNL     1     -32.926 -13.844 -20.253  1.00  0.00     0.251 C 
HETATM   12  N4  UNL     1     -31.948 -12.954 -19.653  1.00  0.00    -0.073 N 
ATOM     13  H41 UNL     1     -32.263 -12.558 -18.766  1.00  0.00     0.277 HD
ATOM     14  H42 UNL     1     -31.845 -12.077 -20.162  1.00  0.00     0.277 HD
HETATM   15  C9  UNL     1     -30.737 -13.667 -19.536  1.00  0.00     0.241 C 
ENDROOT
BRANCH   1  16
HETATM   16  C1  UNL     1     -29.663 -12.306 -17.711  1.00  0.00     0.321 C 
BRANCH  16  17
HETATM   17  N1  UNL     1     -30.087 -13.227 -16.676  1.00  0.00    -0.053 N 
ATOM     18  H13 UNL     1     -30.837 -13.851 -16.977  1.00  0.00     0.277 HD
ATOM     19  H12 UNL     1     -29.394 -13.948 -16.472  1.00  0.00     0.277 HD
ATOM     20  H11 UNL     1     -30.335 -12.667 -15.860  1.00  0.00     0.277 HD
ENDBRANCH  16  17
BRANCH  16  21
HETATM   21  O1  UNL     1     -30.642 -11.311 -17.800  1.00  0.00    -0.369 OA
ATOM     22  H1  UNL     1     -30.962 -11.315 -18.695  1.00  0.00     0.212 HD
ENDBRANCH  16  21
ENDBRANCH   1  16
TORSDOF 3
ENDMDL
MODEL 3
REMARK VINA RESULT: -6.519931746      2.260      4.904
REMARK  3 active torsions:
REMARK  status: ('A' for Active; 'I' for Inactive)
REMARK    1  A    between atoms: N1_1  and  C1_5 
REMARK    2  A    between atoms: C1_5  and  O1_6 
REMARK    3  A    between atoms: C1_5  and  C2_8 
ROOT
HETATM    1  C2  UNL     1     -29.435 -13.938 -19.880  1.00  0.00     0.069 C 
HETATM    2  C3  UNL     1     -28.998 -15.418 -19.783  1.00  0.00     0.030 C 
HETATM    3  C4  UNL     1     -29.594 -16.282 -20.838  1.00  0.00     0.119 C 
HETATM    4  N2  UNL     1     -30.780 -16.969 -20.493  1.00  0.00    -0.398 N 
ATOM      5  H2  UNL     1     -31.014 -17.124 -19.513  1.00  0.00     0.158 HD
HETATM    6  C5  UNL     1     -31.625 -17.431 -21.494  1.00  0.00     0.099 C 
HETATM    7  C6  UNL     1     -32.997 -16.777 -21.566  1.00  0.00     0.099 C 
HETATM    8  N3  UNL     1     -33.199 -15.723 -20.655  1.00  0.00    -0.396 N 
ATOM      9  H3  UNL     1     -33.293 -15.891 -19.654  1.00  0.00     0.158 HD
HETATM   10  C7  UNL     1     -33.267 -14.389 -21.213  1.00  0.00     0.146 C 
HETATM   11  C8  UNL     1     -33.089 -13.303 -20.213  1.00  0.00     0.251 C 
HETATM   12  N4  UNL     1     -31.725 -12.895 -19.930  1.00  0.00    -0.073 N 
ATOM     13  H41 UNL     1     -31.630 -12.425 -19.029  1.00  0.00     0.277 HD
ATOM     14  H42 UNL     1     -31.412 -12.122 -20.517  1.00  0.00     0.277 HD
HETATM   15  C9  UNL     1     -30.905 -14.036 -20.043  1.00  0.00     0.241 C 
ENDROOT
BRANCH   1  16
HETATM   16  C1  UNL     1     -28.969 -13.262 -18.632  1.00  0.00     0.321 C 
BRANCH  16  17
HETATM   17  N1  UNL     1     -29.530 -13.902 -17.460  1.00  0.00    -0.053 N 
ATOM     18  H13 UNL     1     -29.201 -14.858 -17.329  1.00  0.00     0.277 HD
ATOM     19  H12 UNL     1     -29.170 -13.520 -16.584  1.00  0.00     0.277 HD
ATOM     20  H11 UNL     1     -30.545 -13.834 -17.539  1.00  0.00     0.277 HD
ENDBRANCH  16  17
BRANCH  16  21
HETATM   21  O1  UNL     1     -29.390 -11.928 -18.612  1.00  0.00    -0.369 OA
ATOM     22  H1  UNL     1     -29.096 -11.531 -19.425  1.00  0.00     0.212 HD
ENDBRANCH  16  21
ENDBRANCH   1  16
TORSDOF 3
ENDMDL
MODEL 4
REMARK VINA RESULT: -6.442801383      2.320      5.173
REMARK  3 active torsions:
REMARK  status: ('A' for Active; 'I' for Inactive)
REMARK    1  A    between atoms: N1_1  and  C1_5 
REMARK    2  A    between atoms: C1_5  and  O1_6 
REMARK    3  A    between atoms: C1_5  and  C2_8 
ROOT
HETATM    1  C2  UNL     1     -30.951 -13.399 -19.753  1.00  0.00     0.069 C 
HETATM    2  C3  UNL     1     -29.868 -14.431 -19.363  1.00  0.00     0.030 C 
HETATM    3  C4  UNL     1     -29.552 -15.397 -20.451  1.00  0.00     0.119 C 
HETATM    4  N2  UNL     1     -30.246 -16.628 -20.421  1.00  0.00    -0.398 N 
ATOM      5  H2  UNL     1     -30.667 -16.957 -19.553  1.00  0.00     0.158 HD
HETATM    6  C5  UNL     1     -30.353 -17.387 -21.579  1.00  0.00     0.099 C 
HETATM    7  C6  UNL     1     -31.756 -17.547 -22.148  1.00  0.00     0.099 C 
HETATM    8  N3  UNL     1     -32.756 -16.829 -21.466  1.00  0.00    -0.396 N 
ATOM      9  H3  UNL     1     -33.066 -17.096 -20.532  1.00  0.00     0.158 HD
HETATM   10  C7  UNL     1     -33.322 -15.691 -22.159  1.00  0.00     0.146 C 
HETATM   11  C8  UNL     1     -34.067 -14.752 -21.278  1.00  0.00     0.251 C 
HETATM   12  N4  UNL     1     -33.289 -13.712 -20.629  1.00  0.00    -0.073 N 
ATOM     13  H41 UNL     1     -33.748 -13.332 -19.801  1.00  0.00     0.277 HD
ATOM     14  H42 UNL     1     -33.253 -12.848 -21.170  1.00  0.00     0.277 HD
HETATM   15  C9  UNL     1     -32.012 -14.241 -20.355  1.00  0.00     0.241 C 
ENDROOT
BRANCH   1  16
HETATM   16  C1  UNL     1     -31.334 -12.675 -18.504  1.00  0.00     0.321 C 
BRANCH  16  17
HETATM   17  N1  UNL     1     -31.725 -13.610 -17.467  1.00  0.00    -0.053 N 
ATOM     18  H13 UNL     1     -32.735 -13.657 -17.330  1.00  0.00     0.277 HD
ATOM     19  H12 UNL     1     -31.584 -14.585 -17.733  1.00  0.00     0.277 HD
ATOM     20  H11 UNL     1     -31.217 -13.348 -16.622  1.00  0.00     0.277 HD
ENDBRANCH  16  17
BRANCH  16  21
HETATM   21  O1  UNL     1     -32.433 -11.842 -18.739  1.00  0.00    -0.369 OA
ATOM     22  H1  UNL     1     -32.606 -11.375 -17.930  1.00  0.00     0.212 HD
ENDBRANCH  16  21
ENDBRANCH   1  16
TORSDOF 3
ENDMDL
MODEL 5
REMARK VINA RESULT: -6.387336856      1.288      1.291
REMARK  3 active torsions:
REMARK  status: ('A' for Active; 'I' for Inactive)
REMARK    1  A    between atoms: N1_1  and  C1_5 
REMARK    2  A    between atoms: C1_5  and  O1_6 
REMARK    3  A    between atoms: C1_5  and  C2_8 
ROOT
HETATM    1  C2  UNL     1     -31.894 -15.106 -21.243  1.00  0.00     0.069 C 
HETATM    2  C3  UNL     1     -32.938 -14.329 -20.408  1.00  0.00     0.030 C 
HETATM    3  C4  UNL     1     -32.384 -13.116 -19.748  1.00  0.00     0.119 C 
HETATM    4  N2  UNL     1     -31.941 -13.270 -18.415  1.00  0.00    -0.398 N 
ATOM      5  H2  UNL     1     -32.281 -14.047 -17.850  1.00  0.00     0.158 HD
HETATM    6  C5  UNL     1     -31.040 -12.359 -17.877  1.00  0.00     0.099 C 
HETATM    7  C6  UNL     1     -29.662 -12.904 -17.533  1.00  0.00     0.099 C 
HETATM    8  N3  UNL     1     -29.453 -14.251 -17.886  1.00  0.00    -0.396 N 
ATOM      9  H3  UNL     1     -29.917 -15.013 -17.392  1.00  0.00     0.158 HD
HETATM   10  C7  UNL     1     -28.547 -14.499 -18.987  1.00  0.00     0.146 C 
HETATM   11  C8  UNL     1     -28.655 -15.863 -19.568  1.00  0.00     0.251 C 
HETATM   12  N4  UNL     1     -29.648 -16.050 -20.611  1.00  0.00    -0.073 N 
ATOM     13  H41 UNL     1     -29.924 -17.026 -20.726  1.00  0.00     0.277 HD
ATOM     14  H42 UNL     1     -29.271 -15.907 -21.548  1.00  0.00     0.277 HD
HETATM   15  C9  UNL     1     -30.736 -15.202 -20.322  1.00  0.00     0.241 C 
ENDROOT
BRANCH   1  16
HETATM   16  C1  UNL     1     -32.522 -16.407 -21.626  1.00  0.00     0.321 C 
BRANCH  16  17
HETATM   17  N1  UNL     1     -33.938 -16.240 -21.878  1.00  0.00    -0.053 N 
ATOM     18  H13 UNL     1     -34.308 -16.913 -22.549  1.00  0.00     0.277 HD
ATOM     19  H12 UNL     1     -34.521 -16.513 -21.086  1.00  0.00     0.277 HD
ATOM     20  H11 UNL     1     -34.079 -15.271 -22.163  1.00  0.00     0.277 HD
ENDBRANCH  16  17
BRANCH  16  21
HETATM   21  O1  UNL     1     -32.397 -17.335 -20.586  1.00  0.00    -0.369 OA
ATOM     22  H1  UNL     1     -33.102 -17.163 -19.973  1.00  0.00     0.212 HD
ENDBRANCH  16  21
ENDBRANCH   1  16
TORSDOF 3
ENDMDL
