MODEL 1
REMARK VINA RESULT: -6.737483487      0.000      0.000
REMARK  11 active torsions:
REMARK  status: ('A' for Active; 'I' for Inactive)
REMARK    1  A    between atoms: O1_2  and  C2_3 
REMARK    2  A    between atoms: C2_3  and  C3_4 
REMARK    3  A    between atoms: C3_4  and  N1_5 
REMARK    4  A    between atoms: N1_5  and  C4_8 
REMARK    5  A    between atoms: C4_8  and  C5_9 
REMARK       I    between atoms: C5_9  and  N2_11 
REMARK    6  A    between atoms: N2_11  and  C6_13 
REMARK    7  A    between atoms: C6_13  and  C7_14 
REMARK    8  A    between atoms: C7_14  and  O3_15 
REMARK    9  A    between atoms: C7_14  and  C8_17 
REMARK   10  A    between atoms: C7_14  and  C9_22 
REMARK   11  A    between atoms: C8_17  and  N3_18 
ROOT
HETATM    1  C5  UNL     1       2.749  18.745  -9.739  1.00  0.00     0.243 C 
HETATM    2  O2  UNL     1       1.587  18.795 -10.180  1.00  0.00    -0.272 OA
HETATM    3  N2  UNL     1       3.912  18.867 -10.499  1.00  0.00    -0.356 N 
ATOM      4  H2  UNL     1       4.793  18.813  -9.987  1.00  0.00     0.162 HD
ENDROOT
BRANCH   3   5
HETATM    5  C6  UNL     1       4.011  19.057 -11.903  1.00  0.00     0.172 C 
BRANCH   5   6
HETATM    6  C7  UNL     1       3.919  20.452 -12.430  1.00  0.00     0.175 C 
BRANCH   6   7
HETATM    7  O3  UNL     1       2.692  21.002 -12.183  1.00  0.00    -0.377 OA
ATOM      8  H3  UNL     1       1.999  20.519 -12.619  1.00  0.00     0.211 HD
ENDBRANCH   6   7
BRANCH   6   9
HETATM    9  C8  UNL     1       4.075  20.376 -13.946  1.00  0.00     0.278 C 
BRANCH   9  10
HETATM   10  N3  UNL     1       2.841  20.418 -14.660  1.00  0.00    -0.076 N 
ATOM     11  H33 UNL     1       2.793  21.254 -15.243  1.00  0.00     0.274 HD
ATOM     12  H32 UNL     1       2.822  19.701 -15.385  1.00  0.00     0.274 HD
ATOM     13  H31 UNL     1       2.014  20.349 -14.067  1.00  0.00     0.274 HD
ENDBRANCH   9  10
ENDBRANCH   6   9
BRANCH   6  14
HETATM   14  C9  UNL     1       5.026  21.234 -11.826  1.00  0.00     0.269 C 
HETATM   15  N4  UNL     1       6.207  20.572 -11.447  1.00  0.00    -0.059 NA
HETATM   16  O4  UNL     1       4.887  22.458 -11.668  1.00  0.00    -0.273 OA
ENDBRANCH   6  14
ENDBRANCH   5   6
ENDBRANCH   3   5
BRANCH   1  17
HETATM   17  C4  UNL     1       2.873  18.535  -8.252  1.00  0.00     0.334 C 
BRANCH  17  18
HETATM   18  N1  UNL     1       4.150  19.044  -7.814  1.00  0.00    -0.065 N 
ATOM     19  H12 UNL     1       4.656  19.536  -8.551  1.00  0.00     0.277 HD
ATOM     20  H11 UNL     1       4.836  18.306  -7.650  1.00  0.00     0.277 HD
BRANCH  18  21
HETATM   21  C3  UNL     1       3.920  19.869  -6.642  1.00  0.00     0.259 C 
BRANCH  21  22
HETATM   22  C2  UNL     1       3.591  21.292  -7.099  1.00  0.00     0.194 C 
BRANCH  22  23
HETATM   23  O1  UNL     1       3.573  22.096  -5.983  1.00  0.00    -0.394 OA
HETATM   24  C1  UNL     1       3.959  21.438  -4.835  1.00  0.00     0.201 C 
ENDBRANCH  22  23
ENDBRANCH  21  22
ENDBRANCH  18  21
ENDBRANCH  17  18
ENDBRANCH   1  17
TORSDOF 11
ENDMDL
MODEL 2
REMARK VINA RESULT: -6.681117627      2.265      6.713
REMARK  11 active torsions:
REMARK  status: ('A' for Active; 'I' for Inactive)
REMARK    1  A    between atoms: O1_2  and  C2_3 
REMARK    2  A    between atoms: C2_3  and  C3_4 
REMARK    3  A    between atoms: C3_4  and  N1_5 
REMARK    4  A    between atoms: N1_5  and  C4_8 
REMARK    5  A    between atoms: C4_8  and  C5_9 
REMARK       I    between atoms: C5_9  and  N2_11 
REMARK    6  A    between atoms: N2_11  and  C6_13 
REMARK    7  A    between atoms: C6_13  and  C7_14 
REMARK    8  A    between atoms: C7_14  and  O3_15 
REMARK    9  A    between atoms: C7_14  and  C8_17 
REMARK   10  A    between atoms: C7_14  and  C9_22 
REMARK   11  A    between atoms: C8_17  and  N3_18 
ROOT
HETATM    1  C5  UNL     1       4.078  21.474 -12.223  1.00  0.00     0.243 C 
HETATM    2  O2  UNL     1       4.627  22.576 -12.052  1.00  0.00    -0.272 OA
HETATM    3  N2  UNL     1       3.951  20.472 -11.261  1.00  0.00    -0.356 N 
ATOM      4  H2  UNL     1       3.466  19.624 -11.554  1.00  0.00     0.162 HD
ENDROOT
BRANCH   3   5
HETATM    5  C6  UNL     1       4.421  20.496  -9.921  1.00  0.00     0.172 C 
BRANCH   5   6
HETATM    6  C7  UNL     1       3.732  19.624  -8.921  1.00  0.00     0.175 C 
BRANCH   6   7
HETATM    7  O3  UNL     1       2.767  20.310  -8.239  1.00  0.00    -0.377 OA
ATOM      8  H3  UNL     1       3.106  21.117  -7.870  1.00  0.00     0.211 HD
ENDBRANCH   6   7
BRANCH   6   9
HETATM    9  C8  UNL     1       4.778  19.192  -7.898  1.00  0.00     0.278 C 
BRANCH   9  10
HETATM   10  N3  UNL     1       4.666  19.851  -6.638  1.00  0.00    -0.076 N 
ATOM     11  H33 UNL     1       5.351  20.603  -6.565  1.00  0.00     0.274 HD
ATOM     12  H32 UNL     1       3.805  20.396  -6.595  1.00  0.00     0.274 HD
ATOM     13  H31 UNL     1       4.734  19.226  -5.835  1.00  0.00     0.274 HD
ENDBRANCH   9  10
ENDBRANCH   6   9
BRANCH   6  14
HETATM   14  C9  UNL     1       3.191  18.450  -9.648  1.00  0.00     0.269 C 
HETATM   15  N4  UNL     1       1.877  18.497 -10.148  1.00  0.00    -0.059 NA
HETATM   16  O4  UNL     1       3.909  17.447  -9.801  1.00  0.00    -0.273 OA
ENDBRANCH   6  14
ENDBRANCH   5   6
ENDBRANCH   3   5
BRANCH   1  17
HETATM   17  C4  UNL     1       3.512  21.233 -13.599  1.00  0.00     0.334 C 
BRANCH  17  18
HETATM   18  N1  UNL     1       3.698  19.845 -13.945  1.00  0.00    -0.065 N 
ATOM     19  H12 UNL     1       3.108  19.218 -13.397  1.00  0.00     0.277 HD
ATOM     20  H11 UNL     1       4.601  19.479 -13.642  1.00  0.00     0.277 HD
BRANCH  18  21
HETATM   21  C3  UNL     1       3.487  19.713 -15.375  1.00  0.00     0.259 C 
BRANCH  21  22
HETATM   22  C2  UNL     1       2.191  20.436 -15.749  1.00  0.00     0.194 C 
BRANCH  22  23
HETATM   23  O1  UNL     1       1.267  19.480 -16.104  1.00  0.00    -0.394 OA
HETATM   24  C1  UNL     1       1.654  18.732 -17.196  1.00  0.00     0.201 C 
ENDBRANCH  22  23
ENDBRANCH  21  22
ENDBRANCH  18  21
ENDBRANCH  17  18
ENDBRANCH   1  17
TORSDOF 11
ENDMDL
MODEL 3
REMARK VINA RESULT: -6.579567096      2.221      6.725
REMARK  11 active torsions:
REMARK  status: ('A' for Active; 'I' for Inactive)
REMARK    1  A    between atoms: O1_2  and  C2_3 
REMARK    2  A    between atoms: C2_3  and  C3_4 
REMARK    3  A    between atoms: C3_4  and  N1_5 
REMARK    4  A    between atoms: N1_5  and  C4_8 
REMARK    5  A    between atoms: C4_8  and  C5_9 
REMARK       I    between atoms: C5_9  and  N2_11 
REMARK    6  A    between atoms: N2_11  and  C6_13 
REMARK    7  A    between atoms: C6_13  and  C7_14 
REMARK    8  A    between atoms: C7_14  and  O3_15 
REMARK    9  A    between atoms: C7_14  and  C8_17 
REMARK   10  A    between atoms: C7_14  and  C9_22 
REMARK   11  A    between atoms: C8_17  and  N3_18 
ROOT
HETATM    1  C5  UNL     1       4.833  19.824 -11.996  1.00  0.00     0.243 C 
HETATM    2  O2  UNL     1       6.049  20.086 -11.984  1.00  0.00    -0.272 OA
HETATM    3  N2  UNL     1       3.965  19.950 -10.912  1.00  0.00    -0.356 N 
ATOM      4  H2  UNL     1       2.990  19.701 -11.084  1.00  0.00     0.162 HD
ENDROOT
BRANCH   3   5
HETATM    5  C6  UNL     1       4.280  20.383  -9.597  1.00  0.00     0.172 C 
BRANCH   5   6
HETATM    6  C7  UNL     1       3.604  19.701  -8.452  1.00  0.00     0.175 C 
BRANCH   6   7
HETATM    7  O3  UNL     1       2.655  20.501  -7.880  1.00  0.00    -0.377 OA
ATOM      8  H3  UNL     1       1.778  20.238  -8.131  1.00  0.00     0.211 HD
ENDBRANCH   6   7
BRANCH   6   9
HETATM    9  C8  UNL     1       4.666  19.438  -7.389  1.00  0.00     0.278 C 
BRANCH   9  10
HETATM   10  N3  UNL     1       4.422  20.100  -6.149  1.00  0.00    -0.076 N 
ATOM     11  H33 UNL     1       4.819  21.039  -6.161  1.00  0.00     0.274 HD
ATOM     12  H32 UNL     1       3.434  20.330  -6.054  1.00  0.00     0.274 HD
ATOM     13  H31 UNL     1       4.749  19.584  -5.332  1.00  0.00     0.274 HD
ENDBRANCH   9  10
ENDBRANCH   6   9
BRANCH   6  14
HETATM   14  C9  UNL     1       3.041  18.425  -8.961  1.00  0.00     0.269 C 
HETATM   15  N4  UNL     1       3.916  17.408  -9.383  1.00  0.00    -0.059 NA
HETATM   16  O4  UNL     1       1.807  18.281  -9.003  1.00  0.00    -0.273 OA
ENDBRANCH   6  14
ENDBRANCH   5   6
ENDBRANCH   3   5
BRANCH   1  17
HETATM   17  C4  UNL     1       4.286  19.330 -13.310  1.00  0.00     0.334 C 
BRANCH  17  18
HETATM   18  N1  UNL     1       3.544  20.396 -13.938  1.00  0.00    -0.065 N 
ATOM     19  H12 UNL     1       3.950  21.316 -13.765  1.00  0.00     0.277 HD
ATOM     20  H11 UNL     1       2.640  20.563 -13.496  1.00  0.00     0.277 HD
BRANCH  18  21
HETATM   21  C3  UNL     1       3.432  20.085 -15.351  1.00  0.00     0.259 C 
BRANCH  21  22
HETATM   22  C2  UNL     1       2.039  20.490 -15.835  1.00  0.00     0.194 C 
BRANCH  22  23
HETATM   23  O1  UNL     1       1.346  19.338 -16.128  1.00  0.00    -0.394 OA
HETATM   24  C1  UNL     1       2.072  18.448 -16.888  1.00  0.00     0.201 C 
ENDBRANCH  22  23
ENDBRANCH  21  22
ENDBRANCH  18  21
ENDBRANCH  17  18
ENDBRANCH   1  17
TORSDOF 11
ENDMDL
MODEL 4
REMARK VINA RESULT: -6.498725310      2.452      6.883
REMARK  11 active torsions:
REMARK  status: ('A' for Active; 'I' for Inactive)
REMARK    1  A    between atoms: O1_2  and  C2_3 
REMARK    2  A    between atoms: C2_3  and  C3_4 
REMARK    3  A    between atoms: C3_4  and  N1_5 
REMARK    4  A    between atoms: N1_5  and  C4_8 
REMARK    5  A    between atoms: C4_8  and  C5_9 
REMARK       I    between atoms: C5_9  and  N2_11 
REMARK    6  A    between atoms: N2_11  and  C6_13 
REMARK    7  A    between atoms: C6_13  and  C7_14 
REMARK    8  A    between atoms: C7_14  and  O3_15 
REMARK    9  A    between atoms: C7_14  and  C8_17 
REMARK   10  A    between atoms: C7_14  and  C9_22 
REMARK   11  A    between atoms: C8_17  and  N3_18 
ROOT
HETATM    1  C5  UNL     1       3.960  20.933 -12.679  1.00  0.00     0.243 C 
HETATM    2  O2  UNL     1       4.488  21.998 -12.314  1.00  0.00    -0.272 OA
HETATM    3  N2  UNL     1       3.697  19.835 -11.860  1.00  0.00    -0.356 N 
ATOM      4  H2  UNL     1       3.251  19.035 -12.308  1.00  0.00     0.162 HD
ENDROOT
BRANCH   3   5
HETATM    5  C6  UNL     1       3.980  19.702 -10.474  1.00  0.00     0.172 C 
BRANCH   5   6
HETATM    6  C7  UNL     1       2.926  19.109  -9.597  1.00  0.00     0.175 C 
BRANCH   6   7
HETATM    7  O3  UNL     1       1.671  19.443 -10.023  1.00  0.00    -0.377 OA
ATOM      8  H3  UNL     1       1.001  19.002  -9.514  1.00  0.00     0.211 HD
ENDBRANCH   6   7
BRANCH   6   9
HETATM    9  C8  UNL     1       3.099  19.712  -8.206  1.00  0.00     0.278 C 
BRANCH   9  10
HETATM   10  N3  UNL     1       3.766  20.975  -8.200  1.00  0.00    -0.076 N 
ATOM     11  H33 UNL     1       4.771  20.849  -8.314  1.00  0.00     0.274 HD
ATOM     12  H32 UNL     1       3.558  21.493  -9.052  1.00  0.00     0.274 HD
ATOM     13  H31 UNL     1       3.568  21.544  -7.377  1.00  0.00     0.274 HD
ENDBRANCH   9  10
ENDBRANCH   6   9
BRANCH   6  14
HETATM   14  C9  UNL     1       3.144  17.642  -9.564  1.00  0.00     0.269 C 
HETATM   15  N4  UNL     1       2.045  16.780  -9.729  1.00  0.00    -0.059 NA
HETATM   16  O4  UNL     1       4.294  17.203  -9.392  1.00  0.00    -0.273 OA
ENDBRANCH   6  14
ENDBRANCH   5   6
ENDBRANCH   3   5
BRANCH   1  17
HETATM   17  C4  UNL     1       3.585  20.856 -14.136  1.00  0.00     0.334 C 
BRANCH  17  18
HETATM   18  N1  UNL     1       3.440  19.470 -14.508  1.00  0.00    -0.065 N 
ATOM     19  H12 UNL     1       2.726  18.986 -13.964  1.00  0.00     0.277 HD
ATOM     20  H11 UNL     1       4.236  18.898 -14.225  1.00  0.00     0.277 HD
BRANCH  18  21
HETATM   21  C3  UNL     1       3.190  19.419 -15.937  1.00  0.00     0.259 C 
BRANCH  21  22
HETATM   22  C2  UNL     1       1.887  20.165 -16.235  1.00  0.00     0.194 C 
BRANCH  22  23
HETATM   23  O1  UNL     1       1.062  19.306 -16.923  1.00  0.00    -0.394 OA
HETATM   24  C1  UNL     1       1.740  18.495 -17.808  1.00  0.00     0.201 C 
ENDBRANCH  22  23
ENDBRANCH  21  22
ENDBRANCH  18  21
ENDBRANCH  17  18
ENDBRANCH   1  17
TORSDOF 11
ENDMDL
MODEL 5
REMARK VINA RESULT: -6.320348701      1.063      1.293
REMARK  11 active torsions:
REMARK  status: ('A' for Active; 'I' for Inactive)
REMARK    1  A    between atoms: O1_2  and  C2_3 
REMARK    2  A    between atoms: C2_3  and  C3_4 
REMARK    3  A    between atoms: C3_4  and  N1_5 
REMARK    4  A    between atoms: N1_5  and  C4_8 
REMARK    5  A    between atoms: C4_8  and  C5_9 
REMARK       I    between atoms: C5_9  and  N2_11 
REMARK    6  A    between atoms: N2_11  and  C6_13 
REMARK    7  A    between atoms: C6_13  and  C7_14 
REMARK    8  A    between atoms: C7_14  and  O3_15 
REMARK    9  A    between atoms: C7_14  and  C8_17 
REMARK   10  A    between atoms: C7_14  and  C9_22 
REMARK   11  A    between atoms: C8_17  and  N3_18 
ROOT
HETATM    1  C5  UNL     1       2.501  18.944  -9.722  1.00  0.00     0.243 C 
HETATM    2  O2  UNL     1       1.611  18.260 -10.257  1.00  0.00    -0.272 OA
HETATM    3  N2  UNL     1       3.187  19.998 -10.323  1.00  0.00    -0.356 N 
ATOM      4  H2  UNL     1       3.886  20.468  -9.747  1.00  0.00     0.162 HD
ENDROOT
BRANCH   3   5
HETATM    5  C6  UNL     1       3.024  20.495 -11.644  1.00  0.00     0.172 C 
BRANCH   5   6
HETATM    6  C7  UNL     1       4.250  20.898 -12.397  1.00  0.00     0.175 C 
BRANCH   6   7
HETATM    7  O3  UNL     1       4.578  22.203 -12.161  1.00  0.00    -0.377 OA
ATOM      8  H3  UNL     1       4.705  22.684 -12.971  1.00  0.00     0.211 HD
ENDBRANCH   6   7
BRANCH   6   9
HETATM    9  C8  UNL     1       3.929  20.781 -13.884  1.00  0.00     0.278 C 
BRANCH   9  10
HETATM   10  N3  UNL     1       3.497  19.482 -14.285  1.00  0.00    -0.076 N 
ATOM     11  H33 UNL     1       3.941  18.765 -13.712  1.00  0.00     0.274 HD
ATOM     12  H32 UNL     1       2.522  19.333 -14.025  1.00  0.00     0.274 HD
ATOM     13  H31 UNL     1       3.637  19.285 -15.276  1.00  0.00     0.274 HD
ENDBRANCH   9  10
ENDBRANCH   6   9
BRANCH   6  14
HETATM   14  C9  UNL     1       5.337  19.960 -12.019  1.00  0.00     0.269 C 
HETATM   15  N4  UNL     1       6.544  20.476 -11.514  1.00  0.00    -0.059 NA
HETATM   16  O4  UNL     1       5.159  18.738 -12.157  1.00  0.00    -0.273 OA
ENDBRANCH   6  14
ENDBRANCH   5   6
ENDBRANCH   3   5
BRANCH   1  17
HETATM   17  C4  UNL     1       2.842  18.573  -8.302  1.00  0.00     0.334 C 
BRANCH  17  18
HETATM   18  N1  UNL     1       4.108  19.172  -7.954  1.00  0.00    -0.065 N 
ATOM     19  H12 UNL     1       4.488  19.755  -8.699  1.00  0.00     0.277 HD
ATOM     20  H11 UNL     1       4.868  18.493  -7.912  1.00  0.00     0.277 HD
BRANCH  18  21
HETATM   21  C3  UNL     1       3.928  19.894  -6.708  1.00  0.00     0.259 C 
BRANCH  21  22
HETATM   22  C2  UNL     1       3.570  21.347  -7.029  1.00  0.00     0.194 C 
BRANCH  22  23
HETATM   23  O1  UNL     1       3.576  22.050  -5.846  1.00  0.00    -0.394 OA
HETATM   24  C1  UNL     1       4.027  21.307  -4.776  1.00  0.00     0.201 C 
ENDBRANCH  22  23
ENDBRANCH  21  22
ENDBRANCH  18  21
ENDBRANCH  17  18
ENDBRANCH   1  17
TORSDOF 11
ENDMDL
