MODEL 1
REMARK VINA RESULT: -6.695911320      0.000      0.000
REMARK  10 active torsions:
REMARK  status: ('A' for Active; 'I' for Inactive)
REMARK    1  A    between atoms: C2_2  and  C3_3 
REMARK    2  A    between atoms: C2_2  and  O1_8 
REMARK    3  A    between atoms: C2_2  and  C9_19 
REMARK    4  A    between atoms: C3_3  and  N1_4 
REMARK    5  A    between atoms: O1_8  and  C4_9 
REMARK    6  A    between atoms: C4_9  and  C5_10 
REMARK    7  A    between atoms: C5_10  and  O2_11 
REMARK    8  A    between atoms: O2_11  and  C6_12 
REMARK    9  A    between atoms: C6_12  and  C7_13 
REMARK   10  A    between atoms: C7_13  and  N2_14 
REMARK       I    between atoms: N2_14  and  C8_16 
ROOT
HETATM    1  O1  UNL     1       5.027  19.971  -9.703  1.00  0.00    -0.367 OA
ENDROOT
BRANCH   1   2
HETATM    2  C2  UNL     1       4.204  19.492  -8.784  1.00  0.00     0.158 C 
HETATM    3  C1  UNL     1       3.103  20.412  -8.283  1.00  0.00     0.058 C 
BRANCH   2   4
HETATM    4  C3  UNL     1       5.062  19.206  -7.529  1.00  0.00     0.276 C 
BRANCH   4   5
HETATM    5  N1  UNL     1       4.586  19.939  -6.396  1.00  0.00    -0.076 N 
ATOM      6  H13 UNL     1       4.154  20.820  -6.675  1.00  0.00     0.274 HD
ATOM      7  H12 UNL     1       3.771  19.491  -5.976  1.00  0.00     0.274 HD
ATOM      8  H11 UNL     1       5.327  20.086  -5.711  1.00  0.00     0.274 HD
ENDBRANCH   4   5
ENDBRANCH   2   4
BRANCH   2   9
HETATM    9  C9  UNL     1       3.549  18.188  -9.072  1.00  0.00     0.267 C 
HETATM   10  N4  UNL     1       2.176  18.062  -8.720  1.00  0.00    -0.059 NA
HETATM   11  O4  UNL     1       4.088  17.227  -9.581  1.00  0.00    -0.273 OA
ENDBRANCH   2   9
ENDBRANCH   1   2
BRANCH   1  12
HETATM   12  C4  UNL     1       4.703  20.649 -10.793  1.00  0.00     0.195 C 
BRANCH  12  13
HETATM   13  C5  UNL     1       4.430  19.908 -12.068  1.00  0.00     0.193 C 
BRANCH  13  14
HETATM   14  O2  UNL     1       3.259  20.522 -12.627  1.00  0.00    -0.387 OA
BRANCH  14  15
HETATM   15  C6  UNL     1       3.495  20.945 -13.895  1.00  0.00     0.187 C 
BRANCH  15  16
HETATM   16  C7  UNL     1       3.791  19.978 -14.971  1.00  0.00     0.150 C 
BRANCH  16  17
HETATM   17  N2  UNL     1       2.715  19.318 -15.606  1.00  0.00    -0.343 N 
HETATM   18  C8  UNL     1       1.796  19.773 -16.530  1.00  0.00     0.328 C 
HETATM   19  N3  UNL     1       0.796  18.805 -16.992  1.00  0.00    -0.040 NA
HETATM   20  O3  UNL     1       1.720  20.907 -17.014  1.00  0.00    -0.251 OA
ATOM     21  H2  UNL     1       2.598  18.341 -15.336  1.00  0.00     0.163 HD
ENDBRANCH  16  17
ENDBRANCH  15  16
ENDBRANCH  14  15
ENDBRANCH  13  14
ENDBRANCH  12  13
ENDBRANCH   1  12
TORSDOF 10
ENDMDL
MODEL 2
REMARK VINA RESULT: -6.546481806      2.894      7.282
REMARK  10 active torsions:
REMARK  status: ('A' for Active; 'I' for Inactive)
REMARK    1  A    between atoms: C2_2  and  C3_3 
REMARK    2  A    between atoms: C2_2  and  O1_8 
REMARK    3  A    between atoms: C2_2  and  C9_19 
REMARK    4  A    between atoms: C3_3  and  N1_4 
REMARK    5  A    between atoms: O1_8  and  C4_9 
REMARK    6  A    between atoms: C4_9  and  C5_10 
REMARK    7  A    between atoms: C5_10  and  O2_11 
REMARK    8  A    between atoms: O2_11  and  C6_12 
REMARK    9  A    between atoms: C6_12  and  C7_13 
REMARK   10  A    between atoms: C7_13  and  N2_14 
REMARK       I    between atoms: N2_14  and  C8_16 
ROOT
HETATM    1  O1  UNL     1       2.831  19.738 -11.183  1.00  0.00    -0.367 OA
ENDROOT
BRANCH   1   2
HETATM    2  C2  UNL     1       3.886  20.122 -11.882  1.00  0.00     0.158 C 
HETATM    3  C1  UNL     1       4.801  19.037 -12.424  1.00  0.00     0.058 C 
BRANCH   2   4
HETATM    4  C3  UNL     1       4.786  20.930 -10.916  1.00  0.00     0.276 C 
BRANCH   4   5
HETATM    5  N1  UNL     1       6.159  20.871 -11.313  1.00  0.00    -0.076 N 
ATOM      6  H13 UNL     1       6.252  20.728 -12.318  1.00  0.00     0.274 HD
ATOM      7  H12 UNL     1       6.609  21.784 -11.242  1.00  0.00     0.274 HD
ATOM      8  H11 UNL     1       6.667  20.161 -10.785  1.00  0.00     0.274 HD
ENDBRANCH   4   5
ENDBRANCH   2   4
BRANCH   2   9
HETATM    9  C9  UNL     1       3.648  21.059 -13.013  1.00  0.00     0.267 C 
HETATM   10  N4  UNL     1       4.108  22.396 -12.854  1.00  0.00    -0.059 NA
HETATM   11  O4  UNL     1       3.096  20.776 -14.057  1.00  0.00    -0.273 OA
ENDBRANCH   2   9
ENDBRANCH   1   2
BRANCH   1  12
HETATM   12  C4  UNL     1       2.697  18.622 -10.483  1.00  0.00     0.195 C 
BRANCH  12  13
HETATM   13  C5  UNL     1       2.360  18.704  -9.024  1.00  0.00     0.193 C 
BRANCH  13  14
HETATM   14  O2  UNL     1       3.620  18.807  -8.343  1.00  0.00    -0.387 OA
BRANCH  14  15
HETATM   15  C6  UNL     1       3.529  19.656  -7.287  1.00  0.00     0.187 C 
BRANCH  15  16
HETATM   16  C7  UNL     1       3.895  21.079  -7.430  1.00  0.00     0.150 C 
BRANCH  16  17
HETATM   17  N2  UNL     1       3.385  22.009  -6.497  1.00  0.00    -0.343 N 
HETATM   18  C8  UNL     1       3.549  22.098  -5.130  1.00  0.00     0.328 C 
HETATM   19  N3  UNL     1       2.869  23.210  -4.458  1.00  0.00    -0.040 NA
HETATM   20  O3  UNL     1       4.206  21.345  -4.404  1.00  0.00    -0.251 OA
ATOM     21  H2  UNL     1       2.796  22.737  -6.902  1.00  0.00     0.163 HD
ENDBRANCH  16  17
ENDBRANCH  15  16
ENDBRANCH  14  15
ENDBRANCH  13  14
ENDBRANCH  12  13
ENDBRANCH   1  12
TORSDOF 10
ENDMDL
MODEL 3
REMARK VINA RESULT: -6.484812999      3.006      7.283
REMARK  10 active torsions:
REMARK  status: ('A' for Active; 'I' for Inactive)
REMARK    1  A    between atoms: C2_2  and  C3_3 
REMARK    2  A    between atoms: C2_2  and  O1_8 
REMARK    3  A    between atoms: C2_2  and  C9_19 
REMARK    4  A    between atoms: C3_3  and  N1_4 
REMARK    5  A    between atoms: O1_8  and  C4_9 
REMARK    6  A    between atoms: C4_9  and  C5_10 
REMARK    7  A    between atoms: C5_10  and  O2_11 
REMARK    8  A    between atoms: O2_11  and  C6_12 
REMARK    9  A    between atoms: C6_12  and  C7_13 
REMARK   10  A    between atoms: C7_13  and  N2_14 
REMARK       I    between atoms: N2_14  and  C8_16 
ROOT
HETATM    1  O1  UNL     1       3.099  19.832 -11.575  1.00  0.00    -0.367 OA
ENDROOT
BRANCH   1   2
HETATM    2  C2  UNL     1       4.004  20.459 -12.307  1.00  0.00     0.158 C 
HETATM    3  C1  UNL     1       3.879  20.354 -13.818  1.00  0.00     0.058 C 
BRANCH   2   4
HETATM    4  C3  UNL     1       5.365  19.794 -11.991  1.00  0.00     0.276 C 
BRANCH   4   5
HETATM    5  N1  UNL     1       6.277  20.729 -11.407  1.00  0.00    -0.076 N 
ATOM      6  H13 UNL     1       6.208  21.645 -11.849  1.00  0.00     0.274 HD
ATOM      7  H12 UNL     1       5.994  20.988 -10.462  1.00  0.00     0.274 HD
ATOM      8  H11 UNL     1       7.234  20.375 -11.427  1.00  0.00     0.274 HD
ENDBRANCH   4   5
ENDBRANCH   2   4
BRANCH   2   9
HETATM    9  C9  UNL     1       4.236  21.899 -12.015  1.00  0.00     0.267 C 
HETATM   10  N4  UNL     1       4.415  22.765 -13.129  1.00  0.00    -0.059 NA
HETATM   11  O4  UNL     1       4.282  22.394 -10.907  1.00  0.00    -0.273 OA
ENDBRANCH   2   9
ENDBRANCH   1   2
BRANCH   1  12
HETATM   12  C4  UNL     1       3.318  18.981 -10.585  1.00  0.00     0.195 C 
BRANCH  12  13
HETATM   13  C5  UNL     1       2.195  18.625  -9.656  1.00  0.00     0.193 C 
BRANCH  13  14
HETATM   14  O2  UNL     1       2.763  18.649  -8.338  1.00  0.00    -0.387 OA
BRANCH  14  15
HETATM   15  C6  UNL     1       3.828  19.490  -8.288  1.00  0.00     0.187 C 
BRANCH  15  16
HETATM   16  C7  UNL     1       4.353  19.965  -6.992  1.00  0.00     0.150 C 
BRANCH  16  17
HETATM   17  N2  UNL     1       3.838  21.162  -6.448  1.00  0.00    -0.343 N 
HETATM   18  C8  UNL     1       3.798  21.618  -5.145  1.00  0.00     0.328 C 
HETATM   19  N3  UNL     1       3.183  22.930  -4.928  1.00  0.00    -0.040 NA
HETATM   20  O3  UNL     1       4.224  21.044  -4.138  1.00  0.00    -0.251 OA
ATOM     21  H2  UNL     1       3.425  21.796  -7.132  1.00  0.00     0.163 HD
ENDBRANCH  16  17
ENDBRANCH  15  16
ENDBRANCH  14  15
ENDBRANCH  13  14
ENDBRANCH  12  13
ENDBRANCH   1  12
TORSDOF 10
ENDMDL
MODEL 4
REMARK VINA RESULT: -6.446599829      1.755      2.252
REMARK  10 active torsions:
REMARK  status: ('A' for Active; 'I' for Inactive)
REMARK    1  A    between atoms: C2_2  and  C3_3 
REMARK    2  A    between atoms: C2_2  and  O1_8 
REMARK    3  A    between atoms: C2_2  and  C9_19 
REMARK    4  A    between atoms: C3_3  and  N1_4 
REMARK    5  A    between atoms: O1_8  and  C4_9 
REMARK    6  A    between atoms: C4_9  and  C5_10 
REMARK    7  A    between atoms: C5_10  and  O2_11 
REMARK    8  A    between atoms: O2_11  and  C6_12 
REMARK    9  A    between atoms: C6_12  and  C7_13 
REMARK   10  A    between atoms: C7_13  and  N2_14 
REMARK       I    between atoms: N2_14  and  C8_16 
ROOT
HETATM    1  O1  UNL     1       3.616  20.564 -10.299  1.00  0.00    -0.367 OA
ENDROOT
BRANCH   1   2
HETATM    2  C2  UNL     1       3.679  19.293  -9.937  1.00  0.00     0.158 C 
HETATM    3  C1  UNL     1       4.484  18.959  -8.692  1.00  0.00     0.058 C 
BRANCH   2   4
HETATM    4  C3  UNL     1       4.412  18.545 -11.076  1.00  0.00     0.276 C 
BRANCH   4   5
HETATM    5  N1  UNL     1       3.492  18.086 -12.072  1.00  0.00    -0.076 N 
ATOM      6  H13 UNL     1       3.214  18.840 -12.699  1.00  0.00     0.274 HD
ATOM      7  H12 UNL     1       3.950  17.478 -12.751  1.00  0.00     0.274 HD
ATOM      8  H11 UNL     1       2.683  17.633 -11.649  1.00  0.00     0.274 HD
ENDBRANCH   4   5
ENDBRANCH   2   4
BRANCH   2   9
HETATM    9  C9  UNL     1       2.391  18.561  -9.801  1.00  0.00     0.267 C 
HETATM   10  N4  UNL     1       2.456  17.223  -9.323  1.00  0.00    -0.059 NA
HETATM   11  O4  UNL     1       1.295  19.012 -10.062  1.00  0.00    -0.273 OA
ENDBRANCH   2   9
ENDBRANCH   1   2
BRANCH   1  12
HETATM   12  C4  UNL     1       4.521  21.248 -10.982  1.00  0.00     0.195 C 
BRANCH  12  13
HETATM   13  C5  UNL     1       4.114  22.507 -11.690  1.00  0.00     0.193 C 
BRANCH  13  14
HETATM   14  O2  UNL     1       4.310  22.243 -13.087  1.00  0.00    -0.387 OA
BRANCH  14  15
HETATM   15  C6  UNL     1       3.494  21.242 -13.508  1.00  0.00     0.187 C 
BRANCH  15  16
HETATM   16  C7  UNL     1       3.889  20.370 -14.632  1.00  0.00     0.150 C 
BRANCH  16  17
HETATM   17  N2  UNL     1       2.884  19.667 -15.332  1.00  0.00    -0.343 N 
HETATM   18  C8  UNL     1       1.963  20.099 -16.265  1.00  0.00     0.328 C 
HETATM   19  N3  UNL     1       1.050  19.086 -16.804  1.00  0.00    -0.040 NA
HETATM   20  O3  UNL     1       1.819  21.246 -16.699  1.00  0.00    -0.251 OA
ATOM     21  H2  UNL     1       2.829  18.672 -15.111  1.00  0.00     0.163 HD
ENDBRANCH  16  17
ENDBRANCH  15  16
ENDBRANCH  14  15
ENDBRANCH  13  14
ENDBRANCH  12  13
ENDBRANCH   1  12
TORSDOF 10
ENDMDL
MODEL 5
REMARK VINA RESULT: -6.445073317      2.080      2.511
REMARK  10 active torsions:
REMARK  status: ('A' for Active; 'I' for Inactive)
REMARK    1  A    between atoms: C2_2  and  C3_3 
REMARK    2  A    between atoms: C2_2  and  O1_8 
REMARK    3  A    between atoms: C2_2  and  C9_19 
REMARK    4  A    between atoms: C3_3  and  N1_4 
REMARK    5  A    between atoms: O1_8  and  C4_9 
REMARK    6  A    between atoms: C4_9  and  C5_10 
REMARK    7  A    between atoms: C5_10  and  O2_11 
REMARK    8  A    between atoms: O2_11  and  C6_12 
REMARK    9  A    between atoms: C6_12  and  C7_13 
REMARK   10  A    between atoms: C7_13  and  N2_14 
REMARK       I    between atoms: N2_14  and  C8_16 
ROOT
HETATM    1  O1  UNL     1       3.566  20.478 -10.288  1.00  0.00    -0.367 OA
ENDROOT
BRANCH   1   2
HETATM    2  C2  UNL     1       3.633  19.209  -9.922  1.00  0.00     0.158 C 
HETATM    3  C1  UNL     1       4.418  18.884  -8.662  1.00  0.00     0.058 C 
BRANCH   2   4
HETATM    4  C3  UNL     1       4.391  18.464 -11.046  1.00  0.00     0.276 C 
BRANCH   4   5
HETATM    5  N1  UNL     1       3.533  18.186 -12.157  1.00  0.00    -0.076 N 
ATOM      6  H13 UNL     1       2.791  18.880 -12.238  1.00  0.00     0.274 HD
ATOM      7  H12 UNL     1       4.005  18.356 -13.045  1.00  0.00     0.274 HD
ATOM      8  H11 UNL     1       3.157  17.240 -12.107  1.00  0.00     0.274 HD
ENDBRANCH   4   5
ENDBRANCH   2   4
BRANCH   2   9
HETATM    9  C9  UNL     1       2.349  18.466  -9.807  1.00  0.00     0.267 C 
HETATM   10  N4  UNL     1       2.417  17.125  -9.338  1.00  0.00    -0.059 NA
HETATM   11  O4  UNL     1       1.252  18.910 -10.078  1.00  0.00    -0.273 OA
ENDBRANCH   2   9
ENDBRANCH   1   2
BRANCH   1  12
HETATM   12  C4  UNL     1       4.474  21.166 -10.963  1.00  0.00     0.195 C 
BRANCH  12  13
HETATM   13  C5  UNL     1       4.065  21.909 -12.201  1.00  0.00     0.193 C 
BRANCH  13  14
HETATM   14  O2  UNL     1       3.183  21.024 -12.908  1.00  0.00    -0.387 OA
BRANCH  14  15
HETATM   15  C6  UNL     1       3.567  20.895 -14.204  1.00  0.00     0.187 C 
BRANCH  15  16
HETATM   16  C7  UNL     1       2.565  20.691 -15.270  1.00  0.00     0.150 C 
BRANCH  16  17
HETATM   17  N2  UNL     1       2.817  19.716 -16.260  1.00  0.00    -0.343 N 
HETATM   18  C8  UNL     1       2.884  18.340 -16.176  1.00  0.00     0.328 C 
HETATM   19  N3  UNL     1       3.166  17.619 -17.421  1.00  0.00    -0.040 NA
HETATM   20  O3  UNL     1       2.734  17.643 -15.167  1.00  0.00    -0.251 OA
ATOM     21  H2  UNL     1       2.975  20.092 -17.195  1.00  0.00     0.163 HD
ENDBRANCH  16  17
ENDBRANCH  15  16
ENDBRANCH  14  15
ENDBRANCH  13  14
ENDBRANCH  12  13
ENDBRANCH   1  12
TORSDOF 10
ENDMDL
