MODEL 1
REMARK VINA RESULT: -7.187453612      0.000      0.000
REMARK  11 active torsions:
REMARK  status: ('A' for Active; 'I' for Inactive)
REMARK    1  A    between atoms: C1_2  and  C2_4 
REMARK    2  A    between atoms: C3_5  and  N2_6 
REMARK    3  A    between atoms: C3_5  and  C8_15 
REMARK    4  A    between atoms: C4_8  and  C5_10 
REMARK    5  A    between atoms: C5_10  and  C6_11 
REMARK    6  A    between atoms: C6_11  and  C7_12 
REMARK    7  A    between atoms: C7_12  and  O2_13 
REMARK    8  A    between atoms: C8_15  and  O3_16 
REMARK    9  A    between atoms: C8_15  and  C9_18 
REMARK   10  A    between atoms: C9_18  and  O4_19 
REMARK   11  A    between atoms: O4_19  and  N4_20 
ROOT
HETATM    1  C2  UNL     1       4.654  20.735 -10.421  1.00  0.00     0.098 C 
HETATM    2  C3  UNL     1       3.847  19.958  -9.787  1.00  0.00     0.046 C 
ENDROOT
BRANCH   2   3
HETATM    3  N2  UNL     1       3.533  20.292  -8.415  1.00  0.00    -0.349 N 
HETATM    4  C4  UNL     1       4.281  19.981  -7.438  1.00  0.00     0.093 C 
HETATM    5  N3  UNL     1       5.492  19.272  -7.660  1.00  0.00    -0.088 NA
ATOM      6  H2  UNL     1       2.670  20.802  -8.223  1.00  0.00     0.166 HD
BRANCH   4   7
HETATM    7  C5  UNL     1       3.885  20.361  -6.067  1.00  0.00     0.075 C 
BRANCH   7   8
HETATM    8  C6  UNL     1       3.533  21.824  -5.951  1.00  0.00     0.033 C 
BRANCH   8   9
HETATM    9  C7  UNL     1       3.643  22.210  -4.483  1.00  0.00     0.164 C 
BRANCH   9  10
HETATM   10  O2  UNL     1       4.338  21.232  -3.764  1.00  0.00    -0.401 OA
ATOM     11  H2  UNL     1       4.721  21.601  -2.976  1.00  0.00     0.209 HD
ENDBRANCH   9  10
ENDBRANCH   8   9
ENDBRANCH   7   8
ENDBRANCH   4   7
ENDBRANCH   2   3
BRANCH   2  12
HETATM   12  C8  UNL     1       3.209  18.765 -10.302  1.00  0.00     0.194 C 
BRANCH  12  13
HETATM   13  O3  UNL     1       4.245  17.938 -10.845  1.00  0.00    -0.387 OA
ATOM     14  H3  UNL     1       3.879  17.498 -11.603  1.00  0.00     0.210 HD
ENDBRANCH  12  13
BRANCH  12  15
HETATM   15  C9  UNL     1       2.627  17.894  -9.184  1.00  0.00     0.238 C 
BRANCH  15  16
HETATM   16  O4  UNL     1       1.954  16.799  -9.717  1.00  0.00    -0.284 OA
BRANCH  16  17
HETATM   17  N4  UNL     1       1.440  17.127 -10.917  1.00  0.00    -0.311 N 
ATOM     18  H42 UNL     1       0.503  17.503 -11.060  1.00  0.00     0.184 HD
ATOM     19  H41 UNL     1       2.130  16.942 -11.645  1.00  0.00     0.184 HD
ENDBRANCH  16  17
ENDBRANCH  15  16
ENDBRANCH  12  15
ENDBRANCH   2  12
BRANCH   1  20
HETATM   20  C1  UNL     1       5.141  20.652 -11.776  1.00  0.00     0.256 C 
HETATM   21  N1  UNL     1       4.472  21.305 -12.877  1.00  0.00    -0.058 NA
HETATM   22  O1  UNL     1       6.161  20.019 -12.090  1.00  0.00    -0.272 OA
ENDBRANCH   1  20
TORSDOF 11
ENDMDL
MODEL 2
REMARK VINA RESULT: -6.838952176      1.666      3.158
REMARK  11 active torsions:
REMARK  status: ('A' for Active; 'I' for Inactive)
REMARK    1  A    between atoms: C1_2  and  C2_4 
REMARK    2  A    between atoms: C3_5  and  N2_6 
REMARK    3  A    between atoms: C3_5  and  C8_15 
REMARK    4  A    between atoms: C4_8  and  C5_10 
REMARK    5  A    between atoms: C5_10  and  C6_11 
REMARK    6  A    between atoms: C6_11  and  C7_12 
REMARK    7  A    between atoms: C7_12  and  O2_13 
REMARK    8  A    between atoms: C8_15  and  O3_16 
REMARK    9  A    between atoms: C8_15  and  C9_18 
REMARK   10  A    between atoms: C9_18  and  O4_19 
REMARK   11  A    between atoms: O4_19  and  N4_20 
ROOT
HETATM    1  C2  UNL     1       3.773  19.387 -10.692  1.00  0.00     0.098 C 
HETATM    2  C3  UNL     1       4.196  20.438 -10.081  1.00  0.00     0.046 C 
ENDROOT
BRANCH   2   3
HETATM    3  N2  UNL     1       3.751  20.648  -8.720  1.00  0.00    -0.349 N 
HETATM    4  C4  UNL     1       4.313  20.108  -7.718  1.00  0.00     0.093 C 
HETATM    5  N3  UNL     1       5.431  19.251  -7.898  1.00  0.00    -0.088 NA
ATOM      6  H2  UNL     1       2.950  21.258  -8.559  1.00  0.00     0.166 HD
BRANCH   4   7
HETATM    7  C5  UNL     1       3.794  20.375  -6.362  1.00  0.00     0.075 C 
BRANCH   7   8
HETATM    8  C6  UNL     1       3.543  21.844  -6.117  1.00  0.00     0.033 C 
BRANCH   8   9
HETATM    9  C7  UNL     1       3.598  22.077  -4.615  1.00  0.00     0.164 C 
BRANCH   9  10
HETATM   10  O2  UNL     1       4.525  21.220  -4.013  1.00  0.00    -0.401 OA
ATOM     11  H2  UNL     1       5.102  21.702  -3.431  1.00  0.00     0.209 HD
ENDBRANCH   9  10
ENDBRANCH   8   9
ENDBRANCH   7   8
ENDBRANCH   4   7
ENDBRANCH   2   3
BRANCH   2  12
HETATM   12  C8  UNL     1       5.081  21.452 -10.613  1.00  0.00     0.194 C 
BRANCH  12  13
HETATM   13  O3  UNL     1       5.822  20.844 -11.677  1.00  0.00    -0.387 OA
ATOM     14  H3  UNL     1       6.206  21.549 -12.185  1.00  0.00     0.210 HD
ENDBRANCH  12  13
BRANCH  12  15
HETATM   15  C9  UNL     1       4.314  22.571 -11.326  1.00  0.00     0.238 C 
BRANCH  15  16
HETATM   16  O4  UNL     1       4.958  22.933 -12.504  1.00  0.00    -0.284 OA
BRANCH  16  17
HETATM   17  N4  UNL     1       4.168  22.646 -13.556  1.00  0.00    -0.311 N 
ATOM     18  H42 UNL     1       4.108  21.730 -14.000  1.00  0.00     0.184 HD
ATOM     19  H41 UNL     1       3.648  23.481 -13.828  1.00  0.00     0.184 HD
ENDBRANCH  16  17
ENDBRANCH  15  16
ENDBRANCH  12  15
ENDBRANCH   2  12
BRANCH   1  20
HETATM   20  C1  UNL     1       4.045  18.926 -12.031  1.00  0.00     0.256 C 
HETATM   21  N1  UNL     1       3.677  19.692 -13.199  1.00  0.00    -0.058 NA
HETATM   22  O1  UNL     1       4.609  17.848 -12.273  1.00  0.00    -0.272 OA
ENDBRANCH   1  20
TORSDOF 11
ENDMDL
MODEL 3
REMARK VINA RESULT: -6.712919642      1.289      1.510
REMARK  11 active torsions:
REMARK  status: ('A' for Active; 'I' for Inactive)
REMARK    1  A    between atoms: C1_2  and  C2_4 
REMARK    2  A    between atoms: C3_5  and  N2_6 
REMARK    3  A    between atoms: C3_5  and  C8_15 
REMARK    4  A    between atoms: C4_8  and  C5_10 
REMARK    5  A    between atoms: C5_10  and  C6_11 
REMARK    6  A    between atoms: C6_11  and  C7_12 
REMARK    7  A    between atoms: C7_12  and  O2_13 
REMARK    8  A    between atoms: C8_15  and  O3_16 
REMARK    9  A    between atoms: C8_15  and  C9_18 
REMARK   10  A    between atoms: C9_18  and  O4_19 
REMARK   11  A    between atoms: O4_19  and  N4_20 
ROOT
HETATM    1  C2  UNL     1       4.464  21.116 -10.841  1.00  0.00     0.098 C 
HETATM    2  C3  UNL     1       4.301  20.017 -10.192  1.00  0.00     0.046 C 
ENDROOT
BRANCH   2   3
HETATM    3  N2  UNL     1       4.857  19.936  -8.858  1.00  0.00    -0.349 N 
HETATM    4  C4  UNL     1       4.197  20.232  -7.815  1.00  0.00     0.093 C 
HETATM    5  N3  UNL     1       2.849  20.667  -7.919  1.00  0.00    -0.088 NA
ATOM      6  H2  UNL     1       5.823  19.626  -8.751  1.00  0.00     0.166 HD
BRANCH   4   7
HETATM    7  C5  UNL     1       4.841  20.122  -6.491  1.00  0.00     0.075 C 
BRANCH   7   8
HETATM    8  C6  UNL     1       3.857  20.264  -5.355  1.00  0.00     0.033 C 
BRANCH   8   9
HETATM    9  C7  UNL     1       4.037  21.652  -4.759  1.00  0.00     0.164 C 
BRANCH   9  10
HETATM   10  O2  UNL     1       3.251  22.589  -5.436  1.00  0.00    -0.401 OA
ATOM     11  H2  UNL     1       2.775  23.137  -4.822  1.00  0.00     0.209 HD
ENDBRANCH   9  10
ENDBRANCH   8   9
ENDBRANCH   7   8
ENDBRANCH   4   7
ENDBRANCH   2   3
BRANCH   2  12
HETATM   12  C8  UNL     1       3.614  18.830 -10.656  1.00  0.00     0.194 C 
BRANCH  12  13
HETATM   13  O3  UNL     1       4.415  18.265 -11.700  1.00  0.00    -0.387 OA
ATOM     14  H3  UNL     1       4.356  17.321 -11.615  1.00  0.00     0.210 HD
ENDBRANCH  12  13
BRANCH  12  15
HETATM   15  C9  UNL     1       3.598  17.722  -9.599  1.00  0.00     0.238 C 
BRANCH  15  16
HETATM   16  O4  UNL     1       2.349  17.112  -9.547  1.00  0.00    -0.284 OA
BRANCH  16  17
HETATM   17  N4  UNL     1       1.663  17.397 -10.670  1.00  0.00    -0.311 N 
ATOM     18  H42 UNL     1       1.989  17.189 -11.614  1.00  0.00     0.184 HD
ATOM     19  H41 UNL     1       0.781  17.846 -10.425  1.00  0.00     0.184 HD
ENDBRANCH  16  17
ENDBRANCH  15  16
ENDBRANCH  12  15
ENDBRANCH   2  12
BRANCH   1  20
HETATM   20  C1  UNL     1       4.028  21.478 -12.167  1.00  0.00     0.256 C 
HETATM   21  N1  UNL     1       4.458  22.695 -12.814  1.00  0.00    -0.058 NA
HETATM   22  O1  UNL     1       3.257  20.776 -12.840  1.00  0.00    -0.272 OA
ENDBRANCH   1  20
TORSDOF 11
ENDMDL
MODEL 4
REMARK VINA RESULT: -6.680073628      1.456      1.590
REMARK  11 active torsions:
REMARK  status: ('A' for Active; 'I' for Inactive)
REMARK    1  A    between atoms: C1_2  and  C2_4 
REMARK    2  A    between atoms: C3_5  and  N2_6 
REMARK    3  A    between atoms: C3_5  and  C8_15 
REMARK    4  A    between atoms: C4_8  and  C5_10 
REMARK    5  A    between atoms: C5_10  and  C6_11 
REMARK    6  A    between atoms: C6_11  and  C7_12 
REMARK    7  A    between atoms: C7_12  and  O2_13 
REMARK    8  A    between atoms: C8_15  and  O3_16 
REMARK    9  A    between atoms: C8_15  and  C9_18 
REMARK   10  A    between atoms: C9_18  and  O4_19 
REMARK   11  A    between atoms: O4_19  and  N4_20 
ROOT
HETATM    1  C2  UNL     1       4.699  20.921 -10.256  1.00  0.00     0.098 C 
HETATM    2  C3  UNL     1       3.831  20.325  -9.516  1.00  0.00     0.046 C 
ENDROOT
BRANCH   2   3
HETATM    3  N2  UNL     1       3.639  20.823  -8.171  1.00  0.00    -0.349 N 
HETATM    4  C4  UNL     1       4.248  20.348  -7.164  1.00  0.00     0.093 C 
HETATM    5  N3  UNL     1       5.168  19.278  -7.321  1.00  0.00    -0.088 NA
ATOM      6  H2  UNL     1       2.984  21.592  -8.026  1.00  0.00     0.166 HD
BRANCH   4   7
HETATM    7  C5  UNL     1       3.992  20.916  -5.825  1.00  0.00     0.075 C 
BRANCH   7   8
HETATM    8  C6  UNL     1       3.380  22.295  -5.888  1.00  0.00     0.033 C 
BRANCH   8   9
HETATM    9  C7  UNL     1       3.235  22.802  -4.461  1.00  0.00     0.164 C 
BRANCH   9  10
HETATM   10  O2  UNL     1       2.742  24.111  -4.447  1.00  0.00    -0.401 OA
ATOM     11  H2  UNL     1       1.875  24.149  -4.836  1.00  0.00     0.209 HD
ENDBRANCH   9  10
ENDBRANCH   8   9
ENDBRANCH   7   8
ENDBRANCH   4   7
ENDBRANCH   2   3
BRANCH   2  12
HETATM   12  C8  UNL     1       3.013  19.189  -9.885  1.00  0.00     0.194 C 
BRANCH  12  13
HETATM   13  O3  UNL     1       2.035  19.664 -10.818  1.00  0.00    -0.387 OA
ATOM     14  H3  UNL     1       1.323  19.036 -10.817  1.00  0.00     0.210 HD
ENDBRANCH  12  13
BRANCH  12  15
HETATM   15  C9  UNL     1       3.794  18.156 -10.703  1.00  0.00     0.238 C 
BRANCH  15  16
HETATM   16  O4  UNL     1       3.079  17.789 -11.839  1.00  0.00    -0.284 OA
BRANCH  16  17
HETATM   17  N4  UNL     1       3.822  18.029 -12.935  1.00  0.00    -0.311 N 
ATOM     18  H42 UNL     1       4.550  18.741 -12.994  1.00  0.00     0.184 HD
ATOM     19  H41 UNL     1       3.543  17.393 -13.682  1.00  0.00     0.184 HD
ENDBRANCH  16  17
ENDBRANCH  15  16
ENDBRANCH  12  15
ENDBRANCH   2  12
BRANCH   1  20
HETATM   20  C1  UNL     1       5.096  20.648 -11.615  1.00  0.00     0.256 C 
HETATM   21  N1  UNL     1       4.308  21.070 -12.748  1.00  0.00    -0.058 NA
HETATM   22  O1  UNL     1       6.136  20.036 -11.905  1.00  0.00    -0.272 OA
ENDBRANCH   1  20
TORSDOF 11
ENDMDL
MODEL 5
REMARK VINA RESULT: -6.511928921      3.261      7.040
REMARK  11 active torsions:
REMARK  status: ('A' for Active; 'I' for Inactive)
REMARK    1  A    between atoms: C1_2  and  C2_4 
REMARK    2  A    between atoms: C3_5  and  N2_6 
REMARK    3  A    between atoms: C3_5  and  C8_15 
REMARK    4  A    between atoms: C4_8  and  C5_10 
REMARK    5  A    between atoms: C5_10  and  C6_11 
REMARK    6  A    between atoms: C6_11  and  C7_12 
REMARK    7  A    between atoms: C7_12  and  O2_13 
REMARK    8  A    between atoms: C8_15  and  O3_16 
REMARK    9  A    between atoms: C8_15  and  C9_18 
REMARK   10  A    between atoms: C9_18  and  O4_19 
REMARK   11  A    between atoms: O4_19  and  N4_20 
ROOT
HETATM    1  C2  UNL     1       3.212  18.630 -11.051  1.00  0.00     0.098 C 
HETATM    2  C3  UNL     1       4.152  19.346 -11.560  1.00  0.00     0.046 C 
ENDROOT
BRANCH   2   3
HETATM    3  N2  UNL     1       4.293  19.344 -13.000  1.00  0.00    -0.349 N 
HETATM    4  C4  UNL     1       3.601  20.084 -13.765  1.00  0.00     0.093 C 
HETATM    5  N3  UNL     1       2.633  20.969 -13.221  1.00  0.00    -0.088 NA
ATOM      6  H2  UNL     1       4.981  18.718 -13.420  1.00  0.00     0.166 HD
BRANCH   4   7
HETATM    7  C5  UNL     1       3.810  20.017 -15.225  1.00  0.00     0.075 C 
BRANCH   7   8
HETATM    8  C6  UNL     1       2.930  18.985 -15.889  1.00  0.00     0.033 C 
BRANCH   8   9
HETATM    9  C7  UNL     1       1.716  19.708 -16.454  1.00  0.00     0.164 C 
BRANCH   9  10
HETATM   10  O2  UNL     1       0.586  18.884 -16.416  1.00  0.00    -0.401 OA
ATOM     11  H2  UNL     1       0.762  18.050 -16.837  1.00  0.00     0.209 HD
ENDBRANCH   9  10
ENDBRANCH   8   9
ENDBRANCH   7   8
ENDBRANCH   4   7
ENDBRANCH   2   3
BRANCH   2  12
HETATM   12  C8  UNL     1       5.101  20.169 -10.840  1.00  0.00     0.194 C 
BRANCH  12  13
HETATM   13  O3  UNL     1       6.291  20.226 -11.635  1.00  0.00    -0.387 OA
ATOM     14  H3  UNL     1       6.016  20.288 -12.541  1.00  0.00     0.210 HD
ENDBRANCH  12  13
BRANCH  12  15
HETATM   15  C9  UNL     1       4.661  21.635 -10.776  1.00  0.00     0.238 C 
BRANCH  15  16
HETATM   16  O4  UNL     1       5.452  22.420 -11.609  1.00  0.00    -0.284 OA
BRANCH  16  17
HETATM   17  N4  UNL     1       4.695  22.930 -12.599  1.00  0.00    -0.311 N 
ATOM     18  H42 UNL     1       4.053  22.385 -13.173  1.00  0.00     0.184 HD
ATOM     19  H41 UNL     1       4.867  23.932 -12.677  1.00  0.00     0.184 HD
ENDBRANCH  16  17
ENDBRANCH  15  16
ENDBRANCH  12  15
ENDBRANCH   2  12
BRANCH   1  20
HETATM   20  C1  UNL     1       2.840  18.441  -9.670  1.00  0.00     0.256 C 
HETATM   21  N1  UNL     1       2.407  17.163  -9.156  1.00  0.00    -0.058 NA
HETATM   22  O1  UNL     1       2.866  19.356  -8.833  1.00  0.00    -0.272 OA
ENDBRANCH   1  20
TORSDOF 11
ENDMDL
