MODEL 1
REMARK VINA RESULT: -5.139689090      0.000      0.000
REMARK  6 active torsions:
REMARK  status: ('A' for Active; 'I' for Inactive)
REMARK    1  A    between atoms: C3_3  and  N1_4 
REMARK    2  A    between atoms: N1_4  and  C4_7 
REMARK    3  A    between atoms: C5_8  and  N2_9 
REMARK    4  A    between atoms: C9_16  and  C10_17 
REMARK    5  A    between atoms: C10_17  and  N5_18 
REMARK    6  A    between atoms: C10_17  and  C11_22 
ROOT
HETATM    1  C1  UNL     1      21.694  -7.508   1.321  1.00  0.00     0.013 C 
HETATM    2  C2  UNL     1      21.260  -6.776   0.474  1.00  0.00    -0.090 C 
HETATM    3  C3  UNL     1      20.722  -5.852  -0.552  1.00  0.00     0.325 C 
ENDROOT
BRANCH   3   4
HETATM    4  N1  UNL     1      19.985  -6.668  -1.486  1.00  0.00    -0.059 N 
ATOM      5  H12 UNL     1      20.476  -6.726  -2.378  1.00  0.00     0.278 HD
ATOM      6  H11 UNL     1      20.017  -7.650  -1.210  1.00  0.00     0.278 HD
BRANCH   4   7
HETATM    7  C4  UNL     1      18.642  -6.244  -1.678  1.00  0.00     0.215 C 
HETATM    8  C5  UNL     1      18.195  -6.248  -3.123  1.00  0.00     0.115 C 
HETATM    9  C7  UNL     1      16.755  -6.667  -3.132  1.00  0.00     0.028 C 
HETATM   10  C8  UNL     1      16.351  -6.598  -1.688  1.00  0.00     0.011 C 
HETATM   11  C9  UNL     1      17.602  -7.102  -0.987  1.00  0.00     0.052 C 
BRANCH   8  12
HETATM   12  N2  UNL     1      18.934  -7.206  -3.916  1.00  0.00    -0.360 N 
HETATM   13  C6  UNL     1      19.548  -6.773  -4.957  1.00  0.00     0.197 C 
HETATM   14  N3  UNL     1      20.305  -7.653  -5.802  1.00  0.00    -0.067 NA
HETATM   15  N4  UNL     1      19.505  -5.402  -5.320  1.00  0.00    -0.067 NA
ATOM     16  H2  UNL     1      18.965  -8.191  -3.657  1.00  0.00     0.162 HD
ENDBRANCH   8  12
BRANCH  11  17
HETATM   17  C10 UNL     1      17.545  -6.822   0.501  1.00  0.00     0.211 C 
BRANCH  17  18
HETATM   18  N5  UNL     1      16.166  -6.805   0.901  1.00  0.00    -0.071 N 
ATOM     19  H53 UNL     1      15.565  -6.338   0.221  1.00  0.00     0.275 HD
ATOM     20  H52 UNL     1      15.732  -7.726   0.857  1.00  0.00     0.275 HD
ATOM     21  H51 UNL     1      16.110  -6.387   1.829  1.00  0.00     0.275 HD
ENDBRANCH  17  18
BRANCH  17  22
HETATM   22  C11 UNL     1      18.308  -7.882   1.184  1.00  0.00    -0.004 C 
HETATM   23  C12 UNL     1      18.197  -8.057   2.481  1.00  0.00     0.009 C 
ENDBRANCH  17  22
ENDBRANCH  11  17
ENDBRANCH   4   7
ENDBRANCH   3   4
TORSDOF 6
ENDMDL
MODEL 2
REMARK VINA RESULT: -4.942252129      1.445      4.958
REMARK  6 active torsions:
REMARK  status: ('A' for Active; 'I' for Inactive)
REMARK    1  A    between atoms: C3_3  and  N1_4 
REMARK    2  A    between atoms: N1_4  and  C4_7 
REMARK    3  A    between atoms: C5_8  and  N2_9 
REMARK    4  A    between atoms: C9_16  and  C10_17 
REMARK    5  A    between atoms: C10_17  and  N5_18 
REMARK    6  A    between atoms: C10_17  and  C11_22 
ROOT
HETATM    1  C1  UNL     1      21.294  -7.749   0.445  1.00  0.00     0.013 C 
HETATM    2  C2  UNL     1      20.911  -6.673   0.073  1.00  0.00    -0.090 C 
HETATM    3  C3  UNL     1      20.458  -5.334  -0.371  1.00  0.00     0.325 C 
ENDROOT
BRANCH   3   4
HETATM    4  N1  UNL     1      19.038  -5.443  -0.602  1.00  0.00    -0.059 N 
ATOM      5  H12 UNL     1      18.530  -5.464   0.281  1.00  0.00     0.278 HD
ATOM      6  H11 UNL     1      18.669  -4.575  -0.991  1.00  0.00     0.278 HD
BRANCH   4   7
HETATM    7  C4  UNL     1      18.676  -6.551  -1.416  1.00  0.00     0.215 C 
HETATM    8  C5  UNL     1      17.543  -7.382  -0.857  1.00  0.00     0.115 C 
HETATM    9  C7  UNL     1      16.723  -7.843  -2.025  1.00  0.00     0.028 C 
HETATM   10  C8  UNL     1      17.576  -7.513  -3.215  1.00  0.00     0.011 C 
HETATM   11  C9  UNL     1      18.192  -6.186  -2.804  1.00  0.00     0.052 C 
BRANCH   8  12
HETATM   12  N2  UNL     1      16.677  -6.607   0.005  1.00  0.00    -0.360 N 
HETATM   13  C6  UNL     1      16.678  -6.885   1.258  1.00  0.00     0.197 C 
HETATM   14  N3  UNL     1      15.850  -6.168   2.187  1.00  0.00    -0.067 NA
HETATM   15  N4  UNL     1      17.498  -7.918   1.783  1.00  0.00    -0.067 NA
ATOM     16  H2  UNL     1      16.086  -5.866  -0.370  1.00  0.00     0.162 HD
ENDBRANCH   8  12
BRANCH  11  17
HETATM   17  C10 UNL     1      19.342  -5.810  -3.717  1.00  0.00     0.211 C 
BRANCH  17  18
HETATM   18  N5  UNL     1      20.408  -6.748  -3.501  1.00  0.00    -0.071 N 
ATOM     19  H53 UNL     1      20.070  -7.682  -3.271  1.00  0.00     0.275 HD
ATOM     20  H52 UNL     1      20.901  -6.988  -4.360  1.00  0.00     0.275 HD
ATOM     21  H51 UNL     1      21.027  -6.365  -2.786  1.00  0.00     0.275 HD
ENDBRANCH  17  18
BRANCH  17  22
HETATM   22  C11 UNL     1      18.842  -5.847  -5.103  1.00  0.00    -0.004 C 
HETATM   23  C12 UNL     1      19.492  -6.509  -6.031  1.00  0.00     0.009 C 
ENDBRANCH  17  22
ENDBRANCH  11  17
ENDBRANCH   4   7
ENDBRANCH   3   4
TORSDOF 6
ENDMDL
MODEL 3
REMARK VINA RESULT: -4.494546246      1.250      1.566
REMARK  6 active torsions:
REMARK  status: ('A' for Active; 'I' for Inactive)
REMARK    1  A    between atoms: C3_3  and  N1_4 
REMARK    2  A    between atoms: N1_4  and  C4_7 
REMARK    3  A    between atoms: C5_8  and  N2_9 
REMARK    4  A    between atoms: C9_16  and  C10_17 
REMARK    5  A    between atoms: C10_17  and  N5_18 
REMARK    6  A    between atoms: C10_17  and  C11_22 
ROOT
HETATM    1  C1  UNL     1      22.462  -6.841  -0.661  1.00  0.00     0.013 C 
HETATM    2  C2  UNL     1      21.401  -6.834  -0.096  1.00  0.00    -0.090 C 
HETATM    3  C3  UNL     1      20.093  -6.854   0.600  1.00  0.00     0.325 C 
ENDROOT
BRANCH   3   4
HETATM    4  N1  UNL     1      19.402  -5.653   0.199  1.00  0.00    -0.059 N 
ATOM      5  H12 UNL     1      19.444  -4.951   0.937  1.00  0.00     0.278 HD
ATOM      6  H11 UNL     1      19.922  -5.165  -0.530  1.00  0.00     0.278 HD
BRANCH   4   7
HETATM    7  C4  UNL     1      18.058  -5.876  -0.207  1.00  0.00     0.215 C 
HETATM    8  C5  UNL     1      17.884  -6.043  -1.700  1.00  0.00     0.115 C 
HETATM    9  C7  UNL     1      16.808  -7.066  -1.902  1.00  0.00     0.028 C 
HETATM   10  C8  UNL     1      16.204  -7.227  -0.538  1.00  0.00     0.011 C 
HETATM   11  C9  UNL     1      17.425  -7.130   0.362  1.00  0.00     0.052 C 
BRANCH   8  12
HETATM   12  N2  UNL     1      19.086  -6.542  -2.333  1.00  0.00    -0.360 N 
HETATM   13  C6  UNL     1      19.126  -6.551  -3.616  1.00  0.00     0.197 C 
HETATM   14  N3  UNL     1      20.278  -7.030  -4.328  1.00  0.00    -0.067 NA
HETATM   15  N4  UNL     1      18.030  -6.091  -4.390  1.00  0.00    -0.067 NA
ATOM     16  H2  UNL     1      19.874  -6.874  -1.778  1.00  0.00     0.162 HD
ENDBRANCH   8  12
BRANCH  11  17
HETATM   17  C10 UNL     1      17.025  -6.946   1.811  1.00  0.00     0.211 C 
BRANCH  17  18
HETATM   18  N5  UNL     1      15.595  -6.811   1.866  1.00  0.00    -0.071 N 
ATOM     19  H53 UNL     1      15.168  -6.768   0.941  1.00  0.00     0.275 HD
ATOM     20  H52 UNL     1      15.132  -7.659   2.192  1.00  0.00     0.275 HD
ATOM     21  H51 UNL     1      15.376  -5.997   2.440  1.00  0.00     0.275 HD
ENDBRANCH  17  18
BRANCH  17  22
HETATM   22  C11 UNL     1      17.500  -8.124   2.559  1.00  0.00    -0.004 C 
HETATM   23  C12 UNL     1      17.474  -8.139   3.871  1.00  0.00     0.009 C 
ENDBRANCH  17  22
ENDBRANCH  11  17
ENDBRANCH   4   7
ENDBRANCH   3   4
TORSDOF 6
ENDMDL
MODEL 4
REMARK VINA RESULT: -4.197170856      2.125      3.532
REMARK  6 active torsions:
REMARK  status: ('A' for Active; 'I' for Inactive)
REMARK    1  A    between atoms: C3_3  and  N1_4 
REMARK    2  A    between atoms: N1_4  and  C4_7 
REMARK    3  A    between atoms: C5_8  and  N2_9 
REMARK    4  A    between atoms: C9_16  and  C10_17 
REMARK    5  A    between atoms: C10_17  and  N5_18 
REMARK    6  A    between atoms: C10_17  and  C11_22 
ROOT
HETATM    1  C1  UNL     1      20.596  -5.336  -0.751  1.00  0.00     0.013 C 
HETATM    2  C2  UNL     1      20.589  -6.302  -0.037  1.00  0.00    -0.090 C 
HETATM    3  C3  UNL     1      20.609  -7.497   0.839  1.00  0.00     0.325 C 
ENDROOT
BRANCH   3   4
HETATM    4  N1  UNL     1      19.299  -8.095   0.738  1.00  0.00    -0.059 N 
ATOM      5  H12 UNL     1      19.069  -8.295  -0.235  1.00  0.00     0.278 HD
ATOM      6  H11 UNL     1      19.307  -9.044   1.111  1.00  0.00     0.278 HD
BRANCH   4   7
HETATM    7  C4  UNL     1      18.273  -7.324   1.350  1.00  0.00     0.215 C 
HETATM    8  C5  UNL     1      17.300  -6.706   0.370  1.00  0.00     0.115 C 
HETATM    9  C7  UNL     1      15.949  -6.740   1.018  1.00  0.00     0.028 C 
HETATM   10  C8  UNL     1      16.243  -7.098   2.446  1.00  0.00     0.011 C 
HETATM   11  C9  UNL     1      17.375  -8.100   2.292  1.00  0.00     0.052 C 
BRANCH   8  12
HETATM   12  N2  UNL     1      17.214  -7.463  -0.859  1.00  0.00    -0.360 N 
HETATM   13  C6  UNL     1      17.100  -6.808  -1.958  1.00  0.00     0.197 C 
HETATM   14  N3  UNL     1      17.008  -7.478  -3.225  1.00  0.00    -0.067 NA
HETATM   15  N4  UNL     1      17.057  -5.390  -1.968  1.00  0.00    -0.067 NA
ATOM     16  H2  UNL     1      17.244  -8.482  -0.854  1.00  0.00     0.162 HD
ENDBRANCH   8  12
BRANCH  11  17
HETATM   17  C10 UNL     1      18.056  -8.365   3.620  1.00  0.00     0.211 C 
BRANCH  17  18
HETATM   18  N5  UNL     1      19.114  -7.407   3.779  1.00  0.00    -0.071 N 
ATOM     19  H53 UNL     1      19.072  -6.656   3.090  1.00  0.00     0.275 HD
ATOM     20  H52 UNL     1      19.005  -6.833   4.614  1.00  0.00     0.275 HD
ATOM     21  H51 UNL     1      20.002  -7.910   3.760  1.00  0.00     0.275 HD
ENDBRANCH  17  18
BRANCH  17  22
HETATM   22  C11 UNL     1      17.034  -8.243   4.676  1.00  0.00    -0.004 C 
HETATM   23  C12 UNL     1      17.363  -7.839   5.881  1.00  0.00     0.009 C 
ENDBRANCH  17  22
ENDBRANCH  11  17
ENDBRANCH   4   7
ENDBRANCH   3   4
TORSDOF 6
ENDMDL
MODEL 5
REMARK VINA RESULT: -4.021424511      2.435      4.423
REMARK  6 active torsions:
REMARK  status: ('A' for Active; 'I' for Inactive)
REMARK    1  A    between atoms: C3_3  and  N1_4 
REMARK    2  A    between atoms: N1_4  and  C4_7 
REMARK    3  A    between atoms: C5_8  and  N2_9 
REMARK    4  A    between atoms: C9_16  and  C10_17 
REMARK    5  A    between atoms: C10_17  and  N5_18 
REMARK    6  A    between atoms: C10_17  and  C11_22 
ROOT
HETATM    1  C1  UNL     1      18.517  -5.781  -3.570  1.00  0.00     0.013 C 
HETATM    2  C2  UNL     1      17.849  -6.300  -2.717  1.00  0.00    -0.090 C 
HETATM    3  C3  UNL     1      17.004  -6.942  -1.684  1.00  0.00     0.325 C 
ENDROOT
BRANCH   3   4
HETATM    4  N1  UNL     1      17.392  -6.360  -0.423  1.00  0.00    -0.059 N 
ATOM      5  H12 UNL     1      17.875  -5.473  -0.569  1.00  0.00     0.278 HD
ATOM      6  H11 UNL     1      16.574  -6.026   0.087  1.00  0.00     0.278 HD
BRANCH   4   7
HETATM    7  C4  UNL     1      18.171  -7.228   0.391  1.00  0.00     0.215 C 
HETATM    8  C5  UNL     1      19.654  -6.928   0.368  1.00  0.00     0.115 C 
HETATM    9  C7  UNL     1      20.173  -7.193   1.749  1.00  0.00     0.028 C 
HETATM   10  C8  UNL     1      19.043  -7.912   2.426  1.00  0.00     0.011 C 
HETATM   11  C9  UNL     1      17.829  -7.190   1.866  1.00  0.00     0.052 C 
BRANCH   8  12
HETATM   12  N2  UNL     1      19.921  -5.540   0.059  1.00  0.00    -0.360 N 
HETATM   13  C6  UNL     1      21.100  -5.234  -0.345  1.00  0.00     0.197 C 
HETATM   14  N3  UNL     1      21.454  -3.881  -0.673  1.00  0.00    -0.067 NA
HETATM   15  N4  UNL     1      22.110  -6.221  -0.483  1.00  0.00    -0.067 NA
ATOM     16  H2  UNL     1      19.197  -4.829   0.159  1.00  0.00     0.162 HD
ENDBRANCH   8  12
BRANCH  11  17
HETATM   17  C10 UNL     1      16.554  -7.952   2.163  1.00  0.00     0.211 C 
BRANCH  17  18
HETATM   18  N5  UNL     1      16.612  -8.409   3.524  1.00  0.00    -0.071 N 
ATOM     19  H53 UNL     1      17.502  -8.193   3.973  1.00  0.00     0.275 HD
ATOM     20  H52 UNL     1      16.010  -7.870   4.146  1.00  0.00     0.275 HD
ATOM     21  H51 UNL     1      16.397  -9.406   3.534  1.00  0.00     0.275 HD
ENDBRANCH  17  18
BRANCH  17  22
HETATM   22  C11 UNL     1      15.422  -7.036   1.933  1.00  0.00    -0.004 C 
HETATM   23  C12 UNL     1      14.393  -7.411   1.210  1.00  0.00     0.009 C 
ENDBRANCH  17  22
ENDBRANCH  11  17
ENDBRANCH   4   7
ENDBRANCH   3   4
TORSDOF 6
ENDMDL
