MODEL 1
REMARK VINA RESULT: -6.619072787      0.000      0.000
REMARK  7 active torsions:
REMARK  status: ('A' for Active; 'I' for Inactive)
REMARK    1  A    between atoms: C4_8  and  C5_9 
REMARK    2  A    between atoms: C5_9  and  N3_10 
REMARK    3  A    between atoms: N3_10  and  C6_13 
REMARK    4  A    between atoms: C6_13  and  C7_14 
REMARK    5  A    between atoms: C7_14  and  N4_15 
REMARK    6  A    between atoms: C8_17  and  N5_18 
REMARK    7  A    between atoms: N5_18  and  N6_20 
ROOT
HETATM    1  N3  UNL     1       3.292  20.831 -12.778  1.00  0.00    -0.070 N 
ATOM      2  H31 UNL     1       2.532  20.354 -12.293  1.00  0.00     0.277 HD
ATOM      3  H32 UNL     1       2.943  21.787 -12.732  1.00  0.00     0.277 HD
ENDROOT
BRANCH   1   4
HETATM    4  C5  UNL     1       3.391  20.389 -14.126  1.00  0.00     0.295 C 
BRANCH   4   5
HETATM    5  C4  UNL     1       2.500  19.234 -14.384  1.00  0.00     0.415 C 
HETATM    6  N1  UNL     1       2.285  18.608 -15.601  1.00  0.00    -0.020 N 
HETATM    7  C1  UNL     1       0.965  18.883 -16.219  1.00  0.00     0.276 C 
HETATM    8  C2  UNL     1       3.230  18.433 -16.634  1.00  0.00     0.276 C 
HETATM    9  C3  UNL     1       2.164  17.324 -14.836  1.00  0.00     0.472 C 
HETATM   10  N2  UNL     1       2.974  17.953 -13.824  1.00  0.00    -0.020 N 
ATOM     11  H22 UNL     1       2.868  17.728 -12.834  1.00  0.00     0.281 HD
ATOM     12  H21 UNL     1       3.967  17.745 -13.726  1.00  0.00     0.281 HD
ENDBRANCH   4   5
ENDBRANCH   1   4
BRANCH   1  13
HETATM   13  C6  UNL     1       4.545  20.697 -12.046  1.00  0.00     0.252 C 
BRANCH  13  14
HETATM   14  C7  UNL     1       4.404  19.933 -10.774  1.00  0.00     0.148 C 
BRANCH  14  15
HETATM   15  N4  UNL     1       3.849  20.826  -9.762  1.00  0.00    -0.383 N 
HETATM   16  C8  UNL     1       3.856  20.419  -8.540  1.00  0.00     0.194 C 
ATOM     17  H4  UNL     1       3.470  21.740 -10.013  1.00  0.00     0.160 HD
BRANCH  16  18
HETATM   18  N5  UNL     1       3.307  21.333  -7.591  1.00  0.00    -0.283 N 
ATOM     19  H5  UNL     1       2.576  21.998  -7.846  1.00  0.00     0.189 HD
BRANCH  18  20
HETATM   20  N6  UNL     1       3.826  21.268  -6.286  1.00  0.00    -0.248 N 
HETATM   21  N7  UNL     1       4.270  20.161  -5.829  1.00  0.00    -0.331 N 
ATOM     22  H72 UNL     1       4.241  19.333  -6.424  1.00  0.00     0.178 HD
ATOM     23  H71 UNL     1       4.646  20.114  -4.883  1.00  0.00     0.178 HD
ATOM     24  H6  UNL     1       3.849  22.106  -5.703  1.00  0.00     0.207 HD
ENDBRANCH  18  20
ENDBRANCH  16  18
ENDBRANCH  14  15
ENDBRANCH  13  14
ENDBRANCH   1  13
TORSDOF 7
ENDMDL
MODEL 2
REMARK VINA RESULT: -6.525031645      1.959      3.173
REMARK  7 active torsions:
REMARK  status: ('A' for Active; 'I' for Inactive)
REMARK    1  A    between atoms: C4_8  and  C5_9 
REMARK    2  A    between atoms: C5_9  and  N3_10 
REMARK    3  A    between atoms: N3_10  and  C6_13 
REMARK    4  A    between atoms: C6_13  and  C7_14 
REMARK    5  A    between atoms: C7_14  and  N4_15 
REMARK    6  A    between atoms: C8_17  and  N5_18 
REMARK    7  A    between atoms: N5_18  and  N6_20 
ROOT
HETATM    1  N3  UNL     1       2.066  19.066 -10.330  1.00  0.00    -0.070 N 
ATOM      2  H31 UNL     1       1.063  18.966 -10.172  1.00  0.00     0.277 HD
ATOM      3  H32 UNL     1       2.136  20.083 -10.304  1.00  0.00     0.277 HD
ENDROOT
BRANCH   1   4
HETATM    4  C5  UNL     1       2.432  18.562 -11.608  1.00  0.00     0.295 C 
BRANCH   4   5
HETATM    5  C4  UNL     1       2.788  19.657 -12.540  1.00  0.00     0.415 C 
HETATM    6  N1  UNL     1       4.025  20.266 -12.672  1.00  0.00    -0.020 N 
HETATM    7  C1  UNL     1       4.106  21.639 -12.119  1.00  0.00     0.276 C 
HETATM    8  C2  UNL     1       5.285  19.649 -12.515  1.00  0.00     0.276 C 
HETATM    9  C3  UNL     1       3.727  20.388 -14.136  1.00  0.00     0.472 C 
HETATM   10  N2  UNL     1       2.845  19.262 -13.962  1.00  0.00    -0.020 N 
ATOM     11  H22 UNL     1       2.000  19.150 -14.522  1.00  0.00     0.281 HD
ATOM     12  H21 UNL     1       3.114  18.320 -14.246  1.00  0.00     0.281 HD
ENDBRANCH   4   5
ENDBRANCH   1   4
BRANCH   1  13
HETATM   13  C6  UNL     1       2.828  18.463  -9.244  1.00  0.00     0.252 C 
BRANCH  13  14
HETATM   14  C7  UNL     1       4.186  19.055  -9.079  1.00  0.00     0.148 C 
BRANCH  14  15
HETATM   15  N4  UNL     1       4.072  20.225  -8.213  1.00  0.00    -0.383 N 
HETATM   16  C8  UNL     1       3.994  20.020  -6.944  1.00  0.00     0.194 C 
ATOM     17  H4  UNL     1       4.055  21.169  -8.599  1.00  0.00     0.160 HD
BRANCH  16  18
HETATM   18  N5  UNL     1       3.889  21.198  -6.143  1.00  0.00    -0.283 N 
ATOM     19  H5  UNL     1       4.278  21.244  -5.202  1.00  0.00     0.189 HD
BRANCH  18  20
HETATM   20  N6  UNL     1       3.220  22.291  -6.722  1.00  0.00    -0.248 N 
HETATM   21  N7  UNL     1       2.881  23.288  -5.998  1.00  0.00    -0.331 N 
ATOM     22  H72 UNL     1       3.103  23.275  -5.003  1.00  0.00     0.178 HD
ATOM     23  H71 UNL     1       2.395  24.080  -6.418  1.00  0.00     0.178 HD
ATOM     24  H6  UNL     1       3.005  22.288  -7.719  1.00  0.00     0.207 HD
ENDBRANCH  18  20
ENDBRANCH  16  18
ENDBRANCH  14  15
ENDBRANCH  13  14
ENDBRANCH   1  13
TORSDOF 7
ENDMDL
MODEL 3
REMARK VINA RESULT: -6.508194004      1.750      7.050
REMARK  7 active torsions:
REMARK  status: ('A' for Active; 'I' for Inactive)
REMARK    1  A    between atoms: C4_8  and  C5_9 
REMARK    2  A    between atoms: C5_9  and  N3_10 
REMARK    3  A    between atoms: N3_10  and  C6_13 
REMARK    4  A    between atoms: C6_13  and  C7_14 
REMARK    5  A    between atoms: C7_14  and  N4_15 
REMARK    6  A    between atoms: C8_17  and  N5_18 
REMARK    7  A    between atoms: N5_18  and  N6_20 
ROOT
HETATM    1  N3  UNL     1       5.188  20.162 -12.159  1.00  0.00    -0.070 N 
ATOM      2  H31 UNL     1       5.929  19.524 -11.867  1.00  0.00     0.277 HD
ATOM      3  H32 UNL     1       5.751  20.851 -12.659  1.00  0.00     0.277 HD
ENDROOT
BRANCH   1   4
HETATM    4  C5  UNL     1       4.547  20.747 -11.033  1.00  0.00     0.295 C 
BRANCH   4   5
HETATM    5  C4  UNL     1       4.108  19.717 -10.064  1.00  0.00     0.415 C 
HETATM    6  N1  UNL     1       3.949  19.877  -8.697  1.00  0.00    -0.020 N 
HETATM    7  C1  UNL     1       4.991  19.226  -7.867  1.00  0.00     0.276 C 
HETATM    8  C2  UNL     1       3.520  21.047  -8.034  1.00  0.00     0.276 C 
HETATM    9  C3  UNL     1       2.793  18.927  -8.795  1.00  0.00     0.472 C 
HETATM   10  N2  UNL     1       2.685  19.336 -10.172  1.00  0.00    -0.020 N 
ATOM     11  H22 UNL     1       2.354  18.699 -10.897  1.00  0.00     0.281 HD
ATOM     12  H21 UNL     1       1.975  19.999 -10.481  1.00  0.00     0.281 HD
ENDBRANCH   4   5
ENDBRANCH   1   4
BRANCH   1  13
HETATM   13  C6  UNL     1       4.255  19.499 -13.061  1.00  0.00     0.252 C 
BRANCH  13  14
HETATM   14  C7  UNL     1       3.342  20.446 -13.762  1.00  0.00     0.148 C 
BRANCH  14  15
HETATM   15  N4  UNL     1       2.589  19.698 -14.765  1.00  0.00    -0.383 N 
HETATM   16  C8  UNL     1       2.495  18.423 -14.609  1.00  0.00     0.194 C 
ATOM     17  H4  UNL     1       2.154  20.167 -15.558  1.00  0.00     0.160 HD
BRANCH  16  18
HETATM   18  N5  UNL     1       1.745  17.741 -15.615  1.00  0.00    -0.283 N 
ATOM     19  H5  UNL     1       1.902  16.756 -15.827  1.00  0.00     0.189 HD
BRANCH  18  20
HETATM   20  N6  UNL     1       0.778  18.501 -16.298  1.00  0.00    -0.248 N 
HETATM   21  N7  UNL     1       0.451  18.192 -17.493  1.00  0.00    -0.331 N 
ATOM     22  H72 UNL     1       0.901  17.392 -17.938  1.00  0.00     0.178 HD
ATOM     23  H71 UNL     1      -0.250  18.743 -17.988  1.00  0.00     0.178 HD
ATOM     24  H6  UNL     1       0.338  19.298 -15.838  1.00  0.00     0.207 HD
ENDBRANCH  18  20
ENDBRANCH  16  18
ENDBRANCH  14  15
ENDBRANCH  13  14
ENDBRANCH   1  13
TORSDOF 7
ENDMDL
MODEL 4
REMARK VINA RESULT: -6.459556856      1.776      7.420
REMARK  7 active torsions:
REMARK  status: ('A' for Active; 'I' for Inactive)
REMARK    1  A    between atoms: C4_8  and  C5_9 
REMARK    2  A    between atoms: C5_9  and  N3_10 
REMARK    3  A    between atoms: N3_10  and  C6_13 
REMARK    4  A    between atoms: C6_13  and  C7_14 
REMARK    5  A    between atoms: C7_14  and  N4_15 
REMARK    6  A    between atoms: C8_17  and  N5_18 
REMARK    7  A    between atoms: N5_18  and  N6_20 
ROOT
HETATM    1  N3  UNL     1       3.578  20.950 -12.128  1.00  0.00    -0.070 N 
ATOM      2  H31 UNL     1       3.372  21.947 -12.191  1.00  0.00     0.277 HD
ATOM      3  H32 UNL     1       2.664  20.612 -11.829  1.00  0.00     0.277 HD
ENDROOT
BRANCH   1   4
HETATM    4  C5  UNL     1       4.565  20.696 -11.136  1.00  0.00     0.295 C 
BRANCH   4   5
HETATM    5  C4  UNL     1       4.106  19.676 -10.165  1.00  0.00     0.415 C 
HETATM    6  N1  UNL     1       3.914  19.852  -8.804  1.00  0.00    -0.020 N 
HETATM    7  C1  UNL     1       4.939  19.214  -7.942  1.00  0.00     0.276 C 
HETATM    8  C2  UNL     1       3.467  21.028  -8.165  1.00  0.00     0.276 C 
HETATM    9  C3  UNL     1       2.765  18.897  -8.917  1.00  0.00     0.472 C 
HETATM   10  N2  UNL     1       2.688  19.289 -10.301  1.00  0.00    -0.020 N 
ATOM     11  H22 UNL     1       2.375  18.642 -11.026  1.00  0.00     0.281 HD
ATOM     12  H21 UNL     1       1.983  19.945 -10.635  1.00  0.00     0.281 HD
ENDBRANCH   4   5
ENDBRANCH   1   4
BRANCH   1  13
HETATM   13  C6  UNL     1       3.934  20.406 -13.432  1.00  0.00     0.252 C 
BRANCH  13  14
HETATM   14  C7  UNL     1       2.849  19.585 -14.042  1.00  0.00     0.148 C 
BRANCH  14  15
HETATM   15  N4  UNL     1       2.906  19.756 -15.491  1.00  0.00    -0.383 N 
HETATM   16  C8  UNL     1       1.791  19.918 -16.115  1.00  0.00     0.194 C 
ATOM     17  H4  UNL     1       3.795  19.747 -15.990  1.00  0.00     0.160 HD
BRANCH  16  18
HETATM   18  N5  UNL     1       1.903  20.086 -17.528  1.00  0.00    -0.283 N 
ATOM     19  H5  UNL     1       2.146  20.984 -17.945  1.00  0.00     0.189 HD
BRANCH  18  20
HETATM   20  N6  UNL     1       1.662  18.945 -18.315  1.00  0.00    -0.248 N 
HETATM   21  N7  UNL     1       1.012  17.959 -17.828  1.00  0.00    -0.331 N 
ATOM     22  H72 UNL     1       0.675  18.015 -16.867  1.00  0.00     0.178 HD
ATOM     23  H71 UNL     1       0.837  17.132 -18.399  1.00  0.00     0.178 HD
ATOM     24  H6  UNL     1       2.005  18.906 -19.275  1.00  0.00     0.207 HD
ENDBRANCH  18  20
ENDBRANCH  16  18
ENDBRANCH  14  15
ENDBRANCH  13  14
ENDBRANCH   1  13
TORSDOF 7
ENDMDL
MODEL 5
REMARK VINA RESULT: -6.366196797      1.060      1.152
REMARK  7 active torsions:
REMARK  status: ('A' for Active; 'I' for Inactive)
REMARK    1  A    between atoms: C4_8  and  C5_9 
REMARK    2  A    between atoms: C5_9  and  N3_10 
REMARK    3  A    between atoms: N3_10  and  C6_13 
REMARK    4  A    between atoms: C6_13  and  C7_14 
REMARK    5  A    between atoms: C7_14  and  N4_15 
REMARK    6  A    between atoms: C8_17  and  N5_18 
REMARK    7  A    between atoms: N5_18  and  N6_20 
ROOT
HETATM    1  N3  UNL     1       4.212  18.941 -12.190  1.00  0.00    -0.070 N 
ATOM      2  H31 UNL     1       5.163  18.798 -12.528  1.00  0.00     0.277 HD
ATOM      3  H32 UNL     1       3.863  17.987 -12.268  1.00  0.00     0.277 HD
ENDROOT
BRANCH   1   4
HETATM    4  C5  UNL     1       3.493  19.819 -13.047  1.00  0.00     0.295 C 
BRANCH   4   5
HETATM    5  C4  UNL     1       2.595  19.071 -13.957  1.00  0.00     0.415 C 
HETATM    6  N1  UNL     1       2.593  19.115 -15.342  1.00  0.00    -0.020 N 
HETATM    7  C1  UNL     1       1.453  19.851 -15.940  1.00  0.00     0.276 C 
HETATM    8  C2  UNL     1       3.718  19.283 -16.178  1.00  0.00     0.276 C 
HETATM    9  C3  UNL     1       2.226  17.662 -15.315  1.00  0.00     0.472 C 
HETATM   10  N2  UNL     1       2.851  17.618 -14.017  1.00  0.00    -0.020 N 
ATOM     11  H22 UNL     1       2.526  16.985 -13.286  1.00  0.00     0.281 HD
ATOM     12  H21 UNL     1       3.785  17.231 -13.885  1.00  0.00     0.281 HD
ENDBRANCH   4   5
ENDBRANCH   1   4
BRANCH   1  13
HETATM   13  C6  UNL     1       4.214  19.383 -10.800  1.00  0.00     0.252 C 
BRANCH  13  14
HETATM   14  C7  UNL     1       3.103  18.799  -9.996  1.00  0.00     0.148 C 
BRANCH  14  15
HETATM   15  N4  UNL     1       2.748  19.751  -8.948  1.00  0.00    -0.383 N 
HETATM   16  C8  UNL     1       3.686  20.501  -8.482  1.00  0.00     0.194 C 
ATOM     17  H4  UNL     1       1.793  19.819  -8.597  1.00  0.00     0.160 HD
BRANCH  16  18
HETATM   18  N5  UNL     1       3.283  21.416  -7.463  1.00  0.00    -0.283 N 
ATOM     19  H5  UNL     1       2.577  22.132  -7.632  1.00  0.00     0.189 HD
BRANCH  18  20
HETATM   20  N6  UNL     1       3.913  21.277  -6.213  1.00  0.00    -0.248 N 
HETATM   21  N7  UNL     1       4.232  20.117  -5.784  1.00  0.00    -0.331 N 
ATOM     22  H72 UNL     1       4.024  19.302  -6.360  1.00  0.00     0.178 HD
ATOM     23  H71 UNL     1       4.688  20.017  -4.877  1.00  0.00     0.178 HD
ATOM     24  H6  UNL     1       4.114  22.103  -5.649  1.00  0.00     0.207 HD
ENDBRANCH  18  20
ENDBRANCH  16  18
ENDBRANCH  14  15
ENDBRANCH  13  14
ENDBRANCH   1  13
TORSDOF 7
ENDMDL
