MODEL 1
REMARK VINA RESULT: -6.587445303      0.000      0.000
REMARK  7 active torsions:
REMARK  status: ('A' for Active; 'I' for Inactive)
REMARK    1  A    between atoms: N1_2  and  C3_4 
REMARK    2  A    between atoms: N1_2  and  C4_9 
REMARK    3  A    between atoms: C3_4  and  N2_5 
REMARK    4  A    between atoms: C4_9  and  C5_10 
REMARK    5  A    between atoms: C5_10  and  N3_11 
REMARK    6  A    between atoms: N3_11  and  N4_13 
REMARK    7  A    between atoms: N5_15  and  N6_17 
ROOT
HETATM    1  N3  UNL     1       2.775  20.275 -12.711  1.00  0.00    -0.319 N 
ATOM      2  H3  UNL     1       2.018  20.952 -12.614  1.00  0.00     0.181 HD
ENDROOT
BRANCH   1   3
HETATM    3  C5  UNL     1       3.320  19.943 -14.014  1.00  0.00     0.169 C 
BRANCH   3   4
HETATM    4  C4  UNL     1       2.158  19.914 -14.989  1.00  0.00     0.259 C 
BRANCH   4   5
HETATM    5  N1  UNL     1       2.094  18.695 -15.738  1.00  0.00    -0.050 N 
HETATM    6  C1  UNL     1       2.338  17.514 -14.912  1.00  0.00     0.274 C 
HETATM    7  C2  UNL     1       3.167  18.718 -16.727  1.00  0.00     0.274 C 
BRANCH   5   8
HETATM    8  C3  UNL     1       0.804  18.481 -16.375  1.00  0.00     0.464 C 
BRANCH   8   9
HETATM    9  N2  UNL     1       0.937  18.030 -17.725  1.00  0.00    -0.055 N 
ATOM     10  H23 UNL     1       1.845  17.594 -17.880  1.00  0.00     0.276 HD
ATOM     11  H22 UNL     1       0.337  17.225 -17.906  1.00  0.00     0.276 HD
ATOM     12  H21 UNL     1       0.766  18.777 -18.398  1.00  0.00     0.276 HD
ENDBRANCH   8   9
ENDBRANCH   5   8
ENDBRANCH   4   5
ENDBRANCH   3   4
ENDBRANCH   1   3
BRANCH   1  13
HETATM   13  N4  UNL     1       3.322  19.638 -11.594  1.00  0.00    -0.233 N 
HETATM   14  N5  UNL     1       4.079  20.277 -10.807  1.00  0.00    -0.227 N 
ATOM     15  H5  UNL     1       4.294  21.258 -10.984  1.00  0.00     0.210 HD
ATOM     16  H4  UNL     1       3.110  18.657 -11.412  1.00  0.00     0.209 HD
BRANCH  14  17
HETATM   17  N6  UNL     1       4.616  19.629  -9.696  1.00  0.00    -0.274 N 
HETATM   18  C6  UNL     1       4.292  20.003  -8.513  1.00  0.00     0.094 C 
HETATM   19  C7  UNL     1       3.399  21.060  -7.984  1.00  0.00     0.097 C 
HETATM   20  N7  UNL     1       4.626  19.594  -7.193  1.00  0.00    -0.378 N 
HETATM   21  C8  UNL     1       3.925  20.740  -6.618  1.00  0.00     0.128 C 
ATOM     22  H7  UNL     1       5.149  18.810  -6.802  1.00  0.00     0.160 HD
ATOM     23  H6  UNL     1       5.269  18.855  -9.823  1.00  0.00     0.190 HD
ENDBRANCH  14  17
ENDBRANCH   1  13
TORSDOF 7
ENDMDL
MODEL 2
REMARK VINA RESULT: -6.577892350      1.011      1.368
REMARK  7 active torsions:
REMARK  status: ('A' for Active; 'I' for Inactive)
REMARK    1  A    between atoms: N1_2  and  C3_4 
REMARK    2  A    between atoms: N1_2  and  C4_9 
REMARK    3  A    between atoms: C3_4  and  N2_5 
REMARK    4  A    between atoms: C4_9  and  C5_10 
REMARK    5  A    between atoms: C5_10  and  N3_11 
REMARK    6  A    between atoms: N3_11  and  N4_13 
REMARK    7  A    between atoms: N5_15  and  N6_17 
ROOT
HETATM    1  N3  UNL     1       2.877  18.482 -12.213  1.00  0.00    -0.319 N 
ATOM      2  H3  UNL     1       2.714  17.509 -11.956  1.00  0.00     0.181 HD
ENDROOT
BRANCH   1   3
HETATM    3  C5  UNL     1       3.243  18.847 -13.569  1.00  0.00     0.169 C 
BRANCH   3   4
HETATM    4  C4  UNL     1       2.451  17.949 -14.502  1.00  0.00     0.259 C 
BRANCH   4   5
HETATM    5  N1  UNL     1       2.218  18.548 -15.781  1.00  0.00    -0.050 N 
HETATM    6  C1  UNL     1       2.860  17.816 -16.870  1.00  0.00     0.274 C 
HETATM    7  C2  UNL     1       2.829  19.872 -15.776  1.00  0.00     0.274 C 
BRANCH   5   8
HETATM    8  C3  UNL     1       0.807  18.627 -16.126  1.00  0.00     0.464 C 
BRANCH   8   9
HETATM    9  N2  UNL     1       0.561  18.244 -17.481  1.00  0.00    -0.055 N 
ATOM     10  H23 UNL     1       0.210  17.288 -17.537  1.00  0.00     0.276 HD
ATOM     11  H22 UNL     1      -0.246  18.736 -17.864  1.00  0.00     0.276 HD
ATOM     12  H21 UNL     1       1.383  18.370 -18.071  1.00  0.00     0.276 HD
ENDBRANCH   8   9
ENDBRANCH   5   8
ENDBRANCH   4   5
ENDBRANCH   3   4
ENDBRANCH   1   3
BRANCH   1  13
HETATM   13  N4  UNL     1       2.755  19.508 -11.272  1.00  0.00    -0.233 N 
HETATM   14  N5  UNL     1       3.688  19.723 -10.445  1.00  0.00    -0.227 N 
ATOM     15  H5  UNL     1       4.532  19.150 -10.460  1.00  0.00     0.210 HD
ATOM     16  H4  UNL     1       1.913  20.084 -11.251  1.00  0.00     0.209 HD
BRANCH  14  17
HETATM   17  N6  UNL     1       3.553  20.750  -9.512  1.00  0.00    -0.274 N 
HETATM   18  C6  UNL     1       3.843  20.543  -8.280  1.00  0.00     0.094 C 
HETATM   19  C7  UNL     1       4.335  19.365  -7.530  1.00  0.00     0.097 C 
HETATM   20  N7  UNL     1       3.831  21.323  -7.091  1.00  0.00    -0.378 N 
HETATM   21  C8  UNL     1       4.117  20.147  -6.271  1.00  0.00     0.128 C 
ATOM     22  H7  UNL     1       3.682  22.312  -6.890  1.00  0.00     0.160 HD
ATOM     23  H6  UNL     1       3.223  21.669  -9.809  1.00  0.00     0.190 HD
ENDBRANCH  14  17
ENDBRANCH   1  13
TORSDOF 7
ENDMDL
MODEL 3
REMARK VINA RESULT: -6.455689273      0.703      1.429
REMARK  7 active torsions:
REMARK  status: ('A' for Active; 'I' for Inactive)
REMARK    1  A    between atoms: N1_2  and  C3_4 
REMARK    2  A    between atoms: N1_2  and  C4_9 
REMARK    3  A    between atoms: C3_4  and  N2_5 
REMARK    4  A    between atoms: C4_9  and  C5_10 
REMARK    5  A    between atoms: C5_10  and  N3_11 
REMARK    6  A    between atoms: N3_11  and  N4_13 
REMARK    7  A    between atoms: N5_15  and  N6_17 
ROOT
HETATM    1  N3  UNL     1       2.969  20.395 -12.623  1.00  0.00    -0.319 N 
ATOM      2  H3  UNL     1       2.242  21.102 -12.511  1.00  0.00     0.181 HD
ENDROOT
BRANCH   1   3
HETATM    3  C5  UNL     1       3.489  20.057 -13.935  1.00  0.00     0.169 C 
BRANCH   3   4
HETATM    4  C4  UNL     1       2.302  19.961 -14.875  1.00  0.00     0.259 C 
BRANCH   4   5
HETATM    5  N1  UNL     1       2.265  18.724 -15.595  1.00  0.00    -0.050 N 
HETATM    6  C1  UNL     1       3.176  18.712 -16.737  1.00  0.00     0.274 C 
HETATM    7  C2  UNL     1       0.926  18.566 -16.152  1.00  0.00     0.274 C 
BRANCH   5   8
HETATM    8  C3  UNL     1       2.628  17.576 -14.779  1.00  0.00     0.464 C 
BRANCH   8   9
HETATM    9  N2  UNL     1       1.494  16.772 -14.444  1.00  0.00    -0.055 N 
ATOM     10  H23 UNL     1       1.777  15.841 -14.140  1.00  0.00     0.276 HD
ATOM     11  H22 UNL     1       1.052  17.097 -13.584  1.00  0.00     0.276 HD
ATOM     12  H21 UNL     1       0.820  16.721 -15.209  1.00  0.00     0.276 HD
ENDBRANCH   8   9
ENDBRANCH   5   8
ENDBRANCH   4   5
ENDBRANCH   3   4
ENDBRANCH   1   3
BRANCH   1  13
HETATM   13  N4  UNL     1       3.496  19.721 -11.518  1.00  0.00    -0.233 N 
HETATM   14  N5  UNL     1       4.118  20.361 -10.623  1.00  0.00    -0.227 N 
ATOM     15  H5  UNL     1       4.239  21.371 -10.702  1.00  0.00     0.210 HD
ATOM     16  H4  UNL     1       3.379  18.711 -11.434  1.00  0.00     0.209 HD
BRANCH  14  17
HETATM   17  N6  UNL     1       4.638  19.675  -9.525  1.00  0.00    -0.274 N 
HETATM   18  C6  UNL     1       4.320  20.031  -8.336  1.00  0.00     0.094 C 
HETATM   19  C7  UNL     1       3.452  21.096  -7.784  1.00  0.00     0.097 C 
HETATM   20  N7  UNL     1       4.642  19.584  -7.024  1.00  0.00    -0.378 N 
HETATM   21  C8  UNL     1       3.967  20.733  -6.425  1.00  0.00     0.128 C 
ATOM     22  H7  UNL     1       5.145  18.779  -6.651  1.00  0.00     0.160 HD
ATOM     23  H6  UNL     1       5.273  18.890  -9.669  1.00  0.00     0.190 HD
ENDBRANCH  14  17
ENDBRANCH   1  13
TORSDOF 7
ENDMDL
MODEL 4
REMARK VINA RESULT: -6.427677889      1.588      7.552
REMARK  7 active torsions:
REMARK  status: ('A' for Active; 'I' for Inactive)
REMARK    1  A    between atoms: N1_2  and  C3_4 
REMARK    2  A    between atoms: N1_2  and  C4_9 
REMARK    3  A    between atoms: C3_4  and  N2_5 
REMARK    4  A    between atoms: C4_9  and  C5_10 
REMARK    5  A    between atoms: C5_10  and  N3_11 
REMARK    6  A    between atoms: N3_11  and  N4_13 
REMARK    7  A    between atoms: N5_15  and  N6_17 
ROOT
HETATM    1  N3  UNL     1       4.434  18.964 -12.008  1.00  0.00    -0.319 N 
ATOM      2  H3  UNL     1       5.414  19.244 -11.959  1.00  0.00     0.181 HD
ENDROOT
BRANCH   1   3
HETATM    3  C5  UNL     1       3.527  19.220 -10.905  1.00  0.00     0.169 C 
BRANCH   3   4
HETATM    4  C4  UNL     1       4.261  20.110  -9.920  1.00  0.00     0.259 C 
BRANCH   4   5
HETATM    5  N1  UNL     1       3.920  19.827  -8.558  1.00  0.00    -0.050 N 
HETATM    6  C1  UNL     1       5.043  19.286  -7.798  1.00  0.00     0.274 C 
HETATM    7  C2  UNL     1       2.899  18.784  -8.558  1.00  0.00     0.274 C 
BRANCH   5   8
HETATM    8  C3  UNL     1       3.466  21.000  -7.828  1.00  0.00     0.464 C 
BRANCH   8   9
HETATM    9  N2  UNL     1       3.875  20.973  -6.458  1.00  0.00    -0.055 N 
ATOM     10  H23 UNL     1       4.782  20.519  -6.352  1.00  0.00     0.276 HD
ATOM     11  H22 UNL     1       4.122  21.906  -6.127  1.00  0.00     0.276 HD
ATOM     12  H21 UNL     1       3.174  20.542  -5.856  1.00  0.00     0.276 HD
ENDBRANCH   8   9
ENDBRANCH   5   8
ENDBRANCH   4   5
ENDBRANCH   3   4
ENDBRANCH   1   3
BRANCH   1  13
HETATM   13  N4  UNL     1       3.923  18.323 -13.139  1.00  0.00    -0.233 N 
HETATM   14  N5  UNL     1       2.676  18.144 -13.257  1.00  0.00    -0.227 N 
ATOM     15  H5  UNL     1       2.039  18.467 -12.529  1.00  0.00     0.210 HD
ATOM     16  H4  UNL     1       4.555  17.997 -13.871  1.00  0.00     0.209 HD
BRANCH  14  17
HETATM   17  N6  UNL     1       2.180  17.503 -14.392  1.00  0.00    -0.274 N 
HETATM   18  C6  UNL     1       1.979  18.167 -15.470  1.00  0.00     0.094 C 
HETATM   19  C7  UNL     1       2.161  19.588 -15.844  1.00  0.00     0.097 C 
HETATM   20  N7  UNL     1       1.500  17.862 -16.774  1.00  0.00    -0.378 N 
HETATM   21  C8  UNL     1       1.467  19.278 -17.135  1.00  0.00     0.128 C 
ATOM     22  H7  UNL     1       1.271  16.997 -17.263  1.00  0.00     0.160 HD
ATOM     23  H6  UNL     1       1.975  16.504 -14.364  1.00  0.00     0.190 HD
ENDBRANCH  14  17
ENDBRANCH   1  13
TORSDOF 7
ENDMDL
MODEL 5
REMARK VINA RESULT: -6.409838334      0.549      1.204
REMARK  7 active torsions:
REMARK  status: ('A' for Active; 'I' for Inactive)
REMARK    1  A    between atoms: N1_2  and  C3_4 
REMARK    2  A    between atoms: N1_2  and  C4_9 
REMARK    3  A    between atoms: C3_4  and  N2_5 
REMARK    4  A    between atoms: C4_9  and  C5_10 
REMARK    5  A    between atoms: C5_10  and  N3_11 
REMARK    6  A    between atoms: N3_11  and  N4_13 
REMARK    7  A    between atoms: N5_15  and  N6_17 
ROOT
HETATM    1  N3  UNL     1       2.920  20.428 -12.679  1.00  0.00    -0.319 N 
ATOM      2  H3  UNL     1       2.229  21.170 -12.560  1.00  0.00     0.181 HD
ENDROOT
BRANCH   1   3
HETATM    3  C5  UNL     1       3.374  20.032 -13.999  1.00  0.00     0.169 C 
BRANCH   3   4
HETATM    4  C4  UNL     1       2.142  19.905 -14.875  1.00  0.00     0.259 C 
BRANCH   4   5
HETATM    5  N1  UNL     1       2.190  18.758 -15.732  1.00  0.00    -0.050 N 
HETATM    6  C1  UNL     1       0.961  18.582 -16.503  1.00  0.00     0.274 C 
HETATM    7  C2  UNL     1       2.306  17.572 -14.890  1.00  0.00     0.274 C 
BRANCH   5   8
HETATM    8  C3  UNL     1       3.271  18.815 -16.704  1.00  0.00     0.464 C 
BRANCH   8   9
HETATM    9  N2  UNL     1       2.995  18.025 -17.863  1.00  0.00    -0.055 N 
ATOM     10  H23 UNL     1       3.292  17.059 -17.730  1.00  0.00     0.276 HD
ATOM     11  H22 UNL     1       1.993  17.873 -17.977  1.00  0.00     0.276 HD
ATOM     12  H21 UNL     1       3.405  18.425 -18.706  1.00  0.00     0.276 HD
ENDBRANCH   8   9
ENDBRANCH   5   8
ENDBRANCH   4   5
ENDBRANCH   3   4
ENDBRANCH   1   3
BRANCH   1  13
HETATM   13  N4  UNL     1       3.458  19.760 -11.576  1.00  0.00    -0.233 N 
HETATM   14  N5  UNL     1       4.162  20.390 -10.735  1.00  0.00    -0.227 N 
ATOM     15  H5  UNL     1       4.341  21.386 -10.857  1.00  0.00     0.210 HD
ATOM     16  H4  UNL     1       3.283  18.763 -11.448  1.00  0.00     0.209 HD
BRANCH  14  17
HETATM   17  N6  UNL     1       4.692  19.710  -9.638  1.00  0.00    -0.274 N 
HETATM   18  C6  UNL     1       4.343  20.037  -8.449  1.00  0.00     0.094 C 
HETATM   19  C7  UNL     1       3.425  21.059  -7.897  1.00  0.00     0.097 C 
HETATM   20  N7  UNL     1       4.663  19.585  -7.139  1.00  0.00    -0.378 N 
HETATM   21  C8  UNL     1       3.933  20.699  -6.535  1.00  0.00     0.128 C 
ATOM     22  H7  UNL     1       5.191  18.796  -6.768  1.00  0.00     0.160 HD
ATOM     23  H6  UNL     1       5.360  18.952  -9.783  1.00  0.00     0.190 HD
ENDBRANCH  14  17
ENDBRANCH   1  13
TORSDOF 7
ENDMDL
