MODEL 1
REMARK VINA RESULT: -5.684830830      0.000      0.000
REMARK  8 active torsions:
REMARK  status: ('A' for Active; 'I' for Inactive)
REMARK    1  A    between atoms: N1_2  and  C4_5 
REMARK    2  A    between atoms: C4_5  and  C5_6 
REMARK    3  A    between atoms: N2_7  and  C6_8 
REMARK    4  A    between atoms: C6_8  and  C7_9 
REMARK    5  A    between atoms: C7_9  and  N3_10 
REMARK    6  A    between atoms: N3_10  and  C8_13 
REMARK    7  A    between atoms: C8_13  and  C9_14 
REMARK    8  A    between atoms: C9_14  and  N4_15 
ROOT
HETATM    1  C6  UNL     1       4.572  19.511 -11.867  1.00  0.00     0.178 C 
ENDROOT
BRANCH   1   2
HETATM    2  N2  UNL     1       3.566  19.939 -12.832  1.00  0.00    -0.275 N 
HETATM    3  C5  UNL     1       3.142  19.972 -14.106  1.00  0.00     0.139 A 
HETATM    4  N5  UNL     1       2.369  20.599 -13.099  1.00  0.00    -0.283 N 
ATOM      5  H5  UNL     1       1.553  21.131 -12.797  1.00  0.00     0.188 HD
BRANCH   3   6
HETATM    6  C4  UNL     1       3.384  19.587 -15.523  1.00  0.00     0.315 C 
BRANCH   6   7
HETATM    7  N1  UNL     1       2.447  18.531 -15.847  1.00  0.00    -0.072 N 
HETATM    8  C1  UNL     1       1.119  19.089 -15.977  1.00  0.00     0.272 C 
HETATM    9  C2  UNL     1       2.410  17.492 -14.861  1.00  0.00     0.272 C 
HETATM   10  C3  UNL     1       2.856  17.998 -17.148  1.00  0.00     0.272 C 
ENDBRANCH   6   7
ENDBRANCH   3   6
ENDBRANCH   1   2
BRANCH   1  11
HETATM   11  C7  UNL     1       3.861  19.260 -10.569  1.00  0.00     0.254 C 
BRANCH  11  12
HETATM   12  N3  UNL     1       3.970  20.342  -9.631  1.00  0.00    -0.072 N 
ATOM     13  H32 UNL     1       4.659  21.040  -9.911  1.00  0.00     0.277 HD
ATOM     14  H31 UNL     1       3.151  20.950  -9.635  1.00  0.00     0.277 HD
BRANCH  12  15
HETATM   15  C8  UNL     1       4.242  19.780  -8.329  1.00  0.00     0.259 C 
BRANCH  15  16
HETATM   16  C9  UNL     1       3.874  20.707  -7.204  1.00  0.00     0.257 C 
BRANCH  16  17
HETATM   17  N4  UNL     1       4.270  20.240  -5.919  1.00  0.00    -0.078 N 
ATOM     18  H43 UNL     1       4.968  19.501  -6.005  1.00  0.00     0.274 HD
ATOM     19  H42 UNL     1       4.827  20.945  -5.436  1.00  0.00     0.274 HD
ATOM     20  H41 UNL     1       3.493  19.934  -5.333  1.00  0.00     0.274 HD
ENDBRANCH  16  17
ENDBRANCH  15  16
ENDBRANCH  12  15
ENDBRANCH  11  12
ENDBRANCH   1  11
TORSDOF 8
ENDMDL
MODEL 2
REMARK VINA RESULT: -5.599744712      1.248      1.547
REMARK  8 active torsions:
REMARK  status: ('A' for Active; 'I' for Inactive)
REMARK    1  A    between atoms: N1_2  and  C4_5 
REMARK    2  A    between atoms: C4_5  and  C5_6 
REMARK    3  A    between atoms: N2_7  and  C6_8 
REMARK    4  A    between atoms: C6_8  and  C7_9 
REMARK    5  A    between atoms: C7_9  and  N3_10 
REMARK    6  A    between atoms: N3_10  and  C8_13 
REMARK    7  A    between atoms: C8_13  and  C9_14 
REMARK    8  A    between atoms: C9_14  and  N4_15 
ROOT
HETATM    1  C6  UNL     1       2.407  18.589 -10.456  1.00  0.00     0.178 C 
ENDROOT
BRANCH   1   2
HETATM    2  N2  UNL     1       3.164  18.897 -11.665  1.00  0.00    -0.275 N 
HETATM    3  C5  UNL     1       3.179  19.404 -12.909  1.00  0.00     0.139 A 
HETATM    4  N5  UNL     1       4.372  18.881 -12.355  1.00  0.00    -0.283 N 
ATOM      5  H5  UNL     1       5.366  18.660 -12.416  1.00  0.00     0.188 HD
BRANCH   3   6
HETATM    6  C4  UNL     1       2.418  20.046 -14.015  1.00  0.00     0.315 C 
BRANCH   6   7
HETATM    7  N1  UNL     1       2.466  19.144 -15.148  1.00  0.00    -0.072 N 
HETATM    8  C1  UNL     1       1.372  19.441 -16.046  1.00  0.00     0.272 C 
HETATM    9  C2  UNL     1       2.385  17.764 -14.770  1.00  0.00     0.272 C 
HETATM   10  C3  UNL     1       3.724  19.419 -15.843  1.00  0.00     0.272 C 
ENDBRANCH   6   7
ENDBRANCH   3   6
ENDBRANCH   1   2
BRANCH   1  11
HETATM   11  C7  UNL     1       3.250  19.009  -9.287  1.00  0.00     0.254 C 
BRANCH  11  12
HETATM   12  N3  UNL     1       3.589  20.404  -9.290  1.00  0.00    -0.072 N 
ATOM     13  H32 UNL     1       4.461  20.597  -9.782  1.00  0.00     0.277 HD
ATOM     14  H31 UNL     1       2.972  20.959  -9.883  1.00  0.00     0.277 HD
BRANCH  12  15
HETATM   15  C8  UNL     1       3.607  20.861  -7.920  1.00  0.00     0.259 C 
BRANCH  15  16
HETATM   16  C9  UNL     1       4.296  19.898  -6.993  1.00  0.00     0.257 C 
BRANCH  16  17
HETATM   17  N4  UNL     1       4.316  20.322  -5.634  1.00  0.00    -0.078 N 
ATOM     18  H43 UNL     1       4.479  21.327  -5.573  1.00  0.00     0.274 HD
ATOM     19  H42 UNL     1       3.382  20.275  -5.228  1.00  0.00     0.274 HD
ATOM     20  H41 UNL     1       4.985  19.815  -5.053  1.00  0.00     0.274 HD
ENDBRANCH  16  17
ENDBRANCH  15  16
ENDBRANCH  12  15
ENDBRANCH  11  12
ENDBRANCH   1  11
TORSDOF 8
ENDMDL
MODEL 3
REMARK VINA RESULT: -5.519869695      0.918      1.043
REMARK  8 active torsions:
REMARK  status: ('A' for Active; 'I' for Inactive)
REMARK    1  A    between atoms: N1_2  and  C4_5 
REMARK    2  A    between atoms: C4_5  and  C5_6 
REMARK    3  A    between atoms: N2_7  and  C6_8 
REMARK    4  A    between atoms: C6_8  and  C7_9 
REMARK    5  A    between atoms: C7_9  and  N3_10 
REMARK    6  A    between atoms: N3_10  and  C8_13 
REMARK    7  A    between atoms: C8_13  and  C9_14 
REMARK    8  A    between atoms: C9_14  and  N4_15 
ROOT
HETATM    1  C6  UNL     1       4.593  19.352 -12.301  1.00  0.00     0.178 C 
ENDROOT
BRANCH   1   2
HETATM    2  N2  UNL     1       3.528  19.826 -13.178  1.00  0.00    -0.275 N 
HETATM    3  C5  UNL     1       3.022  19.919 -14.419  1.00  0.00     0.139 A 
HETATM    4  N5  UNL     1       2.319  20.498 -13.335  1.00  0.00    -0.283 N 
ATOM      5  H5  UNL     1       1.526  21.017 -12.956  1.00  0.00     0.188 HD
BRANCH   3   6
HETATM    6  C4  UNL     1       3.171  19.601 -15.865  1.00  0.00     0.315 C 
BRANCH   6   7
HETATM    7  N1  UNL     1       2.360  18.429 -16.131  1.00  0.00    -0.072 N 
HETATM    8  C1  UNL     1       0.979  18.826 -16.290  1.00  0.00     0.272 C 
HETATM    9  C2  UNL     1       2.436  17.446 -15.092  1.00  0.00     0.272 C 
HETATM   10  C3  UNL     1       2.834  17.878 -17.402  1.00  0.00     0.272 C 
ENDBRANCH   6   7
ENDBRANCH   3   6
ENDBRANCH   1   2
BRANCH   1  11
HETATM   11  C7  UNL     1       5.088  20.536 -11.525  1.00  0.00     0.254 C 
BRANCH  11  12
HETATM   12  N3  UNL     1       4.275  20.864 -10.386  1.00  0.00    -0.072 N 
ATOM     13  H32 UNL     1       4.547  21.743  -9.948  1.00  0.00     0.277 HD
ATOM     14  H31 UNL     1       3.325  21.127 -10.644  1.00  0.00     0.277 HD
BRANCH  12  15
HETATM   15  C8  UNL     1       4.318  19.747  -9.472  1.00  0.00     0.259 C 
BRANCH  15  16
HETATM   16  C9  UNL     1       3.942  20.130  -8.067  1.00  0.00     0.257 C 
BRANCH  16  17
HETATM   17  N4  UNL     1       3.088  21.266  -7.988  1.00  0.00    -0.078 N 
ATOM     18  H43 UNL     1       2.850  21.470  -7.018  1.00  0.00     0.274 HD
ATOM     19  H42 UNL     1       3.599  22.117  -8.222  1.00  0.00     0.274 HD
ATOM     20  H41 UNL     1       2.243  21.188  -8.556  1.00  0.00     0.274 HD
ENDBRANCH  16  17
ENDBRANCH  15  16
ENDBRANCH  12  15
ENDBRANCH  11  12
ENDBRANCH   1  11
TORSDOF 8
ENDMDL
MODEL 4
REMARK VINA RESULT: -5.465083235      1.660      6.674
REMARK  8 active torsions:
REMARK  status: ('A' for Active; 'I' for Inactive)
REMARK    1  A    between atoms: N1_2  and  C4_5 
REMARK    2  A    between atoms: C4_5  and  C5_6 
REMARK    3  A    between atoms: N2_7  and  C6_8 
REMARK    4  A    between atoms: C6_8  and  C7_9 
REMARK    5  A    between atoms: C7_9  and  N3_10 
REMARK    6  A    between atoms: N3_10  and  C8_13 
REMARK    7  A    between atoms: C8_13  and  C9_14 
REMARK    8  A    between atoms: C9_14  and  N4_15 
ROOT
HETATM    1  C6  UNL     1       2.781  19.710 -14.619  1.00  0.00     0.178 C 
ENDROOT
BRANCH   1   2
HETATM    2  N2  UNL     1       3.326  20.309 -13.406  1.00  0.00    -0.275 N 
HETATM    3  C5  UNL     1       3.950  20.145 -12.228  1.00  0.00     0.139 A 
HETATM    4  N5  UNL     1       3.573  21.445 -12.641  1.00  0.00    -0.283 N 
ATOM      5  H5  UNL     1       3.521  22.453 -12.490  1.00  0.00     0.188 HD
BRANCH   3   6
HETATM    6  C4  UNL     1       4.570  19.207 -11.253  1.00  0.00     0.315 C 
BRANCH   6   7
HETATM    7  N1  UNL     1       3.657  19.089 -10.133  1.00  0.00    -0.072 N 
HETATM    8  C1  UNL     1       4.063  17.981  -9.297  1.00  0.00     0.272 C 
HETATM    9  C2  UNL     1       2.298  18.882 -10.537  1.00  0.00     0.272 C 
HETATM   10  C3  UNL     1       3.787  20.325  -9.361  1.00  0.00     0.272 C 
ENDBRANCH   6   7
ENDBRANCH   3   6
ENDBRANCH   1   2
BRANCH   1  11
HETATM   11  C7  UNL     1       2.483  18.273 -14.309  1.00  0.00     0.254 C 
BRANCH  11  12
HETATM   12  N3  UNL     1       2.069  17.508 -15.451  1.00  0.00    -0.072 N 
ATOM     13  H32 UNL     1       2.334  16.525 -15.385  1.00  0.00     0.277 HD
ATOM     14  H31 UNL     1       1.059  17.374 -15.492  1.00  0.00     0.277 HD
BRANCH  12  15
HETATM   15  C8  UNL     1       2.596  18.149 -16.633  1.00  0.00     0.259 C 
BRANCH  15  16
HETATM   16  C9  UNL     1       1.592  18.227 -17.751  1.00  0.00     0.257 C 
BRANCH  16  17
HETATM   17  N4  UNL     1       0.238  18.225 -17.311  1.00  0.00    -0.078 N 
ATOM     18  H43 UNL     1       0.191  18.162 -16.294  1.00  0.00     0.274 HD
ATOM     19  H42 UNL     1      -0.184  19.144 -17.445  1.00  0.00     0.274 HD
ATOM     20  H41 UNL     1      -0.336  17.500 -17.742  1.00  0.00     0.274 HD
ENDBRANCH  16  17
ENDBRANCH  15  16
ENDBRANCH  12  15
ENDBRANCH  11  12
ENDBRANCH   1  11
TORSDOF 8
ENDMDL
MODEL 5
REMARK VINA RESULT: -5.398204536      1.387      7.125
REMARK  8 active torsions:
REMARK  status: ('A' for Active; 'I' for Inactive)
REMARK    1  A    between atoms: N1_2  and  C4_5 
REMARK    2  A    between atoms: C4_5  and  C5_6 
REMARK    3  A    between atoms: N2_7  and  C6_8 
REMARK    4  A    between atoms: C6_8  and  C7_9 
REMARK    5  A    between atoms: C7_9  and  N3_10 
REMARK    6  A    between atoms: N3_10  and  C8_13 
REMARK    7  A    between atoms: C8_13  and  C9_14 
REMARK    8  A    between atoms: C9_14  and  N4_15 
ROOT
HETATM    1  C6  UNL     1       3.237  20.329 -13.838  1.00  0.00     0.178 C 
ENDROOT
BRANCH   1   2
HETATM    2  N2  UNL     1       3.758  19.688 -12.635  1.00  0.00    -0.275 N 
HETATM    3  C5  UNL     1       4.103  19.788 -11.341  1.00  0.00     0.139 A 
HETATM    4  N5  UNL     1       4.249  18.547 -12.006  1.00  0.00    -0.283 N 
ATOM      5  H5  UNL     1       4.514  17.562 -12.017  1.00  0.00     0.188 HD
BRANCH   3   6
HETATM    6  C4  UNL     1       4.217  20.650 -10.133  1.00  0.00     0.315 C 
BRANCH   6   7
HETATM    7  N1  UNL     1       3.654  19.907  -9.023  1.00  0.00    -0.072 N 
HETATM    8  C1  UNL     1       4.611  18.924  -8.567  1.00  0.00     0.272 C 
HETATM    9  C2  UNL     1       2.434  19.234  -9.360  1.00  0.00     0.272 C 
HETATM   10  C3  UNL     1       3.433  20.874  -7.946  1.00  0.00     0.272 C 
ENDBRANCH   6   7
ENDBRANCH   3   6
ENDBRANCH   1   2
BRANCH   1  11
HETATM   11  C7  UNL     1       2.653  19.248 -14.699  1.00  0.00     0.254 C 
BRANCH  11  12
HETATM   12  N3  UNL     1       2.743  19.518 -16.107  1.00  0.00    -0.072 N 
ATOM     13  H32 UNL     1       2.047  20.192 -16.425  1.00  0.00     0.277 HD
ATOM     14  H31 UNL     1       3.574  20.055 -16.353  1.00  0.00     0.277 HD
BRANCH  12  15
HETATM   15  C8  UNL     1       2.663  18.259 -16.809  1.00  0.00     0.259 C 
BRANCH  15  16
HETATM   16  C9  UNL     1       1.553  18.226 -17.824  1.00  0.00     0.257 C 
BRANCH  16  17
HETATM   17  N4  UNL     1       0.249  18.244 -17.252  1.00  0.00    -0.078 N 
ATOM     18  H43 UNL     1      -0.162  17.311 -17.267  1.00  0.00     0.274 HD
ATOM     19  H42 UNL     1       0.301  18.392 -16.244  1.00  0.00     0.274 HD
ATOM     20  H41 UNL     1      -0.381  18.921 -17.682  1.00  0.00     0.274 HD
ENDBRANCH  16  17
ENDBRANCH  15  16
ENDBRANCH  12  15
ENDBRANCH  11  12
ENDBRANCH   1  11
TORSDOF 8
ENDMDL
