MODEL 1
REMARK VINA RESULT: -7.204059572      0.000      0.000
REMARK  7 active torsions:
REMARK  status: ('A' for Active; 'I' for Inactive)
REMARK    1  A    between atoms: C1_2  and  N1_3 
REMARK    2  A    between atoms: N1_3  and  C2_5 
REMARK    3  A    between atoms: C2_5  and  C3_6 
REMARK    4  A    between atoms: C4_7  and  C5_8 
REMARK    5  A    between atoms: C7_10  and  O2_11 
REMARK    6  A    between atoms: C10_15  and  N2_16 
REMARK    7  A    between atoms: N2_16  and  C11_18 
ROOT
HETATM    1  C5  UNL     1       3.447  19.729 -13.074  1.00  0.00    -0.033 A 
HETATM    2  C6  UNL     1       3.632  20.961 -13.460  1.00  0.00     0.018 A 
HETATM    3  C7  UNL     1       4.426  22.144 -12.561  1.00  0.00     0.164 A 
HETATM    4  C8  UNL     1       4.614  21.223 -11.601  1.00  0.00     0.007 A 
HETATM    5  C9  UNL     1       4.476  20.393 -11.336  1.00  0.00     0.002 A 
HETATM    6  C10 UNL     1       3.911  19.153 -11.614  1.00  0.00     0.139 A 
ENDROOT
BRANCH   1   7
HETATM    7  C4  UNL     1       2.770  18.752 -13.878  1.00  0.00     0.007 C 
HETATM    8  C3  UNL     1       2.376  18.945 -15.096  1.00  0.00    -0.007 C 
BRANCH   8   9
HETATM    9  C2  UNL     1       1.689  17.819 -15.790  1.00  0.00     0.149 C 
BRANCH   9  10
HETATM   10  N1  UNL     1       0.950  18.333 -16.916  1.00  0.00    -0.365 N 
ATOM     11  H1  UNL     1      -0.018  18.633 -16.800  1.00  0.00     0.162 HD
BRANCH  10  12
HETATM   12  C1  UNL     1       1.577  18.416 -18.182  1.00  0.00     0.348 C 
HETATM   13  O1  UNL     1       1.222  19.262 -19.026  1.00  0.00    -0.284 OA
ENDBRANCH  10  12
ENDBRANCH   9  10
ENDBRANCH   8   9
ENDBRANCH   1   7
BRANCH   6  14
HETATM   14  N2  UNL     1       2.734  18.990 -10.820  1.00  0.00    -0.356 N 
ATOM     15  H2  UNL     1       1.858  19.396 -11.149  1.00  0.00     0.162 HD
BRANCH  14  16
HETATM   16  C11 UNL     1       2.741  18.291  -9.603  1.00  0.00     0.349 C 
HETATM   17  O3  UNL     1       2.442  17.076  -9.535  1.00  0.00    -0.284 OA
ENDBRANCH  14  16
ENDBRANCH   6  14
BRANCH   3  18
HETATM   18  O2  UNL     1       3.463  23.090 -12.381  1.00  0.00    -0.388 OA
ATOM     19  H2  UNL     1       3.021  22.799 -11.593  1.00  0.00     0.210 HD
ENDBRANCH   3  18
TORSDOF 7
ENDMDL
MODEL 2
REMARK VINA RESULT: -6.505835555      2.161      5.824
REMARK  7 active torsions:
REMARK  status: ('A' for Active; 'I' for Inactive)
REMARK    1  A    between atoms: C1_2  and  N1_3 
REMARK    2  A    between atoms: N1_3  and  C2_5 
REMARK    3  A    between atoms: C2_5  and  C3_6 
REMARK    4  A    between atoms: C4_7  and  C5_8 
REMARK    5  A    between atoms: C7_10  and  O2_11 
REMARK    6  A    between atoms: C10_15  and  N2_16 
REMARK    7  A    between atoms: N2_16  and  C11_18 
ROOT
HETATM    1  C5  UNL     1       3.008  18.862 -13.430  1.00  0.00    -0.033 A 
HETATM    2  C6  UNL     1       2.256  18.120 -14.194  1.00  0.00     0.018 A 
HETATM    3  C7  UNL     1       2.030  18.357 -15.847  1.00  0.00     0.164 A 
HETATM    4  C8  UNL     1       2.856  19.412 -15.761  1.00  0.00     0.007 A 
HETATM    5  C9  UNL     1       3.354  19.921 -15.240  1.00  0.00     0.002 A 
HETATM    6  C10 UNL     1       3.811  20.188 -13.954  1.00  0.00     0.139 A 
ENDROOT
BRANCH   1   7
HETATM    7  C4  UNL     1       3.176  18.617 -12.025  1.00  0.00     0.007 C 
HETATM    8  C3  UNL     1       2.215  18.620 -11.158  1.00  0.00    -0.007 C 
BRANCH   8   9
HETATM    9  C2  UNL     1       2.564  18.342  -9.735  1.00  0.00     0.149 C 
BRANCH   9  10
HETATM   10  N1  UNL     1       2.636  19.586  -9.010  1.00  0.00    -0.365 N 
ATOM     11  H1  UNL     1       1.783  20.052  -8.703  1.00  0.00     0.162 HD
BRANCH  10  12
HETATM   12  C1  UNL     1       3.901  20.154  -8.727  1.00  0.00     0.348 C 
HETATM   13  O1  UNL     1       4.956  19.606  -9.100  1.00  0.00    -0.284 OA
ENDBRANCH  10  12
ENDBRANCH   9  10
ENDBRANCH   8   9
ENDBRANCH   1   7
BRANCH   6  14
HETATM   14  N2  UNL     1       3.127  21.335 -13.446  1.00  0.00    -0.356 N 
ATOM     15  H2  UNL     1       2.137  21.452 -13.658  1.00  0.00     0.162 HD
BRANCH  14  16
HETATM   16  C11 UNL     1       3.773  22.308 -12.666  1.00  0.00     0.349 C 
HETATM   17  O3  UNL     1       4.939  22.146 -12.237  1.00  0.00    -0.284 OA
ENDBRANCH  14  16
ENDBRANCH   6  14
BRANCH   3  18
HETATM   18  O2  UNL     1       0.690  18.579 -15.945  1.00  0.00    -0.388 OA
ATOM     19  H2  UNL     1       0.468  18.182 -16.778  1.00  0.00     0.210 HD
ENDBRANCH   3  18
TORSDOF 7
ENDMDL
MODEL 3
REMARK VINA RESULT: -6.404612644      2.382      6.242
REMARK  7 active torsions:
REMARK  status: ('A' for Active; 'I' for Inactive)
REMARK    1  A    between atoms: C1_2  and  N1_3 
REMARK    2  A    between atoms: N1_3  and  C2_5 
REMARK    3  A    between atoms: C2_5  and  C3_6 
REMARK    4  A    between atoms: C4_7  and  C5_8 
REMARK    5  A    between atoms: C7_10  and  O2_11 
REMARK    6  A    between atoms: C10_15  and  N2_16 
REMARK    7  A    between atoms: N2_16  and  C11_18 
ROOT
HETATM    1  C5  UNL     1       2.837  18.977 -13.176  1.00  0.00    -0.033 A 
HETATM    2  C6  UNL     1       2.108  18.209 -13.938  1.00  0.00     0.018 A 
HETATM    3  C7  UNL     1       2.089  18.260 -15.621  1.00  0.00     0.164 A 
HETATM    4  C8  UNL     1       2.992  19.250 -15.556  1.00  0.00     0.007 A 
HETATM    5  C9  UNL     1       3.474  19.778 -15.039  1.00  0.00     0.002 A 
HETATM    6  C10 UNL     1       3.810  20.163 -13.745  1.00  0.00     0.139 A 
ENDROOT
BRANCH   1   7
HETATM    7  C4  UNL     1       2.825  18.893 -11.743  1.00  0.00     0.007 C 
HETATM    8  C3  UNL     1       3.850  19.112 -10.984  1.00  0.00    -0.007 C 
BRANCH   8   9
HETATM    9  C2  UNL     1       3.663  18.986  -9.511  1.00  0.00     0.149 C 
BRANCH   9  10
HETATM   10  N1  UNL     1       3.427  20.291  -8.947  1.00  0.00    -0.365 N 
ATOM     11  H1  UNL     1       2.942  21.006  -9.489  1.00  0.00     0.162 HD
BRANCH  10  12
HETATM   12  C1  UNL     1       3.875  20.573  -7.634  1.00  0.00     0.348 C 
HETATM   13  O1  UNL     1       3.473  21.577  -7.014  1.00  0.00    -0.284 OA
ENDBRANCH  10  12
ENDBRANCH   9  10
ENDBRANCH   8   9
ENDBRANCH   1   7
BRANCH   6  14
HETATM   14  N2  UNL     1       3.182  21.414 -13.455  1.00  0.00    -0.356 N 
ATOM     15  H2  UNL     1       2.241  21.586 -13.808  1.00  0.00     0.162 HD
BRANCH  14  16
HETATM   16  C11 UNL     1       3.817  22.414 -12.701  1.00  0.00     0.349 C 
HETATM   17  O3  UNL     1       4.990  22.282 -12.281  1.00  0.00    -0.284 OA
ENDBRANCH  14  16
ENDBRANCH   6  14
BRANCH   3  18
HETATM   18  O2  UNL     1       0.793  18.572 -15.904  1.00  0.00    -0.388 OA
ATOM     19  H2  UNL     1       0.849  19.475 -16.192  1.00  0.00     0.210 HD
ENDBRANCH   3  18
TORSDOF 7
ENDMDL
MODEL 4
REMARK VINA RESULT: -6.376458396      2.115      2.357
REMARK  7 active torsions:
REMARK  status: ('A' for Active; 'I' for Inactive)
REMARK    1  A    between atoms: C1_2  and  N1_3 
REMARK    2  A    between atoms: N1_3  and  C2_5 
REMARK    3  A    between atoms: C2_5  and  C3_6 
REMARK    4  A    between atoms: C4_7  and  C5_8 
REMARK    5  A    between atoms: C7_10  and  O2_11 
REMARK    6  A    between atoms: C10_15  and  N2_16 
REMARK    7  A    between atoms: N2_16  and  C11_18 
ROOT
HETATM    1  C5  UNL     1       3.694  19.756 -12.889  1.00  0.00    -0.033 A 
HETATM    2  C6  UNL     1       3.798  20.970 -13.354  1.00  0.00     0.018 A 
HETATM    3  C7  UNL     1       4.438  22.276 -12.503  1.00  0.00     0.164 A 
HETATM    4  C8  UNL     1       4.645  21.443 -11.471  1.00  0.00     0.007 A 
HETATM    5  C9  UNL     1       4.561  20.624 -11.153  1.00  0.00     0.002 A 
HETATM    6  C10 UNL     1       4.117  19.323 -11.369  1.00  0.00     0.139 A 
ENDROOT
BRANCH   1   7
HETATM    7  C4  UNL     1       3.147  18.671 -13.654  1.00  0.00     0.007 C 
HETATM    8  C3  UNL     1       2.395  18.812 -14.698  1.00  0.00    -0.007 C 
BRANCH   8   9
HETATM    9  C2  UNL     1       1.914  17.576 -15.379  1.00  0.00     0.149 C 
BRANCH   9  10
HETATM   10  N1  UNL     1       1.903  16.485 -14.437  1.00  0.00    -0.365 N 
ATOM     11  H1  UNL     1       2.710  15.867 -14.357  1.00  0.00     0.162 HD
BRANCH  10  12
HETATM   12  C1  UNL     1       0.764  16.279 -13.623  1.00  0.00     0.348 C 
HETATM   13  O1  UNL     1       0.770  16.573 -12.412  1.00  0.00    -0.284 OA
ENDBRANCH  10  12
ENDBRANCH   9  10
ENDBRANCH   8   9
ENDBRANCH   1   7
BRANCH   6  14
HETATM   14  N2  UNL     1       2.914  19.114 -10.628  1.00  0.00    -0.356 N 
ATOM     15  H2  UNL     1       2.068  19.608 -10.912  1.00  0.00     0.162 HD
BRANCH  14  16
HETATM   16  C11 UNL     1       2.855  18.251  -9.522  1.00  0.00     0.349 C 
HETATM   17  O3  UNL     1       2.398  17.088  -9.613  1.00  0.00    -0.284 OA
ENDBRANCH  14  16
ENDBRANCH   6  14
BRANCH   3  18
HETATM   18  O2  UNL     1       3.391  23.145 -12.444  1.00  0.00    -0.388 OA
ATOM     19  H2  UNL     1       2.636  22.571 -12.441  1.00  0.00     0.210 HD
ENDBRANCH   3  18
TORSDOF 7
ENDMDL
MODEL 5
REMARK VINA RESULT: -6.258313283      2.495      3.592
REMARK  7 active torsions:
REMARK  status: ('A' for Active; 'I' for Inactive)
REMARK    1  A    between atoms: C1_2  and  N1_3 
REMARK    2  A    between atoms: N1_3  and  C2_5 
REMARK    3  A    between atoms: C2_5  and  C3_6 
REMARK    4  A    between atoms: C4_7  and  C5_8 
REMARK    5  A    between atoms: C7_10  and  O2_11 
REMARK    6  A    between atoms: C10_15  and  N2_16 
REMARK    7  A    between atoms: N2_16  and  C11_18 
ROOT
HETATM    1  C5  UNL     1       4.191  19.764 -10.165  1.00  0.00    -0.033 A 
HETATM    2  C6  UNL     1       4.041  20.891  -9.527  1.00  0.00     0.018 A 
HETATM    3  C7  UNL     1       3.920  21.042  -7.853  1.00  0.00     0.164 A 
HETATM    4  C8  UNL     1       4.045  19.708  -7.770  1.00  0.00     0.007 A 
HETATM    5  C9  UNL     1       4.133  18.945  -8.204  1.00  0.00     0.002 A 
HETATM    6  C10 UNL     1       4.225  18.301  -9.433  1.00  0.00     0.139 A 
ENDROOT
BRANCH   1   7
HETATM    7  C4  UNL     1       4.296  19.684 -11.595  1.00  0.00     0.007 C 
HETATM    8  C3  UNL     1       3.756  20.522 -12.421  1.00  0.00    -0.007 C 
BRANCH   8   9
HETATM    9  C2  UNL     1       3.969  20.293 -13.878  1.00  0.00     0.149 C 
BRANCH   9  10
HETATM   10  N1  UNL     1       2.721  19.908 -14.487  1.00  0.00    -0.365 N 
ATOM     11  H1  UNL     1       2.005  20.609 -14.681  1.00  0.00     0.162 HD
BRANCH  10  12
HETATM   12  C1  UNL     1       2.496  18.549 -14.815  1.00  0.00     0.348 C 
HETATM   13  O1  UNL     1       2.771  17.635 -14.014  1.00  0.00    -0.284 OA
ENDBRANCH  10  12
ENDBRANCH   9  10
ENDBRANCH   8   9
ENDBRANCH   1   7
BRANCH   6  14
HETATM   14  N2  UNL     1       2.984  17.650  -9.711  1.00  0.00    -0.356 N 
ATOM     15  H2  UNL     1       2.893  16.655  -9.506  1.00  0.00     0.162 HD
BRANCH  14  16
HETATM   16  C11 UNL     1       1.885  18.333 -10.255  1.00  0.00     0.349 C 
HETATM   17  O3  UNL     1       1.027  18.890  -9.531  1.00  0.00    -0.284 OA
ENDBRANCH  14  16
ENDBRANCH   6  14
BRANCH   3  18
HETATM   18  O2  UNL     1       2.688  21.597  -7.683  1.00  0.00    -0.388 OA
ATOM     19  H2  UNL     1       2.564  22.093  -8.483  1.00  0.00     0.210 HD
ENDBRANCH   3  18
TORSDOF 7
ENDMDL
