MODEL 1
REMARK VINA RESULT: -6.846156319      0.000      0.000
REMARK  7 active torsions:
REMARK  status: ('A' for Active; 'I' for Inactive)
REMARK    1  A    between atoms: C2_2  and  C3_3 
REMARK    2  A    between atoms: C3_3  and  N1_4 
REMARK    3  A    between atoms: N1_4  and  C4_6 
REMARK    4  A    between atoms: C6_11  and  N3_12 
REMARK    5  A    between atoms: N3_12  and  C7_14 
REMARK    6  A    between atoms: C7_14  and  C8_15 
REMARK    7  A    between atoms: C8_15  and  N4_16 
ROOT
HETATM    1  C4  UNL     1     -42.277 -19.531  -2.908  1.00  0.00     0.211 C 
HETATM    2  N2  UNL     1     -43.377 -20.222  -3.485  1.00  0.00    -0.336 N 
ATOM      3  H2  UNL     1     -44.128 -19.926  -4.108  1.00  0.00     0.164 HD
HETATM    4  C5  UNL     1     -43.059 -21.470  -2.885  1.00  0.00     0.245 C 
HETATM    5  O1  UNL     1     -43.546 -22.617  -3.006  1.00  0.00    -0.271 OA
HETATM    6  C6  UNL     1     -41.988 -20.846  -2.119  1.00  0.00     0.212 C 
ENDROOT
BRANCH   6   7
HETATM    7  N3  UNL     1     -42.236 -20.522  -0.735  1.00  0.00    -0.405 N 
ATOM      8  H3  UNL     1     -43.167 -20.244  -0.425  1.00  0.00     0.154 HD
BRANCH   7   9
HETATM    9  C7  UNL     1     -41.171 -20.597   0.176  1.00  0.00     0.136 C 
BRANCH   9  10
HETATM   10  C8  UNL     1     -40.865 -19.188   0.704  1.00  0.00     0.158 C 
BRANCH  10  11
HETATM   11  N4  UNL     1     -39.913 -18.623  -0.213  1.00  0.00    -0.341 N 
HETATM   12  N5  UNL     1     -40.169 -17.489  -0.638  1.00  0.00    -0.349 N 
ATOM     13  H52 UNL     1     -41.012 -16.996  -0.344  1.00  0.00     0.176 HD
ATOM     14  H51 UNL     1     -39.493 -17.088  -1.289  1.00  0.00     0.176 HD
ATOM     15  H4  UNL     1     -39.075 -19.129  -0.499  1.00  0.00     0.179 HD
ENDBRANCH  10  11
ENDBRANCH   9  10
ENDBRANCH   7   9
ENDBRANCH   6   7
BRANCH   1  16
HETATM   16  N1  UNL     1     -41.119 -19.195  -3.647  1.00  0.00    -0.396 N 
ATOM     17  H1  UNL     1     -40.536 -18.412  -3.351  1.00  0.00     0.155 HD
BRANCH  16  18
HETATM   18  C3  UNL     1     -40.768 -19.940  -4.795  1.00  0.00     0.142 C 
BRANCH  18  19
HETATM   19  C2  UNL     1     -40.648 -19.044  -6.018  1.00  0.00    -0.018 C 
HETATM   20  C1  UNL     1     -41.535 -19.202  -6.990  1.00  0.00     0.008 C 
ENDBRANCH  18  19
ENDBRANCH  16  18
ENDBRANCH   1  16
TORSDOF 7
ENDMDL
MODEL 2
REMARK VINA RESULT: -6.804226681      1.180      1.250
REMARK  7 active torsions:
REMARK  status: ('A' for Active; 'I' for Inactive)
REMARK    1  A    between atoms: C2_2  and  C3_3 
REMARK    2  A    between atoms: C3_3  and  N1_4 
REMARK    3  A    between atoms: N1_4  and  C4_6 
REMARK    4  A    between atoms: C6_11  and  N3_12 
REMARK    5  A    between atoms: N3_12  and  C7_14 
REMARK    6  A    between atoms: C7_14  and  C8_15 
REMARK    7  A    between atoms: C8_15  and  N4_16 
ROOT
HETATM    1  C4  UNL     1     -42.653 -20.757  -3.241  1.00  0.00     0.211 C 
HETATM    2  N2  UNL     1     -43.264 -22.030  -3.073  1.00  0.00    -0.336 N 
ATOM      3  H2  UNL     1     -43.872 -22.589  -3.670  1.00  0.00     0.164 HD
HETATM    4  C5  UNL     1     -42.724 -22.248  -1.776  1.00  0.00     0.245 C 
HETATM    5  O1  UNL     1     -42.751 -23.230  -1.001  1.00  0.00    -0.271 OA
HETATM    6  C6  UNL     1     -42.169 -20.900  -1.764  1.00  0.00     0.212 C 
ENDROOT
BRANCH   6   7
HETATM    7  N3  UNL     1     -42.874 -19.877  -1.032  1.00  0.00    -0.405 N 
ATOM      8  H3  UNL     1     -43.879 -19.949  -0.874  1.00  0.00     0.154 HD
BRANCH   7   9
HETATM    9  C7  UNL     1     -42.150 -18.780  -0.541  1.00  0.00     0.136 C 
BRANCH   9  10
HETATM   10  C8  UNL     1     -40.913 -19.293   0.212  1.00  0.00     0.158 C 
BRANCH  10  11
HETATM   11  N4  UNL     1     -39.994 -18.189   0.256  1.00  0.00    -0.341 N 
HETATM   12  N5  UNL     1     -40.150 -17.312  -0.604  1.00  0.00    -0.349 N 
ATOM     13  H52 UNL     1     -40.894 -17.384  -1.298  1.00  0.00     0.176 HD
ATOM     14  H51 UNL     1     -39.498 -16.528  -0.573  1.00  0.00     0.176 HD
ATOM     15  H4  UNL     1     -39.254 -18.131   0.956  1.00  0.00     0.179 HD
ENDBRANCH  10  11
ENDBRANCH   9  10
ENDBRANCH   7   9
ENDBRANCH   6   7
BRANCH   1  16
HETATM   16  N1  UNL     1     -41.519 -20.562  -4.063  1.00  0.00    -0.396 N 
ATOM     17  H1  UNL     1     -41.044 -21.366  -4.473  1.00  0.00     0.155 HD
BRANCH  16  18
HETATM   18  C3  UNL     1     -41.042 -19.257  -4.316  1.00  0.00     0.142 C 
BRANCH  18  19
HETATM   19  C2  UNL     1     -40.570 -19.113  -5.754  1.00  0.00    -0.018 C 
HETATM   20  C1  UNL     1     -41.460 -19.292  -6.719  1.00  0.00     0.008 C 
ENDBRANCH  18  19
ENDBRANCH  16  18
ENDBRANCH   1  16
TORSDOF 7
ENDMDL
MODEL 3
REMARK VINA RESULT: -6.467828398      1.651      4.502
REMARK  7 active torsions:
REMARK  status: ('A' for Active; 'I' for Inactive)
REMARK    1  A    between atoms: C2_2  and  C3_3 
REMARK    2  A    between atoms: C3_3  and  N1_4 
REMARK    3  A    between atoms: N1_4  and  C4_6 
REMARK    4  A    between atoms: C6_11  and  N3_12 
REMARK    5  A    between atoms: N3_12  and  C7_14 
REMARK    6  A    between atoms: C7_14  and  C8_15 
REMARK    7  A    between atoms: C8_15  and  N4_16 
ROOT
HETATM    1  C4  UNL     1     -41.778 -20.688  -1.428  1.00  0.00     0.211 C 
HETATM    2  N2  UNL     1     -42.331 -21.998  -1.464  1.00  0.00    -0.336 N 
ATOM      3  H2  UNL     1     -42.258 -22.796  -0.835  1.00  0.00     0.164 HD
HETATM    4  C5  UNL     1     -43.022 -21.798  -2.690  1.00  0.00     0.245 C 
HETATM    5  O1  UNL     1     -43.829 -22.507  -3.332  1.00  0.00    -0.271 OA
HETATM    6  C6  UNL     1     -42.401 -20.488  -2.845  1.00  0.00     0.212 C 
ENDROOT
BRANCH   6   7
HETATM    7  N3  UNL     1     -41.278 -20.366  -3.741  1.00  0.00    -0.405 N 
ATOM      8  H3  UNL     1     -40.577 -21.105  -3.801  1.00  0.00     0.154 HD
BRANCH   7   9
HETATM    9  C7  UNL     1     -41.167 -19.210  -4.528  1.00  0.00     0.136 C 
BRANCH   9  10
HETATM   10  C8  UNL     1     -41.712 -19.507  -5.933  1.00  0.00     0.158 C 
BRANCH  10  11
HETATM   11  N4  UNL     1     -40.718 -19.021  -6.850  1.00  0.00    -0.341 N 
HETATM   12  N5  UNL     1     -39.560 -18.956  -6.419  1.00  0.00    -0.349 N 
ATOM     13  H52 UNL     1     -39.339 -19.236  -5.464  1.00  0.00     0.176 HD
ATOM     14  H51 UNL     1     -38.854 -18.611  -7.071  1.00  0.00     0.176 HD
ATOM     15  H4  UNL     1     -40.954 -18.743  -7.803  1.00  0.00     0.179 HD
ENDBRANCH  10  11
ENDBRANCH   9  10
ENDBRANCH   7   9
ENDBRANCH   6   7
BRANCH   1  16
HETATM   16  N1  UNL     1     -42.279 -19.676  -0.577  1.00  0.00    -0.396 N 
ATOM     17  H1  UNL     1     -43.255 -19.389  -0.648  1.00  0.00     0.155 HD
BRANCH  16  18
HETATM   18  C3  UNL     1     -41.432 -19.061   0.372  1.00  0.00     0.142 C 
BRANCH  18  19
HETATM   19  C2  UNL     1     -40.186 -18.495  -0.289  1.00  0.00    -0.018 C 
HETATM   20  C1  UNL     1     -40.339 -17.494  -1.145  1.00  0.00     0.008 C 
ENDBRANCH  18  19
ENDBRANCH  16  18
ENDBRANCH   1  16
TORSDOF 7
ENDMDL
MODEL 4
REMARK VINA RESULT: -6.267801498      1.741      4.724
REMARK  7 active torsions:
REMARK  status: ('A' for Active; 'I' for Inactive)
REMARK    1  A    between atoms: C2_2  and  C3_3 
REMARK    2  A    between atoms: C3_3  and  N1_4 
REMARK    3  A    between atoms: N1_4  and  C4_6 
REMARK    4  A    between atoms: C6_11  and  N3_12 
REMARK    5  A    between atoms: N3_12  and  C7_14 
REMARK    6  A    between atoms: C7_14  and  C8_15 
REMARK    7  A    between atoms: C8_15  and  N4_16 
ROOT
HETATM    1  C4  UNL     1     -41.619 -19.933  -2.475  1.00  0.00     0.211 C 
HETATM    2  N2  UNL     1     -41.816 -21.262  -2.012  1.00  0.00    -0.336 N 
ATOM      3  H2  UNL     1     -41.354 -21.820  -1.295  1.00  0.00     0.164 HD
HETATM    4  C5  UNL     1     -42.888 -21.538  -2.903  1.00  0.00     0.245 C 
HETATM    5  O1  UNL     1     -43.659 -22.517  -3.024  1.00  0.00    -0.271 OA
HETATM    6  C6  UNL     1     -42.690 -20.254  -3.564  1.00  0.00     0.212 C 
ENDROOT
BRANCH   6   7
HETATM    7  N3  UNL     1     -41.977 -20.234  -4.817  1.00  0.00    -0.405 N 
ATOM      8  H3  UNL     1     -41.296 -20.960  -5.041  1.00  0.00     0.154 HD
BRANCH   7   9
HETATM    9  C7  UNL     1     -42.237 -19.195  -5.724  1.00  0.00     0.136 C 
BRANCH   9  10
HETATM   10  C8  UNL     1     -41.113 -19.149  -6.769  1.00  0.00     0.158 C 
BRANCH  10  11
HETATM   11  N4  UNL     1     -39.893 -18.985  -6.025  1.00  0.00    -0.341 N 
HETATM   12  N5  UNL     1     -38.860 -18.839  -6.692  1.00  0.00    -0.349 N 
ATOM     13  H52 UNL     1     -38.890 -18.838  -7.711  1.00  0.00     0.176 HD
ATOM     14  H51 UNL     1     -37.995 -18.723  -6.164  1.00  0.00     0.176 HD
ATOM     15  H4  UNL     1     -39.879 -18.990  -5.005  1.00  0.00     0.179 HD
ENDBRANCH  10  11
ENDBRANCH   9  10
ENDBRANCH   7   9
ENDBRANCH   6   7
BRANCH   1  16
HETATM   16  N1  UNL     1     -42.054 -18.802  -1.746  1.00  0.00    -0.396 N 
ATOM     17  H1  UNL     1     -43.052 -18.640  -1.607  1.00  0.00     0.155 HD
BRANCH  16  18
HETATM   18  C3  UNL     1     -41.112 -17.897  -1.209  1.00  0.00     0.142 C 
BRANCH  18  19
HETATM   19  C2  UNL     1     -40.257 -18.561  -0.142  1.00  0.00    -0.018 C 
HETATM   20  C1  UNL     1     -40.876 -19.218   0.828  1.00  0.00     0.008 C 
ENDBRANCH  18  19
ENDBRANCH  16  18
ENDBRANCH   1  16
TORSDOF 7
ENDMDL
MODEL 5
REMARK VINA RESULT: -6.150707035      1.422      1.723
REMARK  7 active torsions:
REMARK  status: ('A' for Active; 'I' for Inactive)
REMARK    1  A    between atoms: C2_2  and  C3_3 
REMARK    2  A    between atoms: C3_3  and  N1_4 
REMARK    3  A    between atoms: N1_4  and  C4_6 
REMARK    4  A    between atoms: C6_11  and  N3_12 
REMARK    5  A    between atoms: N3_12  and  C7_14 
REMARK    6  A    between atoms: C7_14  and  C8_15 
REMARK    7  A    between atoms: C8_15  and  N4_16 
ROOT
HETATM    1  C4  UNL     1     -43.025 -20.160  -3.551  1.00  0.00     0.211 C 
HETATM    2  N2  UNL     1     -43.641 -21.375  -3.142  1.00  0.00    -0.336 N 
ATOM      3  H2  UNL     1     -44.478 -21.865  -3.456  1.00  0.00     0.164 HD
HETATM    4  C5  UNL     1     -42.676 -21.661  -2.138  1.00  0.00     0.245 C 
HETATM    5  O1  UNL     1     -42.500 -22.650  -1.391  1.00  0.00    -0.271 OA
HETATM    6  C6  UNL     1     -42.037 -20.371  -2.362  1.00  0.00     0.212 C 
ENDROOT
BRANCH   6   7
HETATM    7  N3  UNL     1     -42.319 -19.300  -1.438  1.00  0.00    -0.405 N 
ATOM      8  H3  UNL     1     -43.280 -19.068  -1.187  1.00  0.00     0.154 HD
BRANCH   7   9
HETATM    9  C7  UNL     1     -41.245 -18.581  -0.892  1.00  0.00     0.136 C 
BRANCH   9  10
HETATM   10  C8  UNL     1     -40.957 -19.110   0.521  1.00  0.00     0.158 C 
BRANCH  10  11
HETATM   11  N4  UNL     1     -40.666 -20.509   0.365  1.00  0.00    -0.341 N 
HETATM   12  N5  UNL     1     -41.145 -21.267   1.218  1.00  0.00    -0.349 N 
ATOM     13  H52 UNL     1     -41.713 -20.903   1.983  1.00  0.00     0.176 HD
ATOM     14  H51 UNL     1     -40.939 -22.260   1.107  1.00  0.00     0.176 HD
ATOM     15  H4  UNL     1     -40.095 -20.858  -0.406  1.00  0.00     0.179 HD
ENDBRANCH  10  11
ENDBRANCH   9  10
ENDBRANCH   7   9
ENDBRANCH   6   7
BRANCH   1  16
HETATM   16  N1  UNL     1     -42.269 -20.056  -4.742  1.00  0.00    -0.396 N 
ATOM     17  H1  UNL     1     -42.655 -20.402  -5.621  1.00  0.00     0.155 HD
BRANCH  16  18
HETATM   18  C3  UNL     1     -40.982 -19.476  -4.718  1.00  0.00     0.142 C 
BRANCH  18  19
HETATM   19  C2  UNL     1     -40.525 -19.091  -6.116  1.00  0.00    -0.018 C 
HETATM   20  C1  UNL     1     -41.415 -19.149  -7.096  1.00  0.00     0.008 C 
ENDBRANCH  18  19
ENDBRANCH  16  18
ENDBRANCH   1  16
TORSDOF 7
ENDMDL
