MODEL 1
REMARK VINA RESULT: -5.846710997      0.000      0.000
REMARK  6 active torsions:
REMARK  status: ('A' for Active; 'I' for Inactive)
REMARK    1  A    between atoms: N2_4  and  N3_6 
REMARK    2  A    between atoms: N3_6  and  C1_8 
REMARK    3  A    between atoms: C2_9  and  N4_10 
REMARK    4  A    between atoms: N4_10  and  C3_12 
REMARK    5  A    between atoms: C3_12  and  C4_13 
REMARK    6  A    between atoms: C4_13  and  N5_14 
ROOT
HETATM    1  N4  UNL     1     -40.833 -20.026   0.637  1.00  0.00    -0.396 N 
ATOM      2  H4  UNL     1     -39.973 -19.564   0.935  1.00  0.00     0.158 HD
ENDROOT
BRANCH   1   3
HETATM    3  C2  UNL     1     -41.233 -21.162   1.343  1.00  0.00     0.101 C 
HETATM    4  C1  UNL     1     -40.841 -21.359   2.579  1.00  0.00     0.125 C 
BRANCH   4   5
HETATM    5  N3  UNL     1     -41.262 -22.539   3.298  1.00  0.00    -0.297 N 
ATOM      6  H3  UNL     1     -40.778 -23.430   3.189  1.00  0.00     0.187 HD
BRANCH   5   7
HETATM    7  N2  UNL     1     -42.351 -22.407   4.142  1.00  0.00    -0.250 N 
HETATM    8  N1  UNL     1     -42.290 -22.831   5.324  1.00  0.00    -0.331 N 
ATOM      9  H12 UNL     1     -41.427 -23.270   5.646  1.00  0.00     0.178 HD
ATOM     10  H11 UNL     1     -43.093 -22.734   5.945  1.00  0.00     0.178 HD
ATOM     11  H2  UNL     1     -43.206 -21.966   3.804  1.00  0.00     0.207 HD
ENDBRANCH   5   7
ENDBRANCH   4   5
ENDBRANCH   1   3
BRANCH   1  12
HETATM   12  C3  UNL     1     -41.543 -19.455  -0.483  1.00  0.00     0.147 C 
BRANCH  12  13
HETATM   13  C4  UNL     1     -42.558 -20.410  -1.075  1.00  0.00     0.261 C 
BRANCH  13  14
HETATM   14  N5  UNL     1     -42.447 -20.426  -2.453  1.00  0.00    -0.011 N 
HETATM   15  C5  UNL     1     -41.916 -19.317  -3.183  1.00  0.00     0.272 C 
HETATM   16  C6  UNL     1     -41.912 -19.954  -4.586  1.00  0.00     0.304 C 
HETATM   17  N6  UNL     1     -42.642 -21.195  -4.255  1.00  0.00     0.142 N 
HETATM   18  C7  UNL     1     -41.869 -21.617  -3.086  1.00  0.00     0.512 C 
HETATM   19  C8  UNL     1     -43.632 -20.726  -3.269  1.00  0.00     0.512 C 
ENDBRANCH  13  14
ENDBRANCH  12  13
ENDBRANCH   1  12
TORSDOF 6
ENDMDL
MODEL 2
REMARK VINA RESULT: -5.594269302      2.689      7.061
REMARK  6 active torsions:
REMARK  status: ('A' for Active; 'I' for Inactive)
REMARK    1  A    between atoms: N2_4  and  N3_6 
REMARK    2  A    between atoms: N3_6  and  C1_8 
REMARK    3  A    between atoms: C2_9  and  N4_10 
REMARK    4  A    between atoms: N4_10  and  C3_12 
REMARK    5  A    between atoms: C3_12  and  C4_13 
REMARK    6  A    between atoms: C4_13  and  N5_14 
ROOT
HETATM    1  N4  UNL     1     -42.640 -20.616  -4.288  1.00  0.00    -0.396 N 
ATOM      2  H4  UNL     1     -43.302 -21.227  -4.765  1.00  0.00     0.158 HD
ENDROOT
BRANCH   1   3
HETATM    3  C2  UNL     1     -41.557 -20.135  -5.027  1.00  0.00     0.101 C 
HETATM    4  C1  UNL     1     -41.746 -19.456  -6.134  1.00  0.00     0.125 C 
BRANCH   4   5
HETATM    5  N3  UNL     1     -40.618 -18.966  -6.889  1.00  0.00    -0.297 N 
ATOM      6  H3  UNL     1     -40.725 -18.619  -7.842  1.00  0.00     0.187 HD
BRANCH   5   7
HETATM    7  N2  UNL     1     -39.383 -18.985  -6.262  1.00  0.00    -0.250 N 
HETATM    8  N1  UNL     1     -38.348 -18.655  -6.895  1.00  0.00    -0.331 N 
ATOM      9  H12 UNL     1     -38.436 -18.374  -7.872  1.00  0.00     0.178 HD
ATOM     10  H11 UNL     1     -37.439 -18.670  -6.433  1.00  0.00     0.178 HD
ATOM     11  H2  UNL     1     -39.313 -19.269  -5.285  1.00  0.00     0.207 HD
ENDBRANCH   5   7
ENDBRANCH   4   5
ENDBRANCH   1   3
BRANCH   1  12
HETATM   12  C3  UNL     1     -42.892 -20.314  -2.899  1.00  0.00     0.147 C 
BRANCH  12  13
HETATM   13  C4  UNL     1     -42.043 -19.168  -2.390  1.00  0.00     0.261 C 
BRANCH  13  14
HETATM   14  N5  UNL     1     -41.623 -19.426  -1.098  1.00  0.00    -0.011 N 
HETATM   15  C5  UNL     1     -41.677 -20.737  -0.531  1.00  0.00     0.272 C 
HETATM   16  C6  UNL     1     -40.976 -20.431   0.806  1.00  0.00     0.304 C 
HETATM   17  N6  UNL     1     -40.907 -18.961   0.676  1.00  0.00     0.142 N 
HETATM   18  C7  UNL     1     -40.335 -18.871  -0.668  1.00  0.00     0.512 C 
HETATM   19  C8  UNL     1     -42.184 -18.643   0.012  1.00  0.00     0.512 C 
ENDBRANCH  13  14
ENDBRANCH  12  13
ENDBRANCH   1  12
TORSDOF 6
ENDMDL
MODEL 3
REMARK VINA RESULT: -5.406583010      3.143      6.637
REMARK  6 active torsions:
REMARK  status: ('A' for Active; 'I' for Inactive)
REMARK    1  A    between atoms: N2_4  and  N3_6 
REMARK    2  A    between atoms: N3_6  and  C1_8 
REMARK    3  A    between atoms: C2_9  and  N4_10 
REMARK    4  A    between atoms: N4_10  and  C3_12 
REMARK    5  A    between atoms: C3_12  and  C4_13 
REMARK    6  A    between atoms: C4_13  and  N5_14 
ROOT
HETATM    1  N4  UNL     1     -42.821 -21.658  -3.402  1.00  0.00    -0.396 N 
ATOM      2  H4  UNL     1     -43.244 -22.572  -3.562  1.00  0.00     0.158 HD
ENDROOT
BRANCH   1   3
HETATM    3  C2  UNL     1     -42.968 -20.694  -4.402  1.00  0.00     0.101 C 
HETATM    4  C1  UNL     1     -41.918 -20.171  -4.991  1.00  0.00     0.125 C 
BRANCH   4   5
HETATM    5  N3  UNL     1     -42.084 -19.175  -6.023  1.00  0.00    -0.297 N 
ATOM      6  H3  UNL     1     -42.924 -18.600  -6.078  1.00  0.00     0.187 HD
BRANCH   5   7
HETATM    7  N2  UNL     1     -41.052 -19.034  -6.935  1.00  0.00    -0.250 N 
HETATM    8  N1  UNL     1     -39.860 -18.986  -6.538  1.00  0.00    -0.331 N 
ATOM      9  H12 UNL     1     -39.670 -19.052  -5.538  1.00  0.00     0.178 HD
ATOM     10  H11 UNL     1     -39.100 -18.882  -7.210  1.00  0.00     0.178 HD
ATOM     11  H2  UNL     1     -41.258 -18.969  -7.932  1.00  0.00     0.207 HD
ENDBRANCH   5   7
ENDBRANCH   4   5
ENDBRANCH   1   3
BRANCH   1  12
HETATM   12  C3  UNL     1     -42.117 -21.457  -2.157  1.00  0.00     0.147 C 
BRANCH  12  13
HETATM   13  C4  UNL     1     -42.770 -20.409  -1.282  1.00  0.00     0.261 C 
BRANCH  13  14
HETATM   14  N5  UNL     1     -41.839 -19.457  -0.908  1.00  0.00    -0.011 N 
HETATM   15  C5  UNL     1     -40.926 -19.673   0.171  1.00  0.00     0.272 C 
HETATM   16  C6  UNL     1     -40.092 -18.387   0.017  1.00  0.00     0.304 C 
HETATM   17  N6  UNL     1     -40.924 -17.716  -1.003  1.00  0.00     0.142 N 
HETATM   18  C7  UNL     1     -41.047 -18.814  -1.963  1.00  0.00     0.512 C 
HETATM   19  C8  UNL     1     -42.289 -18.094  -0.594  1.00  0.00     0.512 C 
ENDBRANCH  13  14
ENDBRANCH  12  13
ENDBRANCH   1  12
TORSDOF 6
ENDMDL
MODEL 4
REMARK VINA RESULT: -5.262180174      2.848      3.939
REMARK  6 active torsions:
REMARK  status: ('A' for Active; 'I' for Inactive)
REMARK    1  A    between atoms: N2_4  and  N3_6 
REMARK    2  A    between atoms: N3_6  and  C1_8 
REMARK    3  A    between atoms: C2_9  and  N4_10 
REMARK    4  A    between atoms: N4_10  and  C3_12 
REMARK    5  A    between atoms: C3_12  and  C4_13 
REMARK    6  A    between atoms: C4_13  and  N5_14 
ROOT
HETATM    1  N4  UNL     1     -42.635 -21.545  -1.139  1.00  0.00    -0.396 N 
ATOM      2  H4  UNL     1     -43.499 -21.766  -0.644  1.00  0.00     0.158 HD
ENDROOT
BRANCH   1   3
HETATM    3  C2  UNL     1     -41.638 -20.874  -0.428  1.00  0.00     0.101 C 
HETATM    4  C1  UNL     1     -41.718 -19.582  -0.212  1.00  0.00     0.125 C 
BRANCH   4   5
HETATM    5  N3  UNL     1     -40.679 -18.901   0.523  1.00  0.00    -0.297 N 
ATOM      6  H3  UNL     1     -40.424 -19.182   1.470  1.00  0.00     0.187 HD
BRANCH   5   7
HETATM    7  N2  UNL     1     -40.044 -17.847  -0.112  1.00  0.00    -0.250 N 
HETATM    8  N1  UNL     1     -40.659 -17.162  -0.967  1.00  0.00    -0.331 N 
ATOM      9  H12 UNL     1     -41.629 -17.395  -1.182  1.00  0.00     0.178 HD
ATOM     10  H11 UNL     1     -40.191 -16.386  -1.436  1.00  0.00     0.178 HD
ATOM     11  H2  UNL     1     -39.074 -17.627   0.113  1.00  0.00     0.207 HD
ENDBRANCH   5   7
ENDBRANCH   4   5
ENDBRANCH   1   3
BRANCH   1  12
HETATM   12  C3  UNL     1     -42.535 -21.950  -2.521  1.00  0.00     0.147 C 
BRANCH  12  13
HETATM   13  C4  UNL     1     -43.308 -21.040  -3.451  1.00  0.00     0.261 C 
BRANCH  13  14
HETATM   14  N5  UNL     1     -42.434 -20.314  -4.239  1.00  0.00    -0.011 N 
HETATM   15  C5  UNL     1     -42.625 -20.169  -5.648  1.00  0.00     0.272 C 
HETATM   16  C6  UNL     1     -41.473 -19.186  -5.930  1.00  0.00     0.304 C 
HETATM   17  N6  UNL     1     -40.836 -19.220  -4.597  1.00  0.00     0.142 N 
HETATM   18  C7  UNL     1     -42.019 -18.988  -3.767  1.00  0.00     0.512 C 
HETATM   19  C8  UNL     1     -40.999 -20.632  -4.205  1.00  0.00     0.512 C 
ENDBRANCH  13  14
ENDBRANCH  12  13
ENDBRANCH   1  12
TORSDOF 6
ENDMDL
MODEL 5
REMARK VINA RESULT: -5.160806370      1.025      1.076
REMARK  6 active torsions:
REMARK  status: ('A' for Active; 'I' for Inactive)
REMARK    1  A    between atoms: N2_4  and  N3_6 
REMARK    2  A    between atoms: N3_6  and  C1_8 
REMARK    3  A    between atoms: C2_9  and  N4_10 
REMARK    4  A    between atoms: N4_10  and  C3_12 
REMARK    5  A    between atoms: C3_12  and  C4_13 
REMARK    6  A    between atoms: C4_13  and  N5_14 
ROOT
HETATM    1  N4  UNL     1     -42.653 -22.093   0.161  1.00  0.00    -0.396 N 
ATOM      2  H4  UNL     1     -43.431 -22.483  -0.372  1.00  0.00     0.158 HD
ENDROOT
BRANCH   1   3
HETATM    3  C2  UNL     1     -42.518 -22.493   1.492  1.00  0.00     0.101 C 
HETATM    4  C1  UNL     1     -41.444 -22.188   2.180  1.00  0.00     0.125 C 
BRANCH   4   5
HETATM    5  N3  UNL     1     -41.316 -22.609   3.556  1.00  0.00    -0.297 N 
ATOM      6  H3  UNL     1     -40.556 -23.217   3.858  1.00  0.00     0.187 HD
BRANCH   5   7
HETATM    7  N2  UNL     1     -42.272 -22.150   4.446  1.00  0.00    -0.250 N 
HETATM    8  N1  UNL     1     -42.553 -22.820   5.472  1.00  0.00    -0.331 N 
ATOM      9  H12 UNL     1     -42.066 -23.702   5.634  1.00  0.00     0.178 HD
ATOM     10  H11 UNL     1     -43.257 -22.483   6.128  1.00  0.00     0.178 HD
ATOM     11  H2  UNL     1     -42.750 -21.267   4.270  1.00  0.00     0.207 HD
ENDBRANCH   5   7
ENDBRANCH   4   5
ENDBRANCH   1   3
BRANCH   1  12
HETATM   12  C3  UNL     1     -41.775 -21.170  -0.518  1.00  0.00     0.147 C 
BRANCH  12  13
HETATM   13  C4  UNL     1     -42.529 -20.070  -1.235  1.00  0.00     0.261 C 
BRANCH  13  14
HETATM   14  N5  UNL     1     -42.470 -20.269  -2.603  1.00  0.00    -0.011 N 
HETATM   15  C5  UNL     1     -41.980 -19.264  -3.494  1.00  0.00     0.272 C 
HETATM   16  C6  UNL     1     -42.022 -20.083  -4.798  1.00  0.00     0.304 C 
HETATM   17  N6  UNL     1     -42.726 -21.273  -4.277  1.00  0.00     0.142 N 
HETATM   18  C7  UNL     1     -41.904 -21.530  -3.093  1.00  0.00     0.512 C 
HETATM   19  C8  UNL     1     -43.682 -20.682  -3.323  1.00  0.00     0.512 C 
ENDBRANCH  13  14
ENDBRANCH  12  13
ENDBRANCH   1  12
TORSDOF 6
ENDMDL
