MODEL 1
REMARK VINA RESULT: -5.839744672      0.000      0.000
REMARK  2 active torsions:
REMARK  status: ('A' for Active; 'I' for Inactive)
REMARK    1  A    between atoms: C2_2  and  C3_3 
REMARK    2  A    between atoms: C7_11  and  C9_13 
ROOT
HETATM    1  C3  UNL     1    -109.025-174.875 307.764  1.00  0.00     0.196 C 
HETATM    2  N1  UNL     1    -107.812-175.514 308.199  1.00  0.00    -0.065 N 
ATOM      3  H11 UNL     1    -106.976-175.312 307.652  1.00  0.00     0.278 HD
ATOM      4  H12 UNL     1    -107.757-176.523 308.052  1.00  0.00     0.278 HD
HETATM    5  C4  UNL     1    -107.799-175.063 309.593  1.00  0.00     0.197 C 
HETATM    6  C5  UNL     1    -106.698-175.731 310.376  1.00  0.00     0.041 C 
HETATM    7  C6  UNL     1    -109.171-175.430 310.052  1.00  0.00     0.099 C 
HETATM    8 BR1  UNL     1    -109.124-177.316 310.555  1.00  0.00    -0.088 Br
HETATM    9  C7  UNL     1    -110.018-175.259 308.785  1.00  0.00     0.012 C 
HETATM   10  C8  UNL     1    -110.776-176.515 308.583  1.00  0.00     0.020 C 
ENDROOT
BRANCH   9  11
HETATM   11  C9  UNL     1    -110.996-174.139 309.058  1.00  0.00     0.127 C 
HETATM   12 CL1  UNL     1    -112.581-174.663 308.416  1.00  0.00    -0.130 Cl
ENDBRANCH   9  11
BRANCH   1  13
HETATM   13  C2  UNL     1    -109.364-175.035 306.345  1.00  0.00     0.029 C 
HETATM   14  C1  UNL     1    -110.003-173.903 305.645  1.00  0.00     0.007 C 
ENDBRANCH   1  13
TORSDOF 2
ENDMDL
MODEL 2
REMARK VINA RESULT: -5.789616938      1.442      1.667
REMARK  2 active torsions:
REMARK  status: ('A' for Active; 'I' for Inactive)
REMARK    1  A    between atoms: C2_2  and  C3_3 
REMARK    2  A    between atoms: C7_11  and  C9_13 
ROOT
HETATM    1  C3  UNL     1    -107.755-176.027 307.497  1.00  0.00     0.196 C 
HETATM    2  N1  UNL     1    -106.981-176.698 308.507  1.00  0.00    -0.065 N 
ATOM      3  H11 UNL     1    -106.015-176.915 308.263  1.00  0.00     0.278 HD
ATOM      4  H12 UNL     1    -107.231-177.669 308.694  1.00  0.00     0.278 HD
HETATM    5  C4  UNL     1    -107.174-175.756 309.612  1.00  0.00     0.197 C 
HETATM    6  C5  UNL     1    -106.599-176.293 310.898  1.00  0.00     0.041 C 
HETATM    7  C6  UNL     1    -108.658-175.602 309.635  1.00  0.00     0.099 C 
HETATM    8 BR1  UNL     1    -109.377-177.106 310.654  1.00  0.00    -0.088 Br
HETATM    9  C7  UNL     1    -109.045-175.755 308.158  1.00  0.00     0.012 C 
HETATM   10  C8  UNL     1    -110.102-176.789 308.079  1.00  0.00     0.020 C 
ENDROOT
BRANCH   9  11
HETATM   11  C9  UNL     1    -109.627-174.431 307.719  1.00  0.00     0.127 C 
HETATM   12 CL1  UNL     1    -110.767-173.912 308.995  1.00  0.00    -0.130 Cl
ENDBRANCH   9  11
BRANCH   1  13
HETATM   13  C2  UNL     1    -107.753-176.646 306.166  1.00  0.00     0.029 C 
HETATM   14  C1  UNL     1    -107.442-175.797 304.999  1.00  0.00     0.007 C 
ENDBRANCH   1  13
TORSDOF 2
ENDMDL
MODEL 3
REMARK VINA RESULT: -5.735113293      1.987      3.498
REMARK  2 active torsions:
REMARK  status: ('A' for Active; 'I' for Inactive)
REMARK    1  A    between atoms: C2_2  and  C3_3 
REMARK    2  A    between atoms: C7_11  and  C9_13 
ROOT
HETATM    1  C3  UNL     1    -108.630-176.324 309.355  1.00  0.00     0.196 C 
HETATM    2  N1  UNL     1    -107.705-175.862 308.356  1.00  0.00    -0.065 N 
ATOM      3  H11 UNL     1    -106.720-176.068 308.524  1.00  0.00     0.278 HD
ATOM      4  H12 UNL     1    -107.563-174.853 308.307  1.00  0.00     0.278 HD
HETATM    5  C4  UNL     1    -108.304-176.489 307.175  1.00  0.00     0.197 C 
HETATM    6  C5  UNL     1    -107.629-176.032 305.908  1.00  0.00     0.041 C 
HETATM    7  C6  UNL     1    -109.730-176.059 307.285  1.00  0.00     0.099 C 
HETATM    8 BR1  UNL     1    -109.850-174.265 306.522  1.00  0.00    -0.088 Br
HETATM    9  C7  UNL     1    -109.954-175.986 308.801  1.00  0.00     0.012 C 
HETATM   10  C8  UNL     1    -110.516-174.649 309.104  1.00  0.00     0.020 C 
ENDROOT
BRANCH   9  11
HETATM   11  C9  UNL     1    -110.986-177.036 309.143  1.00  0.00     0.127 C 
HETATM   12 CL1  UNL     1    -112.523-176.521 308.389  1.00  0.00    -0.130 Cl
ENDBRANCH   9  11
BRANCH   1  13
HETATM   13  C2  UNL     1    -108.321-175.952 310.741  1.00  0.00     0.029 C 
HETATM   14  C1  UNL     1    -106.963-175.461 311.048  1.00  0.00     0.007 C 
ENDBRANCH   1  13
TORSDOF 2
ENDMDL
MODEL 4
REMARK VINA RESULT: -5.654181607      1.914      2.232
REMARK  2 active torsions:
REMARK  status: ('A' for Active; 'I' for Inactive)
REMARK    1  A    between atoms: C2_2  and  C3_3 
REMARK    2  A    between atoms: C7_11  and  C9_13 
ROOT
HETATM    1  C3  UNL     1    -109.225-174.756 308.546  1.00  0.00     0.196 C 
HETATM    2  N1  UNL     1    -108.019-174.562 309.305  1.00  0.00    -0.065 N 
ATOM      3  H11 UNL     1    -107.913-173.655 309.758  1.00  0.00     0.278 HD
ATOM      4  H12 UNL     1    -107.157-174.478 308.766  1.00  0.00     0.278 HD
HETATM    5  C4  UNL     1    -108.114-175.722 310.194  1.00  0.00     0.197 C 
HETATM    6  C5  UNL     1    -106.864-175.887 311.019  1.00  0.00     0.041 C 
HETATM    7  C6  UNL     1    -108.347-176.836 309.228  1.00  0.00     0.099 C 
HETATM    8 BR1  UNL     1    -106.600-177.377 308.540  1.00  0.00    -0.088 Br
HETATM    9  C7  UNL     1    -109.151-176.162 308.108  1.00  0.00     0.012 C 
HETATM   10  C8  UNL     1    -108.468-176.459 306.828  1.00  0.00     0.020 C 
ENDROOT
BRANCH   9  11
HETATM   11  C9  UNL     1    -110.514-176.814 308.094  1.00  0.00     0.127 C 
HETATM   12 CL1  UNL     1    -110.593-177.891 309.520  1.00  0.00    -0.130 Cl
ENDBRANCH   9  11
BRANCH   1  13
HETATM   13  C2  UNL     1    -109.538-173.717 307.557  1.00  0.00     0.029 C 
HETATM   14  C1  UNL     1    -110.949-173.323 307.378  1.00  0.00     0.007 C 
ENDBRANCH   1  13
TORSDOF 2
ENDMDL
MODEL 5
REMARK VINA RESULT: -5.623241273      3.241      4.844
REMARK  2 active torsions:
REMARK  status: ('A' for Active; 'I' for Inactive)
REMARK    1  A    between atoms: C2_2  and  C3_3 
REMARK    2  A    between atoms: C7_11  and  C9_13 
ROOT
HETATM    1  C3  UNL     1    -111.813-176.334 308.748  1.00  0.00     0.196 C 
HETATM    2  N1  UNL     1    -113.064-176.397 308.041  1.00  0.00    -0.065 N 
ATOM      3  H11 UNL     1    -113.695-177.153 308.309  1.00  0.00     0.278 HD
ATOM      4  H12 UNL     1    -113.014-176.684 307.063  1.00  0.00     0.278 HD
HETATM    5  C4  UNL     1    -113.542-175.035 308.292  1.00  0.00     0.197 C 
HETATM    6  C5  UNL     1    -114.795-174.740 307.508  1.00  0.00     0.041 C 
HETATM    7  C6  UNL     1    -112.367-174.212 307.879  1.00  0.00     0.099 C 
HETATM    8 BR1  UNL     1    -112.466-174.000 305.940  1.00  0.00    -0.088 Br
HETATM    9  C7  UNL     1    -111.174-175.108 308.236  1.00  0.00     0.012 C 
HETATM   10  C8  UNL     1    -110.323-175.217 307.029  1.00  0.00     0.020 C 
ENDROOT
BRANCH   9  11
HETATM   11  C9  UNL     1    -110.396-174.392 309.316  1.00  0.00     0.127 C 
HETATM   12 CL1  UNL     1    -108.662-174.583 308.923  1.00  0.00    -0.130 Cl
ENDBRANCH   9  11
BRANCH   1  13
HETATM   13  C2  UNL     1    -111.035-177.578 308.793  1.00  0.00     0.029 C 
HETATM   14  C1  UNL     1    -110.331-177.919 310.045  1.00  0.00     0.007 C 
ENDBRANCH   1  13
TORSDOF 2
ENDMDL
