MODEL 1
REMARK VINA RESULT: -7.950456683      0.000      0.000
REMARK  2 active torsions:
REMARK  status: ('A' for Active; 'I' for Inactive)
REMARK    1  A    between atoms: C3_3  and  C4_4 
REMARK    2  A    between atoms: C4_4  and  N1_7 
ROOT
HETATM    1  N1  UNL     1    -109.558-175.865 308.491  1.00  0.00    -0.027 N 
HETATM    2  C6  UNL     1    -109.807-174.977 309.616  1.00  0.00     0.277 C 
HETATM    3  C7  UNL     1    -109.911-177.189 308.886  1.00  0.00     0.247 C 
HETATM    4  C8  UNL     1    -111.316-177.596 308.628  1.00  0.00     0.085 C 
HETATM    5  C9  UNL     1    -112.257-176.501 308.386  1.00  0.00     0.022 A 
HETATM    6  N2  UNL     1    -113.563-176.260 308.656  1.00  0.00    -0.360 N 
ATOM      7  H2  UNL     1    -114.190-176.900 309.144  1.00  0.00     0.165 HD
HETATM    8  C10 UNL     1    -113.905-175.053 308.183  1.00  0.00     0.045 A 
HETATM    9  C11 UNL     1    -115.240-174.372 308.254  1.00  0.00     0.071 C 
HETATM   10  C12 UNL     1    -112.788-174.481 307.583  1.00  0.00     0.148 A 
HETATM   11  F2  UNL     1    -112.689-173.277 306.981  1.00  0.00    -0.203 F 
HETATM   12  C13 UNL     1    -111.770-175.383 307.711  1.00  0.00     0.031 A 
HETATM   13  C14 UNL     1    -110.331-175.454 307.321  1.00  0.00     0.285 C 
ENDROOT
BRANCH   1  14
HETATM   14  C4  UNL     1    -108.153-175.766 308.091  1.00  0.00     0.283 C 
HETATM   15  C5  UNL     1    -107.487-177.074 308.461  1.00  0.00     0.089 C 
HETATM   16  F1  UNL     1    -107.597-174.766 308.875  1.00  0.00    -0.207 F 
BRANCH  14  17
HETATM   17  C3  UNL     1    -108.000-175.448 306.670  1.00  0.00     0.042 C 
HETATM   18  C2  UNL     1    -107.399-176.253 305.811  1.00  0.00    -0.030 C 
HETATM   19  C1  UNL     1    -107.253-175.916 304.374  1.00  0.00     0.036 C 
ENDBRANCH  14  17
ENDBRANCH   1  14
TORSDOF 2
ENDMDL
MODEL 2
REMARK VINA RESULT: -7.840285225      2.535      3.551
REMARK  2 active torsions:
REMARK  status: ('A' for Active; 'I' for Inactive)
REMARK    1  A    between atoms: C3_3  and  C4_4 
REMARK    2  A    between atoms: C4_4  and  N1_7 
ROOT
HETATM    1  N1  UNL     1    -109.901-174.795 308.499  1.00  0.00    -0.027 N 
HETATM    2  C6  UNL     1    -109.148-173.558 308.359  1.00  0.00     0.277 C 
HETATM    3  C7  UNL     1    -111.214-174.466 308.946  1.00  0.00     0.247 C 
HETATM    4  C8  UNL     1    -112.223-174.217 307.885  1.00  0.00     0.085 C 
HETATM    5  C9  UNL     1    -111.683-173.940 306.552  1.00  0.00     0.022 A 
HETATM    6  N2  UNL     1    -112.037-173.163 305.500  1.00  0.00    -0.360 N 
ATOM      7  H2  UNL     1    -112.857-172.558 305.465  1.00  0.00     0.165 HD
HETATM    8  C10 UNL     1    -111.144-173.312 304.511  1.00  0.00     0.045 A 
HETATM    9  C11 UNL     1    -111.130-172.651 303.164  1.00  0.00     0.071 C 
HETATM   10  C12 UNL     1    -110.172-174.216 304.926  1.00  0.00     0.148 A 
HETATM   11  F2  UNL     1    -109.092-174.653 304.243  1.00  0.00    -0.203 F 
HETATM   12  C13 UNL     1    -110.512-174.603 306.192  1.00  0.00     0.031 A 
HETATM   13  C14 UNL     1    -109.955-175.519 307.231  1.00  0.00     0.285 C 
ENDROOT
BRANCH   1  14
HETATM   14  C4  UNL     1    -109.208-175.686 309.432  1.00  0.00     0.283 C 
HETATM   15  C5  UNL     1    -109.978-176.989 309.464  1.00  0.00     0.089 C 
HETATM   16  F1  UNL     1    -109.315-175.096 310.683  1.00  0.00    -0.207 F 
BRANCH  14  17
HETATM   17  C3  UNL     1    -107.801-175.881 309.075  1.00  0.00     0.042 C 
HETATM   18  C2  UNL     1    -107.210-177.063 309.094  1.00  0.00    -0.030 C 
HETATM   19  C1  UNL     1    -105.783-177.243 308.729  1.00  0.00     0.036 C 
ENDBRANCH  14  17
ENDBRANCH   1  14
TORSDOF 2
ENDMDL
MODEL 3
REMARK VINA RESULT: -7.608576729      2.272      5.302
REMARK  2 active torsions:
REMARK  status: ('A' for Active; 'I' for Inactive)
REMARK    1  A    between atoms: C3_3  and  C4_4 
REMARK    2  A    between atoms: C4_4  and  N1_7 
ROOT
HETATM    1  N1  UNL     1    -110.768-174.739 307.429  1.00  0.00    -0.027 N 
HETATM    2  C6  UNL     1    -111.162-176.029 307.972  1.00  0.00     0.277 C 
HETATM    3  C7  UNL     1    -110.474-173.870 308.520  1.00  0.00     0.247 C 
HETATM    4  C8  UNL     1    -109.066-173.866 308.993  1.00  0.00     0.085 C 
HETATM    5  C9  UNL     1    -108.257-175.014 308.576  1.00  0.00     0.022 A 
HETATM    6  N2  UNL     1    -107.252-175.745 309.117  1.00  0.00    -0.360 N 
ATOM      7  H2  UNL     1    -106.841-175.589 310.036  1.00  0.00     0.165 HD
HETATM    8  C10 UNL     1    -106.883-176.705 308.257  1.00  0.00     0.045 A 
HETATM    9  C11 UNL     1    -105.816-177.746 308.430  1.00  0.00     0.071 C 
HETATM   10  C12 UNL     1    -107.669-176.602 307.114  1.00  0.00     0.148 A 
HETATM   11  F2  UNL     1    -107.631-177.367 306.003  1.00  0.00    -0.203 F 
HETATM   12  C13 UNL     1    -108.518-175.551 307.317  1.00  0.00     0.031 A 
HETATM   13  C14 UNL     1    -109.607-174.875 306.551  1.00  0.00     0.285 C 
ENDROOT
BRANCH   1  14
HETATM   14  C4  UNL     1    -111.843-174.216 306.582  1.00  0.00     0.283 C 
HETATM   15  C5  UNL     1    -112.729-173.358 307.460  1.00  0.00     0.089 C 
HETATM   16  F1  UNL     1    -112.582-175.315 306.172  1.00  0.00    -0.207 F 
BRANCH  14  17
HETATM   17  C3  UNL     1    -111.331-173.481 305.423  1.00  0.00     0.042 C 
HETATM   18  C2  UNL     1    -111.916-173.505 304.238  1.00  0.00    -0.030 C 
HETATM   19  C1  UNL     1    -111.384-172.754 303.075  1.00  0.00     0.036 C 
ENDBRANCH  14  17
ENDBRANCH   1  14
TORSDOF 2
ENDMDL
MODEL 4
REMARK VINA RESULT: -7.587112448      1.863      2.628
REMARK  2 active torsions:
REMARK  status: ('A' for Active; 'I' for Inactive)
REMARK    1  A    between atoms: C3_3  and  C4_4 
REMARK    2  A    between atoms: C4_4  and  N1_7 
ROOT
HETATM    1  N1  UNL     1    -109.832-175.254 308.068  1.00  0.00    -0.027 N 
HETATM    2  C6  UNL     1    -110.240-176.636 307.870  1.00  0.00     0.277 C 
HETATM    3  C7  UNL     1    -109.558-174.686 306.789  1.00  0.00     0.247 C 
HETATM    4  C8  UNL     1    -110.703-174.031 306.106  1.00  0.00     0.085 C 
HETATM    5  C9  UNL     1    -112.030-174.389 306.613  1.00  0.00     0.022 A 
HETATM    6  N2  UNL     1    -113.264-174.557 306.079  1.00  0.00    -0.360 N 
ATOM      7  H2  UNL     1    -113.498-174.445 305.093  1.00  0.00     0.165 HD
HETATM    8  C10 UNL     1    -114.130-174.893 307.046  1.00  0.00     0.045 A 
HETATM    9  C11 UNL     1    -115.598-175.177 306.920  1.00  0.00     0.071 C 
HETATM   10  C12 UNL     1    -113.443-174.947 308.254  1.00  0.00     0.148 A 
HETATM   11  F2  UNL     1    -113.930-175.245 309.478  1.00  0.00    -0.203 F 
HETATM   12  C13 UNL     1    -112.143-174.632 307.980  1.00  0.00     0.031 A 
HETATM   13  C14 UNL     1    -110.875-174.496 308.756  1.00  0.00     0.285 C 
ENDROOT
BRANCH   1  14
HETATM   14  C4  UNL     1    -108.664-175.210 308.952  1.00  0.00     0.283 C 
HETATM   15  C5  UNL     1    -109.110-175.711 310.308  1.00  0.00     0.089 C 
HETATM   16  F1  UNL     1    -108.326-173.871 309.080  1.00  0.00    -0.207 F 
BRANCH  14  17
HETATM   17  C3  UNL     1    -107.535-175.976 308.420  1.00  0.00     0.042 C 
HETATM   18  C2  UNL     1    -106.689-176.640 309.189  1.00  0.00    -0.030 C 
HETATM   19  C1  UNL     1    -105.550-177.411 308.634  1.00  0.00     0.036 C 
ENDBRANCH  14  17
ENDBRANCH   1  14
TORSDOF 2
ENDMDL
MODEL 5
REMARK VINA RESULT: -7.505048556      1.828      5.522
REMARK  2 active torsions:
REMARK  status: ('A' for Active; 'I' for Inactive)
REMARK    1  A    between atoms: C3_3  and  C4_4 
REMARK    2  A    between atoms: C4_4  and  N1_7 
ROOT
HETATM    1  N1  UNL     1    -110.975-175.389 308.325  1.00  0.00    -0.027 N 
HETATM    2  C6  UNL     1    -110.204-175.287 307.096  1.00  0.00     0.277 C 
HETATM    3  C7  UNL     1    -111.402-176.742 308.469  1.00  0.00     0.247 C 
HETATM    4  C8  UNL     1    -110.485-177.642 309.215  1.00  0.00     0.085 C 
HETATM    5  C9  UNL     1    -109.108-177.164 309.357  1.00  0.00     0.022 A 
HETATM    6  N2  UNL     1    -107.879-177.732 309.395  1.00  0.00    -0.360 N 
ATOM      7  H2  UNL     1    -107.691-178.731 309.319  1.00  0.00     0.165 HD
HETATM    8  C10 UNL     1    -106.948-176.780 309.549  1.00  0.00     0.045 A 
HETATM    9  C11 UNL     1    -105.459-176.942 309.641  1.00  0.00     0.071 C 
HETATM   10  C12 UNL     1    -107.586-175.545 309.613  1.00  0.00     0.148 A 
HETATM   11  F2  UNL     1    -107.028-174.325 309.764  1.00  0.00    -0.203 F 
HETATM   12  C13 UNL     1    -108.924-175.789 309.495  1.00  0.00     0.031 A 
HETATM   13  C14 UNL     1    -110.176-174.976 309.477  1.00  0.00     0.285 C 
ENDROOT
BRANCH   1  14
HETATM   14  C4  UNL     1    -112.104-174.457 308.274  1.00  0.00     0.283 C 
HETATM   15  C5  UNL     1    -111.759-173.391 307.258  1.00  0.00     0.089 C 
HETATM   16  F1  UNL     1    -112.166-173.855 309.522  1.00  0.00    -0.207 F 
BRANCH  14  17
HETATM   17  C3  UNL     1    -113.368-175.130 307.966  1.00  0.00     0.042 C 
HETATM   18  C2  UNL     1    -114.496-174.478 307.741  1.00  0.00    -0.030 C 
HETATM   19  C1  UNL     1    -115.767-175.175 307.429  1.00  0.00     0.036 C 
ENDBRANCH  14  17
ENDBRANCH   1  14
TORSDOF 2
ENDMDL
