MODEL 1
REMARK VINA RESULT: -7.235348737      0.000      0.000
REMARK  2 active torsions:
REMARK  status: ('A' for Active; 'I' for Inactive)
REMARK    1  A    between atoms: C4_4  and  C5_5 
REMARK       I    between atoms: C5_5  and  N1_7 
REMARK    2  A    between atoms: N1_7  and  C6_9 
ROOT
HETATM    1  C5  UNL     1    -108.576-175.826 307.875  1.00  0.00     0.227 C 
HETATM    2  O1  UNL     1    -108.626-176.613 306.888  1.00  0.00    -0.273 OA
HETATM    3  N1  UNL     1    -109.690-174.967 308.072  1.00  0.00    -0.356 N 
ATOM      4  H1  UNL     1    -109.678-174.321 308.862  1.00  0.00     0.162 HD
ENDROOT
BRANCH   1   5
HETATM    5  C4  UNL     1    -107.436-175.771 308.802  1.00  0.00     0.146 A 
HETATM    6  C2  UNL     1    -107.665-176.446 310.134  1.00  0.00     0.020 A 
HETATM    7  C1  UNL     1    -107.229-175.614 311.322  1.00  0.00     0.020 C 
HETATM    8  C3  UNL     1    -108.909-177.246 310.373  1.00  0.00     0.020 C 
HETATM    9  C13 UNL     1    -106.692-176.996 309.186  1.00  0.00     0.199 A 
HETATM   10  F1  UNL     1    -107.019-178.177 308.536  1.00  0.00    -0.224 F 
HETATM   11 CL1  UNL     1    -104.964-176.857 309.558  1.00  0.00    -0.081 Cl
ENDBRANCH   1   5
BRANCH   3  12
HETATM   12  C6  UNL     1    -110.839-174.973 307.198  1.00  0.00     0.088 C 
HETATM   13  C7  UNL     1    -112.075-175.544 307.894  1.00  0.00     0.030 C 
HETATM   14  C8  UNL     1    -113.130-174.550 307.463  1.00  0.00    -0.012 C 
HETATM   15  C9  UNL     1    -113.238-174.614 305.972  1.00  0.00     0.005 C 
HETATM   16  C12 UNL     1    -112.347-173.237 307.629  1.00  0.00     0.011 C 
HETATM   17  C10 UNL     1    -112.033-173.852 305.407  1.00  0.00     0.007 C 
HETATM   18  C11 UNL     1    -111.210-173.630 306.672  1.00  0.00     0.009 C 
ENDBRANCH   3  12
TORSDOF 2
ENDMDL
MODEL 2
REMARK VINA RESULT: -6.935649356      3.016      5.948
REMARK  2 active torsions:
REMARK  status: ('A' for Active; 'I' for Inactive)
REMARK    1  A    between atoms: C4_4  and  C5_5 
REMARK       I    between atoms: C5_5  and  N1_7 
REMARK    2  A    between atoms: N1_7  and  C6_9 
ROOT
HETATM    1  C5  UNL     1    -110.164-173.901 308.434  1.00  0.00     0.227 C 
HETATM    2  O1  UNL     1    -109.287-173.019 308.659  1.00  0.00    -0.273 OA
HETATM    3  N1  UNL     1    -110.012-175.147 309.101  1.00  0.00    -0.356 N 
ATOM      4  H1  UNL     1    -110.705-175.877 308.941  1.00  0.00     0.162 HD
ENDROOT
BRANCH   1   5
HETATM    5  C4  UNL     1    -111.305-173.689 307.532  1.00  0.00     0.146 A 
HETATM    6  C2  UNL     1    -111.049-174.040 306.085  1.00  0.00     0.020 A 
HETATM    7  C1  UNL     1    -111.521-172.984 305.109  1.00  0.00     0.020 C 
HETATM    8  C3  UNL     1    -109.772-174.715 305.685  1.00  0.00     0.020 C 
HETATM    9  C13 UNL     1    -111.997-174.828 306.879  1.00  0.00     0.199 A 
HETATM   10  F1  UNL     1    -111.619-176.109 307.253  1.00  0.00    -0.224 F 
HETATM   11 CL1  UNL     1    -113.729-174.682 306.531  1.00  0.00    -0.081 Cl
ENDBRANCH   1   5
BRANCH   3  12
HETATM   12  C6  UNL     1    -108.914-175.417 309.999  1.00  0.00     0.088 C 
HETATM   13  C7  UNL     1    -109.242-176.557 310.965  1.00  0.00     0.030 C 
HETATM   14  C8  UNL     1    -107.956-177.351 310.916  1.00  0.00    -0.012 C 
HETATM   15  C9  UNL     1    -106.857-176.474 311.426  1.00  0.00     0.005 C 
HETATM   16  C12 UNL     1    -107.670-177.307 309.406  1.00  0.00     0.011 C 
HETATM   17  C10 UNL     1    -106.507-175.498 310.296  1.00  0.00     0.007 C 
HETATM   18  C11 UNL     1    -107.641-175.773 309.314  1.00  0.00     0.009 C 
ENDBRANCH   3  12
TORSDOF 2
ENDMDL
MODEL 3
REMARK VINA RESULT: -6.925458999      1.767      2.269
REMARK  2 active torsions:
REMARK  status: ('A' for Active; 'I' for Inactive)
REMARK    1  A    between atoms: C4_4  and  C5_5 
REMARK       I    between atoms: C5_5  and  N1_7 
REMARK    2  A    between atoms: N1_7  and  C6_9 
ROOT
HETATM    1  C5  UNL     1    -110.021-176.773 308.584  1.00  0.00     0.227 C 
HETATM    2  O1  UNL     1    -110.595-177.868 308.320  1.00  0.00    -0.273 OA
HETATM    3  N1  UNL     1    -110.731-175.582 308.275  1.00  0.00    -0.356 N 
ATOM      4  H1  UNL     1    -110.293-174.683 308.478  1.00  0.00     0.162 HD
ENDROOT
BRANCH   1   5
HETATM    5  C4  UNL     1    -108.682-176.692 309.185  1.00  0.00     0.146 A 
HETATM    6  C2  UNL     1    -107.543-176.606 308.197  1.00  0.00     0.020 A 
HETATM    7  C1  UNL     1    -106.397-177.545 308.504  1.00  0.00     0.020 C 
HETATM    8  C3  UNL     1    -107.822-176.440 306.734  1.00  0.00     0.020 C 
HETATM    9  C13 UNL     1    -107.854-175.467 309.066  1.00  0.00     0.199 A 
HETATM   10  F1  UNL     1    -108.438-174.350 308.485  1.00  0.00    -0.224 F 
HETATM   11 CL1  UNL     1    -106.736-175.068 310.382  1.00  0.00    -0.081 Cl
ENDBRANCH   1   5
BRANCH   3  12
HETATM   12  C6  UNL     1    -112.048-175.594 307.684  1.00  0.00     0.088 C 
HETATM   13  C7  UNL     1    -113.145-175.550 308.749  1.00  0.00     0.030 C 
HETATM   14  C8  UNL     1    -114.086-174.532 308.147  1.00  0.00    -0.012 C 
HETATM   15  C9  UNL     1    -114.581-175.078 306.845  1.00  0.00     0.005 C 
HETATM   16  C12 UNL     1    -113.072-173.491 307.645  1.00  0.00     0.011 C 
HETATM   17  C10 UNL     1    -113.448-174.896 305.829  1.00  0.00     0.007 C 
HETATM   18  C11 UNL     1    -112.304-174.470 306.742  1.00  0.00     0.009 C 
ENDBRANCH   3  12
TORSDOF 2
ENDMDL
MODEL 4
REMARK VINA RESULT: -6.865398074      2.946      5.915
REMARK  2 active torsions:
REMARK  status: ('A' for Active; 'I' for Inactive)
REMARK    1  A    between atoms: C4_4  and  C5_5 
REMARK       I    between atoms: C5_5  and  N1_7 
REMARK    2  A    between atoms: N1_7  and  C6_9 
ROOT
HETATM    1  C5  UNL     1    -109.798-175.606 307.281  1.00  0.00     0.227 C 
HETATM    2  O1  UNL     1    -108.729-175.804 306.636  1.00  0.00    -0.273 OA
HETATM    3  N1  UNL     1    -109.765-175.861 308.678  1.00  0.00    -0.356 N 
ATOM      4  H1  UNL     1    -110.612-175.709 309.225  1.00  0.00     0.162 HD
ENDROOT
BRANCH   1   5
HETATM    5  C4  UNL     1    -111.039-175.131 306.654  1.00  0.00     0.146 A 
HETATM    6  C2  UNL     1    -111.555-173.811 307.178  1.00  0.00     0.020 A 
HETATM    7  C1  UNL     1    -113.037-173.815 307.488  1.00  0.00     0.020 C 
HETATM    8  C3  UNL     1    -110.732-173.005 308.136  1.00  0.00     0.020 C 
HETATM    9  C13 UNL     1    -111.060-173.916 305.802  1.00  0.00     0.199 A 
HETATM   10  F1  UNL     1    -109.844-173.319 305.505  1.00  0.00    -0.224 F 
HETATM   11 CL1  UNL     1    -112.224-173.835 304.468  1.00  0.00    -0.081 Cl
ENDBRANCH   1   5
BRANCH   3  12
HETATM   12  C6  UNL     1    -108.577-176.328 309.354  1.00  0.00     0.088 C 
HETATM   13  C7  UNL     1    -107.502-175.243 309.421  1.00  0.00     0.030 C 
HETATM   14  C8  UNL     1    -107.041-175.386 310.854  1.00  0.00    -0.012 C 
HETATM   15  C9  UNL     1    -106.471-176.760 311.016  1.00  0.00     0.005 C 
HETATM   16  C12 UNL     1    -108.396-175.563 311.557  1.00  0.00     0.011 C 
HETATM   17  C10 UNL     1    -107.659-177.724 311.113  1.00  0.00     0.007 C 
HETATM   18  C11 UNL     1    -108.814-176.800 310.746  1.00  0.00     0.009 C 
ENDBRANCH   3  12
TORSDOF 2
ENDMDL
MODEL 5
REMARK VINA RESULT: -6.745920260      2.535      3.578
REMARK  2 active torsions:
REMARK  status: ('A' for Active; 'I' for Inactive)
REMARK    1  A    between atoms: C4_4  and  C5_5 
REMARK       I    between atoms: C5_5  and  N1_7 
REMARK    2  A    between atoms: N1_7  and  C6_9 
ROOT
HETATM    1  C5  UNL     1    -110.113-174.048 307.557  1.00  0.00     0.227 C 
HETATM    2  O1  UNL     1    -109.530-172.927 307.556  1.00  0.00    -0.273 OA
HETATM    3  N1  UNL     1    -110.705-174.470 306.336  1.00  0.00    -0.356 N 
ATOM      4  H1  UNL     1    -111.181-175.371 306.307  1.00  0.00     0.162 HD
ENDROOT
BRANCH   1   5
HETATM    5  C4  UNL     1    -110.196-174.910 308.746  1.00  0.00     0.146 A 
HETATM    6  C2  UNL     1    -109.569-176.275 308.589  1.00  0.00     0.020 A 
HETATM    7  C1  UNL     1    -110.439-177.407 309.090  1.00  0.00     0.020 C 
HETATM    8  C3  UNL     1    -108.780-176.609 307.359  1.00  0.00     0.020 C 
HETATM    9  C13 UNL     1    -108.983-175.295 309.508  1.00  0.00     0.199 A 
HETATM   10  F1  UNL     1    -107.781-174.705 309.144  1.00  0.00    -0.224 F 
HETATM   11 CL1  UNL     1    -109.129-175.568 311.253  1.00  0.00    -0.081 Cl
ENDBRANCH   1   5
BRANCH   3  12
HETATM   12  C6  UNL     1    -110.657-173.670 305.135  1.00  0.00     0.088 C 
HETATM   13  C7  UNL     1    -109.756-174.300 304.072  1.00  0.00     0.030 C 
HETATM   14  C8  UNL     1    -110.609-174.129 302.836  1.00  0.00    -0.012 C 
HETATM   15  C9  UNL     1    -110.806-172.662 302.615  1.00  0.00     0.005 C 
HETATM   16  C12 UNL     1    -111.985-174.512 303.403  1.00  0.00     0.011 C 
HETATM   17  C10 UNL     1    -111.862-172.200 303.626  1.00  0.00     0.007 C 
HETATM   18  C11 UNL     1    -111.986-173.440 304.504  1.00  0.00     0.009 C 
ENDBRANCH   3  12
TORSDOF 2
ENDMDL
