MODEL 1
REMARK VINA RESULT: -7.930164851      0.000      0.000
REMARK  2 active torsions:
REMARK  status: ('A' for Active; 'I' for Inactive)
REMARK    1  A    between atoms: C8_10  and  C9_11 
REMARK    2  A    between atoms: C10_12  and  C11_13 
ROOT
HETATM    1  C1  UNL     1    -107.330-176.525 307.161  1.00  0.00     0.015 C 
HETATM    2  C2  UNL     1    -108.646-176.055 307.726  1.00  0.00     0.011 C 
HETATM    3  C3  UNL     1    -108.466-175.213 308.972  1.00  0.00     0.014 C 
HETATM    4  C4  UNL     1    -109.814-175.095 309.638  1.00  0.00     0.080 C 
HETATM    5  C5  UNL     1    -110.961-175.037 308.695  1.00  0.00     0.247 C 
HETATM    6  F1  UNL     1    -111.598-176.279 308.569  1.00  0.00    -0.206 F 
HETATM    7  F2  UNL     1    -111.936-174.154 309.179  1.00  0.00    -0.206 F 
HETATM    8  C6  UNL     1    -110.633-174.576 307.299  1.00  0.00     0.113 C 
HETATM    9  C7  UNL     1    -109.403-175.210 306.780  1.00  0.00    -0.070 C 
HETATM   10  C8  UNL     1    -109.022-175.007 305.504  1.00  0.00     0.003 C 
ENDROOT
BRANCH  10  11
HETATM   11  C9  UNL     1    -109.829-174.167 304.671  1.00  0.00     0.003 C 
HETATM   12  C10 UNL     1    -110.135-174.170 303.421  1.00  0.00     0.031 C 
BRANCH  12  13
HETATM   13  C11 UNL     1    -109.752-175.067 302.362  1.00  0.00     0.048 A 
HETATM   14  C12 UNL     1    -108.525-175.508 301.963  1.00  0.00     0.120 A 
HETATM   15  N1  UNL     1    -108.626-176.369 300.891  1.00  0.00    -0.355 N 
HETATM   16  C13 UNL     1    -107.528-177.033 300.204  1.00  0.00     0.156 C 
HETATM   17  C14 UNL     1    -109.935-176.443 300.647  1.00  0.00     0.182 A 
HETATM   18  N2  UNL     1    -110.631-175.688 301.494  1.00  0.00    -0.351 N 
ATOM     19  H2  UNL     1    -111.645-175.584 301.502  1.00  0.00     0.166 HD
ENDBRANCH  12  13
ENDBRANCH  10  11
TORSDOF 2
ENDMDL
MODEL 2
REMARK VINA RESULT: -7.876070038      2.593      3.948
REMARK  2 active torsions:
REMARK  status: ('A' for Active; 'I' for Inactive)
REMARK    1  A    between atoms: C8_10  and  C9_11 
REMARK    2  A    between atoms: C10_12  and  C11_13 
ROOT
HETATM    1  C1  UNL     1    -110.745-178.011 309.056  1.00  0.00     0.015 C 
HETATM    2  C2  UNL     1    -109.623-177.161 309.595  1.00  0.00     0.011 C 
HETATM    3  C3  UNL     1    -108.283-177.538 308.998  1.00  0.00     0.014 C 
HETATM    4  C4  UNL     1    -107.213-176.889 309.840  1.00  0.00     0.080 C 
HETATM    5  C5  UNL     1    -107.588-175.561 310.391  1.00  0.00     0.247 C 
HETATM    6  F1  UNL     1    -108.000-175.648 311.728  1.00  0.00    -0.206 F 
HETATM    7  F2  UNL     1    -106.476-174.708 310.388  1.00  0.00    -0.206 F 
HETATM    8  C6  UNL     1    -108.678-174.833 309.649  1.00  0.00     0.113 C 
HETATM    9  C7  UNL     1    -109.802-175.726 309.297  1.00  0.00    -0.070 C 
HETATM   10  C8  UNL     1    -110.918-175.221 308.736  1.00  0.00     0.003 C 
ENDROOT
BRANCH  10  11
HETATM   11  C9  UNL     1    -110.987-173.813 308.488  1.00  0.00     0.003 C 
HETATM   12  C10 UNL     1    -111.002-173.088 307.425  1.00  0.00     0.031 C 
BRANCH  12  13
HETATM   13  C11 UNL     1    -110.951-173.458 306.034  1.00  0.00     0.048 A 
HETATM   14  C12 UNL     1    -109.941-173.988 305.287  1.00  0.00     0.120 A 
HETATM   15  N1  UNL     1    -110.335-174.186 303.980  1.00  0.00    -0.355 N 
HETATM   16  C13 UNL     1    -109.524-174.733 302.902  1.00  0.00     0.156 C 
HETATM   17  C14 UNL     1    -111.601-173.767 303.949  1.00  0.00     0.182 A 
HETATM   18  N2  UNL     1    -111.998-173.330 305.142  1.00  0.00    -0.351 N 
ATOM     19  H2  UNL     1    -112.923-172.962 305.361  1.00  0.00     0.166 HD
ENDBRANCH  12  13
ENDBRANCH  10  11
TORSDOF 2
ENDMDL
MODEL 3
REMARK VINA RESULT: -7.829865190      2.224      3.384
REMARK  2 active torsions:
REMARK  status: ('A' for Active; 'I' for Inactive)
REMARK    1  A    between atoms: C8_10  and  C9_11 
REMARK    2  A    between atoms: C10_12  and  C11_13 
ROOT
HETATM    1  C1  UNL     1    -113.900-174.995 307.217  1.00  0.00     0.015 C 
HETATM    2  C2  UNL     1    -112.497-174.684 307.671  1.00  0.00     0.011 C 
HETATM    3  C3  UNL     1    -111.757-175.922 308.134  1.00  0.00     0.014 C 
HETATM    4  C4  UNL     1    -110.526-175.464 308.876  1.00  0.00     0.080 C 
HETATM    5  C5  UNL     1    -109.912-174.223 308.338  1.00  0.00     0.247 C 
HETATM    6  F1  UNL     1    -110.273-173.094 309.086  1.00  0.00    -0.206 F 
HETATM    7  F2  UNL     1    -108.515-174.305 308.418  1.00  0.00    -0.206 F 
HETATM    8  C6  UNL     1    -110.233-173.910 306.900  1.00  0.00     0.113 C 
HETATM    9  C7  UNL     1    -111.666-174.104 306.596  1.00  0.00    -0.070 C 
HETATM   10  C8  UNL     1    -112.156-173.757 305.389  1.00  0.00     0.003 C 
ENDROOT
BRANCH  10  11
HETATM   11  C9  UNL     1    -111.262-173.203 304.418  1.00  0.00     0.003 C 
HETATM   12  C10 UNL     1    -110.965-173.497 303.201  1.00  0.00     0.031 C 
BRANCH  12  13
HETATM   13  C11 UNL     1    -111.453-174.544 302.341  1.00  0.00     0.048 A 
HETATM   14  C12 UNL     1    -112.724-174.907 302.006  1.00  0.00     0.120 A 
HETATM   15  N1  UNL     1    -112.728-175.980 301.141  1.00  0.00    -0.355 N 
HETATM   16  C13 UNL     1    -113.898-176.635 300.574  1.00  0.00     0.156 C 
HETATM   17  C14 UNL     1    -111.438-176.261 300.956  1.00  0.00     0.182 A 
HETATM   18  N2  UNL     1    -110.656-175.435 301.648  1.00  0.00    -0.351 N 
ATOM     19  H2  UNL     1    -109.637-175.457 301.664  1.00  0.00     0.166 HD
ENDBRANCH  12  13
ENDBRANCH  10  11
TORSDOF 2
ENDMDL
MODEL 4
REMARK VINA RESULT: -7.815969551      2.299      3.639
REMARK  2 active torsions:
REMARK  status: ('A' for Active; 'I' for Inactive)
REMARK    1  A    between atoms: C8_10  and  C9_11 
REMARK    2  A    between atoms: C10_12  and  C11_13 
ROOT
HETATM    1  C1  UNL     1    -114.111-174.938 307.950  1.00  0.00     0.015 C 
HETATM    2  C2  UNL     1    -112.678-175.224 308.315  1.00  0.00     0.011 C 
HETATM    3  C3  UNL     1    -112.387-176.710 308.371  1.00  0.00     0.014 C 
HETATM    4  C4  UNL     1    -111.062-176.887 309.069  1.00  0.00     0.080 C 
HETATM    5  C5  UNL     1    -110.078-175.808 308.799  1.00  0.00     0.247 C 
HETATM    6  F1  UNL     1    -110.028-174.872 309.842  1.00  0.00    -0.206 F 
HETATM    7  F2  UNL     1    -108.787-176.347 308.708  1.00  0.00    -0.206 F 
HETATM    8  C6  UNL     1    -110.298-175.029 307.529  1.00  0.00     0.113 C 
HETATM    9  C7  UNL     1    -111.719-174.667 307.339  1.00  0.00    -0.070 C 
HETATM   10  C8  UNL     1    -112.084-173.868 306.318  1.00  0.00     0.003 C 
ENDROOT
BRANCH  10  11
HETATM   11  C9  UNL     1    -111.073-173.384 305.428  1.00  0.00     0.003 C 
HETATM   12  C10 UNL     1    -110.837-173.531 304.172  1.00  0.00     0.031 C 
BRANCH  12  13
HETATM   13  C11 UNL     1    -111.546-174.277 303.164  1.00  0.00     0.048 A 
HETATM   14  C12 UNL     1    -112.880-174.495 302.985  1.00  0.00     0.120 A 
HETATM   15  N1  UNL     1    -113.115-175.277 301.874  1.00  0.00    -0.355 N 
HETATM   16  C13 UNL     1    -114.413-175.711 301.378  1.00  0.00     0.156 C 
HETATM   17  C14 UNL     1    -111.902-175.529 301.383  1.00  0.00     0.182 A 
HETATM   18  N2  UNL     1    -110.951-174.956 302.117  1.00  0.00    -0.351 N 
ATOM     19  H2  UNL     1    -109.949-175.009 301.937  1.00  0.00     0.166 HD
ENDBRANCH  12  13
ENDBRANCH  10  11
TORSDOF 2
ENDMDL
MODEL 5
REMARK VINA RESULT: -7.812881739      1.145      1.470
REMARK  2 active torsions:
REMARK  status: ('A' for Active; 'I' for Inactive)
REMARK    1  A    between atoms: C8_10  and  C9_11 
REMARK    2  A    between atoms: C10_12  and  C11_13 
ROOT
HETATM    1  C1  UNL     1    -108.610-175.375 307.618  1.00  0.00     0.015 C 
HETATM    2  C2  UNL     1    -110.103-175.183 307.695  1.00  0.00     0.011 C 
HETATM    3  C3  UNL     1    -110.510-174.328 308.877  1.00  0.00     0.014 C 
HETATM    4  C4  UNL     1    -111.998-174.486 309.061  1.00  0.00     0.080 C 
HETATM    5  C5  UNL     1    -112.757-174.655 307.795  1.00  0.00     0.247 C 
HETATM    6  F1  UNL     1    -113.067-175.999 307.547  1.00  0.00    -0.206 F 
HETATM    7  F2  UNL     1    -113.988-173.989 307.882  1.00  0.00    -0.206 F 
HETATM    8  C6  UNL     1    -112.082-174.130 306.556  1.00  0.00     0.113 C 
HETATM    9  C7  UNL     1    -110.651-174.502 306.504  1.00  0.00    -0.070 C 
HETATM   10  C8  UNL     1    -109.917-174.220 305.410  1.00  0.00     0.003 C 
ENDROOT
BRANCH  10  11
HETATM   11  C9  UNL     1    -110.549-173.555 304.311  1.00  0.00     0.003 C 
HETATM   12  C10 UNL     1    -110.633-173.790 303.049  1.00  0.00     0.031 C 
BRANCH  12  13
HETATM   13  C11 UNL     1    -110.092-174.862 302.254  1.00  0.00     0.048 A 
HETATM   14  C12 UNL     1    -108.822-175.349 302.155  1.00  0.00     0.120 A 
HETATM   15  N1  UNL     1    -108.754-176.395 301.260  1.00  0.00    -0.355 N 
HETATM   16  C13 UNL     1    -107.566-177.156 300.902  1.00  0.00     0.156 C 
HETATM   17  C14 UNL     1    -110.005-176.534 300.818  1.00  0.00     0.182 A 
HETATM   18  N2  UNL     1    -110.821-175.647 301.381  1.00  0.00    -0.351 N 
ATOM     19  H2  UNL     1    -111.821-175.561 301.199  1.00  0.00     0.166 HD
ENDBRANCH  12  13
ENDBRANCH  10  11
TORSDOF 2
ENDMDL
