MODEL 1
REMARK VINA RESULT: -7.254829220      0.000      0.000
REMARK  3 active torsions:
REMARK  status: ('A' for Active; 'I' for Inactive)
REMARK    1  A    between atoms: C1_2  and  C2_3 
REMARK    2  A    between atoms: C2_3  and  C3_4 
REMARK    3  A    between atoms: C3_4  and  C4_5 
ROOT
HETATM    1  C4  UNL     1    -113.932-174.675 309.473  1.00  0.00    -0.006 C 
HETATM    2  C5  UNL     1    -112.789-173.730 309.167  1.00  0.00    -0.008 C 
HETATM    3  C6  UNL     1    -112.300-173.885 307.749  1.00  0.00     0.010 C 
HETATM    4  C7  UNL     1    -111.783-175.279 307.555  1.00  0.00    -0.012 C 
HETATM    5  C8  UNL     1    -112.905-176.242 307.803  1.00  0.00     0.010 C 
HETATM    6  C9  UNL     1    -113.491-176.060 309.180  1.00  0.00    -0.008 C 
HETATM    7  C10 UNL     1    -112.376-176.397 310.161  1.00  0.00     0.026 C 
HETATM    8  C11 UNL     1    -111.190-175.462 309.909  1.00  0.00     0.019 C 
HETATM    9 BR1  UNL     1    -109.786-175.891 311.139  1.00  0.00    -0.086 Br
HETATM   10  C12 UNL     1    -110.660-175.619 308.506  1.00  0.00     0.025 C 
HETATM   11  C13 UNL     1    -111.620-174.029 310.084  1.00  0.00     0.026 C 
ENDROOT
BRANCH   1  12
HETATM   12  C3  UNL     1    -115.172-174.229 308.781  1.00  0.00     0.007 C 
BRANCH  12  13
HETATM   13  C2  UNL     1    -116.318-175.179 308.844  1.00  0.00     0.032 C 
BRANCH  13  14
HETATM   14  C1  UNL     1    -117.544-174.429 308.302  1.00  0.00     0.222 C 
HETATM   15  F1  UNL     1    -117.942-174.950 307.084  1.00  0.00    -0.255 F 
ENDBRANCH  13  14
ENDBRANCH  12  13
ENDBRANCH   1  12
TORSDOF 3
ENDMDL
MODEL 2
REMARK VINA RESULT: -7.130817912      3.272      4.943
REMARK  3 active torsions:
REMARK  status: ('A' for Active; 'I' for Inactive)
REMARK    1  A    between atoms: C1_2  and  C2_3 
REMARK    2  A    between atoms: C2_3  and  C3_4 
REMARK    3  A    between atoms: C3_4  and  C4_5 
ROOT
HETATM    1  C4  UNL     1    -111.952-174.923 310.480  1.00  0.00    -0.006 C 
HETATM    2  C5  UNL     1    -112.258-176.232 309.784  1.00  0.00    -0.008 C 
HETATM    3  C6  UNL     1    -111.662-176.282 308.400  1.00  0.00     0.010 C 
HETATM    4  C7  UNL     1    -112.262-175.190 307.565  1.00  0.00    -0.012 C 
HETATM    5  C8  UNL     1    -111.934-173.872 308.201  1.00  0.00     0.010 C 
HETATM    6  C9  UNL     1    -112.428-173.810 309.623  1.00  0.00    -0.008 C 
HETATM    7  C10 UNL     1    -113.946-173.916 309.548  1.00  0.00     0.026 C 
HETATM    8  C11 UNL     1    -114.321-175.232 308.862  1.00  0.00     0.019 C 
HETATM    9 BR1  UNL     1    -116.230-175.360 308.762  1.00  0.00    -0.086 Br
HETATM   10  C12 UNL     1    -113.764-175.296 307.462  1.00  0.00     0.025 C 
HETATM   11  C13 UNL     1    -113.757-176.394 309.637  1.00  0.00     0.026 C 
ENDROOT
BRANCH   1  12
HETATM   12  C3  UNL     1    -110.517-174.868 310.873  1.00  0.00     0.007 C 
BRANCH  12  13
HETATM   13  C2  UNL     1    -110.221-175.271 312.276  1.00  0.00     0.032 C 
BRANCH  13  14
HETATM   14  C1  UNL     1    -109.694-176.713 312.221  1.00  0.00     0.222 C 
HETATM   15  F1  UNL     1    -110.708-177.618 312.473  1.00  0.00    -0.255 F 
ENDBRANCH  13  14
ENDBRANCH  12  13
ENDBRANCH   1  12
TORSDOF 3
ENDMDL
MODEL 3
REMARK VINA RESULT: -7.108676130      1.498      2.608
REMARK  3 active torsions:
REMARK  status: ('A' for Active; 'I' for Inactive)
REMARK    1  A    between atoms: C1_2  and  C2_3 
REMARK    2  A    between atoms: C2_3  and  C3_4 
REMARK    3  A    between atoms: C3_4  and  C4_5 
ROOT
HETATM    1  C4  UNL     1    -114.178-174.473 308.358  1.00  0.00    -0.006 C 
HETATM    2  C5  UNL     1    -113.603-175.833 308.697  1.00  0.00    -0.008 C 
HETATM    3  C6  UNL     1    -112.912-175.828 310.037  1.00  0.00     0.010 C 
HETATM    4  C7  UNL     1    -111.765-174.862 309.997  1.00  0.00    -0.012 C 
HETATM    5  C8  UNL     1    -112.306-173.493 309.711  1.00  0.00     0.010 C 
HETATM    6  C9  UNL     1    -113.088-173.470 308.423  1.00  0.00    -0.008 C 
HETATM    7  C10 UNL     1    -112.095-173.809 307.319  1.00  0.00     0.026 C 
HETATM    8  C11 UNL     1    -111.485-175.184 307.601  1.00  0.00     0.019 C 
HETATM    9 BR1  UNL     1    -110.232-175.605 306.215  1.00  0.00    -0.086 Br
HETATM   10  C12 UNL     1    -110.760-175.199 308.923  1.00  0.00     0.025 C 
HETATM   11  C13 UNL     1    -112.572-176.225 307.658  1.00  0.00     0.026 C 
ENDROOT
BRANCH   1  12
HETATM   12  C3  UNL     1    -115.372-174.190 309.201  1.00  0.00     0.007 C 
BRANCH  12  13
HETATM   13  C2  UNL     1    -116.452-175.213 309.147  1.00  0.00     0.032 C 
BRANCH  13  14
HETATM   14  C1  UNL     1    -117.417-174.780 308.033  1.00  0.00     0.222 C 
HETATM   15  F1  UNL     1    -118.023-173.578 308.346  1.00  0.00    -0.255 F 
ENDBRANCH  13  14
ENDBRANCH  12  13
ENDBRANCH   1  12
TORSDOF 3
ENDMDL
MODEL 4
REMARK VINA RESULT: -6.957553824      3.316      5.090
REMARK  3 active torsions:
REMARK  status: ('A' for Active; 'I' for Inactive)
REMARK    1  A    between atoms: C1_2  and  C2_3 
REMARK    2  A    between atoms: C2_3  and  C3_4 
REMARK    3  A    between atoms: C3_4  and  C4_5 
ROOT
HETATM    1  C4  UNL     1    -111.664-176.325 308.525  1.00  0.00    -0.006 C 
HETATM    2  C5  UNL     1    -112.272-175.542 307.380  1.00  0.00    -0.008 C 
HETATM    3  C6  UNL     1    -111.863-174.091 307.417  1.00  0.00     0.010 C 
HETATM    4  C7  UNL     1    -112.360-173.470 308.688  1.00  0.00    -0.012 C 
HETATM    5  C8  UNL     1    -111.738-174.192 309.846  1.00  0.00     0.010 C 
HETATM    6  C9  UNL     1    -112.041-175.667 309.800  1.00  0.00    -0.008 C 
HETATM    7  C10 UNL     1    -113.553-175.793 309.943  1.00  0.00     0.026 C 
HETATM    8  C11 UNL     1    -114.227-175.028 308.802  1.00  0.00     0.019 C 
HETATM    9 BR1  UNL     1    -116.127-175.181 308.988  1.00  0.00    -0.086 Br
HETATM   10  C12 UNL     1    -113.860-173.566 308.833  1.00  0.00     0.025 C 
HETATM   11  C13 UNL     1    -113.783-175.588 307.476  1.00  0.00     0.026 C 
ENDROOT
BRANCH   1  12
HETATM   12  C3  UNL     1    -110.205-176.520 308.303  1.00  0.00     0.007 C 
BRANCH  12  13
HETATM   13  C2  UNL     1    -109.568-177.586 309.126  1.00  0.00     0.032 C 
BRANCH  13  14
HETATM   14  C1  UNL     1    -108.425-176.918 309.906  1.00  0.00     0.222 C 
HETATM   15  F1  UNL     1    -108.908-175.913 310.723  1.00  0.00    -0.255 F 
ENDBRANCH  13  14
ENDBRANCH  12  13
ENDBRANCH   1  12
TORSDOF 3
ENDMDL
MODEL 5
REMARK VINA RESULT: -6.904804438      1.718      2.992
REMARK  3 active torsions:
REMARK  status: ('A' for Active; 'I' for Inactive)
REMARK    1  A    between atoms: C1_2  and  C2_3 
REMARK    2  A    between atoms: C2_3  and  C3_4 
REMARK    3  A    between atoms: C3_4  and  C4_5 
ROOT
HETATM    1  C4  UNL     1    -112.786-176.820 309.340  1.00  0.00    -0.006 C 
HETATM    2  C5  UNL     1    -112.237-177.383 310.635  1.00  0.00    -0.008 C 
HETATM    3  C6  UNL     1    -112.285-176.368 311.749  1.00  0.00     0.010 C 
HETATM    4  C7  UNL     1    -111.429-175.191 311.382  1.00  0.00    -0.012 C 
HETATM    5  C8  UNL     1    -111.975-174.579 310.127  1.00  0.00     0.010 C 
HETATM    6  C9  UNL     1    -112.036-175.585 309.007  1.00  0.00    -0.008 C 
HETATM    7  C10 UNL     1    -110.595-175.993 308.726  1.00  0.00     0.026 C 
HETATM    8  C11 UNL     1    -109.986-176.583 310.001  1.00  0.00     0.019 C 
HETATM    9 BR1  UNL     1    -108.173-177.089 309.649  1.00  0.00    -0.086 Br
HETATM   10  C12 UNL     1    -109.993-175.578 311.125  1.00  0.00     0.025 C 
HETATM   11  C13 UNL     1    -110.787-177.779 310.446  1.00  0.00     0.026 C 
ENDROOT
BRANCH   1  12
HETATM   12  C3  UNL     1    -114.265-176.678 309.422  1.00  0.00     0.007 C 
BRANCH  12  13
HETATM   13  C2  UNL     1    -114.902-175.938 308.297  1.00  0.00     0.032 C 
BRANCH  13  14
HETATM   14  C1  UNL     1    -115.707-174.789 308.921  1.00  0.00     0.222 C 
HETATM   15  F1  UNL     1    -115.001-173.602 308.861  1.00  0.00    -0.255 F 
ENDBRANCH  13  14
ENDBRANCH  12  13
ENDBRANCH   1  12
TORSDOF 3
ENDMDL
