MODEL 1
REMARK VINA RESULT: -7.392535842      0.000      0.000
REMARK  3 active torsions:
REMARK  status: ('A' for Active; 'I' for Inactive)
REMARK    1  A    between atoms: N1_8  and  C7_9 
REMARK    2  A    between atoms: N1_8  and  C9_12 
REMARK    3  A    between atoms: C7_9  and  C8_10 
ROOT
HETATM    1  C1  UNL     1    -107.907-176.975 310.148  1.00  0.00     0.015 C 
HETATM    2  C2  UNL     1    -108.818-176.690 310.872  1.00  0.00    -0.073 C 
HETATM    3  C3  UNL     1    -109.881-176.352 311.752  1.00  0.00     0.166 C 
HETATM    4  F1  UNL     1    -109.508-176.754 313.043  1.00  0.00    -0.229 F 
HETATM    5  C4  UNL     1    -110.282-174.910 311.811  1.00  0.00     0.059 C 
HETATM    6  C5  UNL     1    -110.639-174.532 310.366  1.00  0.00     0.032 C 
HETATM    7  C6  UNL     1    -112.019-174.800 309.974  1.00  0.00     0.238 C 
HETATM    8  N1  UNL     1    -112.392-176.120 309.514  1.00  0.00    -0.060 N 
HETATM    9  C16 UNL     1    -111.676-177.164 310.144  1.00  0.00     0.242 C 
HETATM   10  C17 UNL     1    -111.195-177.100 311.496  1.00  0.00     0.085 C 
ENDROOT
BRANCH   8  11
HETATM   11  C7  UNL     1    -113.828-176.170 309.676  1.00  0.00     0.269 C 
BRANCH  11  12
HETATM   12  C8  UNL     1    -114.659-177.241 309.162  1.00  0.00     0.250 C 
HETATM   13  F2  UNL     1    -115.774-176.832 308.452  1.00  0.00    -0.254 F 
ENDBRANCH  11  12
ENDBRANCH   8  11
BRANCH   8  14
HETATM   14  C9  UNL     1    -112.217-176.289 308.065  1.00  0.00     0.190 C 
HETATM   15  C10 UNL     1    -112.644-175.220 307.164  1.00  0.00     0.033 C 
HETATM   16  C11 UNL     1    -111.590-174.301 306.592  1.00  0.00     0.002 C 
HETATM   17  C12 UNL     1    -111.156-174.699 305.180  1.00  0.00     0.000 C 
HETATM   18  C13 UNL     1    -110.253-175.871 305.352  1.00  0.00     0.000 C 
HETATM   19  C14 UNL     1    -110.861-176.995 306.144  1.00  0.00     0.002 C 
HETATM   20  C15 UNL     1    -110.832-176.718 307.659  1.00  0.00     0.033 C 
ENDBRANCH   8  14
TORSDOF 3
ENDMDL
MODEL 2
REMARK VINA RESULT: -7.116919438      1.886      4.037
REMARK  3 active torsions:
REMARK  status: ('A' for Active; 'I' for Inactive)
REMARK    1  A    between atoms: N1_8  and  C7_9 
REMARK    2  A    between atoms: N1_8  and  C9_12 
REMARK    3  A    between atoms: C7_9  and  C8_10 
ROOT
HETATM    1  C1  UNL     1    -112.165-177.172 312.571  1.00  0.00     0.015 C 
HETATM    2  C2  UNL     1    -111.183-176.892 311.944  1.00  0.00    -0.073 C 
HETATM    3  C3  UNL     1    -110.004-176.569 311.220  1.00  0.00     0.166 C 
HETATM    4  F1  UNL     1    -108.963-176.421 312.149  1.00  0.00    -0.229 F 
HETATM    5  C4  UNL     1    -109.560-177.546 310.174  1.00  0.00     0.059 C 
HETATM    6  C5  UNL     1    -110.755-177.685 309.220  1.00  0.00     0.032 C 
HETATM    7  C6  UNL     1    -110.810-176.703 308.143  1.00  0.00     0.238 C 
HETATM    8  N1  UNL     1    -111.404-175.405 308.383  1.00  0.00    -0.060 N 
HETATM    9  C16 UNL     1    -111.203-174.923 309.697  1.00  0.00     0.242 C 
HETATM   10  C17 UNL     1    -110.043-175.222 310.489  1.00  0.00     0.085 C 
ENDROOT
BRANCH   8  11
HETATM   11  C7  UNL     1    -110.878-174.564 307.330  1.00  0.00     0.269 C 
BRANCH  11  12
HETATM   12  C8  UNL     1    -110.385-175.074 306.064  1.00  0.00     0.250 C 
HETATM   13  F2  UNL     1    -111.296-175.046 305.023  1.00  0.00    -0.254 F 
ENDBRANCH  11  12
ENDBRANCH   8  11
BRANCH   8  14
HETATM   14  C9  UNL     1    -112.850-175.384 308.131  1.00  0.00     0.190 C 
HETATM   15  C10 UNL     1    -113.608-176.632 308.214  1.00  0.00     0.033 C 
HETATM   16  C11 UNL     1    -114.422-176.894 309.460  1.00  0.00     0.002 C 
HETATM   17  C12 UNL     1    -115.900-176.538 309.291  1.00  0.00     0.000 C 
HETATM   18  C13 UNL     1    -115.968-175.052 309.381  1.00  0.00     0.000 C 
HETATM   19  C14 UNL     1    -115.056-174.344 308.419  1.00  0.00     0.002 C 
HETATM   20  C15 UNL     1    -113.596-174.331 308.908  1.00  0.00     0.033 C 
ENDBRANCH   8  14
TORSDOF 3
ENDMDL
MODEL 3
REMARK VINA RESULT: -6.879479014      2.320      5.311
REMARK  3 active torsions:
REMARK  status: ('A' for Active; 'I' for Inactive)
REMARK    1  A    between atoms: N1_8  and  C7_9 
REMARK    2  A    between atoms: N1_8  and  C9_12 
REMARK    3  A    between atoms: C7_9  and  C8_10 
ROOT
HETATM    1  C1  UNL     1    -115.361-177.129 310.096  1.00  0.00     0.015 C 
HETATM    2  C2  UNL     1    -115.176-176.294 309.256  1.00  0.00    -0.073 C 
HETATM    3  C3  UNL     1    -114.985-175.303 308.256  1.00  0.00     0.166 C 
HETATM    4  F1  UNL     1    -116.138-175.276 307.458  1.00  0.00    -0.229 F 
HETATM    5  C4  UNL     1    -114.712-173.907 308.728  1.00  0.00     0.059 C 
HETATM    6  C5  UNL     1    -113.467-174.019 309.620  1.00  0.00     0.032 C 
HETATM    7  C6  UNL     1    -112.190-173.931 308.921  1.00  0.00     0.238 C 
HETATM    8  N1  UNL     1    -111.619-175.113 308.312  1.00  0.00    -0.060 N 
HETATM    9  C16 UNL     1    -112.585-176.008 307.798  1.00  0.00     0.242 C 
HETATM   10  C17 UNL     1    -113.853-175.595 307.264  1.00  0.00     0.085 C 
ENDROOT
BRANCH   8  11
HETATM   11  C7  UNL     1    -110.672-174.603 307.346  1.00  0.00     0.269 C 
BRANCH  11  12
HETATM   12  C8  UNL     1    -110.296-175.312 306.137  1.00  0.00     0.250 C 
HETATM   13  F2  UNL     1    -111.035-174.992 305.012  1.00  0.00    -0.254 F 
ENDBRANCH  11  12
ENDBRANCH   8  11
BRANCH   8  14
HETATM   14  C9  UNL     1    -110.770-175.876 309.236  1.00  0.00     0.190 C 
HETATM   15  C10 UNL     1    -110.047-175.170 310.292  1.00  0.00     0.033 C 
HETATM   16  C11 UNL     1    -110.604-175.215 311.696  1.00  0.00     0.002 C 
HETATM   17  C12 UNL     1    -109.930-176.274 312.570  1.00  0.00     0.000 C 
HETATM   18  C13 UNL     1    -110.510-177.578 312.140  1.00  0.00     0.000 C 
HETATM   19  C14 UNL     1    -110.390-177.838 310.664  1.00  0.00     0.002 C 
HETATM   20  C15 UNL     1    -111.451-177.071 309.853  1.00  0.00     0.033 C 
ENDBRANCH   8  14
TORSDOF 3
ENDMDL
MODEL 4
REMARK VINA RESULT: -6.861313192      1.286      1.845
REMARK  3 active torsions:
REMARK  status: ('A' for Active; 'I' for Inactive)
REMARK    1  A    between atoms: N1_8  and  C7_9 
REMARK    2  A    between atoms: N1_8  and  C9_12 
REMARK    3  A    between atoms: C7_9  and  C8_10 
ROOT
HETATM    1  C1  UNL     1    -107.999-176.996 310.315  1.00  0.00     0.015 C 
HETATM    2  C2  UNL     1    -109.088-176.917 310.809  1.00  0.00    -0.073 C 
HETATM    3  C3  UNL     1    -110.369-176.834 311.419  1.00  0.00     0.166 C 
HETATM    4  F1  UNL     1    -110.407-177.777 312.457  1.00  0.00    -0.229 F 
HETATM    5  C4  UNL     1    -110.768-175.504 311.983  1.00  0.00     0.059 C 
HETATM    6  C5  UNL     1    -110.668-174.522 310.807  1.00  0.00     0.032 C 
HETATM    7  C6  UNL     1    -111.862-174.421 309.975  1.00  0.00     0.238 C 
HETATM    8  N1  UNL     1    -112.077-175.373 308.906  1.00  0.00    -0.060 N 
HETATM    9  C16 UNL     1    -111.588-176.668 309.194  1.00  0.00     0.242 C 
HETATM   10  C17 UNL     1    -111.542-177.230 310.514  1.00  0.00     0.085 C 
ENDROOT
BRANCH   8  11
HETATM   11  C7  UNL     1    -113.494-175.295 308.630  1.00  0.00     0.269 C 
BRANCH  11  12
HETATM   12  C8  UNL     1    -114.404-174.410 309.333  1.00  0.00     0.250 C 
HETATM   13  F2  UNL     1    -114.852-173.325 308.602  1.00  0.00    -0.254 F 
ENDBRANCH  11  12
ENDBRANCH   8  11
BRANCH   8  14
HETATM   14  C9  UNL     1    -111.469-174.953 307.638  1.00  0.00     0.190 C 
HETATM   15  C10 UNL     1    -110.251-175.615 307.174  1.00  0.00     0.033 C 
HETATM   16  C11 UNL     1    -110.371-176.663 306.093  1.00  0.00     0.002 C 
HETATM   17  C12 UNL     1    -110.062-176.117 304.698  1.00  0.00     0.000 C 
HETATM   18  C13 UNL     1    -111.269-175.345 304.291  1.00  0.00     0.000 C 
HETATM   19  C14 UNL     1    -111.679-174.292 305.282  1.00  0.00     0.002 C 
HETATM   20  C15 UNL     1    -112.435-174.889 306.483  1.00  0.00     0.033 C 
ENDBRANCH   8  14
TORSDOF 3
ENDMDL
MODEL 5
REMARK VINA RESULT: -6.759685512      1.954      3.843
REMARK  3 active torsions:
REMARK  status: ('A' for Active; 'I' for Inactive)
REMARK    1  A    between atoms: N1_8  and  C7_9 
REMARK    2  A    between atoms: N1_8  and  C9_12 
REMARK    3  A    between atoms: C7_9  and  C8_10 
ROOT
HETATM    1  C1  UNL     1    -111.365-174.725 312.719  1.00  0.00     0.015 C 
HETATM    2  C2  UNL     1    -110.690-175.500 312.101  1.00  0.00    -0.073 C 
HETATM    3  C3  UNL     1    -109.876-176.424 311.394  1.00  0.00     0.166 C 
HETATM    4  F1  UNL     1    -108.675-176.565 312.105  1.00  0.00    -0.229 F 
HETATM    5  C4  UNL     1    -110.443-177.792 311.163  1.00  0.00     0.059 C 
HETATM    6  C5  UNL     1    -111.766-177.558 310.418  1.00  0.00     0.032 C 
HETATM    7  C6  UNL     1    -111.655-177.464 308.966  1.00  0.00     0.238 C 
HETATM    8  N1  UNL     1    -111.312-176.200 308.352  1.00  0.00    -0.060 N 
HETATM    9  C16 UNL     1    -110.430-175.413 309.127  1.00  0.00     0.242 C 
HETATM   10  C17 UNL     1    -109.430-175.959 310.001  1.00  0.00     0.085 C 
ENDROOT
BRANCH   8  11
HETATM   11  C7  UNL     1    -110.829-176.555 307.036  1.00  0.00     0.269 C 
BRANCH  11  12
HETATM   12  C8  UNL     1    -110.332-175.589 306.074  1.00  0.00     0.250 C 
HETATM   13  F2  UNL     1    -111.231-175.221 305.089  1.00  0.00    -0.254 F 
ENDBRANCH  11  12
ENDBRANCH   8  11
BRANCH   8  14
HETATM   14  C9  UNL     1    -112.488-175.371 308.060  1.00  0.00     0.190 C 
HETATM   15  C10 UNL     1    -113.745-176.018 307.686  1.00  0.00     0.033 C 
HETATM   16  C11 UNL     1    -114.825-176.147 308.734  1.00  0.00     0.002 C 
HETATM   17  C12 UNL     1    -115.887-175.050 308.633  1.00  0.00     0.000 C 
HETATM   18  C13 UNL     1    -115.261-173.829 309.214  1.00  0.00     0.000 C 
HETATM   19  C14 UNL     1    -113.944-173.465 308.587  1.00  0.00     0.002 C 
HETATM   20  C15 UNL     1    -112.790-174.338 309.114  1.00  0.00     0.033 C 
ENDBRANCH   8  14
TORSDOF 3
ENDMDL
