MODEL 1
REMARK VINA RESULT: -8.001897651      0.000      0.000
REMARK  7 active torsions:
REMARK  status: ('A' for Active; 'I' for Inactive)
REMARK    1  A    between atoms: C2_2  and  C3_3 
REMARK    2  A    between atoms: C3_3  and  C4_4 
REMARK    3  A    between atoms: C4_4  and  N1_5 
REMARK       I    between atoms: N1_5  and  C5_7 
REMARK    4  A    between atoms: C5_7  and  C6_9 
REMARK    5  A    between atoms: C6_9  and  C7_10 
REMARK       I    between atoms: C7_10  and  N2_12 
REMARK    6  A    between atoms: N2_12  and  C8_14 
REMARK    7  A    between atoms: C16_24  and  C17_25 
ROOT
HETATM    1  C8  UNL     1      36.960 -17.455  -1.250  1.00  0.00     0.049 A 
HETATM    2  C9  UNL     1      37.260 -18.038  -2.463  1.00  0.00     0.055 A 
HETATM    3  C10 UNL     1      36.318 -18.720  -3.206  1.00  0.00     0.007 A 
HETATM    4  C11 UNL     1      36.668 -19.348  -4.526  1.00  0.00     0.068 C 
HETATM    5  N3  UNL     1      35.059 -18.844  -2.772  1.00  0.00    -0.359 N 
ATOM      6  H3  UNL     1      34.361 -19.347  -3.319  1.00  0.00     0.166 HD
HETATM    7  C12 UNL     1      34.742 -18.279  -1.582  1.00  0.00     0.045 A 
HETATM    8  C13 UNL     1      33.426 -18.394  -1.106  1.00  0.00     0.037 A 
HETATM    9  C14 UNL     1      33.061 -17.833   0.101  1.00  0.00    -0.053 A 
HETATM   10  C15 UNL     1      31.659 -17.974   0.576  1.00  0.00     0.049 C 
HETATM   11  C16 UNL     1      33.952 -17.140   0.892  1.00  0.00    -0.052 A 
HETATM   12  C19 UNL     1      35.240 -17.037   0.407  1.00  0.00     0.023 A 
HETATM   13  C20 UNL     1      35.628 -17.597  -0.807  1.00  0.00     0.018 A 
ENDROOT
BRANCH   1  14
HETATM   14  N2  UNL     1      37.710 -16.825  -0.498  1.00  0.00    -0.326 N 
HETATM   15  C7  UNL     1      38.488 -15.727  -0.507  1.00  0.00     0.231 C 
HETATM   16  O2  UNL     1      39.098 -15.442   0.596  1.00  0.00    -0.273 OA
ATOM     17  H2  UNL     1      37.753 -17.278   0.414  1.00  0.00     0.169 HD
BRANCH  15  18
HETATM   18  C6  UNL     1      38.712 -14.827  -1.640  1.00  0.00     0.205 C 
BRANCH  18  19
HETATM   19  C5  UNL     1      39.722 -13.797  -1.362  1.00  0.00     0.226 C 
HETATM   20  N1  UNL     1      39.423 -12.762  -0.437  1.00  0.00    -0.361 N 
ATOM     21  H1  UNL     1      38.507 -12.770   0.010  1.00  0.00     0.162 HD
HETATM   22  O1  UNL     1      40.837 -13.797  -1.911  1.00  0.00    -0.273 OA
BRANCH  20  23
HETATM   23  C4  UNL     1      40.332 -11.707  -0.094  1.00  0.00     0.122 C 
BRANCH  23  24
HETATM   24  C3  UNL     1      39.834 -10.328  -0.434  1.00  0.00     0.019 C 
BRANCH  24  25
HETATM   25  C2  UNL     1      40.935  -9.521  -1.124  1.00  0.00    -0.003 C 
HETATM   26  C1  UNL     1      41.329 -10.171  -2.432  1.00  0.00     0.005 C 
ENDBRANCH  24  25
ENDBRANCH  23  24
ENDBRANCH  20  23
ENDBRANCH  18  19
ENDBRANCH  15  18
ENDBRANCH   1  14
BRANCH  11  27
HETATM   27  C17 UNL     1      33.514 -16.557   2.169  1.00  0.00     0.034 C 
HETATM   28  C18 UNL     1      32.965 -15.162   2.029  1.00  0.00     0.010 C 
ENDBRANCH  11  27
TORSDOF 7
ENDMDL
MODEL 2
REMARK VINA RESULT: -7.941735946      3.802      7.120
REMARK  7 active torsions:
REMARK  status: ('A' for Active; 'I' for Inactive)
REMARK    1  A    between atoms: C2_2  and  C3_3 
REMARK    2  A    between atoms: C3_3  and  C4_4 
REMARK    3  A    between atoms: C4_4  and  N1_5 
REMARK       I    between atoms: N1_5  and  C5_7 
REMARK    4  A    between atoms: C5_7  and  C6_9 
REMARK    5  A    between atoms: C6_9  and  C7_10 
REMARK       I    between atoms: C7_10  and  N2_12 
REMARK    6  A    between atoms: N2_12  and  C8_14 
REMARK    7  A    between atoms: C16_24  and  C17_25 
ROOT
HETATM    1  C8  UNL     1      36.790 -17.756  -0.118  1.00  0.00     0.049 A 
HETATM    2  C9  UNL     1      37.850 -17.246   0.602  1.00  0.00     0.055 A 
HETATM    3  C10 UNL     1      39.048 -16.903   0.008  1.00  0.00     0.007 A 
HETATM    4  C11 UNL     1      40.190 -16.350   0.813  1.00  0.00     0.068 C 
HETATM    5  N3  UNL     1      39.229 -17.053  -1.308  1.00  0.00    -0.359 N 
ATOM      6  H3  UNL     1      40.113 -16.800  -1.751  1.00  0.00     0.166 HD
HETATM    7  C12 UNL     1      38.201 -17.553  -2.036  1.00  0.00     0.045 A 
HETATM    8  C13 UNL     1      38.366 -17.719  -3.420  1.00  0.00     0.037 A 
HETATM    9  C14 UNL     1      37.345 -18.224  -4.198  1.00  0.00    -0.053 A 
HETATM   10  C15 UNL     1      37.554 -18.387  -5.661  1.00  0.00     0.049 C 
HETATM   11  C16 UNL     1      36.124 -18.586  -3.668  1.00  0.00    -0.052 A 
HETATM   12  C19 UNL     1      35.980 -18.416  -2.306  1.00  0.00     0.023 A 
HETATM   13  C20 UNL     1      37.000 -17.909  -1.505  1.00  0.00     0.018 A 
ENDROOT
BRANCH   1  14
HETATM   14  N2  UNL     1      35.679 -18.099   0.296  1.00  0.00    -0.326 N 
HETATM   15  C7  UNL     1      34.466 -17.569   0.542  1.00  0.00     0.231 C 
HETATM   16  O2  UNL     1      33.558 -18.381   0.973  1.00  0.00    -0.273 OA
ATOM     17  H2  UNL     1      35.680 -19.092   0.524  1.00  0.00     0.169 HD
BRANCH  15  18
HETATM   18  C6  UNL     1      34.075 -16.169   0.370  1.00  0.00     0.205 C 
BRANCH  18  19
HETATM   19  C5  UNL     1      32.989 -15.761   1.272  1.00  0.00     0.226 C 
HETATM   20  N1  UNL     1      33.012 -16.193   2.625  1.00  0.00    -0.361 N 
ATOM     21  H1  UNL     1      33.791 -16.777   2.928  1.00  0.00     0.162 HD
HETATM   22  O1  UNL     1      32.045 -15.048   0.894  1.00  0.00    -0.273 OA
BRANCH  20  23
HETATM   23  C4  UNL     1      32.006 -15.857   3.590  1.00  0.00     0.122 C 
BRANCH  23  24
HETATM   24  C3  UNL     1      32.317 -14.631   4.405  1.00  0.00     0.019 C 
BRANCH  24  25
HETATM   25  C2  UNL     1      31.100 -14.222   5.237  1.00  0.00    -0.003 C 
HETATM   26  C1  UNL     1      31.308 -14.580   6.692  1.00  0.00     0.005 C 
ENDBRANCH  24  25
ENDBRANCH  23  24
ENDBRANCH  20  23
ENDBRANCH  18  19
ENDBRANCH  15  18
ENDBRANCH   1  14
BRANCH  11  27
HETATM   27  C17 UNL     1      35.064 -19.117  -4.538  1.00  0.00     0.034 C 
HETATM   28  C18 UNL     1      33.870 -19.627  -3.777  1.00  0.00     0.010 C 
ENDBRANCH  11  27
TORSDOF 7
ENDMDL
MODEL 3
REMARK VINA RESULT: -7.873143006      1.589      2.180
REMARK  7 active torsions:
REMARK  status: ('A' for Active; 'I' for Inactive)
REMARK    1  A    between atoms: C2_2  and  C3_3 
REMARK    2  A    between atoms: C3_3  and  C4_4 
REMARK    3  A    between atoms: C4_4  and  N1_5 
REMARK       I    between atoms: N1_5  and  C5_7 
REMARK    4  A    between atoms: C5_7  and  C6_9 
REMARK    5  A    between atoms: C6_9  and  C7_10 
REMARK       I    between atoms: C7_10  and  N2_12 
REMARK    6  A    between atoms: N2_12  and  C8_14 
REMARK    7  A    between atoms: C16_24  and  C17_25 
ROOT
HETATM    1  C8  UNL     1      36.731 -17.722  -0.855  1.00  0.00     0.049 A 
HETATM    2  C9  UNL     1      37.200 -18.082  -2.101  1.00  0.00     0.055 A 
HETATM    3  C10 UNL     1      36.373 -18.593  -3.081  1.00  0.00     0.007 A 
HETATM    4  C11 UNL     1      36.907 -18.978  -4.432  1.00  0.00     0.068 C 
HETATM    5  N3  UNL     1      35.066 -18.761  -2.857  1.00  0.00    -0.359 N 
ATOM      6  H3  UNL     1      34.452 -19.138  -3.579  1.00  0.00     0.166 HD
HETATM    7  C12 UNL     1      34.583 -18.415  -1.639  1.00  0.00     0.045 A 
HETATM    8  C13 UNL     1      33.213 -18.581  -1.379  1.00  0.00     0.037 A 
HETATM    9  C14 UNL     1      32.680 -18.240  -0.153  1.00  0.00    -0.053 A 
HETATM   10  C15 UNL     1      31.225 -18.430   0.088  1.00  0.00     0.049 C 
HETATM   11  C16 UNL     1      33.450 -17.726   0.868  1.00  0.00    -0.052 A 
HETATM   12  C19 UNL     1      34.794 -17.569   0.595  1.00  0.00     0.023 A 
HETATM   13  C20 UNL     1      35.350 -17.908  -0.636  1.00  0.00     0.018 A 
ENDROOT
BRANCH   1  14
HETATM   14  N2  UNL     1      37.367 -17.260   0.097  1.00  0.00    -0.326 N 
HETATM   15  C7  UNL     1      38.610 -17.286   0.612  1.00  0.00     0.231 C 
HETATM   16  O2  UNL     1      38.810 -16.578   1.674  1.00  0.00    -0.273 OA
ATOM     17  H2  UNL     1      36.762 -16.675   0.672  1.00  0.00     0.169 HD
BRANCH  15  18
HETATM   18  C6  UNL     1      39.754 -18.036   0.090  1.00  0.00     0.205 C 
BRANCH  18  19
HETATM   19  C5  UNL     1      40.653 -17.213  -0.732  1.00  0.00     0.226 C 
HETATM   20  N1  UNL     1      40.743 -15.819  -0.480  1.00  0.00    -0.361 N 
ATOM     21  H1  UNL     1      40.175 -15.431   0.273  1.00  0.00     0.162 HD
HETATM   22  O1  UNL     1      41.342 -17.696  -1.646  1.00  0.00    -0.273 OA
BRANCH  20  23
HETATM   23  C4  UNL     1      41.584 -14.924  -1.220  1.00  0.00     0.122 C 
BRANCH  23  24
HETATM   24  C3  UNL     1      40.898 -13.661  -1.668  1.00  0.00     0.019 C 
BRANCH  24  25
HETATM   25  C2  UNL     1      39.763 -13.303  -0.707  1.00  0.00    -0.003 C 
HETATM   26  C1  UNL     1      39.860 -11.854  -0.288  1.00  0.00     0.005 C 
ENDBRANCH  24  25
ENDBRANCH  23  24
ENDBRANCH  20  23
ENDBRANCH  18  19
ENDBRANCH  15  18
ENDBRANCH   1  14
BRANCH  11  27
HETATM   27  C17 UNL     1      32.836 -17.374   2.157  1.00  0.00     0.034 C 
HETATM   28  C18 UNL     1      33.290 -16.040   2.688  1.00  0.00     0.010 C 
ENDBRANCH  11  27
TORSDOF 7
ENDMDL
MODEL 4
REMARK VINA RESULT: -7.751253893      6.919     10.809
REMARK  7 active torsions:
REMARK  status: ('A' for Active; 'I' for Inactive)
REMARK    1  A    between atoms: C2_2  and  C3_3 
REMARK    2  A    between atoms: C3_3  and  C4_4 
REMARK    3  A    between atoms: C4_4  and  N1_5 
REMARK       I    between atoms: N1_5  and  C5_7 
REMARK    4  A    between atoms: C5_7  and  C6_9 
REMARK    5  A    between atoms: C6_9  and  C7_10 
REMARK       I    between atoms: C7_10  and  N2_12 
REMARK    6  A    between atoms: N2_12  and  C8_14 
REMARK    7  A    between atoms: C16_24  and  C17_25 
ROOT
HETATM    1  C8  UNL     1      29.789 -15.852   4.122  1.00  0.00     0.049 A 
HETATM    2  C9  UNL     1      29.975 -15.188   5.317  1.00  0.00     0.055 A 
HETATM    3  C10 UNL     1      31.225 -14.808   5.762  1.00  0.00     0.007 A 
HETATM    4  C11 UNL     1      31.404 -14.086   7.068  1.00  0.00     0.068 C 
HETATM    5  N3  UNL     1      32.320 -15.071   5.041  1.00  0.00    -0.359 N 
ATOM      6  H3  UNL     1      33.245 -14.790   5.367  1.00  0.00     0.166 HD
HETATM    7  C12 UNL     1      32.161 -15.722   3.863  1.00  0.00     0.045 A 
HETATM    8  C13 UNL     1      33.295 -16.009   3.087  1.00  0.00     0.037 A 
HETATM    9  C14 UNL     1      33.178 -16.669   1.882  1.00  0.00    -0.053 A 
HETATM   10  C15 UNL     1      34.400 -16.957   1.086  1.00  0.00     0.049 C 
HETATM   11  C16 UNL     1      31.960 -17.078   1.380  1.00  0.00    -0.052 A 
HETATM   12  C19 UNL     1      30.856 -16.786   2.157  1.00  0.00     0.023 A 
HETATM   13  C20 UNL     1      30.955 -16.122   3.376  1.00  0.00     0.018 A 
ENDROOT
BRANCH   1  14
HETATM   14  N2  UNL     1      28.730 -16.242   3.622  1.00  0.00    -0.326 N 
HETATM   15  C7  UNL     1      27.699 -17.058   3.907  1.00  0.00     0.231 C 
HETATM   16  O2  UNL     1      26.755 -17.125   3.026  1.00  0.00    -0.273 OA
ATOM     17  H2  UNL     1      28.596 -15.813   2.707  1.00  0.00     0.169 HD
BRANCH  15  18
HETATM   18  C6  UNL     1      27.539 -17.874   5.111  1.00  0.00     0.205 C 
BRANCH  18  19
HETATM   19  C5  UNL     1      27.771 -19.305   4.869  1.00  0.00     0.226 C 
HETATM   20  N1  UNL     1      28.938 -19.711   4.170  1.00  0.00    -0.361 N 
ATOM     21  H1  UNL     1      29.585 -18.987   3.857  1.00  0.00     0.162 HD
HETATM   22  O1  UNL     1      26.978 -20.180   5.257  1.00  0.00    -0.273 OA
BRANCH  20  23
HETATM   23  C4  UNL     1      29.263 -21.077   3.878  1.00  0.00     0.122 C 
BRANCH  23  24
HETATM   24  C3  UNL     1      30.731 -21.396   3.971  1.00  0.00     0.019 C 
BRANCH  24  25
HETATM   25  C2  UNL     1      31.550 -20.360   3.198  1.00  0.00    -0.003 C 
HETATM   26  C1  UNL     1      32.640 -21.036   2.398  1.00  0.00     0.005 C 
ENDBRANCH  24  25
ENDBRANCH  23  24
ENDBRANCH  20  23
ENDBRANCH  18  19
ENDBRANCH  15  18
ENDBRANCH   1  14
BRANCH  11  27
HETATM   27  C17 UNL     1      31.885 -17.776   0.088  1.00  0.00     0.034 C 
HETATM   28  C18 UNL     1      30.809 -18.829   0.044  1.00  0.00     0.010 C 
ENDBRANCH  11  27
TORSDOF 7
ENDMDL
MODEL 5
REMARK VINA RESULT: -7.741074200      5.118      9.138
REMARK  7 active torsions:
REMARK  status: ('A' for Active; 'I' for Inactive)
REMARK    1  A    between atoms: C2_2  and  C3_3 
REMARK    2  A    between atoms: C3_3  and  C4_4 
REMARK    3  A    between atoms: C4_4  and  N1_5 
REMARK       I    between atoms: N1_5  and  C5_7 
REMARK    4  A    between atoms: C5_7  and  C6_9 
REMARK    5  A    between atoms: C6_9  and  C7_10 
REMARK       I    between atoms: C7_10  and  N2_12 
REMARK    6  A    between atoms: N2_12  and  C8_14 
REMARK    7  A    between atoms: C16_24  and  C17_25 
ROOT
HETATM    1  C8  UNL     1      31.916 -18.201   1.912  1.00  0.00     0.049 A 
HETATM    2  C9  UNL     1      30.675 -18.799   1.837  1.00  0.00     0.055 A 
HETATM    3  C10 UNL     1      30.261 -19.503   0.724  1.00  0.00     0.007 A 
HETATM    4  C11 UNL     1      28.904 -20.146   0.665  1.00  0.00     0.068 C 
HETATM    5  N3  UNL     1      31.060 -19.634  -0.340  1.00  0.00    -0.359 N 
ATOM      6  H3  UNL     1      30.757 -20.154  -1.165  1.00  0.00     0.166 HD
HETATM    7  C12 UNL     1      32.284 -19.055  -0.290  1.00  0.00     0.045 A 
HETATM    8  C13 UNL     1      33.140 -19.180  -1.395  1.00  0.00     0.037 A 
HETATM    9  C14 UNL     1      34.395 -18.606  -1.384  1.00  0.00    -0.053 A 
HETATM   10  C15 UNL     1      35.277 -18.758  -2.572  1.00  0.00     0.049 C 
HETATM   11  C16 UNL     1      34.870 -17.890  -0.306  1.00  0.00    -0.052 A 
HETATM   12  C19 UNL     1      34.013 -17.778   0.772  1.00  0.00     0.023 A 
HETATM   13  C20 UNL     1      32.744 -18.350   0.779  1.00  0.00     0.018 A 
ENDROOT
BRANCH   1  14
HETATM   14  N2  UNL     1      32.396 -17.550   2.844  1.00  0.00    -0.326 N 
HETATM   15  C7  UNL     1      32.213 -16.377   3.479  1.00  0.00     0.231 C 
HETATM   16  O2  UNL     1      32.998 -16.132   4.476  1.00  0.00    -0.273 OA
ATOM     17  H2  UNL     1      33.173 -18.059   3.264  1.00  0.00     0.169 HD
BRANCH  15  18
HETATM   18  C6  UNL     1      31.217 -15.355   3.153  1.00  0.00     0.205 C 
BRANCH  18  19
HETATM   19  C5  UNL     1      30.022 -15.427   4.005  1.00  0.00     0.226 C 
HETATM   20  N1  UNL     1      29.176 -16.565   3.922  1.00  0.00    -0.361 N 
ATOM     21  H1  UNL     1      29.431 -17.304   3.267  1.00  0.00     0.162 HD
HETATM   22  O1  UNL     1      29.721 -14.522   4.802  1.00  0.00    -0.273 OA
BRANCH  20  23
HETATM   23  C4  UNL     1      27.987 -16.738   4.703  1.00  0.00     0.122 C 
BRANCH  23  24
HETATM   24  C3  UNL     1      26.748 -17.006   3.890  1.00  0.00     0.019 C 
BRANCH  24  25
HETATM   25  C2  UNL     1      26.864 -18.353   3.175  1.00  0.00    -0.003 C 
HETATM   26  C1  UNL     1      26.984 -19.478   4.178  1.00  0.00     0.005 C 
ENDBRANCH  24  25
ENDBRANCH  23  24
ENDBRANCH  20  23
ENDBRANCH  18  19
ENDBRANCH  15  18
ENDBRANCH   1  14
BRANCH  11  27
HETATM   27  C17 UNL     1      36.216 -17.299  -0.340  1.00  0.00     0.034 C 
HETATM   28  C18 UNL     1      37.286 -18.228   0.171  1.00  0.00     0.010 C 
ENDBRANCH  11  27
TORSDOF 7
ENDMDL
