MODEL 1
REMARK VINA RESULT: -7.769516261      0.000      0.000
REMARK  8 active torsions:
REMARK  status: ('A' for Active; 'I' for Inactive)
REMARK    1  A    between atoms: C2_2  and  C3_3 
REMARK    2  A    between atoms: C3_3  and  N1_4 
REMARK    3  A    between atoms: N1_4  and  C4_6 
REMARK    4  A    between atoms: C4_6  and  N2_8 
REMARK    5  A    between atoms: N2_8  and  N3_10 
REMARK    6  A    between atoms: C5_12  and  C6_13 
REMARK    7  A    between atoms: C10_17  and  C11_18 
REMARK    8  A    between atoms: C11_18  and  C12_19 
ROOT
HETATM    1  C6  UNL     1      33.157 -16.623   0.341  1.00  0.00    -0.008 A 
HETATM    2  C7  UNL     1      34.520 -16.318   0.414  1.00  0.00     0.021 A 
HETATM    3  C8  UNL     1      35.440 -17.048  -0.264  1.00  0.00    -0.054 A 
HETATM    4  C9  UNL     1      36.874 -16.661  -0.134  1.00  0.00     0.049 C 
HETATM    5  C10 UNL     1      35.129 -18.122  -1.063  1.00  0.00    -0.040 A 
HETATM    6  C14 UNL     1      33.767 -18.428  -1.139  1.00  0.00    -0.003 A 
HETATM    7  C15 UNL     1      33.347 -19.469  -1.901  1.00  0.00     0.102 A 
HETATM    8  N4  UNL     1      32.058 -19.862  -2.053  1.00  0.00    -0.370 N 
HETATM    9  C16 UNL     1      31.728 -20.998  -2.899  1.00  0.00     0.154 C 
HETATM   10  C17 UNL     1      31.152 -19.149  -1.389  1.00  0.00     0.090 A 
HETATM   11  C18 UNL     1      31.484 -18.063  -0.581  1.00  0.00     0.030 A 
HETATM   12  C19 UNL     1      32.804 -17.676  -0.438  1.00  0.00    -0.011 A 
ENDROOT
BRANCH   1  13
HETATM   13  C5  UNL     1      32.227 -15.814   1.084  1.00  0.00     0.119 C 
HETATM   14  N3  UNL     1      31.919 -15.938   2.291  1.00  0.00    -0.309 N 
ATOM     15  H3  UNL     1      32.361 -16.685   2.828  1.00  0.00     0.186 HD
BRANCH  14  16
HETATM   16  N2  UNL     1      30.992 -15.099   2.950  1.00  0.00    -0.277 N 
ATOM     17  H2  UNL     1      30.501 -14.359   2.447  1.00  0.00     0.189 HD
BRANCH  16  18
HETATM   18  C4  UNL     1      30.766 -15.316   4.323  1.00  0.00     0.186 C 
HETATM   19  S1  UNL     1      31.985 -15.018   5.403  1.00  0.00    -0.040 SA
BRANCH  18  20
HETATM   20  N1  UNL     1      29.540 -15.778   4.832  1.00  0.00    -0.366 N 
ATOM     21  H1  UNL     1      29.344 -15.640   5.824  1.00  0.00     0.161 HD
BRANCH  20  22
HETATM   22  C3  UNL     1      28.554 -16.432   4.028  1.00  0.00     0.121 C 
BRANCH  22  23
HETATM   23  C2  UNL     1      27.203 -16.575   4.690  1.00  0.00     0.015 C 
HETATM   24  C1  UNL     1      26.269 -17.250   3.682  1.00  0.00     0.006 C 
ENDBRANCH  22  23
ENDBRANCH  20  22
ENDBRANCH  18  20
ENDBRANCH  16  18
ENDBRANCH  14  16
ENDBRANCH   1  13
BRANCH   5  25
HETATM   25  C11 UNL     1      36.108 -18.928  -1.805  1.00  0.00     0.040 C 
BRANCH  25  26
HETATM   26  C12 UNL     1      36.376 -18.471  -3.214  1.00  0.00     0.000 C 
HETATM   27  C13 UNL     1      37.724 -17.898  -3.464  1.00  0.00     0.005 C 
ENDBRANCH  25  26
ENDBRANCH   5  25
TORSDOF 8
ENDMDL
MODEL 2
REMARK VINA RESULT: -7.392885896      3.990      7.963
REMARK  8 active torsions:
REMARK  status: ('A' for Active; 'I' for Inactive)
REMARK    1  A    between atoms: C2_2  and  C3_3 
REMARK    2  A    between atoms: C3_3  and  N1_4 
REMARK    3  A    between atoms: N1_4  and  C4_6 
REMARK    4  A    between atoms: C4_6  and  N2_8 
REMARK    5  A    between atoms: N2_8  and  N3_10 
REMARK    6  A    between atoms: C5_12  and  C6_13 
REMARK    7  A    between atoms: C10_17  and  C11_18 
REMARK    8  A    between atoms: C11_18  and  C12_19 
ROOT
HETATM    1  C6  UNL     1      34.330 -17.534   0.115  1.00  0.00    -0.008 A 
HETATM    2  C7  UNL     1      34.039 -16.179   0.305  1.00  0.00     0.021 A 
HETATM    3  C8  UNL     1      33.110 -15.781   1.210  1.00  0.00    -0.054 A 
HETATM    4  C9  UNL     1      32.855 -14.320   1.353  1.00  0.00     0.049 C 
HETATM    5  C10 UNL     1      32.390 -16.646   1.999  1.00  0.00    -0.040 A 
HETATM    6  C14 UNL     1      32.680 -18.000   1.812  1.00  0.00    -0.003 A 
HETATM    7  C15 UNL     1      32.028 -18.941   2.541  1.00  0.00     0.102 A 
HETATM    8  N4  UNL     1      32.222 -20.280   2.448  1.00  0.00    -0.370 N 
HETATM    9  C16 UNL     1      31.461 -21.195   3.285  1.00  0.00     0.154 C 
HETATM   10  C17 UNL     1      33.133 -20.675   1.562  1.00  0.00     0.090 A 
HETATM   11  C18 UNL     1      33.853 -19.785   0.768  1.00  0.00     0.030 A 
HETATM   12  C19 UNL     1      33.643 -18.424   0.875  1.00  0.00    -0.011 A 
ENDROOT
BRANCH   1  13
HETATM   13  C5  UNL     1      35.325 -17.896  -0.860  1.00  0.00     0.119 C 
HETATM   14  N3  UNL     1      36.506 -17.481  -0.920  1.00  0.00    -0.309 N 
ATOM     15  H3  UNL     1      36.820 -16.815  -0.214  1.00  0.00     0.186 HD
BRANCH  14  16
HETATM   16  N2  UNL     1      37.425 -17.887  -1.914  1.00  0.00    -0.277 N 
ATOM     17  H2  UNL     1      37.235 -18.693  -2.509  1.00  0.00     0.189 HD
BRANCH  16  18
HETATM   18  C4  UNL     1      38.612 -17.142  -2.057  1.00  0.00     0.186 C 
HETATM   19  S1  UNL     1      38.549 -15.642  -2.753  1.00  0.00    -0.040 SA
BRANCH  18  20
HETATM   20  N1  UNL     1      39.866 -17.614  -1.632  1.00  0.00    -0.366 N 
ATOM     21  H1  UNL     1      40.072 -18.608  -1.739  1.00  0.00     0.161 HD
BRANCH  20  22
HETATM   22  C3  UNL     1      40.867 -16.770  -1.058  1.00  0.00     0.121 C 
BRANCH  22  23
HETATM   23  C2  UNL     1      40.906 -16.786   0.453  1.00  0.00     0.015 C 
HETATM   24  C1  UNL     1      40.560 -18.207   0.905  1.00  0.00     0.006 C 
ENDBRANCH  22  23
ENDBRANCH  20  22
ENDBRANCH  18  20
ENDBRANCH  16  18
ENDBRANCH  14  16
ENDBRANCH   1  13
BRANCH   5  25
HETATM   25  C11 UNL     1      31.378 -16.238   2.983  1.00  0.00     0.040 C 
BRANCH  25  26
HETATM   26  C12 UNL     1      31.924 -15.727   4.289  1.00  0.00     0.000 C 
HETATM   27  C13 UNL     1      31.167 -14.613   4.917  1.00  0.00     0.005 C 
ENDBRANCH  25  26
ENDBRANCH   5  25
TORSDOF 8
ENDMDL
MODEL 3
REMARK VINA RESULT: -7.384563442      5.320      8.140
REMARK  8 active torsions:
REMARK  status: ('A' for Active; 'I' for Inactive)
REMARK    1  A    between atoms: C2_2  and  C3_3 
REMARK    2  A    between atoms: C3_3  and  N1_4 
REMARK    3  A    between atoms: N1_4  and  C4_6 
REMARK    4  A    between atoms: C4_6  and  N2_8 
REMARK    5  A    between atoms: N2_8  and  N3_10 
REMARK    6  A    between atoms: C5_12  and  C6_13 
REMARK    7  A    between atoms: C10_17  and  C11_18 
REMARK    8  A    between atoms: C11_18  and  C12_19 
ROOT
HETATM    1  C6  UNL     1      37.571 -17.077  -2.345  1.00  0.00    -0.008 A 
HETATM    2  C7  UNL     1      36.907 -16.878  -1.131  1.00  0.00     0.021 A 
HETATM    3  C8  UNL     1      35.814 -17.610  -0.800  1.00  0.00    -0.054 A 
HETATM    4  C9  UNL     1      35.161 -17.337   0.512  1.00  0.00     0.049 C 
HETATM    5  C10 UNL     1      35.274 -18.586  -1.602  1.00  0.00    -0.040 A 
HETATM    6  C14 UNL     1      35.936 -18.788  -2.816  1.00  0.00    -0.003 A 
HETATM    7  C15 UNL     1      35.488 -19.729  -3.686  1.00  0.00     0.102 A 
HETATM    8  N4  UNL     1      36.044 -20.015  -4.889  1.00  0.00    -0.370 N 
HETATM    9  C16 UNL     1      35.473 -21.049  -5.738  1.00  0.00     0.154 C 
HETATM   10  C17 UNL     1      37.116 -19.299  -5.218  1.00  0.00     0.090 A 
HETATM   11  C18 UNL     1      37.651 -18.312  -4.393  1.00  0.00     0.030 A 
HETATM   12  C19 UNL     1      37.072 -18.033  -3.170  1.00  0.00    -0.011 A 
ENDROOT
BRANCH   1  13
HETATM   13  C5  UNL     1      38.724 -16.270  -2.643  1.00  0.00     0.119 C 
HETATM   14  N3  UNL     1      38.903 -15.070  -2.333  1.00  0.00    -0.309 N 
ATOM     15  H3  UNL     1      38.167 -14.590  -1.814  1.00  0.00     0.186 HD
BRANCH  14  16
HETATM   16  N2  UNL     1      40.070 -14.344  -2.665  1.00  0.00    -0.277 N 
ATOM     17  H2  UNL     1      40.221 -13.994  -3.610  1.00  0.00     0.189 HD
BRANCH  16  18
HETATM   18  C4  UNL     1      41.018 -14.120  -1.647  1.00  0.00     0.186 C 
HETATM   19  S1  UNL     1      41.276 -12.578  -1.104  1.00  0.00    -0.040 SA
BRANCH  18  20
HETATM   20  N1  UNL     1      41.767 -15.154  -1.058  1.00  0.00    -0.366 N 
ATOM     21  H1  UNL     1      42.721 -15.307  -1.383  1.00  0.00     0.161 HD
BRANCH  20  22
HETATM   22  C3  UNL     1      41.255 -16.003  -0.028  1.00  0.00     0.121 C 
BRANCH  22  23
HETATM   23  C2  UNL     1      41.049 -17.440  -0.446  1.00  0.00     0.015 C 
HETATM   24  C1  UNL     1      40.066 -18.070   0.544  1.00  0.00     0.006 C 
ENDBRANCH  22  23
ENDBRANCH  20  22
ENDBRANCH  18  20
ENDBRANCH  16  18
ENDBRANCH  14  16
ENDBRANCH   1  13
BRANCH   5  25
HETATM   25  C11 UNL     1      34.090 -19.389  -1.266  1.00  0.00     0.040 C 
BRANCH  25  26
HETATM   26  C12 UNL     1      32.797 -18.906  -1.866  1.00  0.00     0.000 C 
HETATM   27  C13 UNL     1      31.956 -18.051  -0.991  1.00  0.00     0.005 C 
ENDBRANCH  25  26
ENDBRANCH   5  25
TORSDOF 8
ENDMDL
MODEL 4
REMARK VINA RESULT: -7.368333286      4.194      7.493
REMARK  8 active torsions:
REMARK  status: ('A' for Active; 'I' for Inactive)
REMARK    1  A    between atoms: C2_2  and  C3_3 
REMARK    2  A    between atoms: C3_3  and  N1_4 
REMARK    3  A    between atoms: N1_4  and  C4_6 
REMARK    4  A    between atoms: C4_6  and  N2_8 
REMARK    5  A    between atoms: N2_8  and  N3_10 
REMARK    6  A    between atoms: C5_12  and  C6_13 
REMARK    7  A    between atoms: C10_17  and  C11_18 
REMARK    8  A    between atoms: C11_18  and  C12_19 
ROOT
HETATM    1  C6  UNL     1      35.888 -17.323  -0.465  1.00  0.00    -0.008 A 
HETATM    2  C7  UNL     1      35.079 -16.473   0.296  1.00  0.00     0.021 A 
HETATM    3  C8  UNL     1      33.726 -16.566   0.251  1.00  0.00    -0.054 A 
HETATM    4  C9  UNL     1      32.933 -15.622   1.089  1.00  0.00     0.049 C 
HETATM    5  C10 UNL     1      33.046 -17.476  -0.521  1.00  0.00    -0.040 A 
HETATM    6  C14 UNL     1      33.853 -18.328  -1.281  1.00  0.00    -0.003 A 
HETATM    7  C15 UNL     1      33.285 -19.268  -2.079  1.00  0.00     0.102 A 
HETATM    8  N4  UNL     1      33.960 -20.147  -2.860  1.00  0.00    -0.370 N 
HETATM    9  C16 UNL     1      33.240 -21.112  -3.676  1.00  0.00     0.154 C 
HETATM   10  C17 UNL     1      35.287 -20.060  -2.819  1.00  0.00     0.090 A 
HETATM   11  C18 UNL     1      35.962 -19.129  -2.031  1.00  0.00     0.030 A 
HETATM   12  C19 UNL     1      35.258 -18.239  -1.242  1.00  0.00    -0.011 A 
ENDROOT
BRANCH   1  13
HETATM   13  C5  UNL     1      37.317 -17.177  -0.377  1.00  0.00     0.119 C 
HETATM   14  N3  UNL     1      37.995 -17.013   0.664  1.00  0.00    -0.309 N 
ATOM     15  H3  UNL     1      37.505 -16.977   1.558  1.00  0.00     0.186 HD
BRANCH  14  16
HETATM   16  N2  UNL     1      39.401 -16.877   0.665  1.00  0.00    -0.277 N 
ATOM     17  H2  UNL     1      39.999 -17.587   1.087  1.00  0.00     0.189 HD
BRANCH  16  18
HETATM   18  C4  UNL     1      39.952 -15.727   0.064  1.00  0.00     0.186 C 
HETATM   19  S1  UNL     1      41.151 -15.897  -1.064  1.00  0.00    -0.040 SA
BRANCH  18  20
HETATM   20  N1  UNL     1      39.528 -14.424   0.376  1.00  0.00    -0.366 N 
ATOM     21  H1  UNL     1      39.443 -14.165   1.359  1.00  0.00     0.161 HD
BRANCH  20  22
HETATM   22  C3  UNL     1      39.210 -13.445  -0.616  1.00  0.00     0.121 C 
BRANCH  22  23
HETATM   23  C2  UNL     1      39.729 -12.058  -0.314  1.00  0.00     0.015 C 
HETATM   24  C1  UNL     1      41.171 -11.988  -0.825  1.00  0.00     0.006 C 
ENDBRANCH  22  23
ENDBRANCH  20  22
ENDBRANCH  18  20
ENDBRANCH  16  18
ENDBRANCH  14  16
ENDBRANCH   1  13
BRANCH   5  25
HETATM   25  C11 UNL     1      31.583 -17.594  -0.587  1.00  0.00     0.040 C 
BRANCH  25  26
HETATM   26  C12 UNL     1      30.997 -18.739   0.195  1.00  0.00     0.000 C 
HETATM   27  C13 UNL     1      30.926 -18.549   1.666  1.00  0.00     0.005 C 
ENDBRANCH  25  26
ENDBRANCH   5  25
TORSDOF 8
ENDMDL
MODEL 5
REMARK VINA RESULT: -7.368199556      4.988      8.066
REMARK  8 active torsions:
REMARK  status: ('A' for Active; 'I' for Inactive)
REMARK    1  A    between atoms: C2_2  and  C3_3 
REMARK    2  A    between atoms: C3_3  and  N1_4 
REMARK    3  A    between atoms: N1_4  and  C4_6 
REMARK    4  A    between atoms: C4_6  and  N2_8 
REMARK    5  A    between atoms: N2_8  and  N3_10 
REMARK    6  A    between atoms: C5_12  and  C6_13 
REMARK    7  A    between atoms: C10_17  and  C11_18 
REMARK    8  A    between atoms: C11_18  and  C12_19 
ROOT
HETATM    1  C6  UNL     1      37.677 -17.085  -1.671  1.00  0.00    -0.008 A 
HETATM    2  C7  UNL     1      38.096 -17.307  -2.987  1.00  0.00     0.021 A 
HETATM    3  C8  UNL     1      37.386 -18.100  -3.827  1.00  0.00    -0.054 A 
HETATM    4  C9  UNL     1      37.900 -18.288  -5.213  1.00  0.00     0.049 C 
HETATM    5  C10 UNL     1      36.223 -18.741  -3.474  1.00  0.00    -0.040 A 
HETATM    6  C14 UNL     1      35.800 -18.520  -2.160  1.00  0.00    -0.003 A 
HETATM    7  C15 UNL     1      34.661 -19.104  -1.707  1.00  0.00     0.102 A 
HETATM    8  N4  UNL     1      34.152 -18.966  -0.457  1.00  0.00    -0.370 N 
HETATM    9  C16 UNL     1      32.920 -19.644  -0.085  1.00  0.00     0.154 C 
HETATM   10  C17 UNL     1      34.846 -18.189   0.370  1.00  0.00     0.090 A 
HETATM   11  C18 UNL     1      36.026 -17.547  -0.003  1.00  0.00     0.030 A 
HETATM   12  C19 UNL     1      36.531 -17.699  -1.280  1.00  0.00    -0.011 A 
ENDROOT
BRANCH   1  13
HETATM   13  C5  UNL     1      38.472 -16.235  -0.826  1.00  0.00     0.119 C 
HETATM   14  N3  UNL     1      38.526 -14.984  -0.855  1.00  0.00    -0.309 N 
ATOM     15  H3  UNL     1      37.955 -14.492  -1.542  1.00  0.00     0.186 HD
BRANCH  14  16
HETATM   16  N2  UNL     1      39.338 -14.218   0.013  1.00  0.00    -0.277 N 
ATOM     17  H2  UNL     1      39.305 -14.356   1.023  1.00  0.00     0.189 HD
BRANCH  16  18
HETATM   18  C4  UNL     1      40.194 -13.258  -0.561  1.00  0.00     0.186 C 
HETATM   19  S1  UNL     1      40.962 -13.605  -1.985  1.00  0.00    -0.040 SA
BRANCH  18  20
HETATM   20  N1  UNL     1      40.432 -12.001   0.021  1.00  0.00    -0.366 N 
ATOM     21  H1  UNL     1      41.105 -11.940   0.785  1.00  0.00     0.161 HD
BRANCH  20  22
HETATM   22  C3  UNL     1      39.776 -10.804  -0.404  1.00  0.00     0.121 C 
BRANCH  22  23
HETATM   23  C2  UNL     1      40.708  -9.652  -0.700  1.00  0.00     0.015 C 
HETATM   24  C1  UNL     1      41.254  -9.857  -2.116  1.00  0.00     0.006 C 
ENDBRANCH  22  23
ENDBRANCH  20  22
ENDBRANCH  18  20
ENDBRANCH  16  18
ENDBRANCH  14  16
ENDBRANCH   1  13
BRANCH   5  25
HETATM   25  C11 UNL     1      35.438 -19.606  -4.366  1.00  0.00     0.040 C 
BRANCH  25  26
HETATM   26  C12 UNL     1      34.502 -18.884  -5.298  1.00  0.00     0.000 C 
HETATM   27  C13 UNL     1      33.053 -19.125  -5.077  1.00  0.00     0.005 C 
ENDBRANCH  25  26
ENDBRANCH   5  25
TORSDOF 8
ENDMDL
