MODEL 1
REMARK VINA RESULT: -7.029419939      0.000      0.000
REMARK  8 active torsions:
REMARK  status: ('A' for Active; 'I' for Inactive)
REMARK    1  A    between atoms: C2_2  and  C3_3 
REMARK    2  A    between atoms: C3_3  and  O2_5 
REMARK    3  A    between atoms: O2_5  and  C4_6 
REMARK    4  A    between atoms: C19_22  and  C20_23 
REMARK    5  A    between atoms: C20_23  and  O3_24 
REMARK    6  A    between atoms: C20_23  and  C21_26 
REMARK    7  A    between atoms: C21_26  and  N2_27 
REMARK    8  A    between atoms: C25_32  and  O5_33 
ROOT
HETATM    1  C4  UNL     1      18.967  -1.398  14.771  1.00  0.00     0.163 C 
HETATM    2  C5  UNL     1      19.915  -1.567  15.982  1.00  0.00     0.044 C 
HETATM    3  C6  UNL     1      19.323  -2.472  17.022  1.00  0.00     0.036 C 
HETATM    4  C7  UNL     1      19.003  -1.655  18.215  1.00  0.00    -0.030 C 
HETATM    5  C8  UNL     1      19.652  -1.653  19.351  1.00  0.00    -0.031 C 
HETATM    6  C9  UNL     1      20.850  -2.478  19.670  1.00  0.00     0.027 C 
HETATM    7  C10 UNL     1      21.884  -1.526  20.271  1.00  0.00     0.004 C 
HETATM    8  C11 UNL     1      23.244  -1.685  19.649  1.00  0.00     0.000 C 
HETATM    9  C12 UNL     1      23.688  -0.438  18.899  1.00  0.00     0.000 C 
HETATM   10  C13 UNL     1      23.897  -0.738  17.422  1.00  0.00     0.000 C 
HETATM   11  C14 UNL     1      22.586  -0.651  16.638  1.00  0.00     0.007 C 
HETATM   12  C15 UNL     1      22.417  -1.919  15.886  1.00  0.00     0.010 C 
HETATM   13  C16 UNL     1      23.297  -1.856  14.651  1.00  0.00     0.026 C 
HETATM   14  C17 UNL     1      22.324  -1.615  13.480  1.00  0.00     0.118 C 
HETATM   15  N1  UNL     1      21.167  -1.246  14.124  1.00  0.00    -0.398 N 
HETATM   16  C18 UNL     1      21.080  -2.128  15.252  1.00  0.00     0.090 C 
HETATM   17  C19 UNL     1      19.942  -0.942  13.657  1.00  0.00     0.140 C 
ENDROOT
BRANCH  17  18
HETATM   18  C20 UNL     1      19.427  -1.393  12.322  1.00  0.00     0.171 C 
BRANCH  18  19
HETATM   19  O3  UNL     1      18.017  -1.376  12.468  1.00  0.00    -0.392 OA
ATOM     20  H3  UNL     1      17.717  -0.801  11.774  1.00  0.00     0.210 HD
ENDBRANCH  18  19
BRANCH  18  21
HETATM   21  C21 UNL     1      19.780  -0.417  11.246  1.00  0.00     0.306 C 
BRANCH  21  22
HETATM   22  N2  UNL     1      20.697  -0.928  10.234  1.00  0.00     0.094 N 
HETATM   23  C22 UNL     1      21.641   0.124   9.869  1.00  0.00     0.280 C 
HETATM   24  C23 UNL     1      21.074   1.091   8.843  1.00  0.00     0.111 C 
HETATM   25  C24 UNL     1      20.959   0.299   7.591  1.00  0.00     0.159 C 
HETATM   26  O4  UNL     1      21.032   0.846   6.527  1.00  0.00    -0.295 OA
HETATM   27  C25 UNL     1      20.753  -1.159   7.760  1.00  0.00     0.218 C 
HETATM   28  C27 UNL     1      20.035  -1.460   9.070  1.00  0.00     0.311 C 
BRANCH  27  29
HETATM   29  O5  UNL     1      21.897  -1.913   7.720  1.00  0.00    -0.381 OA
HETATM   30  C26 UNL     1      21.639  -3.282   7.656  1.00  0.00     0.202 C 
ENDBRANCH  27  29
ENDBRANCH  21  22
ENDBRANCH  18  21
ENDBRANCH  17  18
BRANCH   1  31
HETATM   31  O2  UNL     1      17.973  -0.473  15.055  1.00  0.00    -0.313 OA
BRANCH  31  32
HETATM   32  C3  UNL     1      16.646  -0.906  15.253  1.00  0.00     0.258 C 
HETATM   33  O1  UNL     1      16.373  -1.931  15.924  1.00  0.00    -0.265 OA
BRANCH  32  34
HETATM   34  C2  UNL     1      15.508  -0.149  14.665  1.00  0.00     0.106 C 
HETATM   35  C1  UNL     1      15.998   1.037  13.862  1.00  0.00     0.015 C 
ENDBRANCH  32  34
ENDBRANCH  31  32
ENDBRANCH   1  31
TORSDOF 8
ENDMDL
MODEL 2
REMARK VINA RESULT: -6.944604224      1.721      2.217
REMARK  8 active torsions:
REMARK  status: ('A' for Active; 'I' for Inactive)
REMARK    1  A    between atoms: C2_2  and  C3_3 
REMARK    2  A    between atoms: C3_3  and  O2_5 
REMARK    3  A    between atoms: O2_5  and  C4_6 
REMARK    4  A    between atoms: C19_22  and  C20_23 
REMARK    5  A    between atoms: C20_23  and  O3_24 
REMARK    6  A    between atoms: C20_23  and  C21_26 
REMARK    7  A    between atoms: C21_26  and  N2_27 
REMARK    8  A    between atoms: C25_32  and  O5_33 
ROOT
HETATM    1  C4  UNL     1      19.050  -0.689  13.041  1.00  0.00     0.163 C 
HETATM    2  C5  UNL     1      19.566  -1.101  14.440  1.00  0.00     0.044 C 
HETATM    3  C6  UNL     1      18.599  -2.011  15.138  1.00  0.00     0.036 C 
HETATM    4  C7  UNL     1      18.019  -1.275  16.285  1.00  0.00    -0.030 C 
HETATM    5  C8  UNL     1      18.293  -1.470  17.550  1.00  0.00    -0.031 C 
HETATM    6  C9  UNL     1      19.248  -2.477  18.088  1.00  0.00     0.027 C 
HETATM    7  C10 UNL     1      20.144  -1.736  19.082  1.00  0.00     0.004 C 
HETATM    8  C11 UNL     1      21.605  -2.020  18.861  1.00  0.00     0.000 C 
HETATM    9  C12 UNL     1      22.379  -0.778  18.441  1.00  0.00     0.000 C 
HETATM   10  C13 UNL     1      22.991  -0.962  17.061  1.00  0.00     0.000 C 
HETATM   11  C14 UNL     1      21.995  -0.623  15.951  1.00  0.00     0.007 C 
HETATM   12  C15 UNL     1      21.931  -1.780  15.023  1.00  0.00     0.010 C 
HETATM   13  C16 UNL     1      23.145  -1.720  14.112  1.00  0.00     0.026 C 
HETATM   14  C17 UNL     1      22.599  -1.238  12.753  1.00  0.00     0.118 C 
HETATM   15  N1  UNL     1      21.347  -0.778  13.080  1.00  0.00    -0.398 N 
HETATM   16  C18 UNL     1      20.833  -1.744  14.010  1.00  0.00     0.090 C 
HETATM   17  C19 UNL     1      20.357  -0.267  12.325  1.00  0.00     0.140 C 
ENDROOT
BRANCH  17  18
HETATM   18  C20 UNL     1      20.225  -0.515  10.851  1.00  0.00     0.171 C 
BRANCH  18  19
HETATM   19  O3  UNL     1      18.878  -0.925  10.685  1.00  0.00    -0.392 OA
ATOM     20  H3  UNL     1      18.378  -0.120  10.744  1.00  0.00     0.210 HD
ENDBRANCH  18  19
BRANCH  18  21
HETATM   21  C21 UNL     1      20.410   0.747  10.070  1.00  0.00     0.306 C 
BRANCH  21  22
HETATM   22  N2  UNL     1      21.647   0.812   9.300  1.00  0.00     0.094 N 
HETATM   23  C22 UNL     1      22.348   2.051   9.627  1.00  0.00     0.280 C 
HETATM   24  C23 UNL     1      21.821   3.246   8.851  1.00  0.00     0.111 C 
HETATM   25  C24 UNL     1      22.224   2.998   7.442  1.00  0.00     0.159 C 
HETATM   26  O4  UNL     1      22.413   3.921   6.701  1.00  0.00    -0.295 OA
HETATM   27  C25 UNL     1      22.366   1.576   7.048  1.00  0.00     0.218 C 
HETATM   28  C27 UNL     1      21.451   0.685   7.878  1.00  0.00     0.311 C 
BRANCH  27  29
HETATM   29  O5  UNL     1      23.639   1.075   7.134  1.00  0.00    -0.381 OA
HETATM   30  C26 UNL     1      23.759  -0.195   6.574  1.00  0.00     0.202 C 
ENDBRANCH  27  29
ENDBRANCH  21  22
ENDBRANCH  18  21
ENDBRANCH  17  18
BRANCH   1  31
HETATM   31  O2  UNL     1      18.116   0.331  13.146  1.00  0.00    -0.313 OA
BRANCH  31  32
HETATM   32  C3  UNL     1      16.740   0.035  13.067  1.00  0.00     0.258 C 
HETATM   33  O1  UNL     1      16.267  -0.701  12.167  1.00  0.00    -0.265 OA
BRANCH  32  34
HETATM   34  C2  UNL     1      15.788   0.593  14.066  1.00  0.00     0.106 C 
HETATM   35  C1  UNL     1      14.841  -0.474  14.572  1.00  0.00     0.015 C 
ENDBRANCH  32  34
ENDBRANCH  31  32
ENDBRANCH   1  31
TORSDOF 8
ENDMDL
MODEL 3
REMARK VINA RESULT: -6.870709808      2.514      3.497
REMARK  8 active torsions:
REMARK  status: ('A' for Active; 'I' for Inactive)
REMARK    1  A    between atoms: C2_2  and  C3_3 
REMARK    2  A    between atoms: C3_3  and  O2_5 
REMARK    3  A    between atoms: O2_5  and  C4_6 
REMARK    4  A    between atoms: C19_22  and  C20_23 
REMARK    5  A    between atoms: C20_23  and  O3_24 
REMARK    6  A    between atoms: C20_23  and  C21_26 
REMARK    7  A    between atoms: C21_26  and  N2_27 
REMARK    8  A    between atoms: C25_32  and  O5_33 
ROOT
HETATM    1  C4  UNL     1      20.452  -1.105  13.292  1.00  0.00     0.163 C 
HETATM    2  C5  UNL     1      20.618  -1.396  14.803  1.00  0.00     0.044 C 
HETATM    3  C6  UNL     1      19.570  -2.347  15.298  1.00  0.00     0.036 C 
HETATM    4  C7  UNL     1      18.665  -1.602  16.205  1.00  0.00    -0.030 C 
HETATM    5  C8  UNL     1      18.616  -1.704  17.509  1.00  0.00    -0.031 C 
HETATM    6  C9  UNL     1      19.467  -2.596  18.343  1.00  0.00     0.027 C 
HETATM    7  C10 UNL     1      20.024  -1.728  19.473  1.00  0.00     0.004 C 
HETATM    8  C11 UNL     1      21.509  -1.896  19.651  1.00  0.00     0.000 C 
HETATM    9  C12 UNL     1      22.277  -0.618  19.348  1.00  0.00     0.000 C 
HETATM   10  C13 UNL     1      23.235  -0.823  18.185  1.00  0.00     0.000 C 
HETATM   11  C14 UNL     1      22.537  -0.631  16.838  1.00  0.00     0.007 C 
HETATM   12  C15 UNL     1      22.794  -1.837  16.011  1.00  0.00     0.010 C 
HETATM   13  C16 UNL     1      24.195  -1.722  15.435  1.00  0.00     0.026 C 
HETATM   14  C17 UNL     1      23.985  -1.363  13.951  1.00  0.00     0.118 C 
HETATM   15  N1  UNL     1      22.662  -0.994  13.915  1.00  0.00    -0.398 N 
HETATM   16  C18 UNL     1      21.995  -1.949  14.754  1.00  0.00     0.090 C 
HETATM   17  C19 UNL     1      21.867  -0.612  12.900  1.00  0.00     0.140 C 
ENDROOT
BRANCH  17  18
HETATM   18  C20 UNL     1      22.137  -0.949  11.462  1.00  0.00     0.171 C 
BRANCH  18  19
HETATM   19  O3  UNL     1      20.866  -1.300  10.941  1.00  0.00    -0.392 OA
ATOM     20  H3  UNL     1      21.049  -2.002  10.329  1.00  0.00     0.210 HD
ENDBRANCH  18  19
BRANCH  18  21
HETATM   21  C21 UNL     1      22.619   0.247  10.706  1.00  0.00     0.306 C 
BRANCH  21  22
HETATM   22  N2  UNL     1      22.298   1.530  11.321  1.00  0.00     0.094 N 
HETATM   23  C22 UNL     1      21.332   2.234  10.482  1.00  0.00     0.280 C 
HETATM   24  C23 UNL     1      21.986   2.971   9.326  1.00  0.00     0.111 C 
HETATM   25  C24 UNL     1      22.748   4.080   9.959  1.00  0.00     0.159 C 
HETATM   26  O4  UNL     1      22.945   5.095   9.352  1.00  0.00    -0.295 OA
HETATM   27  C25 UNL     1      23.222   3.836  11.342  1.00  0.00     0.218 C 
HETATM   28  C27 UNL     1      23.452   2.350  11.586  1.00  0.00     0.311 C 
BRANCH  27  29
HETATM   29  O5  UNL     1      22.395   4.305  12.329  1.00  0.00    -0.381 OA
HETATM   30  C26 UNL     1      22.989   4.277  13.590  1.00  0.00     0.202 C 
ENDBRANCH  27  29
ENDBRANCH  21  22
ENDBRANCH  18  21
ENDBRANCH  17  18
BRANCH   1  31
HETATM   31  O2  UNL     1      19.455  -0.165  13.082  1.00  0.00    -0.313 OA
BRANCH  31  32
HETATM   32  C3  UNL     1      18.167  -0.582  12.689  1.00  0.00     0.258 C 
HETATM   33  O1  UNL     1      17.974  -1.255  11.647  1.00  0.00    -0.265 OA
BRANCH  32  34
HETATM   34  C2  UNL     1      16.976  -0.234  13.510  1.00  0.00     0.106 C 
HETATM   35  C1  UNL     1      16.492   1.167  13.203  1.00  0.00     0.015 C 
ENDBRANCH  32  34
ENDBRANCH  31  32
ENDBRANCH   1  31
TORSDOF 8
ENDMDL
MODEL 4
REMARK VINA RESULT: -6.853000328      1.506      2.308
REMARK  8 active torsions:
REMARK  status: ('A' for Active; 'I' for Inactive)
REMARK    1  A    between atoms: C2_2  and  C3_3 
REMARK    2  A    between atoms: C3_3  and  O2_5 
REMARK    3  A    between atoms: O2_5  and  C4_6 
REMARK    4  A    between atoms: C19_22  and  C20_23 
REMARK    5  A    between atoms: C20_23  and  O3_24 
REMARK    6  A    between atoms: C20_23  and  C21_26 
REMARK    7  A    between atoms: C21_26  and  N2_27 
REMARK    8  A    between atoms: C25_32  and  O5_33 
ROOT
HETATM    1  C4  UNL     1      19.156  -0.676  13.017  1.00  0.00     0.163 C 
HETATM    2  C5  UNL     1      19.610  -1.098  14.434  1.00  0.00     0.044 C 
HETATM    3  C6  UNL     1      18.610  -2.010  15.083  1.00  0.00     0.036 C 
HETATM    4  C7  UNL     1      17.983  -1.278  16.208  1.00  0.00    -0.030 C 
HETATM    5  C8  UNL     1      18.200  -1.482  17.483  1.00  0.00    -0.031 C 
HETATM    6  C9  UNL     1      19.127  -2.496  18.056  1.00  0.00     0.027 C 
HETATM    7  C10 UNL     1      19.981  -1.764  19.092  1.00  0.00     0.004 C 
HETATM    8  C11 UNL     1      21.449  -2.051  18.935  1.00  0.00     0.000 C 
HETATM    9  C12 UNL     1      22.245  -0.810  18.556  1.00  0.00     0.000 C 
HETATM   10  C13 UNL     1      22.917  -0.987  17.204  1.00  0.00     0.000 C 
HETATM   11  C14 UNL     1      21.971  -0.638  16.053  1.00  0.00     0.007 C 
HETATM   12  C15 UNL     1      21.944  -1.789  15.116  1.00  0.00     0.010 C 
HETATM   13  C16 UNL     1      23.197  -1.727  14.260  1.00  0.00     0.026 C 
HETATM   14  C17 UNL     1      22.713  -1.236  12.881  1.00  0.00     0.118 C 
HETATM   15  N1  UNL     1      21.449  -0.773  13.155  1.00  0.00    -0.398 N 
HETATM   16  C18 UNL     1      20.892  -1.742  14.056  1.00  0.00     0.090 C 
HETATM   17  C19 UNL     1      20.495  -0.254  12.361  1.00  0.00     0.140 C 
ENDROOT
BRANCH  17  18
HETATM   18  C20 UNL     1      20.427  -0.492  10.881  1.00  0.00     0.171 C 
BRANCH  18  19
HETATM   19  O3  UNL     1      19.114  -0.981  10.666  1.00  0.00    -0.392 OA
ATOM     20  H3  UNL     1      18.796  -0.479   9.925  1.00  0.00     0.210 HD
ENDBRANCH  18  19
BRANCH  18  21
HETATM   21  C21 UNL     1      20.562   0.787  10.119  1.00  0.00     0.306 C 
BRANCH  21  22
HETATM   22  N2  UNL     1      21.651   0.809   9.149  1.00  0.00     0.094 N 
HETATM   23  C22 UNL     1      21.125   0.456   7.833  1.00  0.00     0.280 C 
HETATM   24  C23 UNL     1      21.000  -1.044   7.634  1.00  0.00     0.111 C 
HETATM   25  C24 UNL     1      22.399  -1.543   7.578  1.00  0.00     0.159 C 
HETATM   26  O4  UNL     1      22.658  -2.534   6.954  1.00  0.00    -0.295 OA
HETATM   27  C25 UNL     1      23.403  -0.748   8.325  1.00  0.00     0.218 C 
HETATM   28  C27 UNL     1      22.763  -0.034   9.508  1.00  0.00     0.311 C 
BRANCH  27  29
HETATM   29  O5  UNL     1      24.073   0.186   7.578  1.00  0.00    -0.381 OA
HETATM   30  C26 UNL     1      25.181   0.713   8.241  1.00  0.00     0.202 C 
ENDBRANCH  27  29
ENDBRANCH  21  22
ENDBRANCH  18  21
ENDBRANCH  17  18
BRANCH   1  31
HETATM   31  O2  UNL     1      18.222   0.347  13.087  1.00  0.00    -0.313 OA
BRANCH  31  32
HETATM   32  C3  UNL     1      16.847   0.049  13.003  1.00  0.00     0.258 C 
HETATM   33  O1  UNL     1      16.383  -0.713  12.120  1.00  0.00    -0.265 OA
BRANCH  32  34
HETATM   34  C2  UNL     1      15.886   0.636  13.975  1.00  0.00     0.106 C 
HETATM   35  C1  UNL     1      14.764  -0.332  14.285  1.00  0.00     0.015 C 
ENDBRANCH  32  34
ENDBRANCH  31  32
ENDBRANCH   1  31
TORSDOF 8
ENDMDL
MODEL 5
REMARK VINA RESULT: -6.766633282      1.968      2.624
REMARK  8 active torsions:
REMARK  status: ('A' for Active; 'I' for Inactive)
REMARK    1  A    between atoms: C2_2  and  C3_3 
REMARK    2  A    between atoms: C3_3  and  O2_5 
REMARK    3  A    between atoms: O2_5  and  C4_6 
REMARK    4  A    between atoms: C19_22  and  C20_23 
REMARK    5  A    between atoms: C20_23  and  O3_24 
REMARK    6  A    between atoms: C20_23  and  C21_26 
REMARK    7  A    between atoms: C21_26  and  N2_27 
REMARK    8  A    between atoms: C25_32  and  O5_33 
ROOT
HETATM    1  C4  UNL     1      19.044  -0.701  13.040  1.00  0.00     0.163 C 
HETATM    2  C5  UNL     1      19.529  -1.115  14.450  1.00  0.00     0.044 C 
HETATM    3  C6  UNL     1      18.541  -2.018  15.127  1.00  0.00     0.036 C 
HETATM    4  C7  UNL     1      17.943  -1.277  16.262  1.00  0.00    -0.030 C 
HETATM    5  C8  UNL     1      18.188  -1.473  17.532  1.00  0.00    -0.031 C 
HETATM    6  C9  UNL     1      19.125  -2.486  18.091  1.00  0.00     0.027 C 
HETATM    7  C10 UNL     1      20.005  -1.750  19.102  1.00  0.00     0.004 C 
HETATM    8  C11 UNL     1      21.469  -2.042  18.913  1.00  0.00     0.000 C 
HETATM    9  C12 UNL     1      22.259  -0.806  18.508  1.00  0.00     0.000 C 
HETATM   10  C13 UNL     1      22.899  -0.995  17.141  1.00  0.00     0.000 C 
HETATM   11  C14 UNL     1      21.928  -0.651  16.011  1.00  0.00     0.007 C 
HETATM   12  C15 UNL     1      21.876  -1.808  15.082  1.00  0.00     0.010 C 
HETATM   13  C16 UNL     1      23.110  -1.756  14.197  1.00  0.00     0.026 C 
HETATM   14  C17 UNL     1      22.596  -1.272  12.827  1.00  0.00     0.118 C 
HETATM   15  N1  UNL     1      21.339  -0.804  13.127  1.00  0.00    -0.398 N 
HETATM   16  C18 UNL     1      20.801  -1.765  14.046  1.00  0.00     0.090 C 
HETATM   17  C19 UNL     1      20.369  -0.288  12.351  1.00  0.00     0.140 C 
ENDROOT
BRANCH  17  18
HETATM   18  C20 UNL     1      20.266  -0.535  10.875  1.00  0.00     0.171 C 
BRANCH  18  19
HETATM   19  O3  UNL     1      18.914  -0.912  10.676  1.00  0.00    -0.392 OA
ATOM     20  H3  UNL     1      18.416  -0.158  10.967  1.00  0.00     0.210 HD
ENDBRANCH  18  19
BRANCH  18  21
HETATM   21  C21 UNL     1      20.503   0.719  10.096  1.00  0.00     0.306 C 
BRANCH  21  22
HETATM   22  N2  UNL     1      21.830   1.300  10.262  1.00  0.00     0.094 N 
HETATM   23  C22 UNL     1      21.742   2.748  10.093  1.00  0.00     0.280 C 
HETATM   24  C23 UNL     1      21.758   3.171   8.634  1.00  0.00     0.111 C 
HETATM   25  C24 UNL     1      23.133   2.863   8.160  1.00  0.00     0.159 C 
HETATM   26  O4  UNL     1      23.617   3.503   7.268  1.00  0.00    -0.295 OA
HETATM   27  C25 UNL     1      23.825   1.750   8.851  1.00  0.00     0.218 C 
HETATM   28  C27 UNL     1      22.824   0.734   9.387  1.00  0.00     0.311 C 
BRANCH  27  29
HETATM   29  O5  UNL     1      24.641   2.128   9.885  1.00  0.00    -0.381 OA
HETATM   30  C26 UNL     1      25.507   1.113  10.290  1.00  0.00     0.202 C 
ENDBRANCH  27  29
ENDBRANCH  21  22
ENDBRANCH  18  21
ENDBRANCH  17  18
BRANCH   1  31
HETATM   31  O2  UNL     1      18.115   0.325  13.124  1.00  0.00    -0.313 OA
BRANCH  31  32
HETATM   32  C3  UNL     1      16.738   0.035  13.040  1.00  0.00     0.258 C 
HETATM   33  O1  UNL     1      16.267  -0.705  12.142  1.00  0.00    -0.265 OA
BRANCH  32  34
HETATM   34  C2  UNL     1      15.784   0.604  14.031  1.00  0.00     0.106 C 
HETATM   35  C1  UNL     1      14.770  -0.432  14.467  1.00  0.00     0.015 C 
ENDBRANCH  32  34
ENDBRANCH  31  32
ENDBRANCH   1  31
TORSDOF 8
ENDMDL
