MODEL 1
REMARK VINA RESULT: -6.577397895      0.000      0.000
REMARK  9 active torsions:
REMARK  status: ('A' for Active; 'I' for Inactive)
REMARK    1  A    between atoms: C2_2  and  O1_3 
REMARK    2  A    between atoms: C2_2  and  N1_5 
REMARK    3  A    between atoms: N1_5  and  C4_7 
REMARK    4  A    between atoms: C13_18  and  O4_19 
REMARK    5  A    between atoms: O4_19  and  C14_20 
REMARK    6  A    between atoms: C14_20  and  C16_22 
REMARK    7  A    between atoms: C16_22  and  C17_23 
REMARK    8  A    between atoms: C22_28  and  C23_29 
REMARK    9  A    between atoms: C23_29  and  O5_32 
ROOT
HETATM    1  C4  UNL     1      22.287   0.876   8.604  1.00  0.00     0.103 C 
HETATM    2  C5  UNL     1      22.988   0.475   9.601  1.00  0.00     0.009 C 
HETATM    3  C6  UNL     1      23.027  -0.591  10.576  1.00  0.00     0.176 C 
HETATM    4  O2  UNL     1      22.898  -1.791  10.350  1.00  0.00    -0.291 OA
HETATM    5  C7  UNL     1      23.259   0.085  11.853  1.00  0.00     0.118 C 
HETATM    6  C8  UNL     1      24.035   1.322  11.582  1.00  0.00     0.038 C 
HETATM    7  C9  UNL     1      24.199   1.359  10.082  1.00  0.00     0.021 C 
HETATM    8  C10 UNL     1      25.439   0.714   9.572  1.00  0.00     0.015 C 
HETATM    9  C11 UNL     1      21.945   0.321  12.540  1.00  0.00     0.156 C 
HETATM   10  O3  UNL     1      21.105   1.181  12.360  1.00  0.00    -0.296 OA
HETATM   11  C12 UNL     1      22.230  -0.860  13.373  1.00  0.00     0.124 C 
HETATM   12  C13 UNL     1      22.224  -0.447  14.847  1.00  0.00     0.168 C 
HETATM   13  C22 UNL     1      23.354   0.514  14.841  1.00  0.00     0.185 C 
HETATM   14  O6  UNL     1      24.325  -0.037  14.009  1.00  0.00    -0.367 OA
HETATM   15  C26 UNL     1      23.675  -0.747  13.021  1.00  0.00     0.093 C 
HETATM   16  C27 UNL     1      24.389  -2.029  12.714  1.00  0.00     0.048 C 
ENDROOT
BRANCH   1  17
HETATM   17  N1  UNL     1      21.173   0.565   7.867  1.00  0.00    -0.345 N 
HETATM   18  C3  UNL     1      21.299   0.904   6.385  1.00  0.00     0.157 C 
BRANCH  17  19
HETATM   19  C2  UNL     1      19.982  -0.056   8.159  1.00  0.00     0.113 C 
HETATM   20  C1  UNL     1      19.621  -1.051   9.181  1.00  0.00     0.097 C 
BRANCH  19  21
HETATM   21  O1  UNL     1      18.955   0.298   7.398  1.00  0.00    -0.349 OA
ATOM     22  H1  UNL     1      18.656  -0.402   6.830  1.00  0.00     0.219 HD
ENDBRANCH  19  21
ENDBRANCH  17  19
ENDBRANCH   1  17
BRANCH  12  23
HETATM   23  O4  UNL     1      22.373  -1.588  15.590  1.00  0.00    -0.377 OA
BRANCH  23  24
HETATM   24  C14 UNL     1      21.241  -2.441  15.507  1.00  0.00     0.118 C 
HETATM   25  C15 UNL     1      21.702  -3.872  15.544  1.00  0.00     0.039 C 
BRANCH  24  26
HETATM   26  C16 UNL     1      20.266  -2.151  16.587  1.00  0.00     0.036 C 
BRANCH  26  27
HETATM   27  C17 UNL     1      18.829  -2.185  16.221  1.00  0.00    -0.012 C 
HETATM   28  C18 UNL     1      18.598  -1.121  15.102  1.00  0.00     0.005 C 
HETATM   29  C19 UNL     1      17.093  -1.209  14.979  1.00  0.00     0.000 C 
HETATM   30  C20 UNL     1      16.615  -1.282  16.418  1.00  0.00     0.000 C 
HETATM   31  C21 UNL     1      17.859  -1.646  17.230  1.00  0.00     0.005 C 
ENDBRANCH  26  27
ENDBRANCH  24  26
ENDBRANCH  23  24
ENDBRANCH  12  23
BRANCH  13  32
HETATM   32  C23 UNL     1      23.893   0.937  16.160  1.00  0.00     0.079 C 
HETATM   33  C24 UNL     1      23.799   2.477  16.188  1.00  0.00     0.048 C 
HETATM   34  C25 UNL     1      25.329   0.604  16.404  1.00  0.00     0.048 C 
BRANCH  32  35
HETATM   35  O5  UNL     1      23.055   0.500  17.172  1.00  0.00    -0.388 OA
ATOM     36  H5  UNL     1      23.481   0.610  18.014  1.00  0.00     0.210 HD
ENDBRANCH  32  35
ENDBRANCH  13  32
TORSDOF 9
ENDMDL
MODEL 2
REMARK VINA RESULT: -6.562812038      3.498      6.006
REMARK  9 active torsions:
REMARK  status: ('A' for Active; 'I' for Inactive)
REMARK    1  A    between atoms: C2_2  and  O1_3 
REMARK    2  A    between atoms: C2_2  and  N1_5 
REMARK    3  A    between atoms: N1_5  and  C4_7 
REMARK    4  A    between atoms: C13_18  and  O4_19 
REMARK    5  A    between atoms: O4_19  and  C14_20 
REMARK    6  A    between atoms: C14_20  and  C16_22 
REMARK    7  A    between atoms: C16_22  and  C17_23 
REMARK    8  A    between atoms: C22_28  and  C23_29 
REMARK    9  A    between atoms: C23_29  and  O5_32 
ROOT
HETATM    1  C4  UNL     1      25.680  -5.210   8.792  1.00  0.00     0.103 C 
HETATM    2  C5  UNL     1      25.433  -3.973   9.027  1.00  0.00     0.009 C 
HETATM    3  C6  UNL     1      24.847  -3.130  10.045  1.00  0.00     0.176 C 
HETATM    4  O2  UNL     1      25.068  -3.182  11.251  1.00  0.00    -0.291 OA
HETATM    5  C7  UNL     1      23.963  -2.225   9.309  1.00  0.00     0.118 C 
HETATM    6  C8  UNL     1      24.534  -2.032   7.951  1.00  0.00     0.038 C 
HETATM    7  C9  UNL     1      25.761  -2.908   7.915  1.00  0.00     0.021 C 
HETATM    8  C10 UNL     1      27.024  -2.233   8.318  1.00  0.00     0.015 C 
HETATM    9  C11 UNL     1      22.566  -2.772   9.319  1.00  0.00     0.156 C 
HETATM   10  O3  UNL     1      22.057  -3.644   8.641  1.00  0.00    -0.296 OA
HETATM   11  C12 UNL     1      22.259  -1.824  10.403  1.00  0.00     0.124 C 
HETATM   12  C13 UNL     1      21.103  -0.921   9.968  1.00  0.00     0.168 C 
HETATM   13  C22 UNL     1      21.735  -0.249   8.806  1.00  0.00     0.185 C 
HETATM   14  O6  UNL     1      23.054   0.001   9.175  1.00  0.00    -0.367 OA
HETATM   15  C26 UNL     1      23.452  -1.015  10.019  1.00  0.00     0.093 C 
HETATM   16  C27 UNL     1      24.292  -0.490  11.144  1.00  0.00     0.048 C 
ENDROOT
BRANCH   1  17
HETATM   17  N1  UNL     1      25.542  -6.464   9.329  1.00  0.00    -0.345 N 
HETATM   18  C3  UNL     1      26.568  -6.788  10.411  1.00  0.00     0.157 C 
BRANCH  17  19
HETATM   19  C2  UNL     1      24.631  -7.479   9.156  1.00  0.00     0.113 C 
HETATM   20  C1  UNL     1      23.569  -7.682   8.158  1.00  0.00     0.097 C 
BRANCH  19  21
HETATM   21  O1  UNL     1      24.712  -8.471  10.033  1.00  0.00    -0.349 OA
ATOM     22  H1  UNL     1      25.604  -8.658  10.300  1.00  0.00     0.219 HD
ENDBRANCH  19  21
ENDBRANCH  17  19
ENDBRANCH   1  17
BRANCH  12  23
HETATM   23  O4  UNL     1      20.771  -0.139  11.042  1.00  0.00    -0.377 OA
BRANCH  23  24
HETATM   24  C14 UNL     1      19.458  -0.394  11.515  1.00  0.00     0.118 C 
HETATM   25  C15 UNL     1      18.849  -1.500  10.699  1.00  0.00     0.039 C 
BRANCH  24  26
HETATM   26  C16 UNL     1      19.457  -0.717  12.963  1.00  0.00     0.036 C 
BRANCH  26  27
HETATM   27  C17 UNL     1      18.139  -0.956  13.599  1.00  0.00    -0.012 C 
HETATM   28  C18 UNL     1      17.316   0.367  13.496  1.00  0.00     0.005 C 
HETATM   29  C19 UNL     1      16.102  -0.030  14.306  1.00  0.00     0.000 C 
HETATM   30  C20 UNL     1      16.686  -0.767  15.498  1.00  0.00     0.000 C 
HETATM   31  C21 UNL     1      18.121  -1.103  15.091  1.00  0.00     0.005 C 
ENDBRANCH  26  27
ENDBRANCH  24  26
ENDBRANCH  23  24
ENDBRANCH  12  23
BRANCH  13  32
HETATM   32  C23 UNL     1      21.049   0.950   8.259  1.00  0.00     0.079 C 
HETATM   33  C24 UNL     1      21.490   1.061   6.784  1.00  0.00     0.048 C 
HETATM   34  C25 UNL     1      21.415   2.249   8.901  1.00  0.00     0.048 C 
BRANCH  32  35
HETATM   35  O5  UNL     1      19.682   0.732   8.217  1.00  0.00    -0.388 OA
ATOM     36  H5  UNL     1      19.470   0.148   7.498  1.00  0.00     0.210 HD
ENDBRANCH  32  35
ENDBRANCH  13  32
TORSDOF 9
ENDMDL
MODEL 3
REMARK VINA RESULT: -6.518491172      2.164      3.584
REMARK  9 active torsions:
REMARK  status: ('A' for Active; 'I' for Inactive)
REMARK    1  A    between atoms: C2_2  and  O1_3 
REMARK    2  A    between atoms: C2_2  and  N1_5 
REMARK    3  A    between atoms: N1_5  and  C4_7 
REMARK    4  A    between atoms: C13_18  and  O4_19 
REMARK    5  A    between atoms: O4_19  and  C14_20 
REMARK    6  A    between atoms: C14_20  and  C16_22 
REMARK    7  A    between atoms: C16_22  and  C17_23 
REMARK    8  A    between atoms: C22_28  and  C23_29 
REMARK    9  A    between atoms: C23_29  and  O5_32 
ROOT
HETATM    1  C4  UNL     1      23.988   1.380   6.336  1.00  0.00     0.103 C 
HETATM    2  C5  UNL     1      23.764   0.442   7.183  1.00  0.00     0.009 C 
HETATM    3  C6  UNL     1      22.662  -0.226   7.836  1.00  0.00     0.176 C 
HETATM    4  O2  UNL     1      21.640  -0.643   7.299  1.00  0.00    -0.291 OA
HETATM    5  C7  UNL     1      23.053  -0.290   9.246  1.00  0.00     0.118 C 
HETATM    6  C8  UNL     1      24.536  -0.352   9.307  1.00  0.00     0.038 C 
HETATM    7  C9  UNL     1      24.990  -0.269   7.870  1.00  0.00     0.021 C 
HETATM    8  C10 UNL     1      25.167  -1.582   7.193  1.00  0.00     0.015 C 
HETATM    9  C11 UNL     1      22.454   0.871   9.984  1.00  0.00     0.156 C 
HETATM   10  O3  UNL     1      22.811   2.032  10.049  1.00  0.00    -0.296 OA
HETATM   11  C12 UNL     1      21.408  -0.045  10.468  1.00  0.00     0.124 C 
HETATM   12  C13 UNL     1      21.415  -0.052  11.999  1.00  0.00     0.168 C 
HETATM   13  C22 UNL     1      22.778  -0.588  12.238  1.00  0.00     0.185 C 
HETATM   14  O6  UNL     1      22.977  -1.578  11.279  1.00  0.00    -0.367 OA
HETATM   15  C26 UNL     1      22.288  -1.205  10.144  1.00  0.00     0.093 C 
HETATM   16  C27 UNL     1      21.626  -2.384   9.498  1.00  0.00     0.048 C 
ENDROOT
BRANCH   1  17
HETATM   17  N1  UNL     1      23.351   2.309   5.555  1.00  0.00    -0.345 N 
HETATM   18  C3  UNL     1      24.127   3.613   5.391  1.00  0.00     0.157 C 
BRANCH  17  19
HETATM   19  C2  UNL     1      22.188   2.300   4.821  1.00  0.00     0.113 C 
HETATM   20  C1  UNL     1      21.917   2.622   3.412  1.00  0.00     0.097 C 
BRANCH  19  21
HETATM   21  O1  UNL     1      21.102   1.929   5.485  1.00  0.00    -0.349 OA
ATOM     22  H1  UNL     1      21.240   1.157   6.021  1.00  0.00     0.219 HD
ENDBRANCH  19  21
ENDBRANCH  17  19
ENDBRANCH   1  17
BRANCH  12  23
HETATM   23  O4  UNL     1      20.356  -0.818  12.407  1.00  0.00    -0.377 OA
BRANCH  23  24
HETATM   24  C14 UNL     1      19.119  -0.359  11.884  1.00  0.00     0.118 C 
HETATM   25  C15 UNL     1      18.370  -1.524  11.301  1.00  0.00     0.039 C 
BRANCH  24  26
HETATM   26  C16 UNL     1      18.322   0.343  12.920  1.00  0.00     0.036 C 
BRANCH  26  27
HETATM   27  C17 UNL     1      17.421  -0.489  13.754  1.00  0.00    -0.012 C 
HETATM   28  C18 UNL     1      16.289   0.437  14.301  1.00  0.00     0.005 C 
HETATM   29  C19 UNL     1      15.585  -0.541  15.214  1.00  0.00     0.000 C 
HETATM   30  C20 UNL     1      16.721  -1.269  15.911  1.00  0.00     0.000 C 
HETATM   31  C21 UNL     1      17.961  -0.967  15.069  1.00  0.00     0.005 C 
ENDBRANCH  26  27
ENDBRANCH  24  26
ENDBRANCH  23  24
ENDBRANCH  12  23
BRANCH  13  32
HETATM   32  C23 UNL     1      23.094  -1.044  13.617  1.00  0.00     0.079 C 
HETATM   33  C24 UNL     1      23.184   0.232  14.480  1.00  0.00     0.048 C 
HETATM   34  C25 UNL     1      24.405  -1.746  13.775  1.00  0.00     0.048 C 
BRANCH  32  35
HETATM   35  O5  UNL     1      22.028  -1.762  14.132  1.00  0.00    -0.388 OA
ATOM     36  H5  UNL     1      22.252  -2.102  14.990  1.00  0.00     0.210 HD
ENDBRANCH  32  35
ENDBRANCH  13  32
TORSDOF 9
ENDMDL
MODEL 4
REMARK VINA RESULT: -6.491924662      2.358      5.975
REMARK  9 active torsions:
REMARK  status: ('A' for Active; 'I' for Inactive)
REMARK    1  A    between atoms: C2_2  and  O1_3 
REMARK    2  A    between atoms: C2_2  and  N1_5 
REMARK    3  A    between atoms: N1_5  and  C4_7 
REMARK    4  A    between atoms: C13_18  and  O4_19 
REMARK    5  A    between atoms: O4_19  and  C14_20 
REMARK    6  A    between atoms: C14_20  and  C16_22 
REMARK    7  A    between atoms: C16_22  and  C17_23 
REMARK    8  A    between atoms: C22_28  and  C23_29 
REMARK    9  A    between atoms: C23_29  and  O5_32 
ROOT
HETATM    1  C4  UNL     1      25.829   0.911  13.788  1.00  0.00     0.103 C 
HETATM    2  C5  UNL     1      24.869   1.187  12.982  1.00  0.00     0.009 C 
HETATM    3  C6  UNL     1      23.469   1.545  13.001  1.00  0.00     0.176 C 
HETATM    4  O2  UNL     1      22.942   2.394  13.715  1.00  0.00    -0.291 OA
HETATM    5  C7  UNL     1      22.854   0.681  11.991  1.00  0.00     0.118 C 
HETATM    6  C8  UNL     1      23.876   0.395  10.951  1.00  0.00     0.038 C 
HETATM    7  C9  UNL     1      25.127   1.089  11.432  1.00  0.00     0.021 C 
HETATM    8  C10 UNL     1      25.304   2.478  10.931  1.00  0.00     0.015 C 
HETATM    9  C11 UNL     1      22.289  -0.541  12.653  1.00  0.00     0.156 C 
HETATM   10  O3  UNL     1      22.840  -1.558  13.030  1.00  0.00    -0.296 OA
HETATM   11  C12 UNL     1      20.965   0.099  12.584  1.00  0.00     0.124 C 
HETATM   12  C13 UNL     1      20.012  -0.802  11.795  1.00  0.00     0.168 C 
HETATM   13  C22 UNL     1      20.700  -0.800  10.480  1.00  0.00     0.185 C 
HETATM   14  O6  UNL     1      21.162   0.500  10.288  1.00  0.00    -0.367 OA
HETATM   15  C26 UNL     1      21.476   1.019  11.527  1.00  0.00     0.093 C 
HETATM   16  C27 UNL     1      21.062   2.455  11.635  1.00  0.00     0.048 C 
ENDROOT
BRANCH   1  17
HETATM   17  N1  UNL     1      26.120   0.775  15.121  1.00  0.00    -0.345 N 
HETATM   18  C3  UNL     1      27.542   1.189  15.487  1.00  0.00     0.157 C 
BRANCH  17  19
HETATM   19  C2  UNL     1      25.383   0.412  16.224  1.00  0.00     0.113 C 
HETATM   20  C1  UNL     1      23.989  -0.036  16.366  1.00  0.00     0.097 C 
BRANCH  19  21
HETATM   21  O1  UNL     1      26.032   0.459  17.380  1.00  0.00    -0.349 OA
ATOM     22  H1  UNL     1      26.959   0.275  17.292  1.00  0.00     0.219 HD
ENDBRANCH  19  21
ENDBRANCH  17  19
ENDBRANCH   1  17
BRANCH  12  23
HETATM   23  O4  UNL     1      18.769  -0.232  11.856  1.00  0.00    -0.377 OA
BRANCH  23  24
HETATM   24  C14 UNL     1      18.318  -0.055  13.190  1.00  0.00     0.118 C 
HETATM   25  C15 UNL     1      16.941   0.548  13.166  1.00  0.00     0.039 C 
BRANCH  24  26
HETATM   26  C16 UNL     1      18.344  -1.332  13.944  1.00  0.00     0.036 C 
BRANCH  26  27
HETATM   27  C17 UNL     1      18.824  -1.275  15.346  1.00  0.00    -0.012 C 
HETATM   28  C18 UNL     1      20.019  -2.272  15.480  1.00  0.00     0.005 C 
HETATM   29  C19 UNL     1      20.260  -2.175  16.970  1.00  0.00     0.000 C 
HETATM   30  C20 UNL     1      18.863  -2.185  17.565  1.00  0.00     0.000 C 
HETATM   31  C21 UNL     1      17.931  -1.871  16.394  1.00  0.00     0.005 C 
ENDBRANCH  26  27
ENDBRANCH  24  26
ENDBRANCH  23  24
ENDBRANCH  12  23
BRANCH  13  32
HETATM   32  C23 UNL     1      19.939  -1.323   9.316  1.00  0.00     0.079 C 
HETATM   33  C24 UNL     1      20.868  -2.338   8.617  1.00  0.00     0.048 C 
HETATM   34  C25 UNL     1      19.576  -0.310   8.278  1.00  0.00     0.048 C 
BRANCH  32  35
HETATM   35  O5  UNL     1      18.854  -2.062   9.756  1.00  0.00    -0.388 OA
ATOM     36  H5  UNL     1      18.346  -2.364   9.012  1.00  0.00     0.210 HD
ENDBRANCH  32  35
ENDBRANCH  13  32
TORSDOF 9
ENDMDL
MODEL 5
REMARK VINA RESULT: -6.282958102      2.507      5.948
REMARK  9 active torsions:
REMARK  status: ('A' for Active; 'I' for Inactive)
REMARK    1  A    between atoms: C2_2  and  O1_3 
REMARK    2  A    between atoms: C2_2  and  N1_5 
REMARK    3  A    between atoms: N1_5  and  C4_7 
REMARK    4  A    between atoms: C13_18  and  O4_19 
REMARK    5  A    between atoms: O4_19  and  C14_20 
REMARK    6  A    between atoms: C14_20  and  C16_22 
REMARK    7  A    between atoms: C16_22  and  C17_23 
REMARK    8  A    between atoms: C22_28  and  C23_29 
REMARK    9  A    between atoms: C23_29  and  O5_32 
ROOT
HETATM    1  C4  UNL     1      26.276   0.825  12.945  1.00  0.00     0.103 C 
HETATM    2  C5  UNL     1      25.248   1.123  12.237  1.00  0.00     0.009 C 
HETATM    3  C6  UNL     1      23.866   1.513  12.394  1.00  0.00     0.176 C 
HETATM    4  O2  UNL     1      23.432   2.374  13.153  1.00  0.00    -0.291 OA
HETATM    5  C7  UNL     1      23.134   0.663  11.452  1.00  0.00     0.118 C 
HETATM    6  C8  UNL     1      24.042   0.353  10.317  1.00  0.00     0.038 C 
HETATM    7  C9  UNL     1      25.350   1.018  10.669  1.00  0.00     0.021 C 
HETATM    8  C10 UNL     1      25.507   2.403  10.149  1.00  0.00     0.015 C 
HETATM    9  C11 UNL     1      22.610  -0.545  12.170  1.00  0.00     0.156 C 
HETATM   10  O3  UNL     1      23.172  -1.574  12.495  1.00  0.00    -0.296 OA
HETATM   11  C12 UNL     1      21.300   0.125  12.230  1.00  0.00     0.124 C 
HETATM   12  C13 UNL     1      20.254  -0.755  11.542  1.00  0.00     0.168 C 
HETATM   13  C22 UNL     1      20.808  -0.770  10.166  1.00  0.00     0.185 C 
HETATM   14  O6  UNL     1      21.278   0.519   9.925  1.00  0.00    -0.367 OA
HETATM   15  C26 UNL     1      21.725   1.032  11.125  1.00  0.00     0.093 C 
HETATM   16  C27 UNL     1      21.357   2.478  11.269  1.00  0.00     0.048 C 
ENDROOT
BRANCH   1  17
HETATM   17  N1  UNL     1      26.694   0.685  14.244  1.00  0.00    -0.345 N 
HETATM   18  C3  UNL     1      26.922   2.010  14.965  1.00  0.00     0.157 C 
BRANCH  17  19
HETATM   19  C2  UNL     1      26.889  -0.397  15.069  1.00  0.00     0.113 C 
HETATM   20  C1  UNL     1      26.810  -0.540  16.531  1.00  0.00     0.097 C 
BRANCH  19  21
HETATM   21  O1  UNL     1      27.198  -1.531  14.454  1.00  0.00    -0.349 OA
ATOM     22  H1  UNL     1      26.766  -2.288  14.833  1.00  0.00     0.219 HD
ENDBRANCH  19  21
ENDBRANCH  17  19
ENDBRANCH   1  17
BRANCH  12  23
HETATM   23  O4  UNL     1      19.036  -0.156  11.724  1.00  0.00    -0.377 OA
BRANCH  23  24
HETATM   24  C14 UNL     1      18.619  -0.174  13.081  1.00  0.00     0.118 C 
HETATM   25  C15 UNL     1      17.145   0.115  13.145  1.00  0.00     0.039 C 
BRANCH  24  26
HETATM   26  C16 UNL     1      18.953  -1.465  13.732  1.00  0.00     0.036 C 
BRANCH  26  27
HETATM   27  C17 UNL     1      19.377  -1.411  15.152  1.00  0.00    -0.012 C 
HETATM   28  C18 UNL     1      20.466  -2.510  15.365  1.00  0.00     0.005 C 
HETATM   29  C19 UNL     1      20.652  -2.391  16.861  1.00  0.00     0.000 C 
HETATM   30  C20 UNL     1      19.237  -2.255  17.393  1.00  0.00     0.000 C 
HETATM   31  C21 UNL     1      18.389  -1.890  16.174  1.00  0.00     0.005 C 
ENDBRANCH  26  27
ENDBRANCH  24  26
ENDBRANCH  23  24
ENDBRANCH  12  23
BRANCH  13  32
HETATM   32  C23 UNL     1      19.924  -1.276   9.084  1.00  0.00     0.079 C 
HETATM   33  C24 UNL     1      20.740  -2.346   8.329  1.00  0.00     0.048 C 
HETATM   34  C25 UNL     1      19.518  -0.265   8.061  1.00  0.00     0.048 C 
BRANCH  32  35
HETATM   35  O5  UNL     1      18.849  -1.954   9.633  1.00  0.00    -0.388 OA
ATOM     36  H5  UNL     1      18.253  -2.227   8.945  1.00  0.00     0.210 HD
ENDBRANCH  32  35
ENDBRANCH  13  32
TORSDOF 9
ENDMDL
