MODEL 1
REMARK VINA RESULT: -6.888532540      0.000      0.000
REMARK  6 active torsions:
REMARK  status: ('A' for Active; 'I' for Inactive)
REMARK    1  A    between atoms: C1_4  and  C2_6 
REMARK    2  A    between atoms: N3_9  and  C5_10 
REMARK    3  A    between atoms: C6_11  and  N4_12 
REMARK    4  A    between atoms: N4_12  and  C7_14 
REMARK    5  A    between atoms: C9_18  and  N6_19 
REMARK    6  A    between atoms: C13_28  and  C14_29 
ROOT
HETATM    1  C5  UNL     1       0.061 -10.760 -28.650  1.00  0.00     0.098 A 
HETATM    2  C6  UNL     1       0.791  -9.658 -29.091  1.00  0.00     0.063 A 
HETATM    3  C11 UNL     1       0.311  -8.398 -28.774  1.00  0.00     0.046 A 
HETATM    4  C12 UNL     1      -0.889  -8.218 -28.028  1.00  0.00     0.004 A 
HETATM    5  C13 UNL     1      -1.601  -7.093 -27.665  1.00  0.00    -0.026 A 
HETATM    6  C19 UNL     1      -2.766  -7.526 -27.022  1.00  0.00     0.097 A 
HETATM    7  N8  UNL     1      -2.705  -8.890 -27.026  1.00  0.00    -0.362 N 
ATOM      8  H8  UNL     1      -3.418  -9.500 -26.627  1.00  0.00     0.165 HD
HETATM    9  C20 UNL     1      -1.583  -9.323 -27.624  1.00  0.00     0.084 A 
HETATM   10  C21 UNL     1      -1.106 -10.558 -27.935  1.00  0.00     0.172 A 
HETATM   11  F2  UNL     1      -1.814 -11.661 -27.519  1.00  0.00    -0.201 F 
ENDROOT
BRANCH   2  12
HETATM   12  N4  UNL     1       1.869  -9.921 -29.916  1.00  0.00    -0.350 N 
ATOM     13  H4  UNL     1       1.671 -10.728 -30.508  1.00  0.00     0.166 HD
BRANCH  12  14
HETATM   14  C7  UNL     1       3.126  -9.429 -30.186  1.00  0.00     0.106 A 
HETATM   15  C8  UNL     1       3.454  -8.350 -30.949  1.00  0.00     0.140 A 
HETATM   16  N5  UNL     1       4.749  -7.999 -31.129  1.00  0.00    -0.200 N 
HETATM   17  C9  UNL     1       5.784  -8.662 -30.588  1.00  0.00     0.677 A 
ATOM     18  H5  UNL     1       4.950  -7.185 -31.709  1.00  0.00     0.183 HD
HETATM   19  N7  UNL     1       5.505  -9.717 -29.841  1.00  0.00    -0.164 N 
HETATM   20  C10 UNL     1       4.246 -10.098 -29.640  1.00  0.00     0.231 A 
ATOM     21  H7  UNL     1       6.265 -10.245 -29.413  1.00  0.00     0.186 HD
HETATM   22  F1  UNL     1       4.064 -11.193 -28.861  1.00  0.00    -0.183 F 
BRANCH  17  23
HETATM   23  N6  UNL     1       7.011  -8.330 -30.791  1.00  0.00    -0.234 N 
ATOM     24  H62 UNL     1       7.230  -7.409 -31.171  1.00  0.00     0.174 HD
ATOM     25  H61 UNL     1       7.796  -8.942 -30.567  1.00  0.00     0.174 HD
ENDBRANCH  17  23
ENDBRANCH  12  14
ENDBRANCH   2  12
BRANCH   1  26
HETATM   26  N3  UNL     1       0.540 -12.114 -28.763  1.00  0.00    -0.376 N 
HETATM   27  C4  UNL     1       0.580 -13.115 -29.709  1.00  0.00     0.124 C 
HETATM   28  C3  UNL     1       1.785 -13.993 -29.264  1.00  0.00     0.033 C 
HETATM   29  C2  UNL     1       1.525 -14.032 -27.786  1.00  0.00     0.069 C 
HETATM   30  C22 UNL     1       1.086 -12.654 -27.478  1.00  0.00     0.135 C 
BRANCH  29  31
HETATM   31  C1  UNL     1       2.597 -14.478 -26.925  1.00  0.00     0.092 C 
HETATM   32  N1  UNL     1       3.739 -13.890 -26.864  1.00  0.00    -0.391 N 
ATOM     33  H12 UNL     1       4.495 -14.205 -26.256  1.00  0.00     0.157 HD
ATOM     34  H11 UNL     1       3.847 -13.080 -27.475  1.00  0.00     0.157 HD
HETATM   35  N2  UNL     1       2.446 -15.606 -26.073  1.00  0.00    -0.088 NA
ENDBRANCH  29  31
ENDBRANCH   1  26
BRANCH   5  36
HETATM   36  C14 UNL     1      -1.103  -5.710 -27.754  1.00  0.00     0.021 C 
HETATM   37  C15 UNL     1      -0.867  -5.172 -29.137  1.00  0.00     0.009 C 
HETATM   38  C16 UNL     1      -2.204  -5.138 -29.796  1.00  0.00     0.001 C 
HETATM   39  C17 UNL     1      -3.058  -4.504 -28.712  1.00  0.00     0.001 C 
HETATM   40  C18 UNL     1      -2.363  -4.812 -27.410  1.00  0.00     0.009 C 
ENDBRANCH   5  36
TORSDOF 6
ENDMDL
MODEL 2
REMARK VINA RESULT: -6.722594359      3.943      7.578
REMARK  6 active torsions:
REMARK  status: ('A' for Active; 'I' for Inactive)
REMARK    1  A    between atoms: C1_4  and  C2_6 
REMARK    2  A    between atoms: N3_9  and  C5_10 
REMARK    3  A    between atoms: C6_11  and  N4_12 
REMARK    4  A    between atoms: N4_12  and  C7_14 
REMARK    5  A    between atoms: C9_18  and  N6_19 
REMARK    6  A    between atoms: C13_28  and  C14_29 
ROOT
HETATM    1  C5  UNL     1       1.301  -6.381 -31.738  1.00  0.00     0.098 A 
HETATM    2  C6  UNL     1       2.589  -6.857 -31.505  1.00  0.00     0.063 A 
HETATM    3  C11 UNL     1       3.597  -6.430 -32.352  1.00  0.00     0.046 A 
HETATM    4  C12 UNL     1       3.341  -5.539 -33.434  1.00  0.00     0.004 A 
HETATM    5  C13 UNL     1       4.142  -5.045 -34.444  1.00  0.00    -0.026 A 
HETATM    6  C19 UNL     1       3.325  -4.287 -35.291  1.00  0.00     0.097 A 
HETATM    7  N8  UNL     1       2.071  -4.358 -34.755  1.00  0.00    -0.362 N 
ATOM      8  H8  UNL     1       1.248  -3.903 -35.151  1.00  0.00     0.165 HD
HETATM    9  C20 UNL     1       2.062  -5.104 -33.638  1.00  0.00     0.084 A 
HETATM   10  C21 UNL     1       1.076  -5.523 -32.800  1.00  0.00     0.172 A 
HETATM   11  F2  UNL     1      -0.205  -5.074 -33.015  1.00  0.00    -0.201 F 
ENDROOT
BRANCH   2  12
HETATM   12  N4  UNL     1       2.724  -7.816 -30.518  1.00  0.00    -0.350 N 
ATOM     13  H4  UNL     1       2.564  -7.401 -29.599  1.00  0.00     0.166 HD
BRANCH  12  14
HETATM   14  C7  UNL     1       3.007  -9.158 -30.392  1.00  0.00     0.106 A 
HETATM   15  C8  UNL     1       2.126 -10.192 -30.307  1.00  0.00     0.140 A 
HETATM   16  N5  UNL     1       2.566 -11.465 -30.173  1.00  0.00    -0.200 N 
HETATM   17  C9  UNL     1       3.865 -11.804 -30.116  1.00  0.00     0.677 A 
ATOM     18  H5  UNL     1       1.872 -12.210 -30.113  1.00  0.00     0.183 HD
HETATM   19  N7  UNL     1       4.751 -10.826 -30.194  1.00  0.00    -0.164 N 
HETATM   20  C10 UNL     1       4.361  -9.560 -30.324  1.00  0.00     0.231 A 
ATOM     21  H7  UNL     1       5.746 -11.044 -30.154  1.00  0.00     0.186 HD
HETATM   22  F1  UNL     1       5.346  -8.630 -30.392  1.00  0.00    -0.183 F 
BRANCH  17  23
HETATM   23  N6  UNL     1       4.265 -13.018 -29.962  1.00  0.00    -0.234 N 
ATOM     24  H62 UNL     1       5.182 -13.296 -30.311  1.00  0.00     0.174 HD
ATOM     25  H61 UNL     1       3.713 -13.727 -29.479  1.00  0.00     0.174 HD
ENDBRANCH  17  23
ENDBRANCH  12  14
ENDBRANCH   2  12
BRANCH   1  26
HETATM   26  N3  UNL     1       0.204  -6.608 -30.832  1.00  0.00    -0.376 N 
HETATM   27  C4  UNL     1      -0.885  -7.446 -30.725  1.00  0.00     0.124 C 
HETATM   28  C3  UNL     1      -1.183  -7.470 -29.198  1.00  0.00     0.033 C 
HETATM   29  C2  UNL     1      -1.020  -6.009 -28.896  1.00  0.00     0.069 C 
HETATM   30  C22 UNL     1       0.151  -5.618 -29.711  1.00  0.00     0.135 C 
BRANCH  29  31
HETATM   31  C1  UNL     1      -0.886  -5.618 -27.511  1.00  0.00     0.092 C 
HETATM   32  N1  UNL     1      -0.617  -6.451 -26.569  1.00  0.00    -0.391 N 
ATOM     33  H12 UNL     1      -0.522  -6.175 -25.592  1.00  0.00     0.157 HD
ATOM     34  H11 UNL     1      -0.507  -7.422 -26.862  1.00  0.00     0.157 HD
HETATM   35  N2  UNL     1      -1.038  -4.264 -27.102  1.00  0.00    -0.088 NA
ENDBRANCH  29  31
ENDBRANCH   1  26
BRANCH   5  36
HETATM   36  C14 UNL     1       5.611  -5.133 -34.481  1.00  0.00     0.021 C 
HETATM   37  C15 UNL     1       6.198  -6.515 -34.508  1.00  0.00     0.009 C 
HETATM   38  C16 UNL     1       5.749  -7.125 -35.793  1.00  0.00     0.001 C 
HETATM   39  C17 UNL     1       6.034  -6.001 -36.774  1.00  0.00     0.001 C 
HETATM   40  C18 UNL     1       5.995  -4.730 -35.964  1.00  0.00     0.009 C 
ENDBRANCH   5  36
TORSDOF 6
ENDMDL
MODEL 3
REMARK VINA RESULT: -6.561500310      1.458      2.023
REMARK  6 active torsions:
REMARK  status: ('A' for Active; 'I' for Inactive)
REMARK    1  A    between atoms: C1_4  and  C2_6 
REMARK    2  A    between atoms: N3_9  and  C5_10 
REMARK    3  A    between atoms: C6_11  and  N4_12 
REMARK    4  A    between atoms: N4_12  and  C7_14 
REMARK    5  A    between atoms: C9_18  and  N6_19 
REMARK    6  A    between atoms: C13_28  and  C14_29 
ROOT
HETATM    1  C5  UNL     1       0.555 -10.705 -28.635  1.00  0.00     0.098 A 
HETATM    2  C6  UNL     1       1.033  -9.549 -29.249  1.00  0.00     0.063 A 
HETATM    3  C11 UNL     1       0.355  -8.365 -29.010  1.00  0.00     0.046 A 
HETATM    4  C12 UNL     1      -0.796  -8.316 -28.172  1.00  0.00     0.004 A 
HETATM    5  C13 UNL     1      -1.674  -7.299 -27.853  1.00  0.00    -0.026 A 
HETATM    6  C19 UNL     1      -2.685  -7.855 -27.061  1.00  0.00     0.097 A 
HETATM    7  N8  UNL     1      -2.374  -9.179 -26.939  1.00  0.00    -0.362 N 
ATOM      8  H8  UNL     1      -2.929  -9.856 -26.416  1.00  0.00     0.165 HD
HETATM    9  C20 UNL     1      -1.241  -9.473 -27.598  1.00  0.00     0.084 A 
HETATM   10  C21 UNL     1      -0.569 -10.632 -27.833  1.00  0.00     0.172 A 
HETATM   11  F2  UNL     1      -1.027 -11.788 -27.246  1.00  0.00    -0.201 F 
ENDROOT
BRANCH   2  12
HETATM   12  N4  UNL     1       2.073  -9.709 -30.145  1.00  0.00    -0.350 N 
ATOM     13  H4  UNL     1       1.746 -10.195 -30.981  1.00  0.00     0.166 HD
BRANCH  12  14
HETATM   14  C7  UNL     1       3.414  -9.417 -30.259  1.00  0.00     0.106 A 
HETATM   15  C8  UNL     1       4.464 -10.099 -29.725  1.00  0.00     0.140 A 
HETATM   16  N5  UNL     1       5.734  -9.673 -29.919  1.00  0.00    -0.200 N 
HETATM   17  C9  UNL     1       6.054  -8.580 -30.631  1.00  0.00     0.677 A 
ATOM     18  H5  UNL     1       6.492 -10.214 -29.501  1.00  0.00     0.183 HD
HETATM   19  N7  UNL     1       5.060  -7.890 -31.164  1.00  0.00    -0.164 N 
HETATM   20  C10 UNL     1       3.797  -8.273 -30.996  1.00  0.00     0.231 A 
ATOM     21  H7  UNL     1       5.265  -7.054 -31.712  1.00  0.00     0.186 HD
HETATM   22  F1  UNL     1       2.850  -7.498 -31.580  1.00  0.00    -0.183 F 
BRANCH  17  23
HETATM   23  N6  UNL     1       7.267  -8.174 -30.784  1.00  0.00    -0.234 N 
ATOM     24  H62 UNL     1       8.029  -8.852 -30.798  1.00  0.00     0.174 HD
ATOM     25  H61 UNL     1       7.511  -7.192 -30.916  1.00  0.00     0.174 HD
ENDBRANCH  17  23
ENDBRANCH  12  14
ENDBRANCH   2  12
BRANCH   1  26
HETATM   26  N3  UNL     1       1.266 -11.958 -28.662  1.00  0.00    -0.376 N 
HETATM   27  C4  UNL     1       2.300 -12.568 -27.986  1.00  0.00     0.124 C 
HETATM   28  C3  UNL     1       2.031 -14.086 -28.195  1.00  0.00     0.033 C 
HETATM   29  C2  UNL     1       1.668 -14.071 -29.651  1.00  0.00     0.069 C 
HETATM   30  C22 UNL     1       0.844 -12.850 -29.787  1.00  0.00     0.135 C 
BRANCH  29  31
HETATM   31  C1  UNL     1       1.019 -15.241 -30.196  1.00  0.00     0.092 C 
HETATM   32  N1  UNL     1       1.637 -16.347 -30.418  1.00  0.00    -0.391 N 
ATOM     33  H12 UNL     1       1.179 -17.173 -30.803  1.00  0.00     0.157 HD
ATOM     34  H11 UNL     1       2.631 -16.347 -30.187  1.00  0.00     0.157 HD
HETATM   35  N2  UNL     1      -0.366 -15.242 -30.518  1.00  0.00    -0.088 NA
ENDBRANCH  29  31
ENDBRANCH   1  26
BRANCH   5  36
HETATM   36  C14 UNL     1      -1.449  -5.870 -28.122  1.00  0.00     0.021 C 
HETATM   37  C15 UNL     1      -1.391  -5.463 -29.567  1.00  0.00     0.009 C 
HETATM   38  C16 UNL     1      -2.744  -5.746 -30.126  1.00  0.00     0.001 C 
HETATM   39  C17 UNL     1      -3.642  -5.154 -29.054  1.00  0.00     0.001 C 
HETATM   40  C18 UNL     1      -2.833  -5.179 -27.782  1.00  0.00     0.009 C 
ENDBRANCH   5  36
TORSDOF 6
ENDMDL
MODEL 4
REMARK VINA RESULT: -6.417508762      9.749     14.910
REMARK  6 active torsions:
REMARK  status: ('A' for Active; 'I' for Inactive)
REMARK    1  A    between atoms: C1_4  and  C2_6 
REMARK    2  A    between atoms: N3_9  and  C5_10 
REMARK    3  A    between atoms: C6_11  and  N4_12 
REMARK    4  A    between atoms: N4_12  and  C7_14 
REMARK    5  A    between atoms: C9_18  and  N6_19 
REMARK    6  A    between atoms: C13_28  and  C14_29 
ROOT
HETATM    1  C5  UNL     1       9.278 -17.945 -21.367  1.00  0.00     0.098 A 
HETATM    2  C6  UNL     1       8.252 -18.344 -22.221  1.00  0.00     0.063 A 
HETATM    3  C11 UNL     1       8.607 -18.921 -23.429  1.00  0.00     0.046 A 
HETATM    4  C12 UNL     1       9.970 -19.102 -23.802  1.00  0.00     0.004 A 
HETATM    5  C13 UNL     1      10.566 -19.563 -24.959  1.00  0.00    -0.026 A 
HETATM    6  C19 UNL     1      11.949 -19.423 -24.799  1.00  0.00     0.097 A 
HETATM    7  N8  UNL     1      12.125 -18.884 -23.557  1.00  0.00    -0.362 N 
ATOM      8  H8  UNL     1      13.032 -18.660 -23.149  1.00  0.00     0.165 HD
HETATM    9  C20 UNL     1      10.947 -18.686 -22.943  1.00  0.00     0.084 A 
HETATM   10  C21 UNL     1      10.593 -18.124 -21.756  1.00  0.00     0.172 A 
HETATM   11  F2  UNL     1      11.587 -17.714 -20.900  1.00  0.00    -0.201 F 
ENDROOT
BRANCH   2  12
HETATM   12  N4  UNL     1       6.965 -18.014 -21.838  1.00  0.00    -0.350 N 
ATOM     13  H4  UNL     1       6.723 -18.491 -20.969  1.00  0.00     0.166 HD
BRANCH  12  14
HETATM   14  C7  UNL     1       5.910 -17.241 -22.268  1.00  0.00     0.106 A 
HETATM   15  C8  UNL     1       5.846 -16.459 -23.381  1.00  0.00     0.140 A 
HETATM   16  N5  UNL     1       4.732 -15.744 -23.661  1.00  0.00    -0.200 N 
HETATM   17  C9  UNL     1       3.631 -15.746 -22.891  1.00  0.00     0.677 A 
ATOM     18  H5  UNL     1       4.728 -15.171 -24.504  1.00  0.00     0.183 HD
HETATM   19  N7  UNL     1       3.655 -16.493 -21.800  1.00  0.00    -0.164 N 
HETATM   20  C10 UNL     1       4.732 -17.210 -21.487  1.00  0.00     0.231 A 
ATOM     21  H7  UNL     1       2.837 -16.520 -21.191  1.00  0.00     0.186 HD
HETATM   22  F1  UNL     1       4.658 -17.941 -20.347  1.00  0.00    -0.183 F 
BRANCH  17  23
HETATM   23  N6  UNL     1       2.589 -15.039 -23.158  1.00  0.00    -0.234 N 
ATOM     24  H62 UNL     1       2.445 -14.150 -22.681  1.00  0.00     0.174 HD
ATOM     25  H61 UNL     1       1.895 -15.316 -23.854  1.00  0.00     0.174 HD
ENDBRANCH  17  23
ENDBRANCH  12  14
ENDBRANCH   2  12
BRANCH   1  26
HETATM   26  N3  UNL     1       9.044 -17.496 -20.018  1.00  0.00    -0.376 N 
HETATM   27  C4  UNL     1       8.581 -18.013 -18.828  1.00  0.00     0.124 C 
HETATM   28  C3  UNL     1       9.223 -17.091 -17.751  1.00  0.00     0.033 C 
HETATM   29  C2  UNL     1       9.003 -15.760 -18.409  1.00  0.00     0.069 C 
HETATM   30  C22 UNL     1       9.286 -16.030 -19.836  1.00  0.00     0.135 C 
BRANCH  29  31
HETATM   31  C1  UNL     1       9.743 -14.626 -17.903  1.00  0.00     0.092 C 
HETATM   32  N1  UNL     1      11.025 -14.545 -17.956  1.00  0.00    -0.391 N 
ATOM     33  H12 UNL     1      11.547 -13.745 -17.598  1.00  0.00     0.157 HD
ATOM     34  H11 UNL     1      11.497 -15.344 -18.380  1.00  0.00     0.157 HD
HETATM   35  N2  UNL     1       9.086 -13.512 -17.312  1.00  0.00    -0.088 NA
ENDBRANCH  29  31
ENDBRANCH   1  26
BRANCH   5  36
HETATM   36  C14 UNL     1       9.870 -20.267 -26.048  1.00  0.00     0.021 C 
HETATM   37  C15 UNL     1      10.732 -21.051 -26.997  1.00  0.00     0.009 C 
HETATM   38  C16 UNL     1      11.356 -22.134 -26.182  1.00  0.00     0.001 C 
HETATM   39  C17 UNL     1      10.158 -22.654 -25.407  1.00  0.00     0.001 C 
HETATM   40  C18 UNL     1       9.181 -21.507 -25.343  1.00  0.00     0.009 C 
ENDBRANCH   5  36
TORSDOF 6
ENDMDL
MODEL 5
REMARK VINA RESULT: -6.390191813      3.225      6.828
REMARK  6 active torsions:
REMARK  status: ('A' for Active; 'I' for Inactive)
REMARK    1  A    between atoms: C1_4  and  C2_6 
REMARK    2  A    between atoms: N3_9  and  C5_10 
REMARK    3  A    between atoms: C6_11  and  N4_12 
REMARK    4  A    between atoms: N4_12  and  C7_14 
REMARK    5  A    between atoms: C9_18  and  N6_19 
REMARK    6  A    between atoms: C13_28  and  C14_29 
ROOT
HETATM    1  C5  UNL     1       1.441  -8.130 -31.106  1.00  0.00     0.098 A 
HETATM    2  C6  UNL     1       2.813  -8.187 -30.868  1.00  0.00     0.063 A 
HETATM    3  C11 UNL     1       3.653  -7.598 -31.799  1.00  0.00     0.046 A 
HETATM    4  C12 UNL     1       3.147  -6.959 -32.967  1.00  0.00     0.004 A 
HETATM    5  C13 UNL     1       3.769  -6.387 -34.059  1.00  0.00    -0.026 A 
HETATM    6  C19 UNL     1       2.766  -6.005 -34.956  1.00  0.00     0.097 A 
HETATM    7  N8  UNL     1       1.587  -6.363 -34.368  1.00  0.00    -0.362 N 
ATOM      8  H8  UNL     1       0.667  -6.215 -34.782  1.00  0.00     0.165 HD
HETATM    9  C20 UNL     1       1.797  -6.936 -33.171  1.00  0.00     0.084 A 
HETATM   10  C21 UNL     1       0.976  -7.511 -32.252  1.00  0.00     0.172 A 
HETATM   11  F2  UNL     1      -0.381  -7.476 -32.469  1.00  0.00    -0.201 F 
ENDROOT
BRANCH   2  12
HETATM   12  N4  UNL     1       3.221  -8.937 -29.781  1.00  0.00    -0.350 N 
ATOM     13  H4  UNL     1       3.613  -8.329 -29.061  1.00  0.00     0.166 HD
BRANCH  12  14
HETATM   14  C7  UNL     1       3.264 -10.250 -29.370  1.00  0.00     0.106 A 
HETATM   15  C8  UNL     1       3.653 -11.338 -30.091  1.00  0.00     0.140 A 
HETATM   16  N5  UNL     1       3.627 -12.575 -29.544  1.00  0.00    -0.200 N 
HETATM   17  C9  UNL     1       3.228 -12.826 -28.285  1.00  0.00     0.677 A 
ATOM     18  H5  UNL     1       3.927 -13.362 -30.119  1.00  0.00     0.183 HD
HETATM   19  N7  UNL     1       2.841 -11.795 -27.555  1.00  0.00    -0.164 N 
HETATM   20  C10 UNL     1       2.850 -10.562 -28.055  1.00  0.00     0.231 A 
ATOM     21  H7  UNL     1       2.532 -11.947 -26.594  1.00  0.00     0.186 HD
HETATM   22  F1  UNL     1       2.432  -9.573 -27.226  1.00  0.00    -0.183 F 
BRANCH  17  23
HETATM   23  N6  UNL     1       3.184 -14.014 -27.789  1.00  0.00    -0.234 N 
ATOM     24  H62 UNL     1       2.602 -14.725 -28.230  1.00  0.00     0.174 HD
ATOM     25  H61 UNL     1       3.730 -14.294 -26.974  1.00  0.00     0.174 HD
ENDBRANCH  17  23
ENDBRANCH  12  14
ENDBRANCH   2  12
BRANCH   1  26
HETATM   26  N3  UNL     1       0.460  -8.547 -30.137  1.00  0.00    -0.376 N 
HETATM   27  C4  UNL     1      -0.322  -9.651 -29.874  1.00  0.00     0.124 C 
HETATM   28  C3  UNL     1      -0.611  -9.543 -28.349  1.00  0.00     0.033 C 
HETATM   29  C2  UNL     1      -0.904  -8.074 -28.261  1.00  0.00     0.069 C 
HETATM   30  C22 UNL     1       0.098  -7.468 -29.165  1.00  0.00     0.135 C 
BRANCH  29  31
HETATM   31  C1  UNL     1      -0.908  -7.465 -26.950  1.00  0.00     0.092 C 
HETATM   32  N1  UNL     1      -0.931  -8.146 -25.860  1.00  0.00    -0.391 N 
ATOM     33  H12 UNL     1      -0.933  -7.716 -24.935  1.00  0.00     0.157 HD
ATOM     34  H11 UNL     1      -0.952  -9.159 -25.977  1.00  0.00     0.157 HD
HETATM   35  N2  UNL     1      -0.877  -6.053 -26.786  1.00  0.00    -0.088 NA
ENDBRANCH  29  31
ENDBRANCH   1  26
BRANCH   5  36
HETATM   36  C14 UNL     1       5.201  -6.056 -34.142  1.00  0.00     0.021 C 
HETATM   37  C15 UNL     1       6.144  -7.208 -34.343  1.00  0.00     0.009 C 
HETATM   38  C16 UNL     1       5.808  -7.781 -35.679  1.00  0.00     0.001 C 
HETATM   39  C17 UNL     1       5.717  -6.526 -36.530  1.00  0.00     0.001 C 
HETATM   40  C18 UNL     1       5.376  -5.409 -35.578  1.00  0.00     0.009 C 
ENDBRANCH   5  36
TORSDOF 6
ENDMDL
