MODEL 1
REMARK VINA RESULT: -6.262389509      0.000      0.000
REMARK  9 active torsions:
REMARK  status: ('A' for Active; 'I' for Inactive)
REMARK    1  A    between atoms: C2_2  and  C3_3 
REMARK    2  A    between atoms: C3_3  and  O1_4 
REMARK    3  A    between atoms: C3_3  and  C4_6 
REMARK    4  A    between atoms: C3_3  and  C6_8 
REMARK    5  A    between atoms: C6_8  and  O3_10 
REMARK    6  A    between atoms: O3_10  and  C7_11 
REMARK    7  A    between atoms: C8_12  and  C9_13 
REMARK    8  A    between atoms: C12_16  and  O4_17 
REMARK    9  A    between atoms: C18_29  and  O5_30 
ROOT
HETATM    1  C7  UNL     1      10.102 -17.968 -21.906  1.00  0.00     0.117 A 
HETATM    2  C8  UNL     1      10.152 -19.288 -22.361  1.00  0.00     0.050 A 
HETATM    3  N1  UNL     1      10.326 -20.090 -21.291  1.00  0.00    -0.342 N 
ATOM      4  H1  UNL     1      10.398 -21.106 -21.332  1.00  0.00     0.167 HD
HETATM    5  C15 UNL     1      10.390 -19.361 -20.167  1.00  0.00     0.120 A 
HETATM    6  N2  UNL     1      10.532 -19.380 -18.838  1.00  0.00    -0.338 N 
ATOM      7  H2  UNL     1      10.655 -20.219 -18.271  1.00  0.00     0.167 HD
HETATM    8  C16 UNL     1      10.488 -18.106 -18.358  1.00  0.00     0.087 A 
HETATM    9  C17 UNL     1      10.583 -17.572 -17.096  1.00  0.00     0.180 A 
HETATM   10  F1  UNL     1      10.756 -18.425 -16.057  1.00  0.00    -0.201 F 
HETATM   11  C18 UNL     1      10.503 -16.192 -16.875  1.00  0.00     0.145 A 
HETATM   12  C19 UNL     1      10.326 -15.341 -17.945  1.00  0.00     0.153 A 
HETATM   13  F2  UNL     1      10.254 -14.014 -17.688  1.00  0.00    -0.203 F 
HETATM   14  C20 UNL     1      10.230 -15.866 -19.216  1.00  0.00     0.060 A 
HETATM   15  C21 UNL     1      10.311 -17.245 -19.419  1.00  0.00     0.014 A 
HETATM   16  C22 UNL     1      10.252 -18.046 -20.545  1.00  0.00     0.057 A 
ENDROOT
BRANCH   1  17
HETATM   17  O3  UNL     1       9.935 -16.861 -22.703  1.00  0.00    -0.273 OA
BRANCH  17  18
HETATM   18  C6  UNL     1       8.772 -16.112 -22.751  1.00  0.00     0.299 C 
HETATM   19  O2  UNL     1       8.741 -15.049 -22.116  1.00  0.00    -0.261 OA
BRANCH  18  20
HETATM   20  C3  UNL     1       7.594 -16.548 -23.530  1.00  0.00     0.145 C 
BRANCH  20  21
HETATM   21  C2  UNL     1       6.712 -17.525 -22.766  1.00  0.00     0.044 C 
HETATM   22  C1  UNL     1       6.553 -18.809 -23.536  1.00  0.00     0.009 C 
ENDBRANCH  20  21
BRANCH  20  23
HETATM   23  O1  UNL     1       8.033 -17.214 -24.669  1.00  0.00    -0.380 OA
ATOM     24  H1  UNL     1       8.982 -17.181 -24.655  1.00  0.00     0.211 HD
ENDBRANCH  20  23
BRANCH  20  25
HETATM   25  C4  UNL     1       6.795 -15.357 -24.009  1.00  0.00     0.044 C 
HETATM   26  C5  UNL     1       5.329 -15.463 -23.705  1.00  0.00     0.009 C 
ENDBRANCH  20  25
ENDBRANCH  18  20
ENDBRANCH  17  18
ENDBRANCH   1  17
BRANCH   2  27
HETATM   27  C9  UNL     1      10.021 -19.673 -23.793  1.00  0.00     0.038 C 
HETATM   28  C10 UNL     1      11.358 -19.515 -24.444  1.00  0.00     0.013 C 
HETATM   29  C11 UNL     1      12.140 -20.804 -24.486  1.00  0.00     0.032 C 
HETATM   30  C12 UNL     1      11.397 -21.722 -25.404  1.00  0.00     0.118 C 
HETATM   31  C13 UNL     1      10.029 -21.952 -24.908  1.00  0.00     0.032 C 
HETATM   32  C14 UNL     1       9.515 -21.089 -23.825  1.00  0.00     0.013 C 
BRANCH  30  33
HETATM   33  O4  UNL     1      12.109 -22.943 -25.438  1.00  0.00    -0.396 OA
ATOM     34  H4  UNL     1      12.761 -22.868 -26.125  1.00  0.00     0.210 HD
ENDBRANCH  30  33
ENDBRANCH   2  27
BRANCH  11  35
HETATM   35  O5  UNL     1      10.603 -15.700 -15.579  1.00  0.00    -0.355 OA
ATOM     36  H5  UNL     1      10.016 -16.030 -14.908  1.00  0.00     0.218 HD
ENDBRANCH  11  35
TORSDOF 9
ENDMDL
MODEL 2
REMARK VINA RESULT: -6.253077134     12.148     16.590
REMARK  9 active torsions:
REMARK  status: ('A' for Active; 'I' for Inactive)
REMARK    1  A    between atoms: C2_2  and  C3_3 
REMARK    2  A    between atoms: C3_3  and  O1_4 
REMARK    3  A    between atoms: C3_3  and  C4_6 
REMARK    4  A    between atoms: C3_3  and  C6_8 
REMARK    5  A    between atoms: C6_8  and  O3_10 
REMARK    6  A    between atoms: O3_10  and  C7_11 
REMARK    7  A    between atoms: C8_12  and  C9_13 
REMARK    8  A    between atoms: C12_16  and  O4_17 
REMARK    9  A    between atoms: C18_29  and  O5_30 
ROOT
HETATM    1  C7  UNL     1       0.724  -7.461 -28.968  1.00  0.00     0.117 A 
HETATM    2  C8  UNL     1      -0.420  -6.983 -28.323  1.00  0.00     0.050 A 
HETATM    3  N1  UNL     1      -0.828  -7.924 -27.449  1.00  0.00    -0.342 N 
ATOM      4  H1  UNL     1      -1.643  -7.840 -26.841  1.00  0.00     0.167 HD
HETATM    5  C15 UNL     1      -0.010  -8.987 -27.491  1.00  0.00     0.120 A 
HETATM    6  N2  UNL     1       0.258 -10.201 -27.002  1.00  0.00    -0.338 N 
ATOM      7  H2  UNL     1      -0.287 -10.681 -26.285  1.00  0.00     0.167 HD
HETATM    8  C16 UNL     1       1.371 -10.699 -27.609  1.00  0.00     0.087 A 
HETATM    9  C17 UNL     1       2.063 -11.880 -27.483  1.00  0.00     0.180 A 
HETATM   10  F1  UNL     1       1.608 -12.790 -26.588  1.00  0.00    -0.201 F 
HETATM   11  C18 UNL     1       3.205 -12.146 -28.248  1.00  0.00     0.145 A 
HETATM   12  C19 UNL     1       3.652 -11.206 -29.153  1.00  0.00     0.153 A 
HETATM   13  F2  UNL     1       4.759 -11.504 -29.872  1.00  0.00    -0.203 F 
HETATM   14  C20 UNL     1       2.965 -10.019 -29.288  1.00  0.00     0.060 A 
HETATM   15  C21 UNL     1       1.828  -9.769 -28.517  1.00  0.00     0.014 A 
HETATM   16  C22 UNL     1       0.952  -8.701 -28.431  1.00  0.00     0.057 A 
ENDROOT
BRANCH   1  17
HETATM   17  O3  UNL     1       1.432  -6.783 -29.931  1.00  0.00    -0.273 OA
BRANCH  17  18
HETATM   18  C6  UNL     1       1.255  -6.965 -31.292  1.00  0.00     0.299 C 
HETATM   19  O2  UNL     1       0.104  -6.892 -31.741  1.00  0.00    -0.261 OA
BRANCH  18  20
HETATM   20  C3  UNL     1       2.392  -7.237 -32.197  1.00  0.00     0.145 C 
BRANCH  20  21
HETATM   21  C2  UNL     1       2.178  -6.674 -33.594  1.00  0.00     0.044 C 
HETATM   22  C1  UNL     1       2.665  -5.251 -33.672  1.00  0.00     0.009 C 
ENDBRANCH  20  21
BRANCH  20  23
HETATM   23  O1  UNL     1       2.530  -8.614 -32.339  1.00  0.00    -0.380 OA
ATOM     24  H1  UNL     1       3.053  -8.913 -31.604  1.00  0.00     0.211 HD
ENDBRANCH  20  23
BRANCH  20  25
HETATM   25  C4  UNL     1       3.687  -6.734 -31.601  1.00  0.00     0.044 C 
HETATM   26  C5  UNL     1       4.789  -7.751 -31.627  1.00  0.00     0.009 C 
ENDBRANCH  20  25
ENDBRANCH  18  20
ENDBRANCH  17  18
ENDBRANCH   1  17
BRANCH   2  27
HETATM   27  C9  UNL     1      -1.026  -5.651 -28.596  1.00  0.00     0.038 C 
HETATM   28  C10 UNL     1      -2.457  -5.858 -28.979  1.00  0.00     0.013 C 
HETATM   29  C11 UNL     1      -3.399  -5.706 -27.811  1.00  0.00     0.032 C 
HETATM   30  C12 UNL     1      -3.339  -4.269 -27.401  1.00  0.00     0.118 C 
HETATM   31  C13 UNL     1      -1.964  -3.897 -27.020  1.00  0.00     0.032 C 
HETATM   32  C14 UNL     1      -0.864  -4.828 -27.348  1.00  0.00     0.013 C 
BRANCH  30  33
HETATM   33  O4  UNL     1      -4.203  -4.116 -26.292  1.00  0.00    -0.396 OA
ATOM     34  H4  UNL     1      -3.843  -3.423 -25.750  1.00  0.00     0.210 HD
ENDBRANCH  30  33
ENDBRANCH   2  27
BRANCH  11  35
HETATM   35  O5  UNL     1       3.871 -13.354 -28.084  1.00  0.00    -0.355 OA
ATOM     36  H5  UNL     1       4.505 -13.630 -28.735  1.00  0.00     0.218 HD
ENDBRANCH  11  35
TORSDOF 9
ENDMDL
MODEL 3
REMARK VINA RESULT: -6.220439512     12.936     16.183
REMARK  9 active torsions:
REMARK  status: ('A' for Active; 'I' for Inactive)
REMARK    1  A    between atoms: C2_2  and  C3_3 
REMARK    2  A    between atoms: C3_3  and  O1_4 
REMARK    3  A    between atoms: C3_3  and  C4_6 
REMARK    4  A    between atoms: C3_3  and  C6_8 
REMARK    5  A    between atoms: C6_8  and  O3_10 
REMARK    6  A    between atoms: O3_10  and  C7_11 
REMARK    7  A    between atoms: C8_12  and  C9_13 
REMARK    8  A    between atoms: C12_16  and  O4_17 
REMARK    9  A    between atoms: C18_29  and  O5_30 
ROOT
HETATM    1  C7  UNL     1       1.260  -8.421 -29.379  1.00  0.00     0.117 A 
HETATM    2  C8  UNL     1       1.563  -9.545 -28.606  1.00  0.00     0.050 A 
HETATM    3  N1  UNL     1       2.792  -9.972 -28.957  1.00  0.00    -0.342 N 
ATOM      4  H1  UNL     1       3.266 -10.779 -28.551  1.00  0.00     0.167 HD
HETATM    5  C15 UNL     1       3.304  -9.185 -29.915  1.00  0.00     0.120 A 
HETATM    6  N2  UNL     1       4.346  -8.947 -30.717  1.00  0.00    -0.338 N 
ATOM      7  H2  UNL     1       5.204  -9.498 -30.748  1.00  0.00     0.167 HD
HETATM    8  C16 UNL     1       4.086  -7.854 -31.487  1.00  0.00     0.087 A 
HETATM    9  C17 UNL     1       4.801  -7.194 -32.458  1.00  0.00     0.180 A 
HETATM   10  F1  UNL     1       6.033  -7.666 -32.770  1.00  0.00    -0.201 F 
HETATM   11  C18 UNL     1       4.287  -6.067 -33.110  1.00  0.00     0.145 A 
HETATM   12  C19 UNL     1       3.032  -5.602 -32.777  1.00  0.00     0.153 A 
HETATM   13  F2  UNL     1       2.573  -4.510 -33.432  1.00  0.00    -0.203 F 
HETATM   14  C20 UNL     1       2.306  -6.256 -31.806  1.00  0.00     0.060 A 
HETATM   15  C21 UNL     1       2.834  -7.379 -31.165  1.00  0.00     0.014 A 
HETATM   16  C22 UNL     1       2.357  -8.223 -30.178  1.00  0.00     0.057 A 
ENDROOT
BRANCH   1  17
HETATM   17  O3  UNL     1       0.091  -7.703 -29.308  1.00  0.00    -0.273 OA
BRANCH  17  18
HETATM   18  C6  UNL     1      -0.079  -6.578 -28.518  1.00  0.00     0.299 C 
HETATM   19  O2  UNL     1       0.667  -5.611 -28.719  1.00  0.00    -0.261 OA
BRANCH  18  20
HETATM   20  C3  UNL     1      -1.114  -6.514 -27.465  1.00  0.00     0.145 C 
BRANCH  20  21
HETATM   21  C2  UNL     1      -1.500  -5.086 -27.106  1.00  0.00     0.044 C 
HETATM   22  C1  UNL     1      -2.712  -4.653 -27.888  1.00  0.00     0.009 C 
ENDBRANCH  20  21
BRANCH  20  23
HETATM   23  O1  UNL     1      -0.608  -7.093 -26.306  1.00  0.00    -0.380 OA
ATOM     24  H1  UNL     1      -1.288  -7.664 -25.967  1.00  0.00     0.211 HD
ENDBRANCH  20  23
BRANCH  20  25
HETATM   25  C4  UNL     1      -2.330  -7.323 -27.855  1.00  0.00     0.044 C 
HETATM   26  C5  UNL     1      -2.824  -8.222 -26.760  1.00  0.00     0.009 C 
ENDBRANCH  20  25
ENDBRANCH  18  20
ENDBRANCH  17  18
ENDBRANCH   1  17
BRANCH   2  27
HETATM   27  C9  UNL     1       0.644 -10.115 -27.583  1.00  0.00     0.038 C 
HETATM   28  C10 UNL     1      -0.522 -10.728 -28.292  1.00  0.00     0.013 C 
HETATM   29  C11 UNL     1      -0.351 -12.209 -28.519  1.00  0.00     0.032 C 
HETATM   30  C12 UNL     1      -0.370 -12.852 -27.169  1.00  0.00     0.118 C 
HETATM   31  C13 UNL     1       0.717 -12.319 -26.328  1.00  0.00     0.032 C 
HETATM   32  C14 UNL     1       1.437 -11.113 -26.784  1.00  0.00     0.013 C 
BRANCH  30  33
HETATM   33  O4  UNL     1      -0.190 -14.240 -27.366  1.00  0.00    -0.396 OA
ATOM     34  H4  UNL     1      -0.357 -14.417 -28.284  1.00  0.00     0.210 HD
ENDBRANCH  30  33
ENDBRANCH   2  27
BRANCH  11  35
HETATM   35  O5  UNL     1       5.050  -5.434 -34.083  1.00  0.00    -0.355 OA
ATOM     36  H5  UNL     1       4.992  -4.491 -34.182  1.00  0.00     0.218 HD
ENDBRANCH  11  35
TORSDOF 9
ENDMDL
MODEL 4
REMARK VINA RESULT: -6.215333283     12.463     16.820
REMARK  9 active torsions:
REMARK  status: ('A' for Active; 'I' for Inactive)
REMARK    1  A    between atoms: C2_2  and  C3_3 
REMARK    2  A    between atoms: C3_3  and  O1_4 
REMARK    3  A    between atoms: C3_3  and  C4_6 
REMARK    4  A    between atoms: C3_3  and  C6_8 
REMARK    5  A    between atoms: C6_8  and  O3_10 
REMARK    6  A    between atoms: O3_10  and  C7_11 
REMARK    7  A    between atoms: C8_12  and  C9_13 
REMARK    8  A    between atoms: C12_16  and  O4_17 
REMARK    9  A    between atoms: C18_29  and  O5_30 
ROOT
HETATM    1  C7  UNL     1       0.801  -7.575 -28.962  1.00  0.00     0.117 A 
HETATM    2  C8  UNL     1      -0.323  -7.062 -28.309  1.00  0.00     0.050 A 
HETATM    3  N1  UNL     1      -0.730  -7.974 -27.404  1.00  0.00    -0.342 N 
ATOM      4  H1  UNL     1      -1.532  -7.861 -26.784  1.00  0.00     0.167 HD
HETATM    5  C15 UNL     1       0.069  -9.051 -27.435  1.00  0.00     0.120 A 
HETATM    6  N2  UNL     1       0.326 -10.258 -26.921  1.00  0.00    -0.338 N 
ATOM      7  H2  UNL     1      -0.213 -10.711 -26.182  1.00  0.00     0.167 HD
HETATM    8  C16 UNL     1       1.419 -10.790 -27.535  1.00  0.00     0.087 A 
HETATM    9  C17 UNL     1       2.094 -11.978 -27.393  1.00  0.00     0.180 A 
HETATM   10  F1  UNL     1       1.641 -12.859 -26.467  1.00  0.00    -0.201 F 
HETATM   11  C18 UNL     1       3.216 -12.283 -28.171  1.00  0.00     0.145 A 
HETATM   12  C19 UNL     1       3.662 -11.374 -29.107  1.00  0.00     0.153 A 
HETATM   13  F2  UNL     1       4.751 -11.708 -29.839  1.00  0.00    -0.203 F 
HETATM   14  C20 UNL     1       2.993 -10.178 -29.259  1.00  0.00     0.060 A 
HETATM   15  C21 UNL     1       1.874  -9.890 -28.474  1.00  0.00     0.014 A 
HETATM   16  C22 UNL     1       1.018  -8.806 -28.399  1.00  0.00     0.057 A 
ENDROOT
BRANCH   1  17
HETATM   17  O3  UNL     1       1.502  -6.933 -29.954  1.00  0.00    -0.273 OA
BRANCH  17  18
HETATM   18  C6  UNL     1       0.974  -6.619 -31.195  1.00  0.00     0.299 C 
HETATM   19  O2  UNL     1       0.408  -7.520 -31.829  1.00  0.00    -0.261 OA
BRANCH  18  20
HETATM   20  C3  UNL     1       1.069  -5.257 -31.761  1.00  0.00     0.145 C 
BRANCH  20  21
HETATM   21  C2  UNL     1       1.984  -5.188 -32.976  1.00  0.00     0.044 C 
HETATM   22  C1  UNL     1       3.344  -5.745 -32.646  1.00  0.00     0.009 C 
ENDBRANCH  20  21
BRANCH  20  23
HETATM   23  O1  UNL     1       1.617  -4.411 -30.802  1.00  0.00    -0.380 OA
ATOM     24  H1  UNL     1       1.647  -4.904 -29.990  1.00  0.00     0.211 HD
ENDBRANCH  20  23
BRANCH  20  25
HETATM   25  C4  UNL     1      -0.303  -4.711 -32.084  1.00  0.00     0.044 C 
HETATM   26  C5  UNL     1      -0.515  -4.465 -33.549  1.00  0.00     0.009 C 
ENDBRANCH  20  25
ENDBRANCH  18  20
ENDBRANCH  17  18
ENDBRANCH   1  17
BRANCH   2  27
HETATM   27  C9  UNL     1      -0.911  -5.727 -28.604  1.00  0.00     0.038 C 
HETATM   28  C10 UNL     1      -2.354  -5.918 -28.951  1.00  0.00     0.013 C 
HETATM   29  C11 UNL     1      -3.267  -5.719 -27.768  1.00  0.00     0.032 C 
HETATM   30  C12 UNL     1      -3.174  -4.273 -27.397  1.00  0.00     0.118 C 
HETATM   31  C13 UNL     1      -1.785  -3.916 -27.055  1.00  0.00     0.032 C 
HETATM   32  C14 UNL     1      -0.708  -4.875 -27.382  1.00  0.00     0.013 C 
BRANCH  30  33
HETATM   33  O4  UNL     1      -4.010  -4.076 -26.275  1.00  0.00    -0.396 OA
ATOM     34  H4  UNL     1      -4.314  -4.933 -25.998  1.00  0.00     0.210 HD
ENDBRANCH  30  33
ENDBRANCH   2  27
BRANCH  11  35
HETATM   35  O5  UNL     1       3.865 -13.498 -27.989  1.00  0.00    -0.355 OA
ATOM     36  H5  UNL     1       4.165 -13.986 -28.747  1.00  0.00     0.218 HD
ENDBRANCH  11  35
TORSDOF 9
ENDMDL
MODEL 5
REMARK VINA RESULT: -6.204397090     11.162     14.575
REMARK  9 active torsions:
REMARK  status: ('A' for Active; 'I' for Inactive)
REMARK    1  A    between atoms: C2_2  and  C3_3 
REMARK    2  A    between atoms: C3_3  and  O1_4 
REMARK    3  A    between atoms: C3_3  and  C4_6 
REMARK    4  A    between atoms: C3_3  and  C6_8 
REMARK    5  A    between atoms: C6_8  and  O3_10 
REMARK    6  A    between atoms: O3_10  and  C7_11 
REMARK    7  A    between atoms: C8_12  and  C9_13 
REMARK    8  A    between atoms: C12_16  and  O4_17 
REMARK    9  A    between atoms: C18_29  and  O5_30 
ROOT
HETATM    1  C7  UNL     1       2.041 -10.454 -29.011  1.00  0.00     0.117 A 
HETATM    2  C8  UNL     1       2.617 -11.540 -28.345  1.00  0.00     0.050 A 
HETATM    3  N1  UNL     1       3.937 -11.541 -28.618  1.00  0.00    -0.342 N 
ATOM      4  H1  UNL     1       4.604 -12.226 -28.261  1.00  0.00     0.167 HD
HETATM    5  C15 UNL     1       4.249 -10.515 -29.423  1.00  0.00     0.120 A 
HETATM    6  N2  UNL     1       5.220  -9.878 -30.085  1.00  0.00    -0.338 N 
ATOM      7  H2  UNL     1       6.203 -10.149 -30.092  1.00  0.00     0.167 HD
HETATM    8  C16 UNL     1       4.694  -8.811 -30.747  1.00  0.00     0.087 A 
HETATM    9  C17 UNL     1       5.238  -7.845 -31.559  1.00  0.00     0.180 A 
HETATM   10  F1  UNL     1       6.571  -7.894 -31.799  1.00  0.00    -0.201 F 
HETATM   11  C18 UNL     1       4.453  -6.835 -32.127  1.00  0.00     0.145 A 
HETATM   12  C19 UNL     1       3.098  -6.801 -31.870  1.00  0.00     0.153 A 
HETATM   13  F2  UNL     1       2.375  -5.808 -32.438  1.00  0.00    -0.203 F 
HETATM   14  C20 UNL     1       2.541  -7.765 -31.057  1.00  0.00     0.060 A 
HETATM   15  C21 UNL     1       3.339  -8.766 -30.499  1.00  0.00     0.014 A 
HETATM   16  C22 UNL     1       3.076  -9.840 -29.668  1.00  0.00     0.057 A 
ENDROOT
BRANCH   1  17
HETATM   17  O3  UNL     1       0.709 -10.120 -28.976  1.00  0.00    -0.273 OA
BRANCH  17  18
HETATM   18  C6  UNL     1       0.153  -9.252 -28.052  1.00  0.00     0.299 C 
HETATM   19  O2  UNL     1      -0.031  -9.671 -26.901  1.00  0.00    -0.261 OA
BRANCH  18  20
HETATM   20  C3  UNL     1      -0.214  -7.865 -28.407  1.00  0.00     0.145 C 
BRANCH  20  21
HETATM   21  C2  UNL     1      -0.726  -7.739 -29.834  1.00  0.00     0.044 C 
HETATM   22  C1  UNL     1      -2.157  -8.199 -29.926  1.00  0.00     0.009 C 
ENDBRANCH  20  21
BRANCH  20  23
HETATM   23  O1  UNL     1       0.921  -7.066 -28.319  1.00  0.00    -0.380 OA
ATOM     24  H1  UNL     1       1.488  -7.468 -27.671  1.00  0.00     0.211 HD
ENDBRANCH  20  23
BRANCH  20  25
HETATM   25  C4  UNL     1      -1.214  -7.304 -27.420  1.00  0.00     0.044 C 
HETATM   26  C5  UNL     1      -1.013  -5.845 -27.135  1.00  0.00     0.009 C 
ENDBRANCH  20  25
ENDBRANCH  18  20
ENDBRANCH  17  18
ENDBRANCH   1  17
BRANCH   2  27
HETATM   27  C9  UNL     1       1.849 -12.486 -27.491  1.00  0.00     0.038 C 
HETATM   28  C10 UNL     1       0.759 -13.087 -28.322  1.00  0.00     0.013 C 
HETATM   29  C11 UNL     1       1.148 -14.418 -28.916  1.00  0.00     0.032 C 
HETATM   30  C12 UNL     1       1.295 -15.368 -27.770  1.00  0.00     0.118 C 
HETATM   31  C13 UNL     1       2.325 -14.890 -26.831  1.00  0.00     0.032 C 
HETATM   32  C14 UNL     1       2.825 -13.507 -26.975  1.00  0.00     0.013 C 
BRANCH  30  33
HETATM   33  O4  UNL     1       1.679 -16.616 -28.311  1.00  0.00    -0.396 OA
ATOM     34  H4  UNL     1       0.898 -17.156 -28.353  1.00  0.00     0.210 HD
ENDBRANCH  30  33
ENDBRANCH   2  27
BRANCH  11  35
HETATM   35  O5  UNL     1       5.050  -5.880 -32.940  1.00  0.00    -0.355 OA
ATOM     36  H5  UNL     1       4.531  -5.441 -33.603  1.00  0.00     0.218 HD
ENDBRANCH  11  35
TORSDOF 9
ENDMDL
