MODEL 1
REMARK VINA RESULT: -6.161907394      0.000      0.000
REMARK  7 active torsions:
REMARK  status: ('A' for Active; 'I' for Inactive)
REMARK    1  A    between atoms: C2_2  and  N1_5 
REMARK    2  A    between atoms: N1_5  and  C4_7 
REMARK    3  A    between atoms: C6_11  and  C7_12 
REMARK    4  A    between atoms: C12_20  and  N4_21 
REMARK    5  A    between atoms: C14_25  and  C15_26 
REMARK       I    between atoms: C15_26  and  N5_28 
REMARK    6  A    between atoms: N5_28  and  C16_30 
REMARK    7  A    between atoms: C16_30  and  C17_31 
ROOT
HETATM    1  C4  UNL     1       1.565  -9.922 -27.862  1.00  0.00     0.119 A 
HETATM    2  N2  UNL     1       0.644  -9.978 -26.883  1.00  0.00    -0.351 N 
ATOM      3  H2  UNL     1       0.737 -10.536 -26.034  1.00  0.00     0.166 HD
HETATM    4  C5  UNL     1      -0.398  -9.216 -27.167  1.00  0.00     0.103 A 
HETATM    5  C6  UNL     1      -0.163  -8.606 -28.420  1.00  0.00     0.011 A 
HETATM    6  C14 UNL     1       1.042  -9.046 -28.829  1.00  0.00     0.088 A 
ENDROOT
BRANCH   5   7
HETATM    7  C7  UNL     1      -1.259  -7.810 -29.001  1.00  0.00    -0.002 A 
HETATM    8  C8  UNL     1      -2.236  -8.481 -29.712  1.00  0.00     0.063 A 
HETATM    9  S1  UNL     1      -3.381  -7.264 -30.036  1.00  0.00    -0.100 SA
HETATM   10  C9  UNL     1      -2.613  -5.948 -29.276  1.00  0.00     0.021 A 
HETATM   11  C10 UNL     1      -2.942  -4.594 -29.126  1.00  0.00     0.037 A 
HETATM   12  C13 UNL     1      -1.461  -6.501 -28.780  1.00  0.00     0.036 A 
HETATM   13  C11 UNL     1      -2.089  -3.750 -28.453  1.00  0.00     0.091 A 
HETATM   14  N3  UNL     1      -0.968  -4.307 -27.978  1.00  0.00    -0.352 N 
HETATM   15  C12 UNL     1      -0.628  -5.592 -28.105  1.00  0.00     0.111 A 
ATOM     16  H3  UNL     1      -0.320  -3.699 -27.476  1.00  0.00     0.166 HD
BRANCH  15  17
HETATM   17  N4  UNL     1       0.509  -5.940 -27.591  1.00  0.00    -0.385 N 
ATOM     18  H42 UNL     1       0.578  -6.541 -26.770  1.00  0.00     0.157 HD
ATOM     19  H41 UNL     1       1.344  -5.593 -28.062  1.00  0.00     0.157 HD
ENDBRANCH  15  17
ENDBRANCH   5   7
BRANCH   6  20
HETATM   20  C15 UNL     1       1.733  -8.679 -30.056  1.00  0.00     0.260 C 
HETATM   21  O1  UNL     1       1.848  -9.576 -30.940  1.00  0.00    -0.267 OA
HETATM   22  N5  UNL     1       2.284  -7.440 -30.338  1.00  0.00    -0.334 N 
ATOM     23  H5  UNL     1       2.225  -6.721 -29.616  1.00  0.00     0.168 HD
BRANCH  22  24
HETATM   24  C16 UNL     1       2.931  -7.093 -31.566  1.00  0.00     0.096 C 
BRANCH  24  25
HETATM   25  C17 UNL     1       4.355  -7.257 -31.768  1.00  0.00     0.159 C 
HETATM   26  C18 UNL     1       5.180  -8.281 -31.098  1.00  0.00     0.039 C 
HETATM   27  C19 UNL     1       6.555  -7.912 -31.733  1.00  0.00     0.029 C 
HETATM   28  C20 UNL     1       6.087  -7.548 -33.130  1.00  0.00     0.168 C 
HETATM   29  O2  UNL     1       4.690  -7.517 -33.125  1.00  0.00    -0.381 OA
ENDBRANCH  24  25
ENDBRANCH  22  24
ENDBRANCH   6  20
BRANCH   1  30
HETATM   30  N1  UNL     1       2.797 -10.600 -27.903  1.00  0.00    -0.354 N 
ATOM     31  H1  UNL     1       3.641 -10.153 -27.544  1.00  0.00     0.163 HD
BRANCH  30  32
HETATM   32  C2  UNL     1       2.861 -11.968 -28.472  1.00  0.00     0.101 C 
HETATM   33  C1  UNL     1       3.913 -12.084 -29.534  1.00  0.00     0.056 C 
HETATM   34  C3  UNL     1       3.032 -12.958 -27.343  1.00  0.00     0.056 C 
HETATM   35 CL1  UNL     1       1.305 -12.365 -29.250  1.00  0.00    -0.096 Cl
ENDBRANCH  30  32
ENDBRANCH   1  30
TORSDOF 7
ENDMDL
MODEL 2
REMARK VINA RESULT: -6.027505090      1.539      1.851
REMARK  7 active torsions:
REMARK  status: ('A' for Active; 'I' for Inactive)
REMARK    1  A    between atoms: C2_2  and  N1_5 
REMARK    2  A    between atoms: N1_5  and  C4_7 
REMARK    3  A    between atoms: C6_11  and  C7_12 
REMARK    4  A    between atoms: C12_20  and  N4_21 
REMARK    5  A    between atoms: C14_25  and  C15_26 
REMARK       I    between atoms: C15_26  and  N5_28 
REMARK    6  A    between atoms: N5_28  and  C16_30 
REMARK    7  A    between atoms: C16_30  and  C17_31 
ROOT
HETATM    1  C4  UNL     1       1.829  -9.247 -28.651  1.00  0.00     0.119 A 
HETATM    2  N2  UNL     1       1.251  -9.719 -27.531  1.00  0.00    -0.351 N 
ATOM      3  H2  UNL     1       1.666 -10.422 -26.919  1.00  0.00     0.166 HD
HETATM    4  C5  UNL     1       0.074  -9.152 -27.329  1.00  0.00     0.103 A 
HETATM    5  C6  UNL     1      -0.156  -8.238 -28.382  1.00  0.00     0.011 A 
HETATM    6  C14 UNL     1       0.927  -8.307 -29.180  1.00  0.00     0.088 A 
ENDROOT
BRANCH   5   7
HETATM    7  C7  UNL     1      -1.476  -7.584 -28.434  1.00  0.00    -0.002 A 
HETATM    8  C8  UNL     1      -2.559  -8.347 -28.825  1.00  0.00     0.063 A 
HETATM    9  S1  UNL     1      -3.878  -7.302 -28.571  1.00  0.00    -0.100 SA
HETATM   10  C9  UNL     1      -3.046  -5.938 -27.982  1.00  0.00     0.021 A 
HETATM   11  C10 UNL     1      -3.454  -4.665 -27.563  1.00  0.00     0.037 A 
HETATM   12  C13 UNL     1      -1.735  -6.339 -28.000  1.00  0.00     0.036 A 
HETATM   13  C11 UNL     1      -2.519  -3.747 -27.143  1.00  0.00     0.091 A 
HETATM   14  N3  UNL     1      -1.244  -4.155 -27.169  1.00  0.00    -0.352 N 
HETATM   15  C12 UNL     1      -0.826  -5.361 -27.563  1.00  0.00     0.111 A 
ATOM     16  H3  UNL     1      -0.533  -3.491 -26.862  1.00  0.00     0.166 HD
BRANCH  15  17
HETATM   17  N4  UNL     1       0.454  -5.564 -27.535  1.00  0.00    -0.385 N 
ATOM     18  H42 UNL     1       0.960  -5.752 -26.669  1.00  0.00     0.157 HD
ATOM     19  H41 UNL     1       0.936  -5.540 -28.433  1.00  0.00     0.157 HD
ENDBRANCH  15  17
ENDBRANCH   5   7
BRANCH   6  20
HETATM   20  C15 UNL     1       1.171  -7.533 -30.387  1.00  0.00     0.260 C 
HETATM   21  O1  UNL     1       1.354  -6.290 -30.244  1.00  0.00    -0.267 OA
HETATM   22  N5  UNL     1       1.210  -8.032 -31.679  1.00  0.00    -0.334 N 
ATOM     23  H5  UNL     1       1.029  -9.028 -31.805  1.00  0.00     0.168 HD
BRANCH  22  24
HETATM   24  C16 UNL     1       1.484  -7.255 -32.848  1.00  0.00     0.096 C 
BRANCH  24  25
HETATM   25  C17 UNL     1       2.830  -6.913 -33.257  1.00  0.00     0.159 C 
HETATM   26  C18 UNL     1       3.374  -5.541 -33.273  1.00  0.00     0.039 C 
HETATM   27  C19 UNL     1       4.803  -5.874 -33.797  1.00  0.00     0.029 C 
HETATM   28  C20 UNL     1       5.027  -7.189 -33.073  1.00  0.00     0.168 C 
HETATM   29  O2  UNL     1       3.822  -7.565 -32.475  1.00  0.00    -0.381 OA
ENDBRANCH  24  25
ENDBRANCH  22  24
ENDBRANCH   6  20
BRANCH   1  30
HETATM   30  N1  UNL     1       3.078  -9.620 -29.179  1.00  0.00    -0.354 N 
ATOM     31  H1  UNL     1       3.856  -8.960 -29.171  1.00  0.00     0.163 HD
BRANCH  30  32
HETATM   32  C2  UNL     1       3.258 -10.979 -29.745  1.00  0.00     0.101 C 
HETATM   33  C1  UNL     1       2.174 -11.326 -30.721  1.00  0.00     0.056 C 
HETATM   34  C3  UNL     1       4.649 -11.085 -30.326  1.00  0.00     0.056 C 
HETATM   35 CL1  UNL     1       3.172 -12.189 -28.436  1.00  0.00    -0.096 Cl
ENDBRANCH  30  32
ENDBRANCH   1  30
TORSDOF 7
ENDMDL
MODEL 3
REMARK VINA RESULT: -5.926717128     11.575     15.545
REMARK  7 active torsions:
REMARK  status: ('A' for Active; 'I' for Inactive)
REMARK    1  A    between atoms: C2_2  and  N1_5 
REMARK    2  A    between atoms: N1_5  and  C4_7 
REMARK    3  A    between atoms: C6_11  and  C7_12 
REMARK    4  A    between atoms: C12_20  and  N4_21 
REMARK    5  A    between atoms: C14_25  and  C15_26 
REMARK       I    between atoms: C15_26  and  N5_28 
REMARK    6  A    between atoms: N5_28  and  C16_30 
REMARK    7  A    between atoms: C16_30  and  C17_31 
ROOT
HETATM    1  C4  UNL     1      10.267 -16.946 -19.904  1.00  0.00     0.119 A 
HETATM    2  N2  UNL     1      10.798 -18.083 -19.418  1.00  0.00    -0.351 N 
ATOM      3  H2  UNL     1      11.345 -18.143 -18.559  1.00  0.00     0.166 HD
HETATM    4  C5  UNL     1      10.517 -19.110 -20.200  1.00  0.00     0.103 A 
HETATM    5  C6  UNL     1       9.746 -18.634 -21.285  1.00  0.00     0.011 A 
HETATM    6  C14 UNL     1       9.601 -17.310 -21.087  1.00  0.00     0.088 A 
ENDROOT
BRANCH   5   7
HETATM    7  C7  UNL     1       9.430 -19.591 -22.361  1.00  0.00    -0.002 A 
HETATM    8  C8  UNL     1       8.328 -20.408 -22.194  1.00  0.00     0.063 A 
HETATM    9  S1  UNL     1       8.202 -21.198 -23.696  1.00  0.00    -0.100 SA
HETATM   10  C9  UNL     1       9.528 -20.490 -24.496  1.00  0.00     0.021 A 
HETATM   11  C10 UNL     1      10.077 -20.644 -25.776  1.00  0.00     0.037 A 
HETATM   12  C13 UNL     1      10.045 -19.639 -23.554  1.00  0.00     0.036 A 
HETATM   13  C11 UNL     1      11.192 -19.923 -26.137  1.00  0.00     0.091 A 
HETATM   14  N3  UNL     1      11.685 -19.099 -25.204  1.00  0.00    -0.352 N 
HETATM   15  C12 UNL     1      11.183 -18.931 -23.978  1.00  0.00     0.111 A 
ATOM     16  H3  UNL     1      12.512 -18.555 -25.449  1.00  0.00     0.166 HD
BRANCH  15  17
HETATM   17  N4  UNL     1      11.811 -18.100 -23.207  1.00  0.00    -0.385 N 
ATOM     18  H42 UNL     1      12.601 -17.542 -23.532  1.00  0.00     0.157 HD
ATOM     19  H41 UNL     1      11.465 -18.018 -22.251  1.00  0.00     0.157 HD
ENDBRANCH  15  17
ENDBRANCH   5   7
BRANCH   6  20
HETATM   20  C15 UNL     1       8.861 -16.380 -21.927  1.00  0.00     0.260 C 
HETATM   21  O1  UNL     1       9.210 -15.165 -21.882  1.00  0.00    -0.267 OA
HETATM   22  N5  UNL     1       7.804 -16.703 -22.761  1.00  0.00    -0.334 N 
ATOM     23  H5  UNL     1       7.495 -17.675 -22.777  1.00  0.00     0.168 HD
BRANCH  22  24
HETATM   24  C16 UNL     1       7.113 -15.774 -23.602  1.00  0.00     0.096 C 
BRANCH  24  25
HETATM   25  C17 UNL     1       5.681 -15.829 -23.809  1.00  0.00     0.159 C 
HETATM   26  C18 UNL     1       4.880 -17.068 -23.776  1.00  0.00     0.039 C 
HETATM   27  C19 UNL     1       3.484 -16.441 -24.067  1.00  0.00     0.029 C 
HETATM   28  C20 UNL     1       3.631 -15.148 -23.285  1.00  0.00     0.168 C 
HETATM   29  O2  UNL     1       4.961 -15.043 -22.868  1.00  0.00    -0.381 OA
ENDBRANCH  24  25
ENDBRANCH  22  24
ENDBRANCH   6  20
BRANCH   1  30
HETATM   30  N1  UNL     1      10.360 -15.661 -19.340  1.00  0.00    -0.354 N 
ATOM     31  H1  UNL     1      10.858 -14.919 -19.832  1.00  0.00     0.163 HD
BRANCH  30  32
HETATM   32  C2  UNL     1       9.731 -15.392 -18.023  1.00  0.00     0.101 C 
HETATM   33  C1  UNL     1      10.011 -14.000 -17.544  1.00  0.00     0.056 C 
HETATM   34  C3  UNL     1       8.257 -15.714 -18.113  1.00  0.00     0.056 C 
HETATM   35 CL1  UNL     1      10.409 -16.499 -16.799  1.00  0.00    -0.096 Cl
ENDBRANCH  30  32
ENDBRANCH   1  30
TORSDOF 7
ENDMDL
MODEL 4
REMARK VINA RESULT: -5.841759048      1.907      2.321
REMARK  7 active torsions:
REMARK  status: ('A' for Active; 'I' for Inactive)
REMARK    1  A    between atoms: C2_2  and  N1_5 
REMARK    2  A    between atoms: N1_5  and  C4_7 
REMARK    3  A    between atoms: C6_11  and  C7_12 
REMARK    4  A    between atoms: C12_20  and  N4_21 
REMARK    5  A    between atoms: C14_25  and  C15_26 
REMARK       I    between atoms: C15_26  and  N5_28 
REMARK    6  A    between atoms: N5_28  and  C16_30 
REMARK    7  A    between atoms: C16_30  and  C17_31 
ROOT
HETATM    1  C4  UNL     1       1.434  -9.656 -30.596  1.00  0.00     0.119 A 
HETATM    2  N2  UNL     1       0.459 -10.262 -29.894  1.00  0.00    -0.351 N 
ATOM      3  H2  UNL     1       0.477 -11.240 -29.605  1.00  0.00     0.166 HD
HETATM    4  C5  UNL     1      -0.526  -9.421 -29.628  1.00  0.00     0.103 A 
HETATM    5  C6  UNL     1      -0.192  -8.168 -30.188  1.00  0.00     0.011 A 
HETATM    6  C14 UNL     1       1.009  -8.329 -30.774  1.00  0.00     0.088 A 
ENDROOT
BRANCH   5   7
HETATM    7  C7  UNL     1      -1.214  -7.106 -30.128  1.00  0.00    -0.002 A 
HETATM    8  C8  UNL     1      -2.285  -7.193 -30.995  1.00  0.00     0.063 A 
HETATM    9  S1  UNL     1      -3.298  -5.924 -30.485  1.00  0.00    -0.100 SA
HETATM   10  C9  UNL     1      -2.358  -5.316 -29.202  1.00  0.00     0.021 A 
HETATM   11  C10 UNL     1      -2.528  -4.257 -28.300  1.00  0.00     0.037 A 
HETATM   12  C13 UNL     1      -1.258  -6.133 -29.203  1.00  0.00     0.036 A 
HETATM   13  C11 UNL     1      -1.560  -3.996 -27.357  1.00  0.00     0.091 A 
HETATM   14  N3  UNL     1      -0.491  -4.802 -27.375  1.00  0.00    -0.352 N 
HETATM   15  C12 UNL     1      -0.304  -5.818 -28.222  1.00  0.00     0.111 A 
ATOM     16  H3  UNL     1       0.239  -4.627 -26.685  1.00  0.00     0.166 HD
BRANCH  15  17
HETATM   17  N4  UNL     1       0.806  -6.475 -28.095  1.00  0.00    -0.385 N 
ATOM     18  H42 UNL     1       1.691  -6.018 -27.874  1.00  0.00     0.157 HD
ATOM     19  H41 UNL     1       0.750  -7.487 -28.213  1.00  0.00     0.157 HD
ENDBRANCH  15  17
ENDBRANCH   5   7
BRANCH   6  20
HETATM   20  C15 UNL     1       1.785  -7.310 -31.467  1.00  0.00     0.260 C 
HETATM   21  O1  UNL     1       2.326  -6.418 -30.753  1.00  0.00    -0.267 OA
HETATM   22  N5  UNL     1       1.973  -7.225 -32.836  1.00  0.00    -0.334 N 
ATOM     23  H5  UNL     1       1.512  -7.922 -33.421  1.00  0.00     0.168 HD
BRANCH  22  24
HETATM   24  C16 UNL     1       2.768  -6.232 -33.492  1.00  0.00     0.096 C 
BRANCH  24  25
HETATM   25  C17 UNL     1       4.091  -6.511 -34.008  1.00  0.00     0.159 C 
HETATM   26  C18 UNL     1       5.031  -5.482 -34.493  1.00  0.00     0.039 C 
HETATM   27  C19 UNL     1       6.208  -6.423 -34.891  1.00  0.00     0.029 C 
HETATM   28  C20 UNL     1       6.096  -7.439 -33.768  1.00  0.00     0.168 C 
HETATM   29  O2  UNL     1       4.918  -7.178 -33.064  1.00  0.00    -0.381 OA
ENDBRANCH  24  25
ENDBRANCH  22  24
ENDBRANCH   6  20
BRANCH   1  30
HETATM   30  N1  UNL     1       2.631 -10.238 -31.054  1.00  0.00    -0.354 N 
ATOM     31  H1  UNL     1       2.723 -10.520 -32.030  1.00  0.00     0.163 HD
BRANCH  30  32
HETATM   32  C2  UNL     1       3.756 -10.439 -30.109  1.00  0.00     0.101 C 
HETATM   33  C1  UNL     1       4.266 -11.847 -30.138  1.00  0.00     0.056 C 
HETATM   34  C3  UNL     1       4.821  -9.404 -30.392  1.00  0.00     0.056 C 
HETATM   35 CL1  UNL     1       3.197 -10.133 -28.441  1.00  0.00    -0.096 Cl
ENDBRANCH  30  32
ENDBRANCH   1  30
TORSDOF 7
ENDMDL
MODEL 5
REMARK VINA RESULT: -5.726259351     12.076     14.278
REMARK  7 active torsions:
REMARK  status: ('A' for Active; 'I' for Inactive)
REMARK    1  A    between atoms: C2_2  and  N1_5 
REMARK    2  A    between atoms: N1_5  and  C4_7 
REMARK    3  A    between atoms: C6_11  and  C7_12 
REMARK    4  A    between atoms: C12_20  and  N4_21 
REMARK    5  A    between atoms: C14_25  and  C15_26 
REMARK       I    between atoms: C15_26  and  N5_28 
REMARK    6  A    between atoms: N5_28  and  C16_30 
REMARK    7  A    between atoms: C16_30  and  C17_31 
ROOT
HETATM    1  C4  UNL     1       8.316 -18.647 -24.776  1.00  0.00     0.119 A 
HETATM    2  N2  UNL     1       7.346 -19.462 -25.229  1.00  0.00    -0.351 N 
ATOM      3  H2  UNL     1       7.487 -20.197 -25.923  1.00  0.00     0.166 HD
HETATM    4  C5  UNL     1       6.187 -19.185 -24.658  1.00  0.00     0.103 A 
HETATM    5  C6  UNL     1       6.390 -18.112 -23.760  1.00  0.00     0.011 A 
HETATM    6  C14 UNL     1       7.696 -17.797 -23.843  1.00  0.00     0.088 A 
ENDROOT
BRANCH   5   7
HETATM    7  C7  UNL     1       5.198 -17.544 -23.104  1.00  0.00    -0.002 A 
HETATM    8  C8  UNL     1       4.418 -16.666 -23.832  1.00  0.00     0.063 A 
HETATM    9  S1  UNL     1       3.080 -16.403 -22.814  1.00  0.00    -0.100 SA
HETATM   10  C9  UNL     1       3.526 -17.396 -21.504  1.00  0.00     0.021 A 
HETATM   11  C10 UNL     1       2.929 -17.692 -20.272  1.00  0.00     0.037 A 
HETATM   12  C13 UNL     1       4.730 -17.917 -21.902  1.00  0.00     0.036 A 
HETATM   13  C11 UNL     1       3.557 -18.543 -19.392  1.00  0.00     0.091 A 
HETATM   14  N3  UNL     1       4.733 -19.041 -19.795  1.00  0.00    -0.352 N 
HETATM   15  C12 UNL     1       5.325 -18.777 -20.963  1.00  0.00     0.111 A 
ATOM     16  H3  UNL     1       5.217 -19.674 -19.158  1.00  0.00     0.166 HD
BRANCH  15  17
HETATM   17  N4  UNL     1       6.474 -19.340 -21.166  1.00  0.00    -0.385 N 
ATOM     18  H42 UNL     1       6.625 -20.341 -21.034  1.00  0.00     0.157 HD
ATOM     19  H41 UNL     1       7.228 -18.731 -21.483  1.00  0.00     0.157 HD
ENDBRANCH  15  17
ENDBRANCH   5   7
BRANCH   6  20
HETATM   20  C15 UNL     1       8.394 -16.767 -23.088  1.00  0.00     0.260 C 
HETATM   21  O1  UNL     1       8.328 -15.586 -23.534  1.00  0.00    -0.267 OA
HETATM   22  N5  UNL     1       9.132 -16.967 -21.933  1.00  0.00    -0.334 N 
ATOM     23  H5  UNL     1       9.218 -17.923 -21.586  1.00  0.00     0.168 HD
BRANCH  22  24
HETATM   24  C16 UNL     1       9.783 -15.932 -21.190  1.00  0.00     0.096 C 
BRANCH  24  25
HETATM   25  C17 UNL     1       9.871 -15.950 -19.745  1.00  0.00     0.159 C 
HETATM   26  C18 UNL     1      10.476 -17.042 -18.959  1.00  0.00     0.039 C 
HETATM   27  C19 UNL     1      10.243 -16.451 -17.537  1.00  0.00     0.029 C 
HETATM   28  C20 UNL     1      10.484 -14.983 -17.840  1.00  0.00     0.168 C 
HETATM   29  O2  UNL     1      10.591 -14.840 -19.226  1.00  0.00    -0.381 OA
ENDBRANCH  24  25
ENDBRANCH  22  24
ENDBRANCH   6  20
BRANCH   1  30
HETATM   30  N1  UNL     1       9.670 -18.650 -25.159  1.00  0.00    -0.354 N 
ATOM     31  H1  UNL     1       9.988 -18.052 -25.922  1.00  0.00     0.163 HD
BRANCH  30  32
HETATM   32  C2  UNL     1      10.630 -19.528 -24.447  1.00  0.00     0.101 C 
HETATM   33  C1  UNL     1      11.134 -20.633 -25.324  1.00  0.00     0.056 C 
HETATM   34  C3  UNL     1      11.730 -18.673 -23.861  1.00  0.00     0.056 C 
HETATM   35 CL1  UNL     1       9.815 -20.307 -23.063  1.00  0.00    -0.096 Cl
ENDBRANCH  30  32
ENDBRANCH   1  30
TORSDOF 7
ENDMDL
