MODEL 1
REMARK VINA RESULT: -7.046422831      0.000      0.000
REMARK  7 active torsions:
REMARK  status: ('A' for Active; 'I' for Inactive)
REMARK    1  A    between atoms: C2_2  and  N1_5 
REMARK       I    between atoms: N1_5  and  C5_7 
REMARK       I    between atoms: C5_7  and  N2_9 
REMARK    2  A    between atoms: N2_9  and  C6_11 
REMARK    3  A    between atoms: C7_12  and  C8_13 
REMARK    4  A    between atoms: C8_13  and  C9_14 
REMARK    5  A    between atoms: C9_14  and  N3_15 
REMARK    6  A    between atoms: C11_24  and  C12_25 
REMARK    7  A    between atoms: C15_33  and  C16_34 
ROOT
HETATM    1  C6  UNL     1       2.765  -7.650 -31.568  1.00  0.00     0.073 A 
HETATM    2  C7  UNL     1       3.675  -7.151 -32.449  1.00  0.00    -0.006 A 
HETATM    3  C10 UNL     1       4.918  -7.563 -31.919  1.00  0.00     0.098 A 
HETATM    4  N4  UNL     1       4.686  -8.256 -30.795  1.00  0.00    -0.362 N 
ATOM      5  H4  UNL     1       5.422  -8.664 -30.218  1.00  0.00     0.165 HD
HETATM    6  C11 UNL     1       3.390  -8.350 -30.515  1.00  0.00     0.089 A 
ENDROOT
BRANCH   6   7
HETATM    7  C12 UNL     1       2.699  -8.924 -29.369  1.00  0.00     0.089 A 
HETATM    8  N5  UNL     1       1.784  -8.356 -28.567  1.00  0.00    -0.297 N 
HETATM    9  N6  UNL     1       1.323  -9.202 -27.657  1.00  0.00    -0.296 N 
ATOM     10  H5  UNL     1       1.478  -7.386 -28.649  1.00  0.00     0.187 HD
HETATM   11  C13 UNL     1       1.930 -10.387 -27.827  1.00  0.00     0.100 A 
ATOM     12  H6  UNL     1       0.624  -8.987 -26.945  1.00  0.00     0.187 HD
HETATM   13  C14 UNL     1       1.863 -11.607 -27.216  1.00  0.00     0.158 A 
HETATM   14  C21 UNL     1       2.812 -10.244 -28.910  1.00  0.00     0.026 A 
HETATM   15  F3  UNL     1       1.004 -11.738 -26.162  1.00  0.00    -0.203 F 
HETATM   16  C15 UNL     1       2.587 -12.723 -27.566  1.00  0.00     0.040 A 
HETATM   17  C19 UNL     1       3.443 -12.562 -28.631  1.00  0.00     0.018 A 
HETATM   18  C20 UNL     1       3.557 -11.332 -29.300  1.00  0.00     0.017 A 
BRANCH  16  19
HETATM   19  C16 UNL     1       2.468 -13.995 -26.871  1.00  0.00     0.105 A 
HETATM   20  C17 UNL     1       1.778 -15.088 -27.316  1.00  0.00     0.127 A 
HETATM   21  N7  UNL     1       1.927 -16.039 -26.376  1.00  0.00    -0.354 N 
HETATM   22  C18 UNL     1       2.676 -15.552 -25.395  1.00  0.00     0.233 A 
ATOM     23  H7  UNL     1       1.530 -16.979 -26.411  1.00  0.00     0.166 HD
HETATM   24  O2  UNL     1       2.987 -14.319 -25.721  1.00  0.00    -0.304 OA
ENDBRANCH  16  19
ENDBRANCH   6   7
BRANCH   1  25
HETATM   25  N2  UNL     1       1.352  -7.525 -31.685  1.00  0.00    -0.306 N 
HETATM   26  C5  UNL     1       0.626  -6.478 -31.054  1.00  0.00     0.321 C 
HETATM   27  N1  UNL     1      -0.789  -6.362 -31.179  1.00  0.00    -0.335 N 
HETATM   28  O1  UNL     1       1.208  -5.610 -30.359  1.00  0.00    -0.247 OA
ATOM     29  H1  UNL     1      -1.285  -7.054 -31.739  1.00  0.00     0.165 HD
ATOM     30  H2  UNL     1       0.841  -8.211 -32.242  1.00  0.00     0.171 HD
BRANCH  27  31
HETATM   31  C2  UNL     1      -1.549  -5.320 -30.557  1.00  0.00     0.023 C 
HETATM   32  C1  UNL     1      -1.232  -3.950 -31.121  1.00  0.00     0.037 C 
HETATM   33  C3  UNL     1      -3.020  -5.566 -30.833  1.00  0.00     0.037 C 
HETATM   34  C4  UNL     1      -1.281  -5.367 -29.061  1.00  0.00     0.037 C 
ENDBRANCH  27  31
ENDBRANCH   1  25
BRANCH   2  35
HETATM   35  C8  UNL     1       3.574  -6.360 -33.686  1.00  0.00     0.153 C 
BRANCH  35  36
HETATM   36  C9  UNL     1       3.666  -4.891 -33.598  1.00  0.00     0.405 C 
HETATM   37  F1  UNL     1       3.209  -4.432 -34.882  1.00  0.00    -0.174 F 
HETATM   38  F2  UNL     1       4.906  -4.345 -33.507  1.00  0.00    -0.174 F 
BRANCH  36  39
HETATM   39  N3  UNL     1       2.679  -4.303 -32.701  1.00  0.00    -0.013 N 
ATOM     40  H33 UNL     1       1.743  -4.372 -33.100  1.00  0.00     0.281 HD
ATOM     41  H32 UNL     1       2.552  -4.882 -31.872  1.00  0.00     0.281 HD
ATOM     42  H31 UNL     1       2.892  -3.340 -32.441  1.00  0.00     0.281 HD
ENDBRANCH  36  39
ENDBRANCH  35  36
ENDBRANCH   2  35
TORSDOF 7
ENDMDL
MODEL 2
REMARK VINA RESULT: -6.963912239      2.610      7.879
REMARK  7 active torsions:
REMARK  status: ('A' for Active; 'I' for Inactive)
REMARK    1  A    between atoms: C2_2  and  N1_5 
REMARK       I    between atoms: N1_5  and  C5_7 
REMARK       I    between atoms: C5_7  and  N2_9 
REMARK    2  A    between atoms: N2_9  and  C6_11 
REMARK    3  A    between atoms: C7_12  and  C8_13 
REMARK    4  A    between atoms: C8_13  and  C9_14 
REMARK    5  A    between atoms: C9_14  and  N3_15 
REMARK    6  A    between atoms: C11_24  and  C12_25 
REMARK    7  A    between atoms: C15_33  and  C16_34 
ROOT
HETATM    1  C6  UNL     1       2.410 -11.004 -28.033  1.00  0.00     0.073 A 
HETATM    2  C7  UNL     1       1.949 -12.208 -27.594  1.00  0.00    -0.006 A 
HETATM    3  C10 UNL     1       2.769 -13.146 -28.260  1.00  0.00     0.098 A 
HETATM    4  N4  UNL     1       3.638 -12.472 -29.028  1.00  0.00    -0.362 N 
ATOM      5  H4  UNL     1       4.342 -12.921 -29.614  1.00  0.00     0.165 HD
HETATM    6  C11 UNL     1       3.478 -11.156 -28.941  1.00  0.00     0.089 A 
ENDROOT
BRANCH   6   7
HETATM    7  C12 UNL     1       4.128 -10.065 -29.653  1.00  0.00     0.089 A 
HETATM    8  N5  UNL     1       5.422  -9.704 -29.641  1.00  0.00    -0.297 N 
HETATM    9  N6  UNL     1       5.667  -8.694 -30.463  1.00  0.00    -0.296 N 
ATOM     10  H5  UNL     1       6.134 -10.155 -29.065  1.00  0.00     0.187 HD
HETATM   11  C13 UNL     1       4.519  -8.342 -31.064  1.00  0.00     0.100 A 
ATOM     12  H6  UNL     1       6.576  -8.257 -30.614  1.00  0.00     0.187 HD
HETATM   13  C14 UNL     1       4.156  -7.404 -31.988  1.00  0.00     0.158 A 
HETATM   14  C21 UNL     1       3.520  -9.196 -30.570  1.00  0.00     0.026 A 
HETATM   15  F3  UNL     1       5.133  -6.576 -32.462  1.00  0.00    -0.203 F 
HETATM   16  C15 UNL     1       2.889  -7.215 -32.489  1.00  0.00     0.040 A 
HETATM   17  C19 UNL     1       1.926  -8.064 -31.994  1.00  0.00     0.018 A 
HETATM   18  C20 UNL     1       2.237  -9.049 -31.041  1.00  0.00     0.017 A 
BRANCH  16  19
HETATM   19  C16 UNL     1       2.570  -6.194 -33.474  1.00  0.00     0.105 A 
HETATM   20  C17 UNL     1       1.939  -5.008 -33.222  1.00  0.00     0.127 A 
HETATM   21  N7  UNL     1       1.845  -4.369 -34.402  1.00  0.00    -0.354 N 
HETATM   22  C18 UNL     1       2.395  -5.130 -35.340  1.00  0.00     0.233 A 
ATOM     23  H7  UNL     1       1.422  -3.453 -34.552  1.00  0.00     0.166 HD
HETATM   24  O2  UNL     1       2.823  -6.222 -34.752  1.00  0.00    -0.304 OA
ENDBRANCH  16  19
ENDBRANCH   6   7
BRANCH   1  25
HETATM   25  N2  UNL     1       1.918  -9.734 -27.619  1.00  0.00    -0.306 N 
HETATM   26  C5  UNL     1       0.655  -9.234 -28.039  1.00  0.00     0.321 C 
HETATM   27  N1  UNL     1       0.172  -7.961 -27.617  1.00  0.00    -0.335 N 
HETATM   28  O1  UNL     1      -0.087  -9.900 -28.801  1.00  0.00    -0.247 OA
ATOM     29  H1  UNL     1       0.756  -7.401 -26.997  1.00  0.00     0.165 HD
ATOM     30  H2  UNL     1       2.491  -9.162 -26.999  1.00  0.00     0.171 HD
BRANCH  27  31
HETATM   31  C2  UNL     1      -1.094  -7.429 -28.022  1.00  0.00     0.023 C 
HETATM   32  C1  UNL     1      -2.256  -8.310 -27.610  1.00  0.00     0.037 C 
HETATM   33  C3  UNL     1      -1.302  -6.097 -27.328  1.00  0.00     0.037 C 
HETATM   34  C4  UNL     1      -1.067  -7.237 -29.530  1.00  0.00     0.037 C 
ENDBRANCH  27  31
ENDBRANCH   1  25
BRANCH   2  35
HETATM   35  C8  UNL     1       0.878 -12.619 -26.672  1.00  0.00     0.153 C 
BRANCH  35  36
HETATM   36  C9  UNL     1      -0.398 -13.097 -27.234  1.00  0.00     0.405 C 
HETATM   37  F1  UNL     1      -0.931 -13.960 -26.213  1.00  0.00    -0.174 F 
HETATM   38  F2  UNL     1      -0.339 -13.915 -28.317  1.00  0.00    -0.174 F 
BRANCH  36  39
HETATM   39  N3  UNL     1      -1.420 -12.061 -27.313  1.00  0.00    -0.013 N 
ATOM     40  H33 UNL     1      -1.862 -11.920 -26.405  1.00  0.00     0.281 HD
ATOM     41  H32 UNL     1      -0.995 -11.143 -27.439  1.00  0.00     0.281 HD
ATOM     42  H31 UNL     1      -2.120 -12.238 -28.033  1.00  0.00     0.281 HD
ENDBRANCH  36  39
ENDBRANCH  35  36
ENDBRANCH   2  35
TORSDOF 7
ENDMDL
MODEL 3
REMARK VINA RESULT: -6.959945790      3.059      9.117
REMARK  7 active torsions:
REMARK  status: ('A' for Active; 'I' for Inactive)
REMARK    1  A    between atoms: C2_2  and  N1_5 
REMARK       I    between atoms: N1_5  and  C5_7 
REMARK       I    between atoms: C5_7  and  N2_9 
REMARK    2  A    between atoms: N2_9  and  C6_11 
REMARK    3  A    between atoms: C7_12  and  C8_13 
REMARK    4  A    between atoms: C8_13  and  C9_14 
REMARK    5  A    between atoms: C9_14  and  N3_15 
REMARK    6  A    between atoms: C11_24  and  C12_25 
REMARK    7  A    between atoms: C15_33  and  C16_34 
ROOT
HETATM    1  C6  UNL     1       2.042 -11.748 -28.047  1.00  0.00     0.073 A 
HETATM    2  C7  UNL     1       1.079 -11.905 -27.096  1.00  0.00    -0.006 A 
HETATM    3  C10 UNL     1       0.882 -10.599 -26.597  1.00  0.00     0.098 A 
HETATM    4  N4  UNL     1       1.708  -9.770 -27.252  1.00  0.00    -0.362 N 
ATOM      5  H4  UNL     1       1.760  -8.767 -27.076  1.00  0.00     0.165 HD
HETATM    6  C11 UNL     1       2.450 -10.402 -28.155  1.00  0.00     0.089 A 
ENDROOT
BRANCH   6   7
HETATM    7  C12 UNL     1       3.522  -9.923 -29.015  1.00  0.00     0.089 A 
HETATM    8  N5  UNL     1       4.793 -10.351 -29.095  1.00  0.00    -0.297 N 
HETATM    9  N6  UNL     1       5.475  -9.719 -30.039  1.00  0.00    -0.296 N 
ATOM     10  H5  UNL     1       5.187 -11.078 -28.498  1.00  0.00     0.187 HD
HETATM   11  C13 UNL     1       4.662  -8.830 -30.633  1.00  0.00     0.100 A 
ATOM     12  H6  UNL     1       6.454  -9.881 -30.275  1.00  0.00     0.187 HD
HETATM   13  C14 UNL     1       4.793  -7.924 -31.647  1.00  0.00     0.158 A 
HETATM   14  C21 UNL     1       3.412  -8.935 -30.004  1.00  0.00     0.026 A 
HETATM   15  F3  UNL     1       6.013  -7.827 -32.253  1.00  0.00    -0.203 F 
HETATM   16  C15 UNL     1       3.801  -7.094 -32.118  1.00  0.00     0.040 A 
HETATM   17  C19 UNL     1       2.583  -7.216 -31.489  1.00  0.00     0.018 A 
HETATM   18  C20 UNL     1       2.387  -8.129 -30.440  1.00  0.00     0.017 A 
BRANCH  16  19
HETATM   19  C16 UNL     1       4.007  -6.150 -33.204  1.00  0.00     0.105 A 
HETATM   20  C17 UNL     1       3.783  -4.803 -33.145  1.00  0.00     0.127 A 
HETATM   21  N7  UNL     1       4.100  -4.312 -34.358  1.00  0.00    -0.354 N 
HETATM   22  C18 UNL     1       4.501  -5.314 -35.128  1.00  0.00     0.233 A 
ATOM     23  H7  UNL     1       4.041  -3.333 -34.638  1.00  0.00     0.166 HD
HETATM   24  O2  UNL     1       4.435  -6.409 -34.406  1.00  0.00    -0.304 OA
ENDBRANCH  16  19
ENDBRANCH   6   7
BRANCH   1  25
HETATM   25  N2  UNL     1       2.567 -12.787 -28.866  1.00  0.00    -0.306 N 
HETATM   26  C5  UNL     1       1.814 -13.382 -29.915  1.00  0.00     0.321 C 
HETATM   27  N1  UNL     1       2.351 -14.422 -30.729  1.00  0.00    -0.335 N 
HETATM   28  O1  UNL     1       0.642 -13.011 -30.166  1.00  0.00    -0.247 OA
ATOM     29  H1  UNL     1       3.302 -14.740 -30.545  1.00  0.00     0.165 HD
ATOM     30  H2  UNL     1       3.517 -13.116 -28.694  1.00  0.00     0.171 HD
BRANCH  27  31
HETATM   31  C2  UNL     1       1.620 -15.041 -31.793  1.00  0.00     0.023 C 
HETATM   32  C1  UNL     1       0.923 -14.035 -32.685  1.00  0.00     0.037 C 
HETATM   33  C3  UNL     1       2.598 -15.791 -32.677  1.00  0.00     0.037 C 
HETATM   34  C4  UNL     1       0.620 -16.009 -31.180  1.00  0.00     0.037 C 
ENDBRANCH  27  31
ENDBRANCH   1  25
BRANCH   2  35
HETATM   35  C8  UNL     1       0.329 -13.063 -26.583  1.00  0.00     0.153 C 
BRANCH  35  36
HETATM   36  C9  UNL     1       1.017 -14.019 -25.697  1.00  0.00     0.405 C 
HETATM   37  F1  UNL     1       0.897 -13.434 -24.388  1.00  0.00    -0.174 F 
HETATM   38  F2  UNL     1       2.360 -14.154 -25.844  1.00  0.00    -0.174 F 
BRANCH  36  39
HETATM   39  N3  UNL     1       0.296 -15.274 -25.531  1.00  0.00    -0.013 N 
ATOM     40  H33 UNL     1      -0.702 -15.105 -25.409  1.00  0.00     0.281 HD
ATOM     41  H32 UNL     1       0.274 -15.798 -26.406  1.00  0.00     0.281 HD
ATOM     42  H31 UNL     1       0.661 -15.852 -24.773  1.00  0.00     0.281 HD
ENDBRANCH  36  39
ENDBRANCH  35  36
ENDBRANCH   2  35
TORSDOF 7
ENDMDL
MODEL 4
REMARK VINA RESULT: -6.879841280     10.612     13.740
REMARK  7 active torsions:
REMARK  status: ('A' for Active; 'I' for Inactive)
REMARK    1  A    between atoms: C2_2  and  N1_5 
REMARK       I    between atoms: N1_5  and  C5_7 
REMARK       I    between atoms: C5_7  and  N2_9 
REMARK    2  A    between atoms: N2_9  and  C6_11 
REMARK    3  A    between atoms: C7_12  and  C8_13 
REMARK    4  A    between atoms: C8_13  and  C9_14 
REMARK    5  A    between atoms: C9_14  and  N3_15 
REMARK    6  A    between atoms: C11_24  and  C12_25 
REMARK    7  A    between atoms: C15_33  and  C16_34 
ROOT
HETATM    1  C6  UNL     1       8.525 -17.571 -23.379  1.00  0.00     0.073 A 
HETATM    2  C7  UNL     1       9.237 -18.671 -23.753  1.00  0.00    -0.006 A 
HETATM    3  C10 UNL     1       8.395 -19.316 -24.686  1.00  0.00     0.098 A 
HETATM    4  N4  UNL     1       7.273 -18.592 -24.809  1.00  0.00    -0.362 N 
ATOM      5  H4  UNL     1       6.500 -18.845 -25.424  1.00  0.00     0.165 HD
HETATM    6  C11 UNL     1       7.280 -17.509 -24.039  1.00  0.00     0.089 A 
ENDROOT
BRANCH   6   7
HETATM    7  C12 UNL     1       6.254 -16.506 -23.790  1.00  0.00     0.089 A 
HETATM    8  N5  UNL     1       6.285 -15.189 -24.049  1.00  0.00    -0.297 N 
HETATM    9  N6  UNL     1       5.142 -14.593 -23.743  1.00  0.00    -0.296 N 
ATOM     10  H5  UNL     1       7.094 -14.703 -24.437  1.00  0.00     0.187 HD
HETATM   11  C13 UNL     1       4.293 -15.515 -23.260  1.00  0.00     0.100 A 
ATOM     12  H6  UNL     1       4.940 -13.599 -23.856  1.00  0.00     0.187 HD
HETATM   13  C14 UNL     1       3.007 -15.502 -22.800  1.00  0.00     0.158 A 
HETATM   14  C21 UNL     1       4.971 -16.744 -23.277  1.00  0.00     0.026 A 
HETATM   15  F3  UNL     1       2.354 -14.303 -22.785  1.00  0.00    -0.203 F 
HETATM   16  C15 UNL     1       2.303 -16.594 -22.348  1.00  0.00     0.040 A 
HETATM   17  C19 UNL     1       2.986 -17.789 -22.375  1.00  0.00     0.018 A 
HETATM   18  C20 UNL     1       4.310 -17.866 -22.836  1.00  0.00     0.017 A 
BRANCH  16  19
HETATM   19  C16 UNL     1       0.932 -16.511 -21.870  1.00  0.00     0.105 A 
HETATM   20  C17 UNL     1      -0.185 -16.441 -22.654  1.00  0.00     0.127 A 
HETATM   21  N7  UNL     1      -1.235 -16.379 -21.815  1.00  0.00    -0.354 N 
HETATM   22  C18 UNL     1      -0.782 -16.410 -20.568  1.00  0.00     0.233 A 
ATOM     23  H7  UNL     1      -2.215 -16.319 -22.091  1.00  0.00     0.166 HD
HETATM   24  O2  UNL     1       0.526 -16.490 -20.632  1.00  0.00    -0.304 OA
ENDBRANCH  16  19
ENDBRANCH   6   7
BRANCH   1  25
HETATM   25  N2  UNL     1       8.970 -16.575 -22.465  1.00  0.00    -0.306 N 
HETATM   26  C5  UNL     1       9.049 -16.809 -21.064  1.00  0.00     0.321 C 
HETATM   27  N1  UNL     1       9.496 -15.804 -20.158  1.00  0.00    -0.335 N 
HETATM   28  O1  UNL     1       8.726 -17.917 -20.571  1.00  0.00    -0.247 OA
ATOM     29  H1  UNL     1       9.765 -14.895 -20.535  1.00  0.00     0.165 HD
ATOM     30  H2  UNL     1       9.241 -15.661 -22.826  1.00  0.00     0.171 HD
BRANCH  27  31
HETATM   31  C2  UNL     1       9.587 -16.007 -18.744  1.00  0.00     0.023 C 
HETATM   32  C1  UNL     1      10.432 -17.211 -18.381  1.00  0.00     0.037 C 
HETATM   33  C3  UNL     1      10.271 -14.802 -18.126  1.00  0.00     0.037 C 
HETATM   34  C4  UNL     1       8.177 -16.149 -18.194  1.00  0.00     0.037 C 
ENDBRANCH  27  31
ENDBRANCH   1  25
BRANCH   2  35
HETATM   35  C8  UNL     1      10.555 -19.210 -23.381  1.00  0.00     0.153 C 
BRANCH  35  36
HETATM   36  C9  UNL     1      11.698 -18.972 -24.281  1.00  0.00     0.405 C 
HETATM   37  F1  UNL     1      12.304 -17.771 -23.768  1.00  0.00    -0.174 F 
HETATM   38  F2  UNL     1      11.425 -18.644 -25.570  1.00  0.00    -0.174 F 
BRANCH  36  39
HETATM   39  N3  UNL     1      12.774 -19.942 -24.117  1.00  0.00    -0.013 N 
ATOM     40  H33 UNL     1      13.495 -19.580 -23.493  1.00  0.00     0.281 HD
ATOM     41  H32 UNL     1      12.460 -20.742 -23.568  1.00  0.00     0.281 HD
ATOM     42  H31 UNL     1      13.181 -20.247 -25.002  1.00  0.00     0.281 HD
ENDBRANCH  36  39
ENDBRANCH  35  36
ENDBRANCH   2  35
TORSDOF 7
ENDMDL
MODEL 5
REMARK VINA RESULT: -6.846254679      3.148      8.977
REMARK  7 active torsions:
REMARK  status: ('A' for Active; 'I' for Inactive)
REMARK    1  A    between atoms: C2_2  and  N1_5 
REMARK       I    between atoms: N1_5  and  C5_7 
REMARK       I    between atoms: C5_7  and  N2_9 
REMARK    2  A    between atoms: N2_9  and  C6_11 
REMARK    3  A    between atoms: C7_12  and  C8_13 
REMARK    4  A    between atoms: C8_13  and  C9_14 
REMARK    5  A    between atoms: C9_14  and  N3_15 
REMARK    6  A    between atoms: C11_24  and  C12_25 
REMARK    7  A    between atoms: C15_33  and  C16_34 
ROOT
HETATM    1  C6  UNL     1       2.029 -11.758 -27.885  1.00  0.00     0.073 A 
HETATM    2  C7  UNL     1       1.093 -11.911 -26.907  1.00  0.00    -0.006 A 
HETATM    3  C10 UNL     1       0.870 -10.594 -26.447  1.00  0.00     0.098 A 
HETATM    4  N4  UNL     1       1.656  -9.765 -27.149  1.00  0.00    -0.362 N 
ATOM      5  H4  UNL     1       1.684  -8.755 -27.008  1.00  0.00     0.165 HD
HETATM    6  C11 UNL     1       2.395 -10.406 -28.048  1.00  0.00     0.089 A 
ENDROOT
BRANCH   6   7
HETATM    7  C12 UNL     1       3.433  -9.927 -28.949  1.00  0.00     0.089 A 
HETATM    8  N5  UNL     1       4.706 -10.341 -29.064  1.00  0.00    -0.297 N 
HETATM    9  N6  UNL     1       5.349  -9.715 -30.039  1.00  0.00    -0.296 N 
ATOM     10  H5  UNL     1       5.129 -11.054 -28.470  1.00  0.00     0.187 HD
HETATM   11  C13 UNL     1       4.507  -8.844 -30.619  1.00  0.00     0.100 A 
ATOM     12  H6  UNL     1       6.322  -9.868 -30.304  1.00  0.00     0.187 HD
HETATM   13  C14 UNL     1       4.593  -7.952 -31.649  1.00  0.00     0.158 A 
HETATM   14  C21 UNL     1       3.279  -8.955 -29.948  1.00  0.00     0.026 A 
HETATM   15  F3  UNL     1       5.792  -7.848 -32.295  1.00  0.00    -0.203 F 
HETATM   16  C15 UNL     1       3.577  -7.141 -32.099  1.00  0.00     0.040 A 
HETATM   17  C19 UNL     1       2.381  -7.268 -31.430  1.00  0.00     0.018 A 
HETATM   18  C20 UNL     1       2.230  -8.168 -30.362  1.00  0.00     0.017 A 
BRANCH  16  19
HETATM   19  C16 UNL     1       3.736  -6.210 -33.204  1.00  0.00     0.105 A 
HETATM   20  C17 UNL     1       3.559  -4.856 -33.141  1.00  0.00     0.127 A 
HETATM   21  N7  UNL     1       3.805  -4.383 -34.377  1.00  0.00    -0.354 N 
HETATM   22  C18 UNL     1       4.120  -5.402 -35.165  1.00  0.00     0.233 A 
ATOM     23  H7  UNL     1       3.758  -3.404 -34.661  1.00  0.00     0.166 HD
HETATM   24  O2  UNL     1       4.070  -6.490 -34.432  1.00  0.00    -0.304 OA
ENDBRANCH  16  19
ENDBRANCH   6   7
BRANCH   1  25
HETATM   25  N2  UNL     1       2.565 -12.810 -28.681  1.00  0.00    -0.306 N 
HETATM   26  C5  UNL     1       1.865 -13.354 -29.793  1.00  0.00     0.321 C 
HETATM   27  N1  UNL     1       2.412 -14.407 -30.584  1.00  0.00    -0.335 N 
HETATM   28  O1  UNL     1       0.733 -12.925 -30.123  1.00  0.00    -0.247 OA
ATOM     29  H1  UNL     1       3.332 -14.772 -30.336  1.00  0.00     0.165 HD
ATOM     30  H2  UNL     1       3.483 -13.186 -28.446  1.00  0.00     0.171 HD
BRANCH  27  31
HETATM   31  C2  UNL     1       1.734 -14.976 -31.708  1.00  0.00     0.023 C 
HETATM   32  C1  UNL     1       1.096 -13.928 -32.597  1.00  0.00     0.037 C 
HETATM   33  C3  UNL     1       2.752 -15.702 -32.568  1.00  0.00     0.037 C 
HETATM   34  C4  UNL     1       0.693 -15.955 -31.189  1.00  0.00     0.037 C 
ENDBRANCH  27  31
ENDBRANCH   1  25
BRANCH   2  35
HETATM   35  C8  UNL     1       0.389 -13.070 -26.338  1.00  0.00     0.153 C 
BRANCH  35  36
HETATM   36  C9  UNL     1      -0.642 -13.742 -27.150  1.00  0.00     0.405 C 
HETATM   37  F1  UNL     1      -1.572 -14.259 -26.181  1.00  0.00    -0.174 F 
HETATM   38  F2  UNL     1      -0.274 -14.855 -27.835  1.00  0.00    -0.174 F 
BRANCH  36  39
HETATM   39  N3  UNL     1      -1.479 -12.816 -27.903  1.00  0.00    -0.013 N 
ATOM     40  H33 UNL     1      -1.151 -11.858 -27.788  1.00  0.00     0.281 HD
ATOM     41  H32 UNL     1      -1.330 -12.928 -28.905  1.00  0.00     0.281 HD
ATOM     42  H31 UNL     1      -2.470 -12.890 -27.673  1.00  0.00     0.281 HD
ENDBRANCH  36  39
ENDBRANCH  35  36
ENDBRANCH   2  35
TORSDOF 7
ENDMDL
