MODEL 1
REMARK VINA RESULT: -6.604799180      0.000      0.000
REMARK  7 active torsions:
REMARK  status: ('A' for Active; 'I' for Inactive)
REMARK    1  A    between atoms: C2_2  and  C4_4 
REMARK    2  A    between atoms: C4_4  and  N1_5 
REMARK    3  A    between atoms: N1_5  and  C5_8 
REMARK    4  A    between atoms: N2_11  and  C8_12 
REMARK    5  A    between atoms: C9_13  and  O1_14 
REMARK    6  A    between atoms: C10_16  and  C11_17 
REMARK    7  A    between atoms: C17_26  and  N4_27 
ROOT
HETATM    1  C8  UNL     1       9.166 -17.135 -21.391  1.00  0.00     0.107 A 
HETATM    2  C9  UNL     1       7.819 -16.986 -21.654  1.00  0.00     0.109 A 
HETATM    3  C10 UNL     1       7.276 -17.299 -22.887  1.00  0.00     0.055 A 
HETATM    4  C18 UNL     1       8.103 -17.772 -23.878  1.00  0.00     0.172 A 
HETATM    5  F1  UNL     1       7.555 -18.073 -25.079  1.00  0.00    -0.202 F 
HETATM    6  C19 UNL     1       9.450 -17.929 -23.638  1.00  0.00     0.196 A 
HETATM    7  F2  UNL     1      10.276 -18.397 -24.600  1.00  0.00    -0.199 F 
HETATM    8  C20 UNL     1       9.984 -17.609 -22.385  1.00  0.00     0.187 A 
HETATM    9  F3  UNL     1      11.311 -17.758 -22.129  1.00  0.00    -0.200 F 
ENDROOT
BRANCH   1  10
HETATM   10  N2  UNL     1       9.676 -16.787 -20.102  1.00  0.00    -0.376 N 
HETATM   11  C7  UNL     1       9.692 -15.454 -19.604  1.00  0.00     0.125 C 
HETATM   12  C6  UNL     1       9.384 -15.308 -18.140  1.00  0.00     0.053 C 
HETATM   13  C5  UNL     1       9.217 -16.633 -17.475  1.00  0.00     0.189 C 
HETATM   14  C22 UNL     1      10.423 -17.489 -17.880  1.00  0.00     0.053 C 
HETATM   15  C21 UNL     1      10.199 -17.876 -19.309  1.00  0.00     0.125 C 
BRANCH  13  16
HETATM   16  N1  UNL     1       9.089 -16.599 -16.047  1.00  0.00    -0.070 N 
ATOM     17  H12 UNL     1       8.823 -15.664 -15.737  1.00  0.00     0.277 HD
ATOM     18  H11 UNL     1      10.006 -16.676 -15.607  1.00  0.00     0.277 HD
BRANCH  16  19
HETATM   19  C4  UNL     1       8.198 -17.571 -15.508  1.00  0.00     0.236 C 
BRANCH  19  20
HETATM   20  C2  UNL     1       8.889 -18.605 -14.650  1.00  0.00     0.003 C 
HETATM   21  C1  UNL     1       8.721 -19.938 -15.388  1.00  0.00     0.011 C 
HETATM   22  C3  UNL     1      10.356 -18.385 -14.493  1.00  0.00     0.011 C 
ENDBRANCH  19  20
ENDBRANCH  16  19
ENDBRANCH  13  16
ENDBRANCH   1  10
BRANCH   2  23
HETATM   23  O1  UNL     1       7.013 -16.501 -20.612  1.00  0.00    -0.357 OA
ATOM     24  H1  UNL     1       7.366 -15.794 -20.085  1.00  0.00     0.217 HD
ENDBRANCH   2  23
BRANCH   3  25
HETATM   25  C11 UNL     1       5.824 -17.121 -23.136  1.00  0.00     0.023 A 
HETATM   26  C12 UNL     1       4.960 -18.140 -22.813  1.00  0.00     0.103 A 
HETATM   27  N3  UNL     1       3.660 -17.942 -23.058  1.00  0.00    -0.359 N 
HETATM   28  C13 UNL     1       3.210 -16.770 -23.611  1.00  0.00     0.086 A 
ATOM     29  H3  UNL     1       2.990 -18.676 -22.830  1.00  0.00     0.166 HD
HETATM   30  S1  UNL     1       1.655 -16.211 -24.037  1.00  0.00    -0.083 SA
HETATM   31  C16 UNL     1       4.020 -15.730 -23.949  1.00  0.00     0.025 A 
HETATM   32  C14 UNL     1       2.081 -14.665 -24.638  1.00  0.00     0.053 A 
HETATM   33  C15 UNL     1       3.436 -14.636 -24.484  1.00  0.00     0.024 A 
HETATM   34  C17 UNL     1       5.384 -15.941 -23.690  1.00  0.00     0.051 A 
BRANCH  34  35
HETATM   35  N4  UNL     1       6.262 -15.035 -23.963  1.00  0.00    -0.398 N 
ATOM     36  H42 UNL     1       6.450 -14.756 -24.926  1.00  0.00     0.156 HD
ATOM     37  H41 UNL     1       6.764 -14.605 -23.186  1.00  0.00     0.156 HD
ENDBRANCH  34  35
ENDBRANCH   3  25
TORSDOF 7
ENDMDL
MODEL 2
REMARK VINA RESULT: -6.599562201      2.682      7.796
REMARK  7 active torsions:
REMARK  status: ('A' for Active; 'I' for Inactive)
REMARK    1  A    between atoms: C2_2  and  C4_4 
REMARK    2  A    between atoms: C4_4  and  N1_5 
REMARK    3  A    between atoms: N1_5  and  C5_8 
REMARK    4  A    between atoms: N2_11  and  C8_12 
REMARK    5  A    between atoms: C9_13  and  O1_14 
REMARK    6  A    between atoms: C10_16  and  C11_17 
REMARK    7  A    between atoms: C17_26  and  N4_27 
ROOT
HETATM    1  C8  UNL     1       7.689 -17.122 -22.746  1.00  0.00     0.107 A 
HETATM    2  C9  UNL     1       7.935 -16.993 -21.394  1.00  0.00     0.109 A 
HETATM    3  C10 UNL     1       9.129 -17.402 -20.826  1.00  0.00     0.055 A 
HETATM    4  C18 UNL     1      10.097 -17.952 -21.633  1.00  0.00     0.172 A 
HETATM    5  F1  UNL     1      11.258 -18.346 -21.061  1.00  0.00    -0.202 F 
HETATM    6  C19 UNL     1       9.873 -18.089 -22.985  1.00  0.00     0.196 A 
HETATM    7  F2  UNL     1      10.815 -18.623 -23.793  1.00  0.00    -0.199 F 
HETATM    8  C20 UNL     1       8.661 -17.671 -23.544  1.00  0.00     0.187 A 
HETATM    9  F3  UNL     1       8.421 -17.797 -24.876  1.00  0.00    -0.200 F 
ENDROOT
BRANCH   1  10
HETATM   10  N2  UNL     1       6.434 -16.692 -23.278  1.00  0.00    -0.376 N 
HETATM   11  C7  UNL     1       5.283 -17.529 -23.334  1.00  0.00     0.125 C 
HETATM   12  C6  UNL     1       3.976 -16.846 -23.046  1.00  0.00     0.053 C 
HETATM   13  C5  UNL     1       4.149 -15.377 -22.852  1.00  0.00     0.189 C 
HETATM   14  C22 UNL     1       4.986 -14.869 -24.031  1.00  0.00     0.053 C 
HETATM   15  C21 UNL     1       6.387 -15.339 -23.783  1.00  0.00     0.125 C 
BRANCH  13  16
HETATM   16  N1  UNL     1       2.937 -14.618 -22.741  1.00  0.00    -0.070 N 
ATOM     17  H12 UNL     1       2.756 -14.110 -23.607  1.00  0.00     0.277 HD
ATOM     18  H11 UNL     1       3.066 -13.835 -22.101  1.00  0.00     0.277 HD
BRANCH  16  19
HETATM   19  C4  UNL     1       1.793 -15.380 -22.366  1.00  0.00     0.236 C 
BRANCH  19  20
HETATM   20  C2  UNL     1       0.486 -14.720 -22.740  1.00  0.00     0.003 C 
HETATM   21  C1  UNL     1       0.777 -13.913 -24.010  1.00  0.00     0.011 C 
HETATM   22  C3  UNL     1      -0.605 -15.678 -23.082  1.00  0.00     0.011 C 
ENDBRANCH  19  20
ENDBRANCH  16  19
ENDBRANCH  13  16
ENDBRANCH   1  10
BRANCH   2  23
HETATM   23  O1  UNL     1       6.919 -16.426 -20.609  1.00  0.00    -0.357 OA
ATOM     24  H1  UNL     1       6.686 -16.880 -19.809  1.00  0.00     0.217 HD
ENDBRANCH   2  23
BRANCH   3  25
HETATM   25  C11 UNL     1       9.357 -17.254 -19.367  1.00  0.00     0.023 A 
HETATM   26  C12 UNL     1      10.139 -16.217 -18.915  1.00  0.00     0.103 A 
HETATM   27  N3  UNL     1      10.324 -16.123 -17.593  1.00  0.00    -0.359 N 
HETATM   28  C13 UNL     1       9.758 -17.023 -16.727  1.00  0.00     0.086 A 
ATOM     29  H3  UNL     1      10.898 -15.365 -17.222  1.00  0.00     0.166 HD
HETATM   30  S1  UNL     1       9.794 -17.178 -15.029  1.00  0.00    -0.083 SA
HETATM   31  C16 UNL     1       8.977 -18.065 -17.120  1.00  0.00     0.025 A 
HETATM   32  C14 UNL     1       8.811 -18.571 -14.866  1.00  0.00     0.053 A 
HETATM   33  C15 UNL     1       8.484 -18.872 -16.156  1.00  0.00     0.024 A 
HETATM   34  C17 UNL     1       8.783 -18.163 -18.509  1.00  0.00     0.051 A 
BRANCH  34  35
HETATM   35  N4  UNL     1       8.062 -19.105 -19.016  1.00  0.00    -0.398 N 
ATOM     36  H42 UNL     1       7.217 -18.894 -19.547  1.00  0.00     0.156 HD
ATOM     37  H41 UNL     1       8.363 -20.068 -18.872  1.00  0.00     0.156 HD
ENDBRANCH  34  35
ENDBRANCH   3  25
TORSDOF 7
ENDMDL
MODEL 3
REMARK VINA RESULT: -6.486183190      2.710      7.788
REMARK  7 active torsions:
REMARK  status: ('A' for Active; 'I' for Inactive)
REMARK    1  A    between atoms: C2_2  and  C4_4 
REMARK    2  A    between atoms: C4_4  and  N1_5 
REMARK    3  A    between atoms: N1_5  and  C5_8 
REMARK    4  A    between atoms: N2_11  and  C8_12 
REMARK    5  A    between atoms: C9_13  and  O1_14 
REMARK    6  A    between atoms: C10_16  and  C11_17 
REMARK    7  A    between atoms: C17_26  and  N4_27 
ROOT
HETATM    1  C8  UNL     1       7.049 -17.374 -23.012  1.00  0.00     0.107 A 
HETATM    2  C9  UNL     1       7.512 -17.120 -21.736  1.00  0.00     0.109 A 
HETATM    3  C10 UNL     1       8.798 -17.449 -21.345  1.00  0.00     0.055 A 
HETATM    4  C18 UNL     1       9.638 -18.046 -22.256  1.00  0.00     0.172 A 
HETATM    5  F1  UNL     1      10.892 -18.361 -21.857  1.00  0.00    -0.202 F 
HETATM    6  C19 UNL     1       9.198 -18.308 -23.534  1.00  0.00     0.196 A 
HETATM    7  F2  UNL     1      10.012 -18.889 -24.442  1.00  0.00    -0.199 F 
HETATM    8  C20 UNL     1       7.895 -17.969 -23.914  1.00  0.00     0.187 A 
HETATM    9  F3  UNL     1       7.443 -18.218 -25.171  1.00  0.00    -0.200 F 
ENDROOT
BRANCH   1  10
HETATM   10  N2  UNL     1       5.708 -17.022 -23.358  1.00  0.00    -0.376 N 
HETATM   11  C7  UNL     1       4.636 -17.959 -23.374  1.00  0.00     0.125 C 
HETATM   12  C6  UNL     1       3.317 -17.436 -22.878  1.00  0.00     0.053 C 
HETATM   13  C5  UNL     1       3.383 -15.981 -22.555  1.00  0.00     0.189 C 
HETATM   14  C22 UNL     1       4.029 -15.288 -23.760  1.00  0.00     0.053 C 
HETATM   15  C21 UNL     1       5.484 -15.640 -23.713  1.00  0.00     0.125 C 
BRANCH  13  16
HETATM   16  N1  UNL     1       2.131 -15.358 -22.237  1.00  0.00    -0.070 N 
ATOM     17  H12 UNL     1       2.090 -15.134 -21.242  1.00  0.00     0.277 HD
ATOM     18  H11 UNL     1       1.372 -16.037 -22.295  1.00  0.00     0.277 HD
BRANCH  16  19
HETATM   19  C4  UNL     1       1.826 -14.206 -23.017  1.00  0.00     0.236 C 
BRANCH  19  20
HETATM   20  C2  UNL     1       0.448 -14.250 -23.634  1.00  0.00     0.003 C 
HETATM   21  C1  UNL     1       0.542 -13.424 -24.922  1.00  0.00     0.011 C 
HETATM   22  C3  UNL     1       0.003 -15.616 -24.034  1.00  0.00     0.011 C 
ENDBRANCH  19  20
ENDBRANCH  16  19
ENDBRANCH  13  16
ENDBRANCH   1  10
BRANCH   2  23
HETATM   23  O1  UNL     1       6.620 -16.510 -20.841  1.00  0.00    -0.357 OA
ATOM     24  H1  UNL     1       6.785 -16.631 -19.914  1.00  0.00     0.217 HD
ENDBRANCH   2  23
BRANCH   3  25
HETATM   25  C11 UNL     1       9.259 -17.167 -19.964  1.00  0.00     0.023 A 
HETATM   26  C12 UNL     1       9.256 -18.183 -19.037  1.00  0.00     0.103 A 
HETATM   27  N3  UNL     1       9.674 -17.885 -17.801  1.00  0.00    -0.359 N 
HETATM   28  C13 UNL     1      10.088 -16.619 -17.475  1.00  0.00     0.086 A 
ATOM     29  H3  UNL     1       9.686 -18.614 -17.088  1.00  0.00     0.166 HD
HETATM   30  S1  UNL     1      10.670 -15.927 -16.028  1.00  0.00    -0.083 SA
HETATM   31  C16 UNL     1      10.112 -15.579 -18.351  1.00  0.00     0.025 A 
HETATM   32  C14 UNL     1      10.926 -14.326 -16.581  1.00  0.00     0.053 A 
HETATM   33  C15 UNL     1      10.546 -14.387 -17.889  1.00  0.00     0.024 A 
HETATM   34  C17 UNL     1       9.673 -15.894 -19.648  1.00  0.00     0.051 A 
BRANCH  34  35
HETATM   35  N4  UNL     1       9.645 -15.000 -20.578  1.00  0.00    -0.398 N 
ATOM     36  H42 UNL     1       9.581 -15.263 -21.561  1.00  0.00     0.156 HD
ATOM     37  H41 UNL     1       9.690 -14.019 -20.301  1.00  0.00     0.156 HD
ENDBRANCH  34  35
ENDBRANCH   3  25
TORSDOF 7
ENDMDL
MODEL 4
REMARK VINA RESULT: -6.481392493      6.731     11.818
REMARK  7 active torsions:
REMARK  status: ('A' for Active; 'I' for Inactive)
REMARK    1  A    between atoms: C2_2  and  C4_4 
REMARK    2  A    between atoms: C4_4  and  N1_5 
REMARK    3  A    between atoms: N1_5  and  C5_8 
REMARK    4  A    between atoms: N2_11  and  C8_12 
REMARK    5  A    between atoms: C9_13  and  O1_14 
REMARK    6  A    between atoms: C10_16  and  C11_17 
REMARK    7  A    between atoms: C17_26  and  N4_27 
ROOT
HETATM    1  C8  UNL     1       1.503 -12.763 -27.020  1.00  0.00     0.107 A 
HETATM    2  C9  UNL     1       2.097 -13.560 -26.062  1.00  0.00     0.109 A 
HETATM    3  C10 UNL     1       1.357 -14.395 -25.243  1.00  0.00     0.055 A 
HETATM    4  C18 UNL     1      -0.010 -14.431 -25.391  1.00  0.00     0.172 A 
HETATM    5  F1  UNL     1      -0.718 -15.253 -24.583  1.00  0.00    -0.202 F 
HETATM    6  C19 UNL     1      -0.623 -13.645 -26.341  1.00  0.00     0.196 A 
HETATM    7  F2  UNL     1      -1.965 -13.672 -26.502  1.00  0.00    -0.199 F 
HETATM    8  C20 UNL     1       0.139 -12.807 -27.161  1.00  0.00     0.187 A 
HETATM    9  F3  UNL     1      -0.448 -12.025 -28.105  1.00  0.00    -0.200 F 
ENDROOT
BRANCH   1  10
HETATM   10  N2  UNL     1       2.316 -11.912 -27.831  1.00  0.00    -0.376 N 
HETATM   11  C7  UNL     1       3.075 -12.383 -28.940  1.00  0.00     0.125 C 
HETATM   12  C6  UNL     1       3.118 -11.465 -30.128  1.00  0.00     0.053 C 
HETATM   13  C5  UNL     1       2.420 -10.175 -29.857  1.00  0.00     0.189 C 
HETATM   14  C22 UNL     1       2.955  -9.653 -28.519  1.00  0.00     0.053 C 
HETATM   15  C21 UNL     1       2.344 -10.516 -27.459  1.00  0.00     0.125 C 
BRANCH  13  16
HETATM   16  N1  UNL     1       2.555  -9.170 -30.872  1.00  0.00    -0.070 N 
ATOM     17  H12 UNL     1       1.646  -8.959 -31.285  1.00  0.00     0.277 HD
ATOM     18  H11 UNL     1       3.034  -9.552 -31.687  1.00  0.00     0.277 HD
BRANCH  16  19
HETATM   19  C4  UNL     1       3.192  -7.971 -30.439  1.00  0.00     0.236 C 
BRANCH  19  20
HETATM   20  C2  UNL     1       4.243  -7.472 -31.402  1.00  0.00     0.003 C 
HETATM   21  C1  UNL     1       3.964  -5.976 -31.585  1.00  0.00     0.011 C 
HETATM   22  C3  UNL     1       5.641  -7.587 -30.893  1.00  0.00     0.011 C 
ENDBRANCH  19  20
ENDBRANCH  16  19
ENDBRANCH  13  16
ENDBRANCH   1  10
BRANCH   2  23
HETATM   23  O1  UNL     1       3.494 -13.491 -25.948  1.00  0.00    -0.357 OA
ATOM     24  H1  UNL     1       3.846 -12.920 -25.276  1.00  0.00     0.217 HD
ENDBRANCH   2  23
BRANCH   3  25
HETATM   25  C11 UNL     1       2.028 -15.233 -24.220  1.00  0.00     0.023 A 
HETATM   26  C12 UNL     1       2.354 -14.674 -23.007  1.00  0.00     0.103 A 
HETATM   27  N3  UNL     1       2.964 -15.462 -22.114  1.00  0.00    -0.359 N 
HETATM   28  C13 UNL     1       3.251 -16.773 -22.398  1.00  0.00     0.086 A 
ATOM     29  H3  UNL     1       3.219 -15.081 -21.203  1.00  0.00     0.166 HD
HETATM   30  S1  UNL     1       3.998 -18.017 -21.502  1.00  0.00    -0.083 SA
HETATM   31  C16 UNL     1       2.951 -17.376 -23.580  1.00  0.00     0.025 A 
HETATM   32  C14 UNL     1       3.909 -19.274 -22.662  1.00  0.00     0.053 A 
HETATM   33  C15 UNL     1       3.292 -18.674 -23.720  1.00  0.00     0.024 A 
HETATM   34  C17 UNL     1       2.310 -16.546 -24.517  1.00  0.00     0.051 A 
BRANCH  34  35
HETATM   35  N4  UNL     1       1.969 -16.992 -25.678  1.00  0.00    -0.398 N 
ATOM     36  H42 UNL     1       1.049 -17.402 -25.836  1.00  0.00     0.156 HD
ATOM     37  H41 UNL     1       2.648 -16.922 -26.436  1.00  0.00     0.156 HD
ENDBRANCH  34  35
ENDBRANCH   3  25
TORSDOF 7
ENDMDL
MODEL 5
REMARK VINA RESULT: -6.439785003      6.535     11.715
REMARK  7 active torsions:
REMARK  status: ('A' for Active; 'I' for Inactive)
REMARK    1  A    between atoms: C2_2  and  C4_4 
REMARK    2  A    between atoms: C4_4  and  N1_5 
REMARK    3  A    between atoms: N1_5  and  C5_8 
REMARK    4  A    between atoms: N2_11  and  C8_12 
REMARK    5  A    between atoms: C9_13  and  O1_14 
REMARK    6  A    between atoms: C10_16  and  C11_17 
REMARK    7  A    between atoms: C17_26  and  N4_27 
ROOT
HETATM    1  C8  UNL     1       0.640 -12.680 -26.963  1.00  0.00     0.107 A 
HETATM    2  C9  UNL     1       1.488 -13.360 -26.111  1.00  0.00     0.109 A 
HETATM    3  C10 UNL     1       1.029 -14.351 -25.261  1.00  0.00     0.055 A 
HETATM    4  C18 UNL     1      -0.309 -14.667 -25.268  1.00  0.00     0.172 A 
HETATM    5  F1  UNL     1      -0.740 -15.639 -24.430  1.00  0.00    -0.202 F 
HETATM    6  C19 UNL     1      -1.172 -14.002 -26.109  1.00  0.00     0.196 A 
HETATM    7  F2  UNL     1      -2.490 -14.303 -26.131  1.00  0.00    -0.199 F 
HETATM    8  C20 UNL     1      -0.693 -13.003 -26.963  1.00  0.00     0.187 A 
HETATM    9  F3  UNL     1      -1.530 -12.336 -27.802  1.00  0.00    -0.200 F 
ENDROOT
BRANCH   1  10
HETATM   10  N2  UNL     1       1.166 -11.658 -27.812  1.00  0.00    -0.376 N 
HETATM   11  C7  UNL     1       1.191 -10.281 -27.452  1.00  0.00     0.125 C 
HETATM   12  C6  UNL     1       2.418  -9.526 -27.880  1.00  0.00     0.053 C 
HETATM   13  C5  UNL     1       3.333 -10.373 -28.699  1.00  0.00     0.189 C 
HETATM   14  C22 UNL     1       2.475 -11.034 -29.784  1.00  0.00     0.053 C 
HETATM   15  C21 UNL     1       1.673 -12.094 -29.094  1.00  0.00     0.125 C 
BRANCH  13  16
HETATM   16  N1  UNL     1       4.446  -9.690 -29.294  1.00  0.00    -0.070 N 
ATOM     17  H12 UNL     1       5.218 -10.338 -29.448  1.00  0.00     0.277 HD
ATOM     18  H11 UNL     1       4.877  -9.059 -28.618  1.00  0.00     0.277 HD
BRANCH  16  19
HETATM   19  C4  UNL     1       4.138  -8.991 -30.497  1.00  0.00     0.236 C 
BRANCH  19  20
HETATM   20  C2  UNL     1       4.800  -7.637 -30.587  1.00  0.00     0.003 C 
HETATM   21  C1  UNL     1       6.306  -7.913 -30.660  1.00  0.00     0.011 C 
HETATM   22  C3  UNL     1       4.447  -6.866 -31.815  1.00  0.00     0.011 C 
ENDBRANCH  19  20
ENDBRANCH  16  19
ENDBRANCH  13  16
ENDBRANCH   1  10
BRANCH   2  23
HETATM   23  O1  UNL     1       2.845 -13.005 -26.140  1.00  0.00    -0.357 OA
ATOM     24  H1  UNL     1       3.478 -13.705 -26.035  1.00  0.00     0.217 HD
ENDBRANCH   2  23
BRANCH   3  25
HETATM   25  C11 UNL     1       1.968 -15.057 -24.355  1.00  0.00     0.023 A 
HETATM   26  C12 UNL     1       2.370 -14.438 -23.195  1.00  0.00     0.103 A 
HETATM   27  N3  UNL     1       3.221 -15.107 -22.408  1.00  0.00    -0.359 N 
HETATM   28  C13 UNL     1       3.672 -16.357 -22.746  1.00  0.00     0.086 A 
ATOM     29  H3  UNL     1       3.540 -14.679 -21.539  1.00  0.00     0.166 HD
HETATM   30  S1  UNL     1       4.732 -17.453 -21.981  1.00  0.00    -0.083 SA
HETATM   31  C16 UNL     1       3.307 -17.015 -23.879  1.00  0.00     0.025 A 
HETATM   32  C14 UNL     1       4.682 -18.722 -23.130  1.00  0.00     0.053 A 
HETATM   33  C15 UNL     1       3.830 -18.243 -24.082  1.00  0.00     0.024 A 
HETATM   34  C17 UNL     1       2.413 -16.311 -24.704  1.00  0.00     0.051 A 
BRANCH  34  35
HETATM   35  N4  UNL     1       1.985 -16.820 -25.809  1.00  0.00    -0.398 N 
ATOM     36  H42 UNL     1       1.734 -16.227 -26.600  1.00  0.00     0.156 HD
ATOM     37  H41 UNL     1       1.904 -17.835 -25.870  1.00  0.00     0.156 HD
ENDBRANCH  34  35
ENDBRANCH   3  25
TORSDOF 7
ENDMDL
