MODEL 1
REMARK VINA RESULT: -7.553119862      0.000      0.000
REMARK  5 active torsions:
REMARK  status: ('A' for Active; 'I' for Inactive)
REMARK    1  A    between atoms: C2_2  and  N1_3 
REMARK       I    between atoms: N1_3  and  C3_5 
REMARK       I    between atoms: C3_5  and  N2_7 
REMARK    2  A    between atoms: N2_7  and  C4_9 
REMARK    3  A    between atoms: C6_11  and  O2_12 
REMARK    4  A    between atoms: O2_12  and  C7_13 
REMARK    5  A    between atoms: C8_16  and  C9_17 
ROOT
HETATM    1  C7  UNL     1       0.007 -10.039 -26.581  1.00  0.00     0.189 A 
HETATM    2  N3  UNL     1      -0.431  -8.894 -26.022  1.00  0.00    -0.336 N 
ATOM      3  H3  UNL     1       0.090  -8.344 -25.339  1.00  0.00     0.168 HD
HETATM    4  C8  UNL     1      -1.662  -8.575 -26.494  1.00  0.00     0.039 A 
HETATM    5  C16 UNL     1      -1.982  -9.579 -27.381  1.00  0.00     0.074 A 
HETATM    6  C17 UNL     1      -0.947 -10.498 -27.444  1.00  0.00     0.169 A 
HETATM    7  F1  UNL     1      -0.885 -11.621 -28.199  1.00  0.00    -0.201 F 
ENDROOT
BRANCH   1   8
HETATM    8  O2  UNL     1       1.227 -10.645 -26.319  1.00  0.00    -0.274 OA
BRANCH   8   9
HETATM    9  C6  UNL     1       2.097 -10.893 -27.393  1.00  0.00     0.152 A 
HETATM   10  C5  UNL     1       2.738  -9.798 -27.994  1.00  0.00     0.089 A 
HETATM   11  C4  UNL     1       3.590  -9.986 -29.037  1.00  0.00     0.080 A 
HETATM   12  C19 UNL     1       3.774 -11.310 -29.452  1.00  0.00     0.158 A 
HETATM   13  C18 UNL     1       3.128 -12.365 -28.836  1.00  0.00     0.134 A 
HETATM   14  F2  UNL     1       4.618 -11.508 -30.488  1.00  0.00    -0.202 F 
HETATM   15  N7  UNL     1       2.306 -12.144 -27.826  1.00  0.00    -0.344 N 
ATOM     16  H7  UNL     1       1.830 -12.926 -27.374  1.00  0.00     0.167 HD
BRANCH  11  17
HETATM   17  N2  UNL     1       4.260  -8.948 -29.683  1.00  0.00    -0.306 N 
HETATM   18  C3  UNL     1       4.037  -8.374 -30.936  1.00  0.00     0.320 C 
HETATM   19  N1  UNL     1       4.859  -7.310 -31.396  1.00  0.00    -0.343 N 
HETATM   20  O1  UNL     1       3.136  -8.748 -31.698  1.00  0.00    -0.247 OA
ATOM     21  H1  UNL     1       5.610  -6.979 -30.791  1.00  0.00     0.164 HD
ATOM     22  H2  UNL     1       5.035  -8.545 -29.157  1.00  0.00     0.171 HD
BRANCH  19  23
HETATM   23  C2  UNL     1       4.678  -6.675 -32.681  1.00  0.00     0.120 C 
HETATM   24  C1  UNL     1       5.908  -6.794 -33.541  1.00  0.00     0.026 C 
ENDBRANCH  19  23
ENDBRANCH  11  17
ENDBRANCH   8   9
ENDBRANCH   1   8
BRANCH   4  25
HETATM   25  C9  UNL     1      -2.484  -7.392 -26.124  1.00  0.00     0.152 C 
HETATM   26  C10 UNL     1      -3.949  -7.754 -26.144  1.00  0.00     0.033 C 
HETATM   27  C11 UNL     1      -4.860  -6.572 -26.197  1.00  0.00     0.004 C 
HETATM   28  C12 UNL     1      -4.475  -5.562 -27.232  1.00  0.00     0.028 C 
HETATM   29  C13 UNL     1      -3.197  -6.081 -27.914  1.00  0.00     0.112 C 
HETATM   30  C14 UNL     1      -2.926  -5.126 -29.032  1.00  0.00     0.109 C 
HETATM   31  N6  UNL     1      -2.222  -6.229 -26.916  1.00  0.00    -0.310 N 
HETATM   32  S1  UNL     1      -1.787  -3.787 -28.495  1.00  0.00    -0.091 SA
HETATM   33  C15 UNL     1      -0.496  -4.709 -27.619  1.00  0.00     0.152 C 
HETATM   34  N4  UNL     1       0.676  -4.231 -27.405  1.00  0.00    -0.379 N 
HETATM   35  N5  UNL     1      -0.911  -5.999 -27.200  1.00  0.00    -0.281 N 
ATOM     36  H42 UNL     1       0.974  -3.304 -27.706  1.00  0.00     0.158 HD
ATOM     37  H41 UNL     1       1.402  -4.750 -26.913  1.00  0.00     0.158 HD
ATOM     38  H5  UNL     1      -0.229  -6.753 -27.111  1.00  0.00     0.189 HD
ENDBRANCH   4  25
TORSDOF 5
ENDMDL
MODEL 2
REMARK VINA RESULT: -7.242336517      4.780      8.047
REMARK  5 active torsions:
REMARK  status: ('A' for Active; 'I' for Inactive)
REMARK    1  A    between atoms: C2_2  and  N1_3 
REMARK       I    between atoms: N1_3  and  C3_5 
REMARK       I    between atoms: C3_5  and  N2_7 
REMARK    2  A    between atoms: N2_7  and  C4_9 
REMARK    3  A    between atoms: C6_11  and  O2_12 
REMARK    4  A    between atoms: O2_12  and  C7_13 
REMARK    5  A    between atoms: C8_16  and  C9_17 
ROOT
HETATM    1  C7  UNL     1       2.707 -12.366 -28.044  1.00  0.00     0.189 A 
HETATM    2  N3  UNL     1       2.878 -11.059 -27.767  1.00  0.00    -0.336 N 
ATOM      3  H3  UNL     1       3.361 -10.697 -26.945  1.00  0.00     0.168 HD
HETATM    4  C8  UNL     1       2.317 -10.291 -28.734  1.00  0.00     0.039 A 
HETATM    5  C16 UNL     1       1.780 -11.180 -29.638  1.00  0.00     0.074 A 
HETATM    6  C17 UNL     1       2.018 -12.478 -29.218  1.00  0.00     0.169 A 
HETATM    7  F1  UNL     1       1.648 -13.626 -29.834  1.00  0.00    -0.201 F 
ENDROOT
BRANCH   1   8
HETATM    8  O2  UNL     1       3.158 -13.419 -27.261  1.00  0.00    -0.274 OA
BRANCH   8   9
HETATM    9  C6  UNL     1       2.472 -13.712 -26.071  1.00  0.00     0.152 A 
HETATM   10  C5  UNL     1       3.207 -14.232 -24.993  1.00  0.00     0.089 A 
HETATM   11  C4  UNL     1       2.589 -14.532 -23.820  1.00  0.00     0.080 A 
HETATM   12  C19 UNL     1       1.211 -14.291 -23.769  1.00  0.00     0.158 A 
HETATM   13  C18 UNL     1       0.519 -13.778 -24.850  1.00  0.00     0.134 A 
HETATM   14  F2  UNL     1       0.587 -14.587 -22.608  1.00  0.00    -0.202 F 
HETATM   15  N7  UNL     1       1.153 -13.498 -25.975  1.00  0.00    -0.344 N 
ATOM     16  H7  UNL     1       0.639 -13.120 -26.770  1.00  0.00     0.167 HD
BRANCH  11  17
HETATM   17  N2  UNL     1       3.253 -15.051 -22.709  1.00  0.00    -0.306 N 
HETATM   18  C3  UNL     1       3.647 -16.361 -22.425  1.00  0.00     0.320 C 
HETATM   19  N1  UNL     1       4.321 -16.661 -21.211  1.00  0.00    -0.343 N 
HETATM   20  O1  UNL     1       3.437 -17.309 -23.192  1.00  0.00    -0.247 OA
ATOM     21  H1  UNL     1       4.508 -15.901 -20.557  1.00  0.00     0.164 HD
ATOM     22  H2  UNL     1       3.488 -14.366 -21.991  1.00  0.00     0.171 HD
BRANCH  19  23
HETATM   23  C2  UNL     1       4.752 -17.995 -20.861  1.00  0.00     0.120 C 
HETATM   24  C1  UNL     1       6.219 -18.196 -21.133  1.00  0.00     0.026 C 
ENDBRANCH  19  23
ENDBRANCH  11  17
ENDBRANCH   8   9
ENDBRANCH   1   8
BRANCH   4  25
HETATM   25  C9  UNL     1       2.291  -8.804 -28.794  1.00  0.00     0.152 C 
HETATM   26  C10 UNL     1       0.872  -8.319 -28.963  1.00  0.00     0.033 C 
HETATM   27  C11 UNL     1       0.771  -6.909 -29.442  1.00  0.00     0.004 C 
HETATM   28  C12 UNL     1       1.654  -6.607 -30.612  1.00  0.00     0.028 C 
HETATM   29  C13 UNL     1       2.429  -7.897 -30.936  1.00  0.00     0.112 C 
HETATM   30  C14 UNL     1       3.186  -7.602 -32.191  1.00  0.00     0.109 C 
HETATM   31  N6  UNL     1       3.156  -8.246 -29.788  1.00  0.00    -0.310 N 
HETATM   32  S1  UNL     1       4.876  -6.987 -31.813  1.00  0.00    -0.091 SA
HETATM   33  C15 UNL     1       5.436  -8.156 -30.547  1.00  0.00     0.152 C 
HETATM   34  N4  UNL     1       6.676  -8.337 -30.268  1.00  0.00    -0.379 N 
HETATM   35  N5  UNL     1       4.373  -8.842 -29.904  1.00  0.00    -0.281 N 
ATOM     36  H42 UNL     1       7.440  -7.844 -30.730  1.00  0.00     0.158 HD
ATOM     37  H41 UNL     1       6.991  -8.995 -29.555  1.00  0.00     0.158 HD
ATOM     38  H5  UNL     1       4.522  -9.780 -29.529  1.00  0.00     0.189 HD
ENDBRANCH   4  25
TORSDOF 5
ENDMDL
MODEL 3
REMARK VINA RESULT: -7.105187685      1.984      2.640
REMARK  5 active torsions:
REMARK  status: ('A' for Active; 'I' for Inactive)
REMARK    1  A    between atoms: C2_2  and  N1_3 
REMARK       I    between atoms: N1_3  and  C3_5 
REMARK       I    between atoms: C3_5  and  N2_7 
REMARK    2  A    between atoms: N2_7  and  C4_9 
REMARK    3  A    between atoms: C6_11  and  O2_12 
REMARK    4  A    between atoms: O2_12  and  C7_13 
REMARK    5  A    between atoms: C8_16  and  C9_17 
ROOT
HETATM    1  C7  UNL     1       0.761  -9.901 -27.574  1.00  0.00     0.189 A 
HETATM    2  N3  UNL     1       0.282  -8.868 -26.855  1.00  0.00    -0.336 N 
ATOM      3  H3  UNL     1       0.856  -8.222 -26.312  1.00  0.00     0.168 HD
HETATM    4  C8  UNL     1      -1.069  -8.807 -26.953  1.00  0.00     0.039 A 
HETATM    5  C16 UNL     1      -1.421  -9.857 -27.771  1.00  0.00     0.074 A 
HETATM    6  C17 UNL     1      -0.287 -10.547 -28.165  1.00  0.00     0.169 A 
HETATM    7  F1  UNL     1      -0.220 -11.636 -28.968  1.00  0.00    -0.201 F 
ENDROOT
BRANCH   1   8
HETATM    8  O2  UNL     1       2.100 -10.247 -27.690  1.00  0.00    -0.274 OA
BRANCH   8   9
HETATM    9  C6  UNL     1       2.872  -9.617 -28.680  1.00  0.00     0.152 A 
HETATM   10  C5  UNL     1       2.263  -8.625 -29.465  1.00  0.00     0.089 A 
HETATM   11  C4  UNL     1       2.968  -7.986 -30.436  1.00  0.00     0.080 A 
HETATM   12  C19 UNL     1       4.304  -8.379 -30.588  1.00  0.00     0.158 A 
HETATM   13  C18 UNL     1       4.871  -9.360 -29.798  1.00  0.00     0.134 A 
HETATM   14  F2  UNL     1       5.013  -7.751 -31.552  1.00  0.00    -0.202 F 
HETATM   15  N7  UNL     1       4.155  -9.960 -28.864  1.00  0.00    -0.344 N 
ATOM     16  H7  UNL     1       4.577 -10.684 -28.282  1.00  0.00     0.167 HD
BRANCH  11  17
HETATM   17  N2  UNL     1       2.431  -6.993 -31.253  1.00  0.00    -0.306 N 
HETATM   18  C3  UNL     1       1.713  -5.842 -30.919  1.00  0.00     0.320 C 
HETATM   19  N1  UNL     1       1.257  -4.960 -31.935  1.00  0.00    -0.343 N 
HETATM   20  O1  UNL     1       1.441  -5.533 -29.752  1.00  0.00    -0.247 OA
ATOM     21  H1  UNL     1       1.465  -5.187 -32.907  1.00  0.00     0.164 HD
ATOM     22  H2  UNL     1       2.587  -7.127 -32.252  1.00  0.00     0.171 HD
BRANCH  19  23
HETATM   23  C2  UNL     1       0.511  -3.755 -31.652  1.00  0.00     0.120 C 
HETATM   24  C1  UNL     1      -0.970  -3.960 -31.830  1.00  0.00     0.026 C 
ENDBRANCH  19  23
ENDBRANCH  11  17
ENDBRANCH   8   9
ENDBRANCH   1   8
BRANCH   4  25
HETATM   25  C9  UNL     1      -1.970  -7.814 -26.307  1.00  0.00     0.152 C 
HETATM   26  C10 UNL     1      -3.375  -8.360 -26.239  1.00  0.00     0.033 C 
HETATM   27  C11 UNL     1      -4.415  -7.315 -26.000  1.00  0.00     0.004 C 
HETATM   28  C12 UNL     1      -4.277  -6.116 -26.884  1.00  0.00     0.028 C 
HETATM   29  C13 UNL     1      -3.040  -6.350 -27.770  1.00  0.00     0.112 C 
HETATM   30  C14 UNL     1      -3.019  -5.207 -28.734  1.00  0.00     0.109 C 
HETATM   31  N6  UNL     1      -1.940  -6.519 -26.915  1.00  0.00    -0.310 N 
HETATM   32  S1  UNL     1      -1.984  -3.828 -28.099  1.00  0.00    -0.091 SA
HETATM   33  C15 UNL     1      -0.499  -4.694 -27.526  1.00  0.00     0.152 C 
HETATM   34  N4  UNL     1       0.628  -4.104 -27.356  1.00  0.00    -0.379 N 
HETATM   35  N5  UNL     1      -0.709  -6.077 -27.289  1.00  0.00    -0.281 N 
ATOM     36  H42 UNL     1       0.779  -3.109 -27.526  1.00  0.00     0.158 HD
ATOM     37  H41 UNL     1       1.464  -4.591 -27.034  1.00  0.00     0.158 HD
ATOM     38  H5  UNL     1       0.060  -6.738 -27.398  1.00  0.00     0.189 HD
ENDBRANCH   4  25
TORSDOF 5
ENDMDL
MODEL 4
REMARK VINA RESULT: -7.069349971      9.386     12.054
REMARK  5 active torsions:
REMARK  status: ('A' for Active; 'I' for Inactive)
REMARK    1  A    between atoms: C2_2  and  N1_3 
REMARK       I    between atoms: N1_3  and  C3_5 
REMARK       I    between atoms: C3_5  and  N2_7 
REMARK    2  A    between atoms: N2_7  and  C4_9 
REMARK    3  A    between atoms: C6_11  and  O2_12 
REMARK    4  A    between atoms: O2_12  and  C7_13 
REMARK    5  A    between atoms: C8_16  and  C9_17 
ROOT
HETATM    1  C7  UNL     1       6.342 -16.190 -23.659  1.00  0.00     0.189 A 
HETATM    2  N3  UNL     1       5.449 -15.189 -23.530  1.00  0.00    -0.336 N 
ATOM      3  H3  UNL     1       5.688 -14.197 -23.502  1.00  0.00     0.168 HD
HETATM    4  C8  UNL     1       4.190 -15.684 -23.442  1.00  0.00     0.039 A 
HETATM    5  C16 UNL     1       4.331 -17.052 -23.520  1.00  0.00     0.074 A 
HETATM    6  C17 UNL     1       5.670 -17.378 -23.657  1.00  0.00     0.169 A 
HETATM    7  F1  UNL     1       6.211 -18.615 -23.765  1.00  0.00    -0.201 F 
ENDROOT
BRANCH   1   8
HETATM    8  O2  UNL     1       7.715 -16.031 -23.775  1.00  0.00    -0.274 OA
BRANCH   8   9
HETATM    9  C6  UNL     1       8.541 -16.584 -22.782  1.00  0.00     0.152 A 
HETATM   10  C5  UNL     1       8.447 -16.068 -21.479  1.00  0.00     0.089 A 
HETATM   11  C4  UNL     1       9.225 -16.570 -20.483  1.00  0.00     0.080 A 
HETATM   12  C19 UNL     1      10.096 -17.606 -20.842  1.00  0.00     0.158 A 
HETATM   13  C18 UNL     1      10.161 -18.089 -22.135  1.00  0.00     0.134 A 
HETATM   14  F2  UNL     1      10.874 -18.111 -19.860  1.00  0.00    -0.202 F 
HETATM   15  N7  UNL     1       9.391 -17.577 -23.078  1.00  0.00    -0.344 N 
ATOM     16  H7  UNL     1       9.442 -17.936 -24.031  1.00  0.00     0.167 HD
BRANCH  11  17
HETATM   17  N2  UNL     1       9.187 -16.109 -19.168  1.00  0.00    -0.306 N 
HETATM   18  C3  UNL     1       9.986 -15.163 -18.522  1.00  0.00     0.320 C 
HETATM   19  N1  UNL     1       9.762 -14.846 -17.155  1.00  0.00    -0.343 N 
HETATM   20  O1  UNL     1      10.910 -14.563 -19.086  1.00  0.00    -0.247 OA
ATOM     21  H1  UNL     1       9.009 -15.325 -16.661  1.00  0.00     0.164 HD
ATOM     22  H2  UNL     1       8.462 -16.528 -18.587  1.00  0.00     0.171 HD
BRANCH  19  23
HETATM   23  C2  UNL     1      10.554 -13.878 -16.433  1.00  0.00     0.120 C 
HETATM   24  C1  UNL     1      11.620 -14.538 -15.599  1.00  0.00     0.026 C 
ENDBRANCH  19  23
ENDBRANCH  11  17
ENDBRANCH   8   9
ENDBRANCH   1   8
BRANCH   4  25
HETATM   25  C9  UNL     1       2.930 -14.906 -23.290  1.00  0.00     0.152 C 
HETATM   26  C10 UNL     1       2.028 -15.577 -22.284  1.00  0.00     0.033 C 
HETATM   27  C11 UNL     1       0.605 -15.129 -22.359  1.00  0.00     0.004 C 
HETATM   28  C12 UNL     1       0.052 -15.115 -23.749  1.00  0.00     0.028 C 
HETATM   29  C13 UNL     1       1.187 -15.561 -24.690  1.00  0.00     0.112 C 
HETATM   30  C14 UNL     1       0.561 -15.674 -26.043  1.00  0.00     0.109 C 
HETATM   31  N6  UNL     1       2.247 -14.656 -24.522  1.00  0.00    -0.310 N 
HETATM   32  S1  UNL     1       0.742 -14.108 -26.987  1.00  0.00    -0.091 SA
HETATM   33  C15 UNL     1       2.484 -13.691 -26.712  1.00  0.00     0.152 C 
HETATM   34  N4  UNL     1       3.137 -12.894 -27.476  1.00  0.00    -0.379 N 
HETATM   35  N5  UNL     1       3.043 -14.333 -25.576  1.00  0.00    -0.281 N 
ATOM     36  H42 UNL     1       2.735 -12.433 -28.292  1.00  0.00     0.158 HD
ATOM     37  H41 UNL     1       4.118 -12.660 -27.321  1.00  0.00     0.158 HD
ATOM     38  H5  UNL     1       4.040 -14.550 -25.550  1.00  0.00     0.189 HD
ENDBRANCH   4  25
TORSDOF 5
ENDMDL
MODEL 5
REMARK VINA RESULT: -7.040682644     13.777     16.437
REMARK  5 active torsions:
REMARK  status: ('A' for Active; 'I' for Inactive)
REMARK    1  A    between atoms: C2_2  and  N1_3 
REMARK       I    between atoms: N1_3  and  C3_5 
REMARK       I    between atoms: C3_5  and  N2_7 
REMARK    2  A    between atoms: N2_7  and  C4_9 
REMARK    3  A    between atoms: C6_11  and  O2_12 
REMARK    4  A    between atoms: O2_12  and  C7_13 
REMARK    5  A    between atoms: C8_16  and  C9_17 
ROOT
HETATM    1  C7  UNL     1      10.722 -19.290 -26.444  1.00  0.00     0.189 A 
HETATM    2  N3  UNL     1      10.537 -18.788 -27.680  1.00  0.00    -0.336 N 
ATOM      3  H3  UNL     1      10.494 -17.793 -27.904  1.00  0.00     0.168 HD
HETATM    4  C8  UNL     1      10.416 -19.789 -28.586  1.00  0.00     0.039 A 
HETATM    5  C16 UNL     1      10.532 -20.953 -27.859  1.00  0.00     0.074 A 
HETATM    6  C17 UNL     1      10.724 -20.653 -26.521  1.00  0.00     0.169 A 
HETATM    7  F1  UNL     1      10.881 -21.523 -25.495  1.00  0.00    -0.201 F 
ENDROOT
BRANCH   1   8
HETATM    8  O2  UNL     1      10.883 -18.540 -25.288  1.00  0.00    -0.274 OA
BRANCH   8   9
HETATM    9  C6  UNL     1       9.756 -18.287 -24.489  1.00  0.00     0.152 A 
HETATM   10  C5  UNL     1       9.960 -17.953 -23.141  1.00  0.00     0.089 A 
HETATM   11  C4  UNL     1       8.900 -17.700 -22.327  1.00  0.00     0.080 A 
HETATM   12  C19 UNL     1       7.634 -17.793 -22.916  1.00  0.00     0.158 A 
HETATM   13  C18 UNL     1       7.470 -18.123 -24.247  1.00  0.00     0.134 A 
HETATM   14  F2  UNL     1       6.574 -17.543 -22.115  1.00  0.00    -0.202 F 
HETATM   15  N7  UNL     1       8.522 -18.364 -25.008  1.00  0.00    -0.344 N 
ATOM     16  H7  UNL     1       8.397 -18.608 -25.991  1.00  0.00     0.167 HD
BRANCH  11  17
HETATM   17  N2  UNL     1       9.026 -17.364 -20.980  1.00  0.00    -0.306 N 
HETATM   18  C3  UNL     1       9.059 -16.111 -20.363  1.00  0.00     0.320 C 
HETATM   19  N1  UNL     1       9.196 -16.008 -18.952  1.00  0.00    -0.343 N 
HETATM   20  O1  UNL     1       8.974 -15.048 -20.991  1.00  0.00    -0.247 OA
ATOM     21  H1  UNL     1       9.270 -16.866 -18.406  1.00  0.00     0.164 HD
ATOM     22  H2  UNL     1       9.106 -18.158 -20.345  1.00  0.00     0.171 HD
BRANCH  19  23
HETATM   23  C2  UNL     1       9.237 -14.742 -18.257  1.00  0.00     0.120 C 
HETATM   24  C1  UNL     1      10.634 -14.387 -17.825  1.00  0.00     0.026 C 
ENDBRANCH  19  23
ENDBRANCH  11  17
ENDBRANCH   8   9
ENDBRANCH   1   8
BRANCH   4  25
HETATM   25  C9  UNL     1      10.200 -19.649 -30.052  1.00  0.00     0.152 C 
HETATM   26  C10 UNL     1       9.373 -20.803 -30.565  1.00  0.00     0.033 C 
HETATM   27  C11 UNL     1       9.447 -20.985 -32.045  1.00  0.00     0.004 C 
HETATM   28  C12 UNL     1      10.841 -20.956 -32.586  1.00  0.00     0.028 C 
HETATM   29  C13 UNL     1      11.783 -20.713 -31.392  1.00  0.00     0.112 C 
HETATM   30  C14 UNL     1      13.166 -20.835 -31.945  1.00  0.00     0.109 C 
HETATM   31  N6  UNL     1      11.406 -19.494 -30.807  1.00  0.00    -0.310 N 
HETATM   32  S1  UNL     1      13.817 -19.196 -32.462  1.00  0.00    -0.091 SA
HETATM   33  C15 UNL     1      13.383 -18.146 -31.051  1.00  0.00     0.152 C 
HETATM   34  N4  UNL     1      13.963 -17.027 -30.812  1.00  0.00    -0.379 N 
HETATM   35  N5  UNL     1      12.345 -18.685 -30.246  1.00  0.00    -0.281 N 
ATOM     36  H42 UNL     1      14.708 -16.639 -31.390  1.00  0.00     0.158 HD
ATOM     37  H41 UNL     1      13.719 -16.436 -30.017  1.00  0.00     0.158 HD
ATOM     38  H5  UNL     1      12.304 -18.467 -29.250  1.00  0.00     0.189 HD
ENDBRANCH   4  25
TORSDOF 5
ENDMDL
