MODEL 1
REMARK VINA RESULT: -6.098149485      0.000      0.000
REMARK  7 active torsions:
REMARK  status: ('A' for Active; 'I' for Inactive)
REMARK    1  A    between atoms: C3_3  and  C4_4 
REMARK    2  A    between atoms: C4_4  and  C5_5 
REMARK       I    between atoms: C5_5  and  N1_7 
REMARK    3  A    between atoms: N1_7  and  C6_9 
REMARK    4  A    between atoms: C8_14  and  C9_15 
REMARK    5  A    between atoms: C9_15  and  C10_18 
REMARK    6  A    between atoms: C19_29  and  N4_30 
REMARK    7  A    between atoms: C20_35  and  N6_36 
ROOT
HETATM    1  C4  UNL     1      -2.066  -9.992 -27.684  1.00  0.00     0.142 C 
ENDROOT
BRANCH   1   2
HETATM    2  C3  UNL     1      -1.658  -8.870 -28.506  1.00  0.00    -0.042 A 
HETATM    3  C2  UNL     1      -1.322  -7.676 -27.796  1.00  0.00    -0.039 A 
HETATM    4  C1  UNL     1      -1.383  -7.596 -26.339  1.00  0.00     0.050 C 
HETATM    5  C21 UNL     1      -0.932  -6.608 -28.594  1.00  0.00     0.042 A 
HETATM    6  C18 UNL     1      -0.870  -6.679 -29.980  1.00  0.00     0.063 A 
HETATM    7  C20 UNL     1      -0.585  -5.409 -28.008  1.00  0.00     0.127 A 
HETATM    8  C17 UNL     1      -1.195  -7.823 -30.609  1.00  0.00     0.031 A 
HETATM    9  N3  UNL     1      -0.488  -5.623 -30.699  1.00  0.00    -0.191 N 
HETATM   10  C16 UNL     1      -1.590  -8.921 -29.863  1.00  0.00     0.010 A 
HETATM   11  C19 UNL     1      -0.157  -4.472 -30.110  1.00  0.00     0.677 A 
ATOM     12  H3  UNL     1      -0.449  -5.695 -31.716  1.00  0.00     0.184 HD
HETATM   13  N5  UNL     1      -0.204  -4.363 -28.786  1.00  0.00    -0.176 N 
ATOM     14  H5  UNL     1       0.051  -3.479 -28.346  1.00  0.00     0.186 HD
BRANCH  11  15
HETATM   15  N4  UNL     1       0.208  -3.468 -30.835  1.00  0.00    -0.234 N 
ATOM     16  H42 UNL     1       0.162  -3.522 -31.852  1.00  0.00     0.174 HD
ATOM     17  H41 UNL     1       0.544  -2.616 -30.383  1.00  0.00     0.174 HD
ENDBRANCH  11  15
BRANCH   7  18
HETATM   18  N6  UNL     1      -0.616  -5.275 -26.753  1.00  0.00    -0.384 N 
ATOM     19  H62 UNL     1      -1.402  -4.807 -26.301  1.00  0.00     0.157 HD
ATOM     20  H61 UNL     1       0.150  -5.640 -26.188  1.00  0.00     0.157 HD
ENDBRANCH   7  18
ENDBRANCH   1   2
BRANCH   1  21
HETATM   21  C5  UNL     1      -1.249 -11.205 -27.614  1.00  0.00     0.226 C 
HETATM   22  O1  UNL     1      -1.492 -12.349 -28.006  1.00  0.00    -0.273 OA
HETATM   23  N1  UNL     1       0.051 -10.988 -26.974  1.00  0.00    -0.319 N 
ATOM     24  H1  UNL     1       0.331 -10.074 -26.620  1.00  0.00     0.169 HD
BRANCH  23  25
HETATM   25  C6  UNL     1       0.907 -12.131 -26.872  1.00  0.00     0.106 A 
HETATM   26  S1  UNL     1       0.987 -13.266 -25.557  1.00  0.00    -0.065 SA
HETATM   27  C7  UNL     1       2.217 -14.270 -26.155  1.00  0.00     0.140 A 
HETATM   28  N2  UNL     1       2.502 -13.703 -27.309  1.00  0.00    -0.356 N 
HETATM   29  C8  UNL     1       1.866 -12.631 -27.698  1.00  0.00     0.116 A 
ATOM     30  H2  UNL     1       3.227 -14.104 -27.904  1.00  0.00     0.165 HD
BRANCH  29  31
HETATM   31  C9  UNL     1       2.173 -12.017 -29.053  1.00  0.00     0.291 C 
HETATM   32  F1  UNL     1       3.040 -12.885 -29.741  1.00  0.00    -0.199 F 
HETATM   33  F2  UNL     1       1.052 -11.919 -29.835  1.00  0.00    -0.199 F 
BRANCH  31  34
HETATM   34  C10 UNL     1       2.892 -10.706 -28.949  1.00  0.00     0.065 C 
HETATM   35  C11 UNL     1       4.069 -10.697 -29.933  1.00  0.00     0.011 C 
HETATM   36  C12 UNL     1       4.776  -9.387 -29.828  1.00  0.00     0.001 C 
HETATM   37  C13 UNL     1       3.838  -8.313 -30.330  1.00  0.00     0.000 C 
HETATM   38  C14 UNL     1       2.522  -8.302 -29.625  1.00  0.00     0.001 C 
HETATM   39  C15 UNL     1       1.896  -9.640 -29.420  1.00  0.00     0.011 C 
ENDBRANCH  31  34
ENDBRANCH  29  31
ENDBRANCH  23  25
ENDBRANCH   1  21
TORSDOF 7
ENDMDL
MODEL 2
REMARK VINA RESULT: -6.072250700     14.075     16.642
REMARK  7 active torsions:
REMARK  status: ('A' for Active; 'I' for Inactive)
REMARK    1  A    between atoms: C3_3  and  C4_4 
REMARK    2  A    between atoms: C4_4  and  C5_5 
REMARK       I    between atoms: C5_5  and  N1_7 
REMARK    3  A    between atoms: N1_7  and  C6_9 
REMARK    4  A    between atoms: C8_14  and  C9_15 
REMARK    5  A    between atoms: C9_15  and  C10_18 
REMARK    6  A    between atoms: C19_29  and  N4_30 
REMARK    7  A    between atoms: C20_35  and  N6_36 
ROOT
HETATM    1  C4  UNL     1       9.004 -16.211 -21.841  1.00  0.00     0.142 C 
ENDROOT
BRANCH   1   2
HETATM    2  C3  UNL     1       8.923 -17.577 -22.318  1.00  0.00    -0.042 A 
HETATM    3  C2  UNL     1      10.090 -18.069 -22.981  1.00  0.00    -0.039 A 
HETATM    4  C1  UNL     1      11.285 -17.249 -23.160  1.00  0.00     0.050 C 
HETATM    5  C21 UNL     1      10.001 -19.379 -23.433  1.00  0.00     0.042 A 
HETATM    6  C18 UNL     1       8.868 -20.165 -23.264  1.00  0.00     0.063 A 
HETATM    7  C20 UNL     1      11.072 -19.951 -24.085  1.00  0.00     0.127 A 
HETATM    8  C17 UNL     1       7.791 -19.663 -22.634  1.00  0.00     0.031 A 
HETATM    9  N3  UNL     1       8.835 -21.418 -23.719  1.00  0.00    -0.191 N 
HETATM   10  C16 UNL     1       7.824 -18.362 -22.160  1.00  0.00     0.010 A 
HETATM   11  C19 UNL     1       9.885 -21.951 -24.347  1.00  0.00     0.677 A 
ATOM     12  H3  UNL     1       7.993 -21.979 -23.584  1.00  0.00     0.184 HD
HETATM   13  N5  UNL     1      10.988 -21.232 -24.529  1.00  0.00    -0.176 N 
ATOM     14  H5  UNL     1      11.784 -21.649 -25.011  1.00  0.00     0.186 HD
BRANCH  11  15
HETATM   15  N4  UNL     1       9.821 -23.167 -24.775  1.00  0.00    -0.234 N 
ATOM     16  H42 UNL     1      10.624 -23.789 -24.685  1.00  0.00     0.174 HD
ATOM     17  H41 UNL     1       8.960 -23.505 -25.206  1.00  0.00     0.174 HD
ENDBRANCH  11  15
BRANCH   7  18
HETATM   18  N6  UNL     1      12.135 -19.295 -24.271  1.00  0.00    -0.384 N 
ATOM     19  H62 UNL     1      12.885 -19.315 -23.580  1.00  0.00     0.157 HD
ATOM     20  H61 UNL     1      12.244 -18.741 -25.121  1.00  0.00     0.157 HD
ENDBRANCH   7  18
ENDBRANCH   1   2
BRANCH   1  21
HETATM   21  C5  UNL     1       9.024 -15.920 -20.406  1.00  0.00     0.226 C 
HETATM   22  O1  UNL     1       8.120 -15.531 -19.663  1.00  0.00    -0.273 OA
HETATM   23  N1  UNL     1      10.338 -16.134 -19.793  1.00  0.00    -0.319 N 
ATOM     24  H1  UNL     1      11.140 -16.452 -20.335  1.00  0.00     0.169 HD
BRANCH  23  25
HETATM   25  C6  UNL     1      10.433 -15.871 -18.388  1.00  0.00     0.106 A 
HETATM   26  S1  UNL     1      10.863 -14.366 -17.631  1.00  0.00    -0.065 SA
HETATM   27  C7  UNL     1      10.782 -14.859 -16.010  1.00  0.00     0.140 A 
HETATM   28  N2  UNL     1      10.436 -16.124 -16.120  1.00  0.00    -0.356 N 
HETATM   29  C8  UNL     1      10.254 -16.663 -17.296  1.00  0.00     0.116 A 
ATOM     30  H2  UNL     1      10.309 -16.689 -15.281  1.00  0.00     0.165 HD
BRANCH  29  31
HETATM   31  C9  UNL     1       9.807 -18.111 -17.405  1.00  0.00     0.291 C 
HETATM   32  F1  UNL     1       9.724 -18.644 -16.107  1.00  0.00    -0.199 F 
HETATM   33  F2  UNL     1       8.546 -18.219 -17.930  1.00  0.00    -0.199 F 
BRANCH  31  34
HETATM   34  C10 UNL     1      10.790 -18.968 -18.145  1.00  0.00     0.065 C 
HETATM   35  C11 UNL     1      11.210 -20.140 -17.249  1.00  0.00     0.011 C 
HETATM   36  C12 UNL     1      12.183 -20.992 -17.994  1.00  0.00     0.001 C 
HETATM   37  C13 UNL     1      11.449 -21.629 -19.153  1.00  0.00     0.000 C 
HETATM   38  C14 UNL     1      10.773 -20.637 -20.040  1.00  0.00     0.001 C 
HETATM   39  C15 UNL     1      10.023 -19.557 -19.336  1.00  0.00     0.011 C 
ENDBRANCH  31  34
ENDBRANCH  29  31
ENDBRANCH  23  25
ENDBRANCH   1  21
TORSDOF 7
ENDMDL
MODEL 3
REMARK VINA RESULT: -6.007323609      4.137      7.024
REMARK  7 active torsions:
REMARK  status: ('A' for Active; 'I' for Inactive)
REMARK    1  A    between atoms: C3_3  and  C4_4 
REMARK    2  A    between atoms: C4_4  and  C5_5 
REMARK       I    between atoms: C5_5  and  N1_7 
REMARK    3  A    between atoms: N1_7  and  C6_9 
REMARK    4  A    between atoms: C8_14  and  C9_15 
REMARK    5  A    between atoms: C9_15  and  C10_18 
REMARK    6  A    between atoms: C19_29  and  N4_30 
REMARK    7  A    between atoms: C20_35  and  N6_36 
ROOT
HETATM    1  C4  UNL     1       0.060 -13.126 -25.690  1.00  0.00     0.142 C 
ENDROOT
BRANCH   1   2
HETATM    2  C3  UNL     1       0.741 -12.050 -26.380  1.00  0.00    -0.042 A 
HETATM    3  C2  UNL     1       1.664 -12.454 -27.393  1.00  0.00    -0.039 A 
HETATM    4  C1  UNL     1       1.901 -13.859 -27.712  1.00  0.00     0.050 C 
HETATM    5  C21 UNL     1       2.310 -11.414 -28.049  1.00  0.00     0.042 A 
HETATM    6  C18 UNL     1       2.087 -10.074 -27.752  1.00  0.00     0.063 A 
HETATM    7  C20 UNL     1       3.220 -11.695 -29.045  1.00  0.00     0.127 A 
HETATM    8  C17 UNL     1       1.209  -9.737 -26.791  1.00  0.00     0.031 A 
HETATM    9  N3  UNL     1       2.735  -9.114 -28.413  1.00  0.00    -0.191 N 
HETATM   10  C16 UNL     1       0.535 -10.734 -26.105  1.00  0.00     0.010 A 
HETATM   11  C19 UNL     1       3.613  -9.410 -29.374  1.00  0.00     0.677 A 
ATOM     12  H3  UNL     1       2.557  -8.137 -28.180  1.00  0.00     0.184 HD
HETATM   13  N5  UNL     1       3.854 -10.680 -29.688  1.00  0.00    -0.176 N 
ATOM     14  H5  UNL     1       4.527 -10.895 -30.424  1.00  0.00     0.186 HD
BRANCH  11  15
HETATM   15  N4  UNL     1       4.223  -8.457 -29.995  1.00  0.00    -0.234 N 
ATOM     16  H42 UNL     1       4.121  -7.491 -29.685  1.00  0.00     0.174 HD
ATOM     17  H41 UNL     1       4.811  -8.676 -30.800  1.00  0.00     0.174 HD
ENDBRANCH  11  15
BRANCH   7  18
HETATM   18  N6  UNL     1       3.469 -12.890 -29.368  1.00  0.00    -0.384 N 
ATOM     19  H62 UNL     1       2.974 -13.661 -28.922  1.00  0.00     0.157 HD
ATOM     20  H61 UNL     1       4.170 -13.083 -30.084  1.00  0.00     0.157 HD
ENDBRANCH   7  18
ENDBRANCH   1   2
BRANCH   1  21
HETATM   21  C5  UNL     1       0.533 -13.597 -24.387  1.00  0.00     0.226 C 
HETATM   22  O1  UNL     1       0.799 -12.963 -23.362  1.00  0.00    -0.273 OA
HETATM   23  N1  UNL     1       0.707 -15.051 -24.327  1.00  0.00    -0.319 N 
ATOM     24  H1  UNL     1       0.511 -15.649 -25.129  1.00  0.00     0.169 HD
BRANCH  23  25
HETATM   25  C6  UNL     1       1.166 -15.585 -23.081  1.00  0.00     0.106 A 
HETATM   26  S1  UNL     1       0.190 -16.236 -21.798  1.00  0.00    -0.065 SA
HETATM   27  C7  UNL     1       1.426 -16.617 -20.700  1.00  0.00     0.140 A 
HETATM   28  N2  UNL     1       2.504 -16.238 -21.352  1.00  0.00    -0.356 N 
HETATM   29  C8  UNL     1       2.410 -15.718 -22.546  1.00  0.00     0.116 A 
ATOM     30  H2  UNL     1       3.422 -16.353 -20.922  1.00  0.00     0.165 HD
BRANCH  29  31
HETATM   31  C9  UNL     1       3.668 -15.330 -23.305  1.00  0.00     0.291 C 
HETATM   32  F1  UNL     1       3.397 -15.430 -24.681  1.00  0.00    -0.199 F 
HETATM   33  F2  UNL     1       4.011 -14.021 -23.091  1.00  0.00    -0.199 F 
BRANCH  31  34
HETATM   34  C10 UNL     1       4.817 -16.255 -23.038  1.00  0.00     0.065 C 
HETATM   35  C11 UNL     1       4.587 -17.573 -23.789  1.00  0.00     0.011 C 
HETATM   36  C12 UNL     1       5.737 -18.487 -23.524  1.00  0.00     0.001 C 
HETATM   37  C13 UNL     1       6.966 -17.881 -24.163  1.00  0.00     0.000 C 
HETATM   38  C14 UNL     1       7.239 -16.484 -23.712  1.00  0.00     0.001 C 
HETATM   39  C15 UNL     1       6.049 -15.587 -23.658  1.00  0.00     0.011 C 
ENDBRANCH  31  34
ENDBRANCH  29  31
ENDBRANCH  23  25
ENDBRANCH   1  21
TORSDOF 7
ENDMDL
MODEL 4
REMARK VINA RESULT: -5.961910963      4.074      6.654
REMARK  7 active torsions:
REMARK  status: ('A' for Active; 'I' for Inactive)
REMARK    1  A    between atoms: C3_3  and  C4_4 
REMARK    2  A    between atoms: C4_4  and  C5_5 
REMARK       I    between atoms: C5_5  and  N1_7 
REMARK    3  A    between atoms: N1_7  and  C6_9 
REMARK    4  A    between atoms: C8_14  and  C9_15 
REMARK    5  A    between atoms: C9_15  and  C10_18 
REMARK    6  A    between atoms: C19_29  and  N4_30 
REMARK    7  A    between atoms: C20_35  and  N6_36 
ROOT
HETATM    1  C4  UNL     1       0.229 -13.058 -26.040  1.00  0.00     0.142 C 
ENDROOT
BRANCH   1   2
HETATM    2  C3  UNL     1       1.207 -12.427 -26.904  1.00  0.00    -0.042 A 
HETATM    3  C2  UNL     1       1.022 -11.028 -27.126  1.00  0.00    -0.039 A 
HETATM    4  C1  UNL     1      -0.079 -10.285 -26.518  1.00  0.00     0.050 C 
HETATM    5  C21 UNL     1       1.964 -10.434 -27.955  1.00  0.00     0.042 A 
HETATM    6  C18 UNL     1       3.015 -11.135 -28.534  1.00  0.00     0.063 A 
HETATM    7  C20 UNL     1       1.877  -9.087 -28.233  1.00  0.00     0.127 A 
HETATM    8  C17 UNL     1       3.153 -12.452 -28.298  1.00  0.00     0.031 A 
HETATM    9  N3  UNL     1       3.894 -10.516 -29.323  1.00  0.00    -0.191 N 
HETATM   10  C16 UNL     1       2.242 -13.097 -27.478  1.00  0.00     0.010 A 
HETATM   11  C19 UNL     1       3.790  -9.210 -29.578  1.00  0.00     0.677 A 
ATOM     12  H3  UNL     1       4.658 -11.049 -29.738  1.00  0.00     0.184 HD
HETATM   13  N5  UNL     1       2.798  -8.503 -29.044  1.00  0.00    -0.176 N 
ATOM     14  H5  UNL     1       2.728  -7.506 -29.246  1.00  0.00     0.186 HD
BRANCH  11  15
HETATM   15  N4  UNL     1       4.657  -8.640 -30.347  1.00  0.00    -0.234 N 
ATOM     16  H42 UNL     1       4.351  -8.067 -31.132  1.00  0.00     0.174 HD
ATOM     17  H41 UNL     1       5.653  -8.767 -30.163  1.00  0.00     0.174 HD
ENDBRANCH  11  15
BRANCH   7  18
HETATM   18  N6  UNL     1       0.950  -8.388 -27.738  1.00  0.00    -0.384 N 
ATOM     19  H62 UNL     1       1.095  -7.875 -26.869  1.00  0.00     0.157 HD
ATOM     20  H61 UNL     1       0.049  -8.335 -28.214  1.00  0.00     0.157 HD
ENDBRANCH   7  18
ENDBRANCH   1   2
BRANCH   1  21
HETATM   21  C5  UNL     1       0.599 -13.514 -24.699  1.00  0.00     0.226 C 
HETATM   22  O1  UNL     1       0.731 -12.876 -23.652  1.00  0.00    -0.273 OA
HETATM   23  N1  UNL     1       0.842 -14.958 -24.628  1.00  0.00    -0.319 N 
ATOM     24  H1  UNL     1       0.757 -15.559 -25.447  1.00  0.00     0.169 HD
BRANCH  23  25
HETATM   25  C6  UNL     1       1.206 -15.478 -23.345  1.00  0.00     0.106 A 
HETATM   26  S1  UNL     1       0.138 -16.126 -22.136  1.00  0.00    -0.065 SA
HETATM   27  C7  UNL     1       1.287 -16.488 -20.941  1.00  0.00     0.140 A 
HETATM   28  N2  UNL     1       2.411 -16.106 -21.511  1.00  0.00    -0.356 N 
HETATM   29  C8  UNL     1       2.406 -15.596 -22.713  1.00  0.00     0.116 A 
ATOM     30  H2  UNL     1       3.293 -16.209 -21.010  1.00  0.00     0.165 HD
BRANCH  29  31
HETATM   31  C9  UNL     1       3.716 -15.205 -23.376  1.00  0.00     0.291 C 
HETATM   32  F1  UNL     1       3.535 -15.255 -24.769  1.00  0.00    -0.199 F 
HETATM   33  F2  UNL     1       4.064 -13.909 -23.096  1.00  0.00    -0.199 F 
BRANCH  31  34
HETATM   34  C10 UNL     1       4.832 -16.157 -23.065  1.00  0.00     0.065 C 
HETATM   35  C11 UNL     1       4.571 -17.488 -23.781  1.00  0.00     0.011 C 
HETATM   36  C12 UNL     1       5.688 -18.429 -23.473  1.00  0.00     0.001 C 
HETATM   37  C13 UNL     1       6.945 -17.881 -24.111  1.00  0.00     0.000 C 
HETATM   38  C14 UNL     1       7.255 -16.480 -23.697  1.00  0.00     0.001 C 
HETATM   39  C15 UNL     1       6.093 -15.545 -23.686  1.00  0.00     0.011 C 
ENDBRANCH  31  34
ENDBRANCH  29  31
ENDBRANCH  23  25
ENDBRANCH   1  21
TORSDOF 7
ENDMDL
MODEL 5
REMARK VINA RESULT: -5.950925133     13.874     16.677
REMARK  7 active torsions:
REMARK  status: ('A' for Active; 'I' for Inactive)
REMARK    1  A    between atoms: C3_3  and  C4_4 
REMARK    2  A    between atoms: C4_4  and  C5_5 
REMARK       I    between atoms: C5_5  and  N1_7 
REMARK    3  A    between atoms: N1_7  and  C6_9 
REMARK    4  A    between atoms: C8_14  and  C9_15 
REMARK    5  A    between atoms: C9_15  and  C10_18 
REMARK    6  A    between atoms: C19_29  and  N4_30 
REMARK    7  A    between atoms: C20_35  and  N6_36 
ROOT
HETATM    1  C4  UNL     1       8.660 -16.324 -21.969  1.00  0.00     0.142 C 
ENDROOT
BRANCH   1   2
HETATM    2  C3  UNL     1       9.501 -17.340 -22.568  1.00  0.00    -0.042 A 
HETATM    3  C2  UNL     1       8.921 -18.642 -22.666  1.00  0.00    -0.039 A 
HETATM    4  C1  UNL     1       7.567 -18.926 -22.195  1.00  0.00     0.050 C 
HETATM    5  C21 UNL     1       9.735 -19.608 -23.241  1.00  0.00     0.042 A 
HETATM    6  C18 UNL     1      11.023 -19.344 -23.693  1.00  0.00     0.063 A 
HETATM    7  C20 UNL     1       9.270 -20.898 -23.384  1.00  0.00     0.127 A 
HETATM    8  C17 UNL     1      11.531 -18.104 -23.582  1.00  0.00     0.031 A 
HETATM    9  N3  UNL     1      11.764 -20.309 -24.238  1.00  0.00    -0.191 N 
HETATM   10  C16 UNL     1      10.762 -17.100 -23.017  1.00  0.00     0.010 A 
HETATM   11  C19 UNL     1      11.293 -21.551 -24.366  1.00  0.00     0.677 A 
ATOM     12  H3  UNL     1      12.707 -20.095 -24.564  1.00  0.00     0.184 HD
HETATM   13  N5  UNL     1      10.065 -21.845 -23.946  1.00  0.00    -0.176 N 
ATOM     14  H5  UNL     1       9.715 -22.797 -24.048  1.00  0.00     0.186 HD
BRANCH  11  15
HETATM   15  N4  UNL     1      12.035 -22.463 -24.899  1.00  0.00    -0.234 N 
ATOM     16  H42 UNL     1      12.846 -22.825 -24.398  1.00  0.00     0.174 HD
ATOM     17  H41 UNL     1      11.806 -22.821 -25.826  1.00  0.00     0.174 HD
ENDBRANCH  11  15
BRANCH   7  18
HETATM   18  N6  UNL     1       8.109 -21.208 -22.998  1.00  0.00    -0.384 N 
ATOM     19  H62 UNL     1       7.782 -22.172 -23.060  1.00  0.00     0.157 HD
ATOM     20  H61 UNL     1       7.494 -20.487 -22.620  1.00  0.00     0.157 HD
ENDBRANCH   7  18
ENDBRANCH   1   2
BRANCH   1  21
HETATM   21  C5  UNL     1       8.768 -16.006 -20.544  1.00  0.00     0.226 C 
HETATM   22  O1  UNL     1       7.914 -15.594 -19.756  1.00  0.00    -0.273 OA
HETATM   23  N1  UNL     1      10.114 -16.224 -20.006  1.00  0.00    -0.319 N 
ATOM     24  H1  UNL     1      10.879 -16.561 -20.589  1.00  0.00     0.169 HD
BRANCH  23  25
HETATM   25  C6  UNL     1      10.296 -15.936 -18.615  1.00  0.00     0.106 A 
HETATM   26  S1  UNL     1      10.742 -14.411 -17.911  1.00  0.00    -0.065 SA
HETATM   27  C7  UNL     1      10.778 -14.879 -16.280  1.00  0.00     0.140 A 
HETATM   28  N2  UNL     1      10.454 -16.153 -16.349  1.00  0.00    -0.356 N 
HETATM   29  C8  UNL     1      10.206 -16.714 -17.502  1.00  0.00     0.116 A 
ATOM     30  H2  UNL     1      10.395 -16.707 -15.495  1.00  0.00     0.165 HD
BRANCH  29  31
HETATM   31  C9  UNL     1       9.785 -18.173 -17.560  1.00  0.00     0.291 C 
HETATM   32  F1  UNL     1       9.650 -18.643 -16.242  1.00  0.00    -0.199 F 
HETATM   33  F2  UNL     1       8.550 -18.325 -18.134  1.00  0.00    -0.199 F 
BRANCH  31  34
HETATM   34  C10 UNL     1      10.811 -19.048 -18.213  1.00  0.00     0.065 C 
HETATM   35  C11 UNL     1      11.205 -20.171 -17.244  1.00  0.00     0.011 C 
HETATM   36  C12 UNL     1      12.223 -21.042 -17.903  1.00  0.00     0.001 C 
HETATM   37  C13 UNL     1      11.551 -21.743 -19.061  1.00  0.00     0.000 C 
HETATM   38  C14 UNL     1      10.903 -20.805 -20.025  1.00  0.00     0.001 C 
HETATM   39  C15 UNL     1      10.108 -19.704 -19.407  1.00  0.00     0.011 C 
ENDBRANCH  31  34
ENDBRANCH  29  31
ENDBRANCH  23  25
ENDBRANCH   1  21
TORSDOF 7
ENDMDL
