MODEL 1
REMARK VINA RESULT: -6.384107264      0.000      0.000
REMARK  7 active torsions:
REMARK  status: ('A' for Active; 'I' for Inactive)
REMARK    1  A    between atoms: C2_2  and  C3_3 
REMARK       I    between atoms: C3_3  and  N1_5 
REMARK    2  A    between atoms: N1_5  and  C4_7 
REMARK    3  A    between atoms: C6_13  and  O2_14 
REMARK    4  A    between atoms: C8_17  and  N4_18 
REMARK    5  A    between atoms: N4_18  and  C9_20 
REMARK    6  A    between atoms: C11_22  and  C12_23 
REMARK       I    between atoms: C12_23  and  N5_25 
REMARK    7  A    between atoms: N5_25  and  C13_27 
ROOT
HETATM    1  C4  UNL     1      -1.352  -7.567 -26.812  1.00  0.00     0.135 A 
HETATM    2  N2  UNL     1      -2.507  -7.863 -26.222  1.00  0.00    -0.284 N 
ATOM      3  H2  UNL     1      -3.018  -7.232 -25.605  1.00  0.00     0.188 HD
HETATM    4  N3  UNL     1      -2.913  -9.101 -26.547  1.00  0.00    -0.295 N 
ATOM      5  H3  UNL     1      -3.771  -9.543 -26.214  1.00  0.00     0.187 HD
HETATM    6  C5  UNL     1      -2.023  -9.668 -27.373  1.00  0.00     0.095 A 
HETATM    7  C6  UNL     1      -1.955 -10.909 -27.997  1.00  0.00     0.096 A 
HETATM    8  C7  UNL     1      -0.882 -11.192 -28.806  1.00  0.00     0.068 A 
HETATM    9  C8  UNL     1       0.108 -10.283 -29.002  1.00  0.00     0.036 A 
HETATM   10  C20 UNL     1       0.015  -9.061 -28.372  1.00  0.00     0.047 A 
HETATM   11  C21 UNL     1      -1.040  -8.729 -27.552  1.00  0.00     0.042 A 
ENDROOT
BRANCH   9  12
HETATM   12  N4  UNL     1       1.235 -10.523 -29.788  1.00  0.00    -0.354 N 
ATOM     13  H4  UNL     1       1.245 -11.429 -30.258  1.00  0.00     0.166 HD
BRANCH  12  14
HETATM   14  C9  UNL     1       2.357  -9.718 -30.036  1.00  0.00     0.072 A 
HETATM   15  C10 UNL     1       2.266  -8.539 -30.740  1.00  0.00     0.053 A 
HETATM   16  C11 UNL     1       3.404  -7.753 -31.016  1.00  0.00     0.072 A 
HETATM   17  C17 UNL     1       4.614  -8.196 -30.562  1.00  0.00     0.135 A 
HETATM   18  F1  UNL     1       5.768  -7.511 -30.757  1.00  0.00    -0.205 F 
HETATM   19  C18 UNL     1       4.730  -9.398 -29.841  1.00  0.00     0.088 A 
HETATM   20  C19 UNL     1       3.609 -10.147 -29.585  1.00  0.00     0.145 A 
HETATM   21  F2  UNL     1       3.648 -11.310 -28.897  1.00  0.00    -0.204 F 
BRANCH  16  22
HETATM   22  C12 UNL     1       3.252  -6.531 -31.780  1.00  0.00     0.255 C 
HETATM   23  O3  UNL     1       3.127  -5.432 -31.097  1.00  0.00    -0.268 OA
HETATM   24  N5  UNL     1       3.216  -6.349 -33.161  1.00  0.00    -0.349 N 
ATOM     25  H5  UNL     1       3.304  -7.165 -33.767  1.00  0.00     0.163 HD
BRANCH  24  26
HETATM   26  C13 UNL     1       3.058  -5.030 -33.772  1.00  0.00     0.022 C 
HETATM   27  C14 UNL     1       3.064  -5.160 -35.276  1.00  0.00     0.037 C 
HETATM   28  C15 UNL     1       1.743  -4.421 -33.353  1.00  0.00     0.037 C 
HETATM   29  C16 UNL     1       4.214  -4.121 -33.408  1.00  0.00     0.037 C 
ENDBRANCH  24  26
ENDBRANCH  16  22
ENDBRANCH  12  14
ENDBRANCH   9  12
BRANCH   7  30
HETATM   30  O2  UNL     1      -2.980 -11.828 -27.781  1.00  0.00    -0.358 OA
ATOM     31  H2  UNL     1      -2.913 -12.691 -28.174  1.00  0.00     0.217 HD
ENDBRANCH   7  30
BRANCH   1  32
HETATM   32  N1  UNL     1      -0.525  -6.435 -26.806  1.00  0.00    -0.311 N 
HETATM   33  C3  UNL     1      -0.440  -5.412 -27.766  1.00  0.00     0.222 C 
HETATM   34  O1  UNL     1       0.420  -4.478 -27.510  1.00  0.00    -0.273 OA
ATOM     35  H1  UNL     1       0.095  -6.341 -26.001  1.00  0.00     0.170 HD
BRANCH  33  36
HETATM   36  C2  UNL     1      -1.235  -5.332 -29.004  1.00  0.00     0.099 C 
HETATM   37  C1  UNL     1      -0.303  -5.722 -30.165  1.00  0.00     0.014 C 
ENDBRANCH  33  36
ENDBRANCH   1  32
TORSDOF 7
ENDMDL
MODEL 2
REMARK VINA RESULT: -6.330067693      5.733      8.957
REMARK  7 active torsions:
REMARK  status: ('A' for Active; 'I' for Inactive)
REMARK    1  A    between atoms: C2_2  and  C3_3 
REMARK       I    between atoms: C3_3  and  N1_5 
REMARK    2  A    between atoms: N1_5  and  C4_7 
REMARK    3  A    between atoms: C6_13  and  O2_14 
REMARK    4  A    between atoms: C8_17  and  N4_18 
REMARK    5  A    between atoms: N4_18  and  C9_20 
REMARK    6  A    between atoms: C11_22  and  C12_23 
REMARK       I    between atoms: C12_23  and  N5_25 
REMARK    7  A    between atoms: N5_25  and  C13_27 
ROOT
HETATM    1  C4  UNL     1       0.830  -8.335 -27.970  1.00  0.00     0.135 A 
HETATM    2  N2  UNL     1       1.520  -7.494 -28.736  1.00  0.00    -0.284 N 
ATOM      3  H2  UNL     1       1.308  -6.502 -28.840  1.00  0.00     0.188 HD
HETATM    4  N3  UNL     1       2.532  -8.122 -29.355  1.00  0.00    -0.295 N 
ATOM      5  H3  UNL     1       3.195  -7.680 -29.992  1.00  0.00     0.187 HD
HETATM    6  C5  UNL     1       2.539  -9.418 -29.011  1.00  0.00     0.095 A 
HETATM    7  C6  UNL     1       3.353 -10.493 -29.355  1.00  0.00     0.096 A 
HETATM    8  C7  UNL     1       3.091 -11.728 -28.815  1.00  0.00     0.068 A 
HETATM    9  C8  UNL     1       2.054 -11.914 -27.958  1.00  0.00     0.036 A 
HETATM   10  C20 UNL     1       1.265 -10.831 -27.634  1.00  0.00     0.047 A 
HETATM   11  C21 UNL     1       1.486  -9.573 -28.148  1.00  0.00     0.042 A 
ENDROOT
BRANCH   9  12
HETATM   12  N4  UNL     1       1.721 -13.149 -27.401  1.00  0.00    -0.354 N 
ATOM     13  H4  UNL     1       1.324 -13.822 -28.057  1.00  0.00     0.166 HD
BRANCH  12  14
HETATM   14  C9  UNL     1       1.846 -13.614 -26.083  1.00  0.00     0.072 A 
HETATM   15  C10 UNL     1       3.031 -14.118 -25.598  1.00  0.00     0.053 A 
HETATM   16  C11 UNL     1       3.138 -14.617 -24.283  1.00  0.00     0.072 A 
HETATM   17  C17 UNL     1       2.025 -14.585 -23.493  1.00  0.00     0.135 A 
HETATM   18  F1  UNL     1       2.022 -15.023 -22.209  1.00  0.00    -0.205 F 
HETATM   19  C18 UNL     1       0.803 -14.074 -23.968  1.00  0.00     0.088 A 
HETATM   20  C19 UNL     1       0.722 -13.596 -25.251  1.00  0.00     0.145 A 
HETATM   21  F2  UNL     1      -0.418 -13.089 -25.772  1.00  0.00    -0.204 F 
BRANCH  16  22
HETATM   22  C12 UNL     1       4.407 -15.155 -23.832  1.00  0.00     0.255 C 
HETATM   23  O3  UNL     1       5.290 -14.295 -23.423  1.00  0.00    -0.268 OA
HETATM   24  N5  UNL     1       4.833 -16.481 -23.770  1.00  0.00    -0.349 N 
ATOM     25  H5  UNL     1       4.197 -17.217 -24.078  1.00  0.00     0.163 HD
BRANCH  24  26
HETATM   26  C13 UNL     1       6.158 -16.853 -23.279  1.00  0.00     0.022 C 
HETATM   27  C14 UNL     1       6.562 -18.187 -23.859  1.00  0.00     0.037 C 
HETATM   28  C15 UNL     1       7.175 -15.823 -23.706  1.00  0.00     0.037 C 
HETATM   29  C16 UNL     1       6.154 -17.014 -21.773  1.00  0.00     0.037 C 
ENDBRANCH  24  26
ENDBRANCH  16  22
ENDBRANCH  12  14
ENDBRANCH   9  12
BRANCH   7  30
HETATM   30  O2  UNL     1       4.411 -10.281 -30.237  1.00  0.00    -0.358 OA
ATOM     31  H2  UNL     1       4.607 -10.947 -30.886  1.00  0.00     0.217 HD
ENDBRANCH   7  30
BRANCH   1  32
HETATM   32  N1  UNL     1      -0.287  -8.189 -27.135  1.00  0.00    -0.311 N 
HETATM   33  C3  UNL     1      -1.622  -8.545 -27.395  1.00  0.00     0.222 C 
HETATM   34  O1  UNL     1      -2.460  -8.293 -26.440  1.00  0.00    -0.273 OA
ATOM     35  H1  UNL     1      -0.108  -7.770 -26.222  1.00  0.00     0.170 HD
BRANCH  33  36
HETATM   36  C2  UNL     1      -2.116  -9.165 -28.637  1.00  0.00     0.099 C 
HETATM   37  C1  UNL     1      -2.408 -10.642 -28.318  1.00  0.00     0.014 C 
ENDBRANCH  33  36
ENDBRANCH   1  32
TORSDOF 7
ENDMDL
MODEL 3
REMARK VINA RESULT: -6.314485078      2.569      4.515
REMARK  7 active torsions:
REMARK  status: ('A' for Active; 'I' for Inactive)
REMARK    1  A    between atoms: C2_2  and  C3_3 
REMARK       I    between atoms: C3_3  and  N1_5 
REMARK    2  A    between atoms: N1_5  and  C4_7 
REMARK    3  A    between atoms: C6_13  and  O2_14 
REMARK    4  A    between atoms: C8_17  and  N4_18 
REMARK    5  A    between atoms: N4_18  and  C9_20 
REMARK    6  A    between atoms: C11_22  and  C12_23 
REMARK       I    between atoms: C12_23  and  N5_25 
REMARK    7  A    between atoms: N5_25  and  C13_27 
ROOT
HETATM    1  C4  UNL     1       0.499  -9.972 -26.323  1.00  0.00     0.135 A 
HETATM    2  N2  UNL     1       0.247 -11.188 -25.845  1.00  0.00    -0.284 N 
ATOM      3  H2  UNL     1      -0.463 -11.396 -25.144  1.00  0.00     0.188 HD
HETATM    4  N3  UNL     1       1.050 -12.105 -26.408  1.00  0.00    -0.295 N 
ATOM      5  H3  UNL     1       1.038 -13.103 -26.198  1.00  0.00     0.187 HD
HETATM    6  C5  UNL     1       1.870 -11.511 -27.287  1.00  0.00     0.095 A 
HETATM    7  C6  UNL     1       2.875 -11.984 -28.125  1.00  0.00     0.096 A 
HETATM    8  C7  UNL     1       3.548 -11.096 -28.928  1.00  0.00     0.068 A 
HETATM    9  C8  UNL     1       3.248  -9.770 -28.913  1.00  0.00     0.036 A 
HETATM   10  C20 UNL     1       2.248  -9.330 -28.074  1.00  0.00     0.047 A 
HETATM   11  C21 UNL     1       1.544 -10.180 -27.250  1.00  0.00     0.042 A 
ENDROOT
BRANCH   9  12
HETATM   12  N4  UNL     1       3.916  -8.818 -29.683  1.00  0.00    -0.354 N 
ATOM     13  H4  UNL     1       4.916  -8.982 -29.796  1.00  0.00     0.166 HD
BRANCH  12  14
HETATM   14  C9  UNL     1       3.430  -7.669 -30.326  1.00  0.00     0.072 A 
HETATM   15  C10 UNL     1       2.153  -7.203 -30.117  1.00  0.00     0.053 A 
HETATM   16  C11 UNL     1       1.660  -6.068 -30.796  1.00  0.00     0.072 A 
HETATM   17  C17 UNL     1       2.492  -5.436 -31.675  1.00  0.00     0.135 A 
HETATM   18  F1  UNL     1       2.127  -4.328 -32.367  1.00  0.00    -0.205 F 
HETATM   19  C18 UNL     1       3.802  -5.896 -31.904  1.00  0.00     0.088 A 
HETATM   20  C19 UNL     1       4.259  -7.002 -31.234  1.00  0.00     0.145 A 
HETATM   21  F2  UNL     1       5.506  -7.497 -31.404  1.00  0.00    -0.204 F 
BRANCH  16  22
HETATM   22  C12 UNL     1       0.299  -5.633 -30.551  1.00  0.00     0.255 C 
HETATM   23  O3  UNL     1      -0.577  -5.929 -31.464  1.00  0.00    -0.268 OA
HETATM   24  N5  UNL     1      -0.225  -4.933 -29.466  1.00  0.00    -0.349 N 
ATOM     25  H5  UNL     1       0.401  -4.661 -28.708  1.00  0.00     0.163 HD
BRANCH  24  26
HETATM   26  C13 UNL     1      -1.639  -4.575 -29.377  1.00  0.00     0.022 C 
HETATM   27  C14 UNL     1      -1.924  -3.951 -28.032  1.00  0.00     0.037 C 
HETATM   28  C15 UNL     1      -1.987  -3.573 -30.449  1.00  0.00     0.037 C 
HETATM   29  C16 UNL     1      -2.518  -5.804 -29.482  1.00  0.00     0.037 C 
ENDBRANCH  24  26
ENDBRANCH  16  22
ENDBRANCH  12  14
ENDBRANCH   9  12
BRANCH   7  30
HETATM   30  O2  UNL     1       3.167 -13.347 -28.124  1.00  0.00    -0.358 OA
ATOM     31  H2  UNL     1       4.043 -13.628 -28.361  1.00  0.00     0.217 HD
ENDBRANCH   7  30
BRANCH   1  32
HETATM   32  N1  UNL     1      -0.044  -8.703 -26.075  1.00  0.00    -0.311 N 
HETATM   33  C3  UNL     1      -1.262  -8.172 -26.533  1.00  0.00     0.222 C 
HETATM   34  O1  UNL     1      -1.519  -6.961 -26.152  1.00  0.00    -0.273 OA
ATOM     35  H1  UNL     1       0.516  -8.087 -25.487  1.00  0.00     0.170 HD
BRANCH  33  36
HETATM   36  C2  UNL     1      -2.234  -8.875 -27.389  1.00  0.00     0.099 C 
HETATM   37  C1  UNL     1      -3.627  -8.631 -26.782  1.00  0.00     0.014 C 
ENDBRANCH  33  36
ENDBRANCH   1  32
TORSDOF 7
ENDMDL
MODEL 4
REMARK VINA RESULT: -6.292944628      8.449     10.956
REMARK  7 active torsions:
REMARK  status: ('A' for Active; 'I' for Inactive)
REMARK    1  A    between atoms: C2_2  and  C3_3 
REMARK       I    between atoms: C3_3  and  N1_5 
REMARK    2  A    between atoms: N1_5  and  C4_7 
REMARK    3  A    between atoms: C6_13  and  O2_14 
REMARK    4  A    between atoms: C8_17  and  N4_18 
REMARK    5  A    between atoms: N4_18  and  C9_20 
REMARK    6  A    between atoms: C11_22  and  C12_23 
REMARK       I    between atoms: C12_23  and  N5_25 
REMARK    7  A    between atoms: N5_25  and  C13_27 
ROOT
HETATM    1  C4  UNL     1       7.901 -17.135 -23.361  1.00  0.00     0.135 A 
HETATM    2  N2  UNL     1       8.174 -18.406 -23.641  1.00  0.00    -0.284 N 
ATOM      3  H2  UNL     1       9.110 -18.810 -23.634  1.00  0.00     0.188 HD
HETATM    4  N3  UNL     1       7.055 -19.089 -23.933  1.00  0.00    -0.295 N 
ATOM      5  H3  UNL     1       7.018 -20.079 -24.178  1.00  0.00     0.187 HD
HETATM    6  C5  UNL     1       5.994 -18.274 -23.854  1.00  0.00     0.095 A 
HETATM    7  C6  UNL     1       4.630 -18.461 -24.053  1.00  0.00     0.096 A 
HETATM    8  C7  UNL     1       3.778 -17.395 -23.888  1.00  0.00     0.068 A 
HETATM    9  C8  UNL     1       4.248 -16.170 -23.538  1.00  0.00     0.036 A 
HETATM   10  C20 UNL     1       5.604 -16.014 -23.346  1.00  0.00     0.047 A 
HETATM   11  C21 UNL     1       6.498 -17.050 -23.499  1.00  0.00     0.042 A 
ENDROOT
BRANCH   9  12
HETATM   12  N4  UNL     1       3.437 -15.045 -23.384  1.00  0.00    -0.354 N 
ATOM     13  H4  UNL     1       3.613 -14.502 -22.539  1.00  0.00     0.166 HD
BRANCH  12  14
HETATM   14  C9  UNL     1       2.418 -14.542 -24.208  1.00  0.00     0.072 A 
HETATM   15  C10 UNL     1       2.686 -13.977 -25.434  1.00  0.00     0.053 A 
HETATM   16  C11 UNL     1       1.660 -13.441 -26.240  1.00  0.00     0.072 A 
HETATM   17  C17 UNL     1       0.380 -13.497 -25.769  1.00  0.00     0.135 A 
HETATM   18  F1  UNL     1      -0.683 -13.027 -26.470  1.00  0.00    -0.205 F 
HETATM   19  C18 UNL     1       0.084 -14.070 -24.519  1.00  0.00     0.088 A 
HETATM   20  C19 UNL     1       1.098 -14.583 -23.751  1.00  0.00     0.145 A 
HETATM   21  F2  UNL     1       0.885 -15.150 -22.542  1.00  0.00    -0.204 F 
BRANCH  16  22
HETATM   22  C12 UNL     1       2.003 -12.840 -27.514  1.00  0.00     0.255 C 
HETATM   23  O3  UNL     1       1.500 -13.399 -28.574  1.00  0.00    -0.268 OA
HETATM   24  N5  UNL     1       2.806 -11.733 -27.782  1.00  0.00    -0.349 N 
ATOM     25  H5  UNL     1       3.242 -11.241 -27.002  1.00  0.00     0.163 HD
BRANCH  24  26
HETATM   26  C13 UNL     1       3.046 -11.253 -29.142  1.00  0.00     0.022 C 
HETATM   27  C14 UNL     1       3.944 -10.039 -29.105  1.00  0.00     0.037 C 
HETATM   28  C15 UNL     1       3.730 -12.324 -29.955  1.00  0.00     0.037 C 
HETATM   29  C16 UNL     1       1.753 -10.819 -29.801  1.00  0.00     0.037 C 
ENDBRANCH  24  26
ENDBRANCH  16  22
ENDBRANCH  12  14
ENDBRANCH   9  12
BRANCH   7  30
HETATM   30  O2  UNL     1       4.168 -19.725 -24.414  1.00  0.00    -0.358 OA
ATOM     31  H2  UNL     1       3.232 -19.880 -24.447  1.00  0.00     0.217 HD
ENDBRANCH   7  30
BRANCH   1  32
HETATM   32  N1  UNL     1       8.689 -16.033 -23.001  1.00  0.00    -0.311 N 
HETATM   33  C3  UNL     1       9.039 -15.595 -21.712  1.00  0.00     0.222 C 
HETATM   34  O1  UNL     1       9.783 -14.536 -21.667  1.00  0.00    -0.273 OA
ATOM     35  H1  UNL     1       9.056 -15.477 -23.773  1.00  0.00     0.170 HD
BRANCH  33  36
HETATM   36  C2  UNL     1       8.631 -16.238 -20.450  1.00  0.00     0.099 C 
HETATM   37  C1  UNL     1       9.356 -15.497 -19.312  1.00  0.00     0.014 C 
ENDBRANCH  33  36
ENDBRANCH   1  32
TORSDOF 7
ENDMDL
MODEL 5
REMARK VINA RESULT: -6.249000375      2.407      3.408
REMARK  7 active torsions:
REMARK  status: ('A' for Active; 'I' for Inactive)
REMARK    1  A    between atoms: C2_2  and  C3_3 
REMARK       I    between atoms: C3_3  and  N1_5 
REMARK    2  A    between atoms: N1_5  and  C4_7 
REMARK    3  A    between atoms: C6_13  and  O2_14 
REMARK    4  A    between atoms: C8_17  and  N4_18 
REMARK    5  A    between atoms: N4_18  and  C9_20 
REMARK    6  A    between atoms: C11_22  and  C12_23 
REMARK       I    between atoms: C12_23  and  N5_25 
REMARK    7  A    between atoms: N5_25  and  C13_27 
ROOT
HETATM    1  C4  UNL     1      -0.109 -10.210 -26.668  1.00  0.00     0.135 A 
HETATM    2  N2  UNL     1      -0.760 -11.368 -26.580  1.00  0.00    -0.284 N 
ATOM      3  H2  UNL     1      -1.624 -11.505 -26.057  1.00  0.00     0.188 HD
HETATM    4  N3  UNL     1      -0.130 -12.332 -27.271  1.00  0.00    -0.295 N 
ATOM      5  H3  UNL     1      -0.444 -13.299 -27.348  1.00  0.00     0.187 HD
HETATM    6  C5  UNL     1       0.974 -11.831 -27.844  1.00  0.00     0.095 A 
HETATM    7  C6  UNL     1       1.965 -12.382 -28.649  1.00  0.00     0.096 A 
HETATM    8  C7  UNL     1       2.992 -11.581 -29.086  1.00  0.00     0.068 A 
HETATM    9  C8  UNL     1       3.053 -10.268 -28.743  1.00  0.00     0.036 A 
HETATM   10  C20 UNL     1       2.057  -9.749 -27.945  1.00  0.00     0.047 A 
HETATM   11  C21 UNL     1       1.007 -10.510 -27.481  1.00  0.00     0.042 A 
ENDROOT
BRANCH   9  12
HETATM   12  N4  UNL     1       4.085  -9.414 -29.132  1.00  0.00    -0.354 N 
ATOM     13  H4  UNL     1       4.963  -9.546 -28.628  1.00  0.00     0.166 HD
BRANCH  12  14
HETATM   14  C9  UNL     1       4.109  -8.403 -30.104  1.00  0.00     0.072 A 
HETATM   15  C10 UNL     1       2.966  -7.743 -30.496  1.00  0.00     0.053 A 
HETATM   16  C11 UNL     1       2.993  -6.753 -31.500  1.00  0.00     0.072 A 
HETATM   17  C17 UNL     1       4.194  -6.461 -32.080  1.00  0.00     0.135 A 
HETATM   18  F1  UNL     1       4.335  -5.515 -33.043  1.00  0.00    -0.205 F 
HETATM   19  C18 UNL     1       5.374  -7.123 -31.695  1.00  0.00     0.088 A 
HETATM   20  C19 UNL     1       5.324  -8.083 -30.717  1.00  0.00     0.145 A 
HETATM   21  F2  UNL     1       6.419  -8.756 -30.297  1.00  0.00    -0.204 F 
BRANCH  16  22
HETATM   22  C12 UNL     1       1.755  -6.106 -31.888  1.00  0.00     0.255 C 
HETATM   23  O3  UNL     1       1.323  -6.350 -33.089  1.00  0.00    -0.268 OA
HETATM   24  N5  UNL     1       0.940  -5.244 -31.155  1.00  0.00    -0.349 N 
ATOM     25  H5  UNL     1       1.213  -4.999 -30.203  1.00  0.00     0.163 HD
BRANCH  24  26
HETATM   26  C13 UNL     1      -0.291  -4.678 -31.704  1.00  0.00     0.022 C 
HETATM   27  C14 UNL     1      -1.076  -4.002 -30.605  1.00  0.00     0.037 C 
HETATM   28  C15 UNL     1       0.038  -3.647 -32.755  1.00  0.00     0.037 C 
HETATM   29  C16 UNL     1      -1.181  -5.763 -32.273  1.00  0.00     0.037 C 
ENDBRANCH  24  26
ENDBRANCH  16  22
ENDBRANCH  12  14
ENDBRANCH   9  12
BRANCH   7  30
HETATM   30  O2  UNL     1       1.885 -13.731 -28.989  1.00  0.00    -0.358 OA
ATOM     31  H2  UNL     1       2.373 -14.045 -29.741  1.00  0.00     0.217 HD
ENDBRANCH   7  30
BRANCH   1  32
HETATM   32  N1  UNL     1      -0.339  -8.929 -26.149  1.00  0.00    -0.311 N 
HETATM   33  C3  UNL     1      -1.156  -7.911 -26.671  1.00  0.00     0.222 C 
HETATM   34  O1  UNL     1      -1.184  -6.813 -25.983  1.00  0.00    -0.273 OA
ATOM     35  H1  UNL     1       0.148  -8.707 -25.281  1.00  0.00     0.170 HD
BRANCH  33  36
HETATM   36  C2  UNL     1      -1.955  -8.003 -27.905  1.00  0.00     0.099 C 
HETATM   37  C1  UNL     1      -1.028  -7.620 -29.073  1.00  0.00     0.014 C 
ENDBRANCH  33  36
ENDBRANCH   1  32
TORSDOF 7
ENDMDL
