MODEL 1
REMARK VINA RESULT: -7.045503642      0.000      0.000
REMARK  7 active torsions:
REMARK  status: ('A' for Active; 'I' for Inactive)
REMARK       I    between atoms: C2_2  and  N1_4 
REMARK    1  A    between atoms: N1_4  and  C3_6 
REMARK    2  A    between atoms: C3_6  and  C4_7 
REMARK    3  A    between atoms: C4_7  and  O2_8 
REMARK    4  A    between atoms: O2_8  and  N2_9 
REMARK       I    between atoms: N2_9  and  C5_10 
REMARK       I    between atoms: C5_10  and  N3_12 
REMARK    5  A    between atoms: N3_12  and  C6_14 
REMARK    6  A    between atoms: C11_19  and  O4_20 
REMARK    7  A    between atoms: C12_22  and  C14_24 
ROOT
HETATM    1  C6  UNL     1       3.667 -16.867 -22.746  1.00  0.00     0.071 A 
HETATM    2  C7  UNL     1       3.904 -17.214 -21.244  1.00  0.00     0.033 A 
HETATM    3  C8  UNL     1       2.887 -17.178 -20.461  1.00  0.00     0.010 A 
HETATM    4  C9  UNL     1       1.600 -16.822 -20.783  1.00  0.00    -0.048 A 
HETATM    5  C10 UNL     1       1.452 -16.541 -22.165  1.00  0.00    -0.003 A 
HETATM    6  C11 UNL     1       2.512 -16.598 -22.999  1.00  0.00     0.100 A 
HETATM    7  C12 UNL     1       0.083 -16.084 -22.631  1.00  0.00     0.027 C 
HETATM    8  C13 UNL     1      -0.623 -17.309 -22.973  1.00  0.00     0.027 C 
HETATM    9  C16 UNL     1      -0.615 -15.367 -21.447  1.00  0.00     0.020 C 
HETATM   10  C17 UNL     1      -0.650 -16.084 -20.175  1.00  0.00     0.006 C 
HETATM   11  C18 UNL     1       0.551 -16.815 -19.805  1.00  0.00     0.039 C 
ENDROOT
BRANCH   1  12
HETATM   12  N3  UNL     1       5.014 -17.160 -23.187  1.00  0.00    -0.292 N 
HETATM   13  C5  UNL     1       5.560 -15.707 -23.153  1.00  0.00     0.423 C 
HETATM   14  N2  UNL     1       6.897 -15.738 -22.809  1.00  0.00    -0.217 NA
HETATM   15  O3  UNL     1       4.814 -14.774 -23.297  1.00  0.00    -0.227 OA
ATOM     16  H3  UNL     1       5.461 -18.041 -23.439  1.00  0.00     0.172 HD
BRANCH  14  17
HETATM   17  O2  UNL     1       7.932 -15.438 -22.457  1.00  0.00    -0.203 OA
BRANCH  17  18
HETATM   18  C4  UNL     1       9.138 -15.525 -22.049  1.00  0.00     0.237 C 
BRANCH  18  19
HETATM   19  C3  UNL     1       8.516 -16.231 -20.587  1.00  0.00     0.152 C 
BRANCH  19  20
HETATM   20  N1  UNL     1       9.402 -15.529 -19.749  1.00  0.00    -0.359 N 
HETATM   21  C2  UNL     1       9.323 -14.932 -18.563  1.00  0.00     0.213 C 
HETATM   22  C1  UNL     1      10.580 -14.311 -17.967  1.00  0.00     0.117 C 
HETATM   23  O1  UNL     1       8.294 -14.780 -17.853  1.00  0.00    -0.274 OA
ATOM     24  H1  UNL     1      10.337 -15.462 -20.151  1.00  0.00     0.162 HD
ENDBRANCH  19  20
ENDBRANCH  18  19
ENDBRANCH  17  18
ENDBRANCH  14  17
ENDBRANCH   1  12
BRANCH   6  25
HETATM   25  O4  UNL     1       2.209 -16.265 -24.402  1.00  0.00    -0.358 OA
ATOM     26  H4  UNL     1       1.291 -16.247 -24.643  1.00  0.00     0.217 HD
ENDBRANCH   6  25
BRANCH   7  27
HETATM   27  C14 UNL     1       0.125 -14.980 -23.615  1.00  0.00     0.058 C 
HETATM   28 CL1  UNL     1       0.920 -13.525 -23.089  1.00  0.00    -0.085 Cl
HETATM   29  C15 UNL     1      -0.417 -15.036 -24.873  1.00  0.00     0.122 C 
HETATM   30 CL2  UNL     1      -1.207 -16.474 -25.463  1.00  0.00    -0.069 Cl
HETATM   31 CL3  UNL     1      -0.349 -13.619 -25.873  1.00  0.00    -0.069 Cl
ENDBRANCH   7  27
TORSDOF 7
ENDMDL
MODEL 2
REMARK VINA RESULT: -6.902834053      1.785      2.777
REMARK  7 active torsions:
REMARK  status: ('A' for Active; 'I' for Inactive)
REMARK       I    between atoms: C2_2  and  N1_4 
REMARK    1  A    between atoms: N1_4  and  C3_6 
REMARK    2  A    between atoms: C3_6  and  C4_7 
REMARK    3  A    between atoms: C4_7  and  O2_8 
REMARK    4  A    between atoms: O2_8  and  N2_9 
REMARK       I    between atoms: N2_9  and  C5_10 
REMARK       I    between atoms: C5_10  and  N3_12 
REMARK    5  A    between atoms: N3_12  and  C6_14 
REMARK    6  A    between atoms: C11_19  and  O4_20 
REMARK    7  A    between atoms: C12_22  and  C14_24 
ROOT
HETATM    1  C6  UNL     1       3.384 -17.603 -21.576  1.00  0.00     0.071 A 
HETATM    2  C7  UNL     1       3.040 -17.295 -20.085  1.00  0.00     0.033 A 
HETATM    3  C8  UNL     1       1.844 -16.913 -19.822  1.00  0.00     0.010 A 
HETATM    4  C9  UNL     1       0.822 -16.697 -20.714  1.00  0.00    -0.048 A 
HETATM    5  C10 UNL     1       1.197 -17.017 -22.044  1.00  0.00    -0.003 A 
HETATM    6  C11 UNL     1       2.447 -17.441 -22.326  1.00  0.00     0.100 A 
HETATM    7  C12 UNL     1       0.165 -16.767 -23.127  1.00  0.00     0.027 C 
HETATM    8  C13 UNL     1      -0.590 -18.008 -23.217  1.00  0.00     0.027 C 
HETATM    9  C16 UNL     1      -0.751 -15.606 -22.663  1.00  0.00     0.020 C 
HETATM   10  C17 UNL     1      -1.334 -15.724 -21.330  1.00  0.00     0.006 C 
HETATM   11  C18 UNL     1      -0.475 -16.259 -20.287  1.00  0.00     0.039 C 
ENDROOT
BRANCH   1  12
HETATM   12  N3  UNL     1       4.727 -18.083 -21.328  1.00  0.00    -0.292 N 
HETATM   13  C5  UNL     1       5.486 -16.802 -21.769  1.00  0.00     0.423 C 
HETATM   14  N2  UNL     1       6.626 -16.670 -21.003  1.00  0.00    -0.217 NA
HETATM   15  O3  UNL     1       4.996 -16.053 -22.574  1.00  0.00    -0.227 OA
ATOM     16  H3  UNL     1       5.067 -18.978 -20.976  1.00  0.00     0.172 HD
BRANCH  14  17
HETATM   17  O2  UNL     1       7.542 -16.243 -20.487  1.00  0.00    -0.203 OA
BRANCH  17  18
HETATM   18  C4  UNL     1       8.718 -16.151 -20.000  1.00  0.00     0.237 C 
BRANCH  18  19
HETATM   19  C3  UNL     1       9.257 -15.675 -21.583  1.00  0.00     0.152 C 
BRANCH  19  20
HETATM   20  N1  UNL     1       9.687 -16.967 -21.938  1.00  0.00    -0.359 N 
HETATM   21  C2  UNL     1      10.716 -17.481 -22.608  1.00  0.00     0.213 C 
HETATM   22  C1  UNL     1      10.836 -18.995 -22.723  1.00  0.00     0.117 C 
HETATM   23  O1  UNL     1      11.623 -16.849 -23.212  1.00  0.00    -0.274 OA
ATOM     24  H1  UNL     1       9.053 -17.689 -21.596  1.00  0.00     0.162 HD
ENDBRANCH  19  20
ENDBRANCH  18  19
ENDBRANCH  17  18
ENDBRANCH  14  17
ENDBRANCH   1  12
BRANCH   6  25
HETATM   25  O4  UNL     1       2.694 -17.719 -23.753  1.00  0.00    -0.358 OA
ATOM     26  H4  UNL     1       2.633 -16.978 -24.344  1.00  0.00     0.217 HD
ENDBRANCH   6  25
BRANCH   7  27
HETATM   27  C14 UNL     1       0.727 -16.178 -24.362  1.00  0.00     0.058 C 
HETATM   28 CL1  UNL     1       0.476 -17.091 -25.822  1.00  0.00    -0.085 Cl
HETATM   29  C15 UNL     1       1.419 -14.996 -24.418  1.00  0.00     0.122 C 
HETATM   30 CL2  UNL     1       1.683 -14.026 -22.992  1.00  0.00    -0.069 Cl
HETATM   31 CL3  UNL     1       2.082 -14.488 -25.939  1.00  0.00    -0.069 Cl
ENDBRANCH   7  27
TORSDOF 7
ENDMDL
MODEL 3
REMARK VINA RESULT: -6.829410772      0.540      1.279
REMARK  7 active torsions:
REMARK  status: ('A' for Active; 'I' for Inactive)
REMARK       I    between atoms: C2_2  and  N1_4 
REMARK    1  A    between atoms: N1_4  and  C3_6 
REMARK    2  A    between atoms: C3_6  and  C4_7 
REMARK    3  A    between atoms: C4_7  and  O2_8 
REMARK    4  A    between atoms: O2_8  and  N2_9 
REMARK       I    between atoms: N2_9  and  C5_10 
REMARK       I    between atoms: C5_10  and  N3_12 
REMARK    5  A    between atoms: N3_12  and  C6_14 
REMARK    6  A    between atoms: C11_19  and  O4_20 
REMARK    7  A    between atoms: C12_22  and  C14_24 
ROOT
HETATM    1  C6  UNL     1       3.685 -16.926 -23.122  1.00  0.00     0.071 A 
HETATM    2  C7  UNL     1       3.868 -17.039 -21.576  1.00  0.00     0.033 A 
HETATM    3  C8  UNL     1       2.811 -16.978 -20.850  1.00  0.00     0.010 A 
HETATM    4  C9  UNL     1       1.519 -16.779 -21.273  1.00  0.00    -0.048 A 
HETATM    5  C10 UNL     1       1.424 -16.709 -22.686  1.00  0.00    -0.003 A 
HETATM    6  C11 UNL     1       2.529 -16.794 -23.458  1.00  0.00     0.100 A 
HETATM    7  C12 UNL     1       0.051 -16.437 -23.270  1.00  0.00     0.027 C 
HETATM    8  C13 UNL     1      -0.540 -17.753 -23.461  1.00  0.00     0.027 C 
HETATM    9  C16 UNL     1      -0.762 -15.622 -22.231  1.00  0.00     0.020 C 
HETATM   10  C17 UNL     1      -0.810 -16.154 -20.873  1.00  0.00     0.006 C 
HETATM   11  C18 UNL     1       0.423 -16.723 -20.351  1.00  0.00     0.039 C 
ENDROOT
BRANCH   1  12
HETATM   12  N3  UNL     1       5.072 -17.165 -23.459  1.00  0.00    -0.292 N 
HETATM   13  C5  UNL     1       5.579 -15.709 -23.281  1.00  0.00     0.423 C 
HETATM   14  N2  UNL     1       6.880 -15.739 -22.823  1.00  0.00    -0.217 NA
HETATM   15  O3  UNL     1       4.826 -14.781 -23.430  1.00  0.00    -0.227 OA
ATOM     16  H3  UNL     1       5.561 -18.019 -23.728  1.00  0.00     0.172 HD
BRANCH  14  17
HETATM   17  O2  UNL     1       7.874 -15.445 -22.361  1.00  0.00    -0.203 OA
BRANCH  17  18
HETATM   18  C4  UNL     1       9.106 -15.476 -22.033  1.00  0.00     0.237 C 
BRANCH  18  19
HETATM   19  C3  UNL     1       8.623 -16.286 -20.573  1.00  0.00     0.152 C 
BRANCH  19  20
HETATM   20  N1  UNL     1       9.478 -15.531 -19.749  1.00  0.00    -0.359 N 
HETATM   21  C2  UNL     1       9.384 -14.943 -18.559  1.00  0.00     0.213 C 
HETATM   22  C1  UNL     1      10.610 -14.244 -17.985  1.00  0.00     0.117 C 
HETATM   23  O1  UNL     1       8.361 -14.859 -17.830  1.00  0.00    -0.274 OA
ATOM     24  H1  UNL     1      10.400 -15.403 -20.168  1.00  0.00     0.162 HD
ENDBRANCH  19  20
ENDBRANCH  18  19
ENDBRANCH  17  18
ENDBRANCH  14  17
ENDBRANCH   1  12
BRANCH   6  25
HETATM   25  O4  UNL     1       2.276 -16.687 -24.906  1.00  0.00    -0.358 OA
ATOM     26  H4  UNL     1       1.798 -15.919 -25.196  1.00  0.00     0.217 HD
ENDBRANCH   6  25
BRANCH   7  27
HETATM   27  C14 UNL     1       0.060 -15.482 -24.400  1.00  0.00     0.058 C 
HETATM   28 CL1  UNL     1      -0.546 -16.092 -25.913  1.00  0.00    -0.085 Cl
HETATM   29  C15 UNL     1       0.513 -14.191 -24.326  1.00  0.00     0.122 C 
HETATM   30 CL2  UNL     1       1.111 -13.518 -22.832  1.00  0.00    -0.069 Cl
HETATM   31 CL3  UNL     1       0.529 -13.229 -25.771  1.00  0.00    -0.069 Cl
ENDBRANCH   7  27
TORSDOF 7
ENDMDL
MODEL 4
REMARK VINA RESULT: -6.809959953      7.941     10.449
REMARK  7 active torsions:
REMARK  status: ('A' for Active; 'I' for Inactive)
REMARK       I    between atoms: C2_2  and  N1_4 
REMARK    1  A    between atoms: N1_4  and  C3_6 
REMARK    2  A    between atoms: C3_6  and  C4_7 
REMARK    3  A    between atoms: C4_7  and  O2_8 
REMARK    4  A    between atoms: O2_8  and  N2_9 
REMARK       I    between atoms: N2_9  and  C5_10 
REMARK       I    between atoms: C5_10  and  N3_12 
REMARK    5  A    between atoms: N3_12  and  C6_14 
REMARK    6  A    between atoms: C11_19  and  O4_20 
REMARK    7  A    between atoms: C12_22  and  C14_24 
ROOT
HETATM    1  C6  UNL     1       2.241  -9.092 -28.116  1.00  0.00     0.071 A 
HETATM    2  C7  UNL     1       3.476  -9.706 -28.845  1.00  0.00     0.033 A 
HETATM    3  C8  UNL     1       3.729  -9.290 -30.032  1.00  0.00     0.010 A 
HETATM    4  C9  UNL     1       3.007  -8.384 -30.770  1.00  0.00    -0.048 A 
HETATM    5  C10 UNL     1       1.914  -7.851 -30.041  1.00  0.00    -0.003 A 
HETATM    6  C11 UNL     1       1.654  -8.267 -28.783  1.00  0.00     0.100 A 
HETATM    7  C12 UNL     1       1.009  -6.878 -30.772  1.00  0.00     0.027 C 
HETATM    8  C13 UNL     1       1.596  -5.568 -30.530  1.00  0.00     0.027 C 
HETATM    9  C16 UNL     1       1.052  -7.221 -32.283  1.00  0.00     0.020 C 
HETATM   10  C17 UNL     1       2.374  -7.344 -32.890  1.00  0.00     0.006 C 
HETATM   11  C18 UNL     1       3.396  -8.009 -32.098  1.00  0.00     0.039 C 
ENDROOT
BRANCH   1  12
HETATM   12  N3  UNL     1       2.459  -9.760 -26.852  1.00  0.00    -0.292 N 
HETATM   13  C5  UNL     1       1.395 -10.877 -27.025  1.00  0.00     0.423 C 
HETATM   14  N2  UNL     1       1.840 -12.023 -26.397  1.00  0.00    -0.217 NA
HETATM   15  O3  UNL     1       0.432 -10.696 -27.724  1.00  0.00    -0.227 OA
ATOM     16  H3  UNL     1       3.106  -9.560 -26.089  1.00  0.00     0.172 HD
BRANCH  14  17
HETATM   17  O2  UNL     1       1.971 -13.104 -26.081  1.00  0.00    -0.203 OA
BRANCH  17  18
HETATM   18  C4  UNL     1       2.044 -14.376 -26.141  1.00  0.00     0.237 C 
BRANCH  18  19
HETATM   19  C3  UNL     1       2.071 -14.386 -24.403  1.00  0.00     0.152 C 
BRANCH  19  20
HETATM   20  N1  UNL     1       3.393 -14.862 -24.324  1.00  0.00    -0.359 N 
HETATM   21  C2  UNL     1       4.536 -14.425 -23.800  1.00  0.00     0.213 C 
HETATM   22  C1  UNL     1       5.774 -15.308 -23.896  1.00  0.00     0.117 C 
HETATM   23  O1  UNL     1       4.742 -13.316 -23.240  1.00  0.00    -0.274 OA
ATOM     24  H1  UNL     1       3.502 -15.768 -24.781  1.00  0.00     0.162 HD
ENDBRANCH  19  20
ENDBRANCH  18  19
ENDBRANCH  17  18
ENDBRANCH  14  17
ENDBRANCH   1  12
BRANCH   6  25
HETATM   25  O4  UNL     1       0.477  -7.637 -28.158  1.00  0.00    -0.358 OA
ATOM     26  H4  UNL     1      -0.013  -7.028 -28.698  1.00  0.00     0.217 HD
ENDBRANCH   6  25
BRANCH   7  27
HETATM   27  C14 UNL     1      -0.430  -7.081 -30.499  1.00  0.00     0.058 C 
HETATM   28 CL1  UNL     1      -1.059  -8.659 -30.876  1.00  0.00    -0.085 Cl
HETATM   29  C15 UNL     1      -1.271  -6.125 -29.991  1.00  0.00     0.122 C 
HETATM   30 CL2  UNL     1      -0.694  -4.533 -29.574  1.00  0.00    -0.069 Cl
HETATM   31 CL3  UNL     1      -2.954  -6.506 -29.808  1.00  0.00    -0.069 Cl
ENDBRANCH   7  27
TORSDOF 7
ENDMDL
MODEL 5
REMARK VINA RESULT: -6.803082833      7.840     10.344
REMARK  7 active torsions:
REMARK  status: ('A' for Active; 'I' for Inactive)
REMARK       I    between atoms: C2_2  and  N1_4 
REMARK    1  A    between atoms: N1_4  and  C3_6 
REMARK    2  A    between atoms: C3_6  and  C4_7 
REMARK    3  A    between atoms: C4_7  and  O2_8 
REMARK    4  A    between atoms: O2_8  and  N2_9 
REMARK       I    between atoms: N2_9  and  C5_10 
REMARK       I    between atoms: C5_10  and  N3_12 
REMARK    5  A    between atoms: N3_12  and  C6_14 
REMARK    6  A    between atoms: C11_19  and  O4_20 
REMARK    7  A    between atoms: C12_22  and  C14_24 
ROOT
HETATM    1  C6  UNL     1       2.242  -9.052 -28.188  1.00  0.00     0.071 A 
HETATM    2  C7  UNL     1       3.458  -9.685 -28.934  1.00  0.00     0.033 A 
HETATM    3  C8  UNL     1       3.694  -9.280 -30.129  1.00  0.00     0.010 A 
HETATM    4  C9  UNL     1       2.967  -8.372 -30.860  1.00  0.00    -0.048 A 
HETATM    5  C10 UNL     1       1.894  -7.821 -30.115  1.00  0.00    -0.003 A 
HETATM    6  C11 UNL     1       1.652  -8.226 -28.850  1.00  0.00     0.100 A 
HETATM    7  C12 UNL     1       0.986  -6.844 -30.836  1.00  0.00     0.027 C 
HETATM    8  C13 UNL     1       1.591  -5.539 -30.614  1.00  0.00     0.027 C 
HETATM    9  C16 UNL     1       0.998  -7.198 -32.346  1.00  0.00     0.020 C 
HETATM   10  C17 UNL     1       2.307  -7.339 -32.975  1.00  0.00     0.006 C 
HETATM   11  C18 UNL     1       3.337  -8.010 -32.197  1.00  0.00     0.039 C 
ENDROOT
BRANCH   1  12
HETATM   12  N3  UNL     1       2.476  -9.715 -26.922  1.00  0.00    -0.292 N 
HETATM   13  C5  UNL     1       1.367 -10.793 -27.049  1.00  0.00     0.423 C 
HETATM   14  N2  UNL     1       1.790 -11.947 -26.420  1.00  0.00    -0.217 NA
HETATM   15  O3  UNL     1       0.389 -10.584 -27.719  1.00  0.00    -0.227 OA
ATOM     16  H3  UNL     1       3.154  -9.531 -26.183  1.00  0.00     0.172 HD
BRANCH  14  17
HETATM   17  O2  UNL     1       1.891 -13.029 -26.095  1.00  0.00    -0.203 OA
BRANCH  17  18
HETATM   18  C4  UNL     1       1.968 -14.302 -26.151  1.00  0.00     0.237 C 
BRANCH  18  19
HETATM   19  C3  UNL     1       1.946 -14.307 -24.413  1.00  0.00     0.152 C 
BRANCH  19  20
HETATM   20  N1  UNL     1       3.226 -14.878 -24.296  1.00  0.00    -0.359 N 
HETATM   21  C2  UNL     1       4.377 -14.534 -23.722  1.00  0.00     0.213 C 
HETATM   22  C1  UNL     1       5.552 -15.501 -23.792  1.00  0.00     0.117 C 
HETATM   23  O1  UNL     1       4.640 -13.453 -23.132  1.00  0.00    -0.274 OA
ATOM     24  H1  UNL     1       3.288 -15.780 -24.768  1.00  0.00     0.162 HD
ENDBRANCH  19  20
ENDBRANCH  18  19
ENDBRANCH  17  18
ENDBRANCH  14  17
ENDBRANCH   1  12
BRANCH   6  25
HETATM   25  O4  UNL     1       0.493  -7.579 -28.208  1.00  0.00    -0.358 OA
ATOM     26  H4  UNL     1      -0.093  -7.099 -28.781  1.00  0.00     0.217 HD
ENDBRANCH   6  25
BRANCH   7  27
HETATM   27  C14 UNL     1      -0.450  -7.030 -30.537  1.00  0.00     0.058 C 
HETATM   28 CL1  UNL     1      -1.273  -5.647 -29.873  1.00  0.00    -0.085 Cl
HETATM   29  C15 UNL     1      -1.145  -8.194 -30.738  1.00  0.00     0.122 C 
HETATM   30 CL2  UNL     1      -0.380  -9.606 -31.420  1.00  0.00    -0.069 Cl
HETATM   31 CL3  UNL     1      -2.811  -8.266 -30.255  1.00  0.00    -0.069 Cl
ENDBRANCH   7  27
TORSDOF 7
ENDMDL
