MODEL 1
REMARK VINA RESULT: -6.339338409      0.000      0.000
REMARK  7 active torsions:
REMARK  status: ('A' for Active; 'I' for Inactive)
REMARK    1  A    between atoms: C1_2  and  C2_4 
REMARK    2  A    between atoms: C4_11  and  N4_12 
REMARK    3  A    between atoms: N5_14  and  C5_16 
REMARK    4  A    between atoms: C9_20  and  N6_21 
REMARK    5  A    between atoms: N6_21  and  C10_23 
REMARK    6  A    between atoms: C10_23  and  N7_25 
REMARK    7  A    between atoms: N7_25  and  C11_27 
ROOT
HETATM    1  C5  UNL     1      10.376 -18.347 -20.232  1.00  0.00     0.050 A 
HETATM    2  C6  UNL     1      10.432 -19.691 -19.997  1.00  0.00     0.031 A 
HETATM    3  C7  UNL     1       9.398 -20.468 -20.436  1.00  0.00     0.005 A 
HETATM    4  C8  UNL     1       8.315 -19.912 -21.106  1.00  0.00     0.029 A 
HETATM    5  C9  UNL     1       8.251 -18.577 -21.342  1.00  0.00     0.036 A 
HETATM    6  C17 UNL     1       9.316 -17.777 -20.890  1.00  0.00     0.060 A 
ENDROOT
BRANCH   1   7
HETATM    7  N5  UNL     1      11.456 -17.546 -19.773  1.00  0.00    -0.299 N 
HETATM    8  N4  UNL     1      11.502 -16.982 -18.651  1.00  0.00    -0.283 N 
ATOM      9  H4  UNL     1      12.325 -16.427 -18.417  1.00  0.00     0.188 HD
ATOM     10  H5  UNL     1      12.251 -17.419 -20.398  1.00  0.00     0.187 HD
BRANCH   8  11
HETATM   11  C4  UNL     1      10.458 -17.085 -17.692  1.00  0.00     0.154 A 
HETATM   12  C2  UNL     1       9.407 -16.222 -17.526  1.00  0.00     0.146 A 
HETATM   13  N2  UNL     1       8.642 -16.687 -16.500  1.00  0.00    -0.326 N 
HETATM   14  C3  UNL     1       9.220 -17.797 -16.068  1.00  0.00     0.178 A 
ATOM     15  H2  UNL     1       7.789 -16.262 -16.136  1.00  0.00     0.168 HD
HETATM   16  S1  UNL     1       8.692 -18.734 -14.853  1.00  0.00    -0.040 SA
HETATM   17  N3  UNL     1      10.331 -18.057 -16.784  1.00  0.00    -0.316 N 
ATOM     18  H3  UNL     1      10.961 -18.849 -16.656  1.00  0.00     0.170 HD
BRANCH  12  19
HETATM   19  C1  UNL     1       9.149 -15.030 -18.294  1.00  0.00     0.285 C 
HETATM   20  N1  UNL     1       8.084 -14.140 -17.976  1.00  0.00    -0.056 NA
HETATM   21  O1  UNL     1       9.862 -14.734 -19.280  1.00  0.00    -0.269 OA
ENDBRANCH  12  19
ENDBRANCH   8  11
ENDBRANCH   1   7
BRANCH   5  22
HETATM   22  N6  UNL     1       7.158 -17.945 -21.987  1.00  0.00    -0.333 N 
ATOM     23  H6  UNL     1       6.287 -17.815 -21.472  1.00  0.00     0.168 HD
BRANCH  22  24
HETATM   24  C10 UNL     1       7.242 -17.494 -23.309  1.00  0.00     0.172 C 
HETATM   25  S2  UNL     1       7.234 -15.850 -23.552  1.00  0.00    -0.041 SA
BRANCH  24  26
HETATM   26  N7  UNL     1       7.379 -18.275 -24.480  1.00  0.00    -0.362 N 
ATOM     27  H7  UNL     1       6.549 -18.345 -25.067  1.00  0.00     0.162 HD
BRANCH  26  28
HETATM   28  C11 UNL     1       8.531 -18.978 -24.944  1.00  0.00     0.089 C 
HETATM   29  C12 UNL     1       8.370 -20.445 -24.751  1.00  0.00     0.025 C 
HETATM   30  C13 UNL     1       9.618 -21.172 -24.318  1.00  0.00     0.008 C 
HETATM   31  C14 UNL     1      10.869 -20.655 -24.942  1.00  0.00     0.079 C 
HETATM   32  C15 UNL     1      10.952 -19.172 -25.054  1.00  0.00     0.245 C 
HETATM   33  F1  UNL     1      12.159 -18.652 -24.626  1.00  0.00    -0.206 F 
HETATM   34  F2  UNL     1      10.865 -18.856 -26.416  1.00  0.00    -0.206 F 
HETATM   35  C16 UNL     1       9.805 -18.439 -24.388  1.00  0.00     0.104 C 
ENDBRANCH  26  28
ENDBRANCH  24  26
ENDBRANCH  22  24
ENDBRANCH   5  22
TORSDOF 7
ENDMDL
MODEL 2
REMARK VINA RESULT: -6.220963214      4.614      6.022
REMARK  7 active torsions:
REMARK  status: ('A' for Active; 'I' for Inactive)
REMARK    1  A    between atoms: C1_2  and  C2_4 
REMARK    2  A    between atoms: C4_11  and  N4_12 
REMARK    3  A    between atoms: N5_14  and  C5_16 
REMARK    4  A    between atoms: C9_20  and  N6_21 
REMARK    5  A    between atoms: N6_21  and  C10_23 
REMARK    6  A    between atoms: C10_23  and  N7_25 
REMARK    7  A    between atoms: N7_25  and  C11_27 
ROOT
HETATM    1  C5  UNL     1      11.505 -18.968 -24.639  1.00  0.00     0.050 A 
HETATM    2  C6  UNL     1      11.734 -20.201 -24.098  1.00  0.00     0.031 A 
HETATM    3  C7  UNL     1      11.256 -21.296 -24.760  1.00  0.00     0.005 A 
HETATM    4  C8  UNL     1      10.555 -21.166 -25.953  1.00  0.00     0.029 A 
HETATM    5  C9  UNL     1      10.323 -19.945 -26.495  1.00  0.00     0.036 A 
HETATM    6  C17 UNL     1      10.815 -18.817 -25.815  1.00  0.00     0.060 A 
ENDROOT
BRANCH   1   7
HETATM    7  N5  UNL     1      12.006 -17.834 -23.945  1.00  0.00    -0.299 N 
HETATM    8  N4  UNL     1      11.440 -17.287 -22.965  1.00  0.00    -0.283 N 
ATOM      9  H4  UNL     1      11.884 -16.474 -22.537  1.00  0.00     0.188 HD
ATOM     10  H5  UNL     1      12.889 -17.435 -24.264  1.00  0.00     0.187 HD
BRANCH   8  11
HETATM   11  C4  UNL     1      10.209 -17.750 -22.428  1.00  0.00     0.154 A 
HETATM   12  C2  UNL     1       9.089 -17.003 -22.177  1.00  0.00     0.146 A 
HETATM   13  N2  UNL     1       8.139 -17.833 -21.666  1.00  0.00    -0.326 N 
HETATM   14  C3  UNL     1       8.677 -19.042 -21.614  1.00  0.00     0.178 A 
ATOM     15  H2  UNL     1       7.195 -17.573 -21.378  1.00  0.00     0.168 HD
HETATM   16  S1  UNL     1       7.945 -20.387 -21.077  1.00  0.00    -0.040 SA
HETATM   17  N3  UNL     1       9.942 -19.012 -22.075  1.00  0.00    -0.316 N 
ATOM     18  H3  UNL     1      10.579 -19.805 -22.143  1.00  0.00     0.170 HD
BRANCH  12  19
HETATM   19  C1  UNL     1       8.934 -15.590 -22.410  1.00  0.00     0.285 C 
HETATM   20  N1  UNL     1       9.803 -14.626 -21.824  1.00  0.00    -0.056 NA
HETATM   21  O1  UNL     1       8.017 -15.155 -23.144  1.00  0.00    -0.269 OA
ENDBRANCH  12  19
ENDBRANCH   8  11
ENDBRANCH   1   7
BRANCH   5  22
HETATM   22  N6  UNL     1       9.584 -19.743 -27.689  1.00  0.00    -0.333 N 
ATOM     23  H6  UNL     1       8.844 -19.041 -27.701  1.00  0.00     0.168 HD
BRANCH  22  24
HETATM   24  C10 UNL     1       9.843 -20.480 -28.851  1.00  0.00     0.172 C 
HETATM   25  S2  UNL     1       8.653 -21.518 -29.371  1.00  0.00    -0.041 SA
BRANCH  24  26
HETATM   26  N7  UNL     1      10.990 -20.418 -29.674  1.00  0.00    -0.362 N 
ATOM     27  H7  UNL     1      11.534 -21.277 -29.743  1.00  0.00     0.162 HD
BRANCH  26  28
HETATM   28  C11 UNL     1      11.484 -19.306 -30.420  1.00  0.00     0.089 C 
HETATM   29  C12 UNL     1      10.532 -18.927 -31.500  1.00  0.00     0.025 C 
HETATM   30  C13 UNL     1      11.172 -18.514 -32.799  1.00  0.00     0.008 C 
HETATM   31  C14 UNL     1      12.430 -17.732 -32.635  1.00  0.00     0.079 C 
HETATM   32  C15 UNL     1      13.336 -18.214 -31.556  1.00  0.00     0.245 C 
HETATM   33  F1  UNL     1      14.657 -18.323 -31.949  1.00  0.00    -0.206 F 
HETATM   34  F2  UNL     1      13.322 -17.248 -30.542  1.00  0.00    -0.206 F 
HETATM   35  C16 UNL     1      12.882 -19.503 -30.901  1.00  0.00     0.104 C 
ENDBRANCH  26  28
ENDBRANCH  24  26
ENDBRANCH  22  24
ENDBRANCH   5  22
TORSDOF 7
ENDMDL
MODEL 3
REMARK VINA RESULT: -6.120388561      3.974      5.338
REMARK  7 active torsions:
REMARK  status: ('A' for Active; 'I' for Inactive)
REMARK    1  A    between atoms: C1_2  and  C2_4 
REMARK    2  A    between atoms: C4_11  and  N4_12 
REMARK    3  A    between atoms: N5_14  and  C5_16 
REMARK    4  A    between atoms: C9_20  and  N6_21 
REMARK    5  A    between atoms: N6_21  and  C10_23 
REMARK    6  A    between atoms: C10_23  and  N7_25 
REMARK    7  A    between atoms: N7_25  and  C11_27 
ROOT
HETATM    1  C5  UNL     1      11.315 -19.011 -24.573  1.00  0.00     0.050 A 
HETATM    2  C6  UNL     1      11.847 -20.209 -24.187  1.00  0.00     0.031 A 
HETATM    3  C7  UNL     1      11.235 -21.354 -24.612  1.00  0.00     0.005 A 
HETATM    4  C8  UNL     1      10.103 -21.308 -25.416  1.00  0.00     0.029 A 
HETATM    5  C9  UNL     1       9.569 -20.122 -25.803  1.00  0.00     0.036 A 
HETATM    6  C17 UNL     1      10.198 -18.944 -25.366  1.00  0.00     0.060 A 
ENDROOT
BRANCH   1   7
HETATM    7  N5  UNL     1      11.958 -17.824 -24.127  1.00  0.00    -0.299 N 
HETATM    8  N4  UNL     1      11.654 -17.196 -23.083  1.00  0.00    -0.283 N 
ATOM      9  H4  UNL     1      12.179 -16.351 -22.852  1.00  0.00     0.188 HD
ATOM     10  H5  UNL     1      12.721 -17.457 -24.696  1.00  0.00     0.187 HD
BRANCH   8  11
HETATM   11  C4  UNL     1      10.613 -17.607 -22.209  1.00  0.00     0.154 A 
HETATM   12  C2  UNL     1       9.515 -16.877 -21.837  1.00  0.00     0.146 A 
HETATM   13  N2  UNL     1       8.771 -17.642 -20.991  1.00  0.00    -0.326 N 
HETATM   14  C3  UNL     1       9.407 -18.796 -20.864  1.00  0.00     0.178 A 
ATOM     15  H2  UNL     1       7.894 -17.376 -20.543  1.00  0.00     0.168 HD
HETATM   16  S1  UNL     1       8.925 -20.054 -19.957  1.00  0.00    -0.040 SA
HETATM   17  N3  UNL     1      10.535 -18.795 -21.600  1.00  0.00    -0.316 N 
ATOM     18  H3  UNL     1      11.206 -19.559 -21.678  1.00  0.00     0.170 HD
BRANCH  12  19
HETATM   19  C1  UNL     1       9.196 -15.537 -22.260  1.00  0.00     0.285 C 
HETATM   20  N1  UNL     1       8.053 -15.247 -23.058  1.00  0.00    -0.056 NA
HETATM   21  O1  UNL     1       9.923 -14.570 -21.935  1.00  0.00    -0.269 OA
ENDBRANCH  12  19
ENDBRANCH   8  11
ENDBRANCH   1   7
BRANCH   5  22
HETATM   22  N6  UNL     1       8.396 -20.008 -26.591  1.00  0.00    -0.333 N 
ATOM     23  H6  UNL     1       7.578 -19.542 -26.198  1.00  0.00     0.168 HD
BRANCH  22  24
HETATM   24  C10 UNL     1       8.330 -20.518 -27.894  1.00  0.00     0.172 C 
HETATM   25  S2  UNL     1       7.420 -21.888 -28.127  1.00  0.00    -0.041 SA
BRANCH  24  26
HETATM   26  N7  UNL     1       8.915 -19.977 -29.062  1.00  0.00    -0.362 N 
ATOM     27  H7  UNL     1       8.285 -19.460 -29.675  1.00  0.00     0.162 HD
BRANCH  26  28
HETATM   28  C11 UNL     1      10.273 -20.060 -29.491  1.00  0.00     0.089 C 
HETATM   29  C12 UNL     1      10.947 -18.738 -29.377  1.00  0.00     0.025 C 
HETATM   30  C13 UNL     1      11.898 -18.407 -30.498  1.00  0.00     0.008 C 
HETATM   31  C14 UNL     1      12.675 -19.576 -31.000  1.00  0.00     0.079 C 
HETATM   32  C15 UNL     1      11.902 -20.844 -31.117  1.00  0.00     0.245 C 
HETATM   33  F1  UNL     1      12.089 -21.496 -32.322  1.00  0.00    -0.206 F 
HETATM   34  F2  UNL     1      12.387 -21.716 -30.135  1.00  0.00    -0.206 F 
HETATM   35  C16 UNL     1      10.421 -20.690 -30.835  1.00  0.00     0.104 C 
ENDBRANCH  26  28
ENDBRANCH  24  26
ENDBRANCH  22  24
ENDBRANCH   5  22
TORSDOF 7
ENDMDL
MODEL 4
REMARK VINA RESULT: -5.998508900      9.996     13.133
REMARK  7 active torsions:
REMARK  status: ('A' for Active; 'I' for Inactive)
REMARK    1  A    between atoms: C1_2  and  C2_4 
REMARK    2  A    between atoms: C4_11  and  N4_12 
REMARK    3  A    between atoms: N5_14  and  C5_16 
REMARK    4  A    between atoms: C9_20  and  N6_21 
REMARK    5  A    between atoms: N6_21  and  C10_23 
REMARK    6  A    between atoms: C10_23  and  N7_25 
REMARK    7  A    between atoms: N7_25  and  C11_27 
ROOT
HETATM    1  C5  UNL     1       0.085 -10.191 -26.787  1.00  0.00     0.050 A 
HETATM    2  C6  UNL     1      -0.870  -9.527 -27.504  1.00  0.00     0.031 A 
HETATM    3  C7  UNL     1      -1.889 -10.253 -28.051  1.00  0.00     0.005 A 
HETATM    4  C8  UNL     1      -1.959 -11.632 -27.885  1.00  0.00     0.029 A 
HETATM    5  C9  UNL     1      -1.014 -12.298 -27.176  1.00  0.00     0.036 A 
HETATM    6  C17 UNL     1       0.035 -11.550 -26.612  1.00  0.00     0.060 A 
ENDROOT
BRANCH   1   7
HETATM    7  N5  UNL     1       1.141  -9.428 -26.220  1.00  0.00    -0.299 N 
HETATM    8  N4  UNL     1       2.266  -9.258 -26.753  1.00  0.00    -0.283 N 
ATOM      9  H4  UNL     1       2.958  -8.691 -26.261  1.00  0.00     0.188 HD
ATOM     10  H5  UNL     1       0.974  -8.986 -25.316  1.00  0.00     0.187 HD
BRANCH   8  11
HETATM   11  C4  UNL     1       2.618  -9.819 -28.009  1.00  0.00     0.154 A 
HETATM   12  C2  UNL     1       2.577  -9.197 -29.229  1.00  0.00     0.146 A 
HETATM   13  N2  UNL     1       2.995 -10.089 -30.168  1.00  0.00    -0.326 N 
HETATM   14  C3  UNL     1       3.278 -11.212 -29.527  1.00  0.00     0.178 A 
ATOM     15  H2  UNL     1       3.074  -9.924 -31.172  1.00  0.00     0.168 HD
HETATM   16  S1  UNL     1       3.819 -12.585 -30.204  1.00  0.00    -0.040 SA
HETATM   17  N3  UNL     1       3.054 -11.068 -28.207  1.00  0.00    -0.316 N 
ATOM     18  H3  UNL     1       3.191 -11.780 -27.489  1.00  0.00     0.170 HD
BRANCH  12  19
HETATM   19  C1  UNL     1       2.166  -7.839 -29.482  1.00  0.00     0.285 C 
HETATM   20  N1  UNL     1       2.568  -7.132 -30.651  1.00  0.00    -0.056 NA
HETATM   21  O1  UNL     1       1.433  -7.227 -28.672  1.00  0.00    -0.269 OA
ENDBRANCH  12  19
ENDBRANCH   8  11
ENDBRANCH   1   7
BRANCH   5  22
HETATM   22  N6  UNL     1      -1.009 -13.705 -27.001  1.00  0.00    -0.333 N 
ATOM     23  H6  UNL     1      -1.827 -14.156 -26.591  1.00  0.00     0.168 HD
BRANCH  22  24
HETATM   24  C10 UNL     1       0.087 -14.491 -27.376  1.00  0.00     0.172 C 
HETATM   25  S2  UNL     1       0.388 -14.647 -29.002  1.00  0.00    -0.041 SA
BRANCH  24  26
HETATM   26  N7  UNL     1       1.011 -15.143 -26.527  1.00  0.00    -0.362 N 
ATOM     27  H7  UNL     1       1.269 -16.092 -26.796  1.00  0.00     0.162 HD
BRANCH  26  28
HETATM   28  C11 UNL     1       1.628 -14.644 -25.340  1.00  0.00     0.089 C 
HETATM   29  C12 UNL     1       3.040 -14.252 -25.603  1.00  0.00     0.025 C 
HETATM   30  C13 UNL     1       4.008 -14.580 -24.496  1.00  0.00     0.008 C 
HETATM   31  C14 UNL     1       3.449 -14.402 -23.126  1.00  0.00     0.079 C 
HETATM   32  C15 UNL     1       2.042 -14.862 -22.955  1.00  0.00     0.245 C 
HETATM   33  F1  UNL     1       1.848 -15.642 -21.830  1.00  0.00    -0.206 F 
HETATM   34  F2  UNL     1       1.255 -13.720 -22.765  1.00  0.00    -0.206 F 
HETATM   35  C16 UNL     1       1.470 -15.558 -24.173  1.00  0.00     0.104 C 
ENDBRANCH  26  28
ENDBRANCH  24  26
ENDBRANCH  22  24
ENDBRANCH   5  22
TORSDOF 7
ENDMDL
MODEL 5
REMARK VINA RESULT: -5.967971654      3.881      5.649
REMARK  7 active torsions:
REMARK  status: ('A' for Active; 'I' for Inactive)
REMARK    1  A    between atoms: C1_2  and  C2_4 
REMARK    2  A    between atoms: C4_11  and  N4_12 
REMARK    3  A    between atoms: N5_14  and  C5_16 
REMARK    4  A    between atoms: C9_20  and  N6_21 
REMARK    5  A    between atoms: N6_21  and  C10_23 
REMARK    6  A    between atoms: C10_23  and  N7_25 
REMARK    7  A    between atoms: N7_25  and  C11_27 
ROOT
HETATM    1  C5  UNL     1      10.763 -18.767 -24.530  1.00  0.00     0.050 A 
HETATM    2  C6  UNL     1      11.231 -19.992 -24.915  1.00  0.00     0.031 A 
HETATM    3  C7  UNL     1      10.339 -20.894 -25.422  1.00  0.00     0.005 A 
HETATM    4  C8  UNL     1       8.991 -20.580 -25.546  1.00  0.00     0.029 A 
HETATM    5  C9  UNL     1       8.519 -19.367 -25.164  1.00  0.00     0.036 A 
HETATM    6  C17 UNL     1       9.437 -18.438 -24.643  1.00  0.00     0.060 A 
ENDROOT
BRANCH   1   7
HETATM    7  N5  UNL     1      11.697 -17.834 -24.004  1.00  0.00    -0.299 N 
HETATM    8  N4  UNL     1      11.631 -17.324 -22.858  1.00  0.00    -0.283 N 
ATOM      9  H4  UNL     1      12.355 -16.661 -22.577  1.00  0.00     0.188 HD
ATOM     10  H5  UNL     1      12.478 -17.559 -24.600  1.00  0.00     0.187 HD
BRANCH   8  11
HETATM   11  C4  UNL     1      10.594 -17.628 -21.937  1.00  0.00     0.154 A 
HETATM   12  C2  UNL     1       9.521 -16.839 -21.616  1.00  0.00     0.146 A 
HETATM   13  N2  UNL     1       8.772 -17.505 -20.695  1.00  0.00    -0.326 N 
HETATM   14  C3  UNL     1       9.380 -18.659 -20.473  1.00  0.00     0.178 A 
ATOM     15  H2  UNL     1       7.909 -17.177 -20.260  1.00  0.00     0.168 HD
HETATM   16  S1  UNL     1       8.881 -19.817 -19.451  1.00  0.00    -0.040 SA
HETATM   17  N3  UNL     1      10.496 -18.754 -21.222  1.00  0.00    -0.316 N 
ATOM     18  H3  UNL     1      11.146 -19.539 -21.241  1.00  0.00     0.170 HD
BRANCH  12  19
HETATM   19  C1  UNL     1       9.229 -15.534 -22.153  1.00  0.00     0.285 C 
HETATM   20  N1  UNL     1       8.098 -15.293 -22.984  1.00  0.00    -0.056 NA
HETATM   21  O1  UNL     1       9.970 -14.555 -21.904  1.00  0.00    -0.269 OA
ENDBRANCH  12  19
ENDBRANCH   8  11
ENDBRANCH   1   7
BRANCH   5  22
HETATM   22  N6  UNL     1       7.151 -18.999 -25.231  1.00  0.00    -0.333 N 
ATOM     23  H6  UNL     1       6.672 -19.034 -26.131  1.00  0.00     0.168 HD
BRANCH  22  24
HETATM   24  C10 UNL     1       6.441 -18.589 -24.096  1.00  0.00     0.172 C 
HETATM   25  S2  UNL     1       6.366 -19.654 -22.823  1.00  0.00    -0.041 SA
BRANCH  24  26
HETATM   26  N7  UNL     1       5.806 -17.345 -23.879  1.00  0.00    -0.362 N 
ATOM     27  H7  UNL     1       6.387 -16.519 -24.022  1.00  0.00     0.162 HD
BRANCH  26  28
HETATM   28  C11 UNL     1       4.457 -17.096 -23.487  1.00  0.00     0.089 C 
HETATM   29  C12 UNL     1       3.508 -17.881 -24.323  1.00  0.00     0.025 C 
HETATM   30  C13 UNL     1       2.239 -17.160 -24.695  1.00  0.00     0.008 C 
HETATM   31  C14 UNL     1       1.701 -16.282 -23.618  1.00  0.00     0.079 C 
HETATM   32  C15 UNL     1       2.725 -15.506 -22.865  1.00  0.00     0.245 C 
HETATM   33  F1  UNL     1       2.405 -14.171 -22.710  1.00  0.00    -0.206 F 
HETATM   34  F2  UNL     1       2.775 -16.036 -21.569  1.00  0.00    -0.206 F 
HETATM   35  C16 UNL     1       4.129 -15.642 -23.418  1.00  0.00     0.104 C 
ENDBRANCH  26  28
ENDBRANCH  24  26
ENDBRANCH  22  24
ENDBRANCH   5  22
TORSDOF 7
ENDMDL
