MODEL 1
REMARK VINA RESULT: -4.463798131      0.000      0.000
REMARK  5 active torsions:
REMARK  status: ('A' for Active; 'I' for Inactive)
REMARK    1  A    between atoms: N1_2  and  C3_4 
REMARK    2  A    between atoms: C3_4  and  O1_5 
REMARK    3  A    between atoms: C3_4  and  C4_7 
REMARK    4  A    between atoms: C4_7  and  C5_8 
REMARK       I    between atoms: N2_11  and  C8_12 
REMARK    5  A    between atoms: C10_16  and  C12_18 
ROOT
HETATM    1  C4  UNL     1      -6.029 -45.108  -0.986  1.00  0.00     0.107 C 
HETATM    2  C10 UNL     1      -6.663 -44.823   0.374  1.00  0.00    -0.004 C 
HETATM    3  C11 UNL     1      -6.184 -43.569   1.055  1.00  0.00     0.021 C 
HETATM    4  C14 UNL     1      -6.344 -45.910   1.388  1.00  0.00     0.016 C 
HETATM    5  C15 UNL     1      -4.899 -46.173   1.597  1.00  0.00     0.023 C 
HETATM    6  C16 UNL     1      -4.160 -46.337   0.282  1.00  0.00     0.131 C 
HETATM    7 BR2  UNL     1      -2.281 -45.954   0.764  1.00  0.00    -0.085 Br
HETATM    8  C17 UNL     1      -4.518 -45.258  -0.650  1.00  0.00     0.273 C 
HETATM    9  F1  UNL     1      -3.736 -45.327  -1.763  1.00  0.00    -0.204 F 
HETATM   10  F2  UNL     1      -4.016 -44.094  -0.036  1.00  0.00    -0.204 F 
ENDROOT
BRANCH   1  11
HETATM   11  C3  UNL     1      -6.028 -43.983  -1.906  1.00  0.00     0.129 C 
BRANCH  11  12
HETATM   12  N1  UNL     1      -6.849 -43.429  -2.877  1.00  0.00    -0.373 N 
HETATM   13  C1  UNL     1      -8.183 -43.790  -3.186  1.00  0.00     0.150 C 
HETATM   14  C2  UNL     1      -6.386 -42.315  -3.768  1.00  0.00     0.150 C 
ENDBRANCH  11  12
BRANCH  11  15
HETATM   15  O1  UNL     1      -4.954 -43.181  -1.880  1.00  0.00    -0.349 OA
ATOM     16  H1  UNL     1      -4.562 -43.339  -1.029  1.00  0.00     0.219 HD
ENDBRANCH  11  15
ENDBRANCH   1  11
BRANCH   1  17
HETATM   17  C5  UNL     1      -6.430 -46.456  -1.444  1.00  0.00     0.029 C 
HETATM   18  C6  UNL     1      -5.905 -47.017  -2.683  1.00  0.00     0.027 C 
HETATM   19  C7  UNL     1      -6.358 -48.498  -2.494  1.00  0.00     0.127 C 
HETATM   20  N2  UNL     1      -7.767 -48.127  -2.337  1.00  0.00    -0.336 N 
HETATM   21  C8  UNL     1      -8.826 -48.769  -2.993  1.00  0.00     0.330 C 
HETATM   22  C9  UNL     1      -7.785 -46.988  -1.383  1.00  0.00     0.133 C 
HETATM   23  N3  UNL     1     -10.171 -48.306  -2.751  1.00  0.00    -0.040 NA
HETATM   24  O2  UNL     1      -8.631 -49.714  -3.765  1.00  0.00    -0.251 OA
ENDBRANCH   1  17
BRANCH   2  25
HETATM   25  C12 UNL     1      -8.143 -44.671   0.333  1.00  0.00    -0.009 C 
HETATM   26  C13 UNL     1      -8.757 -43.518   0.570  1.00  0.00     0.052 C 
HETATM   27 BR1  UNL     1     -10.643 -43.284   0.529  1.00  0.00    -0.064 Br
ENDBRANCH   2  25
TORSDOF 5
ENDMDL
MODEL 2
REMARK VINA RESULT: -3.742527861      3.050      5.094
REMARK  5 active torsions:
REMARK  status: ('A' for Active; 'I' for Inactive)
REMARK    1  A    between atoms: N1_2  and  C3_4 
REMARK    2  A    between atoms: C3_4  and  O1_5 
REMARK    3  A    between atoms: C3_4  and  C4_7 
REMARK    4  A    between atoms: C4_7  and  C5_8 
REMARK       I    between atoms: N2_11  and  C8_12 
REMARK    5  A    between atoms: C10_16  and  C12_18 
ROOT
HETATM    1  C4  UNL     1      -6.643 -44.879  -1.484  1.00  0.00     0.107 C 
HETATM    2  C10 UNL     1      -5.308 -45.452  -1.955  1.00  0.00    -0.004 C 
HETATM    3  C11 UNL     1      -5.077 -45.405  -3.441  1.00  0.00     0.021 C 
HETATM    4  C14 UNL     1      -5.181 -46.933  -1.633  1.00  0.00     0.016 C 
HETATM    5  C15 UNL     1      -6.268 -47.790  -2.168  1.00  0.00     0.023 C 
HETATM    6  C16 UNL     1      -7.639 -47.220  -1.861  1.00  0.00     0.131 C 
HETATM    7 BR2  UNL     1      -8.801 -48.068  -3.218  1.00  0.00    -0.085 Br
HETATM    8  C17 UNL     1      -7.690 -45.787  -2.191  1.00  0.00     0.273 C 
HETATM    9  F1  UNL     1      -8.964 -45.325  -2.058  1.00  0.00    -0.204 F 
HETATM   10  F2  UNL     1      -7.532 -45.753  -3.589  1.00  0.00    -0.204 F 
ENDROOT
BRANCH   1  11
HETATM   11  C3  UNL     1      -6.966 -43.567  -2.021  1.00  0.00     0.129 C 
BRANCH  11  12
HETATM   12  N1  UNL     1      -8.081 -42.863  -2.451  1.00  0.00    -0.373 N 
HETATM   13  C1  UNL     1      -8.371 -42.428  -3.768  1.00  0.00     0.150 C 
HETATM   14  C2  UNL     1      -9.175 -42.454  -1.510  1.00  0.00     0.150 C 
ENDBRANCH  11  12
BRANCH  11  15
HETATM   15  O1  UNL     1      -5.948 -42.712  -2.183  1.00  0.00    -0.349 OA
ATOM     16  H1  UNL     1      -5.245 -43.245  -2.535  1.00  0.00     0.219 HD
ENDBRANCH  11  15
ENDBRANCH   1  11
BRANCH   1  17
HETATM   17  C5  UNL     1      -6.827 -45.171  -0.047  1.00  0.00     0.029 C 
HETATM   18  C6  UNL     1      -6.957 -44.098   0.930  1.00  0.00     0.027 C 
HETATM   19  C7  UNL     1      -7.453 -44.933   2.150  1.00  0.00     0.127 C 
HETATM   20  N2  UNL     1      -6.288 -45.821   2.113  1.00  0.00    -0.336 N 
HETATM   21  C8  UNL     1      -5.539 -46.181   3.241  1.00  0.00     0.330 C 
HETATM   22  C9  UNL     1      -6.117 -46.209   0.690  1.00  0.00     0.133 C 
HETATM   23  N3  UNL     1      -4.411 -47.064   3.069  1.00  0.00    -0.040 NA
HETATM   24  O2  UNL     1      -5.823 -45.761   4.368  1.00  0.00    -0.251 OA
ENDBRANCH   1  17
BRANCH   2  25
HETATM   25  C12 UNL     1      -4.118 -44.767  -1.381  1.00  0.00    -0.009 C 
HETATM   26  C13 UNL     1      -3.341 -45.321  -0.459  1.00  0.00     0.052 C 
HETATM   27 BR1  UNL     1      -1.815 -44.478   0.299  1.00  0.00    -0.064 Br
ENDBRANCH   2  25
TORSDOF 5
ENDMDL
MODEL 3
REMARK VINA RESULT: -3.692917272      3.722      6.087
REMARK  5 active torsions:
REMARK  status: ('A' for Active; 'I' for Inactive)
REMARK    1  A    between atoms: N1_2  and  C3_4 
REMARK    2  A    between atoms: C3_4  and  O1_5 
REMARK    3  A    between atoms: C3_4  and  C4_7 
REMARK    4  A    between atoms: C4_7  and  C5_8 
REMARK       I    between atoms: N2_11  and  C8_12 
REMARK    5  A    between atoms: C10_16  and  C12_18 
ROOT
HETATM    1  C4  UNL     1      -4.341 -45.718   0.024  1.00  0.00     0.107 C 
HETATM    2  C10 UNL     1      -4.716 -46.490  -1.240  1.00  0.00    -0.004 C 
HETATM    3  C11 UNL     1      -4.832 -45.659  -2.489  1.00  0.00     0.021 C 
HETATM    4  C14 UNL     1      -6.089 -47.134  -1.125  1.00  0.00     0.016 C 
HETATM    5  C15 UNL     1      -7.198 -46.202  -0.805  1.00  0.00     0.023 C 
HETATM    6  C16 UNL     1      -6.856 -45.297   0.363  1.00  0.00     0.131 C 
HETATM    7 BR2  UNL     1      -8.084 -43.766   0.128  1.00  0.00    -0.085 Br
HETATM    8  C17 UNL     1      -5.517 -44.713   0.189  1.00  0.00     0.273 C 
HETATM    9  F1  UNL     1      -5.285 -43.787   1.160  1.00  0.00    -0.204 F 
HETATM   10  F2  UNL     1      -5.647 -43.891  -0.946  1.00  0.00    -0.204 F 
ENDROOT
BRANCH   1  11
HETATM   11  C3  UNL     1      -3.199 -44.830  -0.120  1.00  0.00     0.129 C 
BRANCH  11  12
HETATM   12  N1  UNL     1      -1.910 -44.702   0.376  1.00  0.00    -0.373 N 
HETATM   13  C1  UNL     1      -1.052 -45.736   0.826  1.00  0.00     0.150 C 
HETATM   14  C2  UNL     1      -1.236 -43.368   0.499  1.00  0.00     0.150 C 
ENDBRANCH  11  12
BRANCH  11  15
HETATM   15  O1  UNL     1      -3.337 -43.800  -0.964  1.00  0.00    -0.349 OA
ATOM     16  H1  UNL     1      -3.213 -43.030  -0.420  1.00  0.00     0.219 HD
ENDBRANCH  11  15
ENDBRANCH   1  11
BRANCH   1  17
HETATM   17  C5  UNL     1      -4.462 -46.607   1.200  1.00  0.00     0.029 C 
HETATM   18  C6  UNL     1      -5.356 -46.280   2.303  1.00  0.00     0.027 C 
HETATM   19  C7  UNL     1      -5.345 -47.652   3.044  1.00  0.00     0.127 C 
HETATM   20  N2  UNL     1      -3.887 -47.648   3.191  1.00  0.00    -0.336 N 
HETATM   21  C8  UNL     1      -3.216 -47.950   4.383  1.00  0.00     0.330 C 
HETATM   22  C9  UNL     1      -3.345 -47.272   1.860  1.00  0.00     0.133 C 
HETATM   23  N3  UNL     1      -1.775 -47.910   4.395  1.00  0.00    -0.040 NA
HETATM   24  O2  UNL     1      -3.831 -48.247   5.413  1.00  0.00    -0.251 OA
ENDBRANCH   1  17
BRANCH   2  25
HETATM   25  C12 UNL     1      -3.749 -47.561  -1.605  1.00  0.00    -0.009 C 
HETATM   26  C13 UNL     1      -3.111 -47.592  -2.768  1.00  0.00     0.052 C 
HETATM   27 BR1  UNL     1      -1.872 -48.941  -3.272  1.00  0.00    -0.064 Br
ENDBRANCH   2  25
TORSDOF 5
ENDMDL
MODEL 4
REMARK VINA RESULT: -3.539455302      3.287      5.333
REMARK  5 active torsions:
REMARK  status: ('A' for Active; 'I' for Inactive)
REMARK    1  A    between atoms: N1_2  and  C3_4 
REMARK    2  A    between atoms: C3_4  and  O1_5 
REMARK    3  A    between atoms: C3_4  and  C4_7 
REMARK    4  A    between atoms: C4_7  and  C5_8 
REMARK       I    between atoms: N2_11  and  C8_12 
REMARK    5  A    between atoms: C10_16  and  C12_18 
ROOT
HETATM    1  C4  UNL     1      -5.907 -45.325  -0.701  1.00  0.00     0.107 C 
HETATM    2  C10 UNL     1      -4.564 -45.293  -1.427  1.00  0.00    -0.004 C 
HETATM    3  C11 UNL     1      -4.621 -44.833  -2.859  1.00  0.00     0.021 C 
HETATM    4  C14 UNL     1      -3.943 -46.677  -1.534  1.00  0.00     0.016 C 
HETATM    5  C15 UNL     1      -4.797 -47.703  -2.182  1.00  0.00     0.023 C 
HETATM    6  C16 UNL     1      -6.201 -47.713  -1.609  1.00  0.00     0.131 C 
HETATM    7 BR2  UNL     1      -7.270 -48.569  -3.036  1.00  0.00    -0.085 Br
HETATM    8  C17 UNL     1      -6.737 -46.346  -1.531  1.00  0.00     0.273 C 
HETATM    9  F1  UNL     1      -8.048 -46.381  -1.163  1.00  0.00    -0.204 F 
HETATM   10  F2  UNL     1      -6.843 -45.942  -2.875  1.00  0.00    -0.204 F 
ENDROOT
BRANCH   1  11
HETATM   11  C3  UNL     1      -6.699 -44.112  -0.829  1.00  0.00     0.129 C 
BRANCH  11  12
HETATM   12  N1  UNL     1      -8.025 -43.719  -0.733  1.00  0.00    -0.373 N 
HETATM   13  C1  UNL     1      -8.804 -43.592   0.444  1.00  0.00     0.150 C 
HETATM   14  C2  UNL     1      -8.837 -43.360  -1.942  1.00  0.00     0.150 C 
ENDBRANCH  11  12
BRANCH  11  15
HETATM   15  O1  UNL     1      -6.037 -42.986  -1.125  1.00  0.00    -0.349 OA
ATOM     16  H1  UNL     1      -5.597 -42.750  -0.316  1.00  0.00     0.219 HD
ENDBRANCH  11  15
ENDBRANCH   1  11
BRANCH   1  17
HETATM   17  C5  UNL     1      -5.742 -45.982   0.614  1.00  0.00     0.029 C 
HETATM   18  C6  UNL     1      -6.419 -45.474   1.800  1.00  0.00     0.027 C 
HETATM   19  C7  UNL     1      -6.182 -46.684   2.756  1.00  0.00     0.127 C 
HETATM   20  N2  UNL     1      -4.726 -46.622   2.598  1.00  0.00    -0.336 N 
HETATM   21  C8  UNL     1      -3.817 -46.682   3.663  1.00  0.00     0.330 C 
HETATM   22  C9  UNL     1      -4.480 -46.488   1.139  1.00  0.00     0.133 C 
HETATM   23  N3  UNL     1      -2.406 -46.610   3.372  1.00  0.00    -0.040 NA
HETATM   24  O2  UNL     1      -4.198 -46.796   4.833  1.00  0.00    -0.251 OA
ENDBRANCH   1  17
BRANCH   2  25
HETATM   25  C12 UNL     1      -3.555 -44.398  -0.798  1.00  0.00    -0.009 C 
HETATM   26  C13 UNL     1      -2.410 -44.841  -0.296  1.00  0.00     0.052 C 
HETATM   27 BR1  UNL     1      -1.098 -43.731   0.516  1.00  0.00    -0.064 Br
ENDBRANCH   2  25
TORSDOF 5
ENDMDL
MODEL 5
REMARK VINA RESULT: -3.094893170      3.241      5.682
REMARK  5 active torsions:
REMARK  status: ('A' for Active; 'I' for Inactive)
REMARK    1  A    between atoms: N1_2  and  C3_4 
REMARK    2  A    between atoms: C3_4  and  O1_5 
REMARK    3  A    between atoms: C3_4  and  C4_7 
REMARK    4  A    between atoms: C4_7  and  C5_8 
REMARK       I    between atoms: N2_11  and  C8_12 
REMARK    5  A    between atoms: C10_16  and  C12_18 
ROOT
HETATM    1  C4  UNL     1      -5.157 -45.951  -1.479  1.00  0.00     0.107 C 
HETATM    2  C10 UNL     1      -4.265 -46.901  -2.276  1.00  0.00    -0.004 C 
HETATM    3  C11 UNL     1      -4.278 -46.693  -3.767  1.00  0.00     0.021 C 
HETATM    4  C14 UNL     1      -4.702 -48.349  -2.126  1.00  0.00     0.016 C 
HETATM    5  C15 UNL     1      -6.113 -48.624  -2.490  1.00  0.00     0.023 C 
HETATM    6  C16 UNL     1      -7.065 -47.636  -1.844  1.00  0.00     0.131 C 
HETATM    7 BR2  UNL     1      -8.673 -47.735  -2.991  1.00  0.00    -0.085 Br
HETATM    8  C17 UNL     1      -6.581 -46.259  -2.023  1.00  0.00     0.273 C 
HETATM    9  F1  UNL     1      -7.518 -45.376  -1.577  1.00  0.00    -0.204 F 
HETATM   10  F2  UNL     1      -6.651 -46.050  -3.414  1.00  0.00    -0.204 F 
ENDROOT
BRANCH   1  11
HETATM   11  C3  UNL     1      -5.001 -44.544  -1.811  1.00  0.00     0.129 C 
BRANCH  11  12
HETATM   12  N1  UNL     1      -5.725 -43.531  -2.422  1.00  0.00    -0.373 N 
HETATM   13  C1  UNL     1      -5.637 -43.100  -3.768  1.00  0.00     0.150 C 
HETATM   14  C2  UNL     1      -6.748 -42.725  -1.677  1.00  0.00     0.150 C 
ENDBRANCH  11  12
BRANCH  11  15
HETATM   15  O1  UNL     1      -3.846 -43.964  -1.461  1.00  0.00    -0.349 OA
ATOM     16  H1  UNL     1      -3.647 -43.377  -2.182  1.00  0.00     0.219 HD
ENDBRANCH  11  15
ENDBRANCH   1  11
BRANCH   1  17
HETATM   17  C5  UNL     1      -5.210 -46.391  -0.068  1.00  0.00     0.029 C 
HETATM   18  C6  UNL     1      -6.032 -45.689   0.909  1.00  0.00     0.027 C 
HETATM   19  C7  UNL     1      -5.984 -46.733   2.067  1.00  0.00     0.127 C 
HETATM   20  N2  UNL     1      -4.519 -46.720   2.121  1.00  0.00    -0.336 N 
HETATM   21  C8  UNL     1      -3.778 -46.622   3.306  1.00  0.00     0.330 C 
HETATM   22  C9  UNL     1      -4.059 -46.826   0.713  1.00  0.00     0.133 C 
HETATM   23  N3  UNL     1      -2.338 -46.620   3.222  1.00  0.00    -0.040 NA
HETATM   24  O2  UNL     1      -4.329 -46.541   4.409  1.00  0.00    -0.251 OA
ENDBRANCH   1  17
BRANCH   2  25
HETATM   25  C12 UNL     1      -2.824 -46.828  -1.911  1.00  0.00    -0.009 C 
HETATM   26  C13 UNL     1      -1.911 -47.654  -2.407  1.00  0.00     0.052 C 
HETATM   27 BR1  UNL     1      -0.064 -47.594  -1.966  1.00  0.00    -0.064 Br
ENDBRANCH   2  25
TORSDOF 5
ENDMDL
