MODEL 1
REMARK VINA RESULT: -7.540527035      0.000      0.000
REMARK  5 active torsions:
REMARK  status: ('A' for Active; 'I' for Inactive)
REMARK    1  A    between atoms: C7_8  and  C8_9 
REMARK    2  A    between atoms: C8_9  and  O1_10 
REMARK    3  A    between atoms: C8_9  and  N1_12 
REMARK    4  A    between atoms: C10_14  and  C11_15 
REMARK       I    between atoms: C11_15  and  N2_17 
REMARK    5  A    between atoms: N2_17  and  C12_19 
ROOT
HETATM    1  N1  UNL     1      -4.741 -46.539   4.840  1.00  0.00    -0.359 N 
HETATM    2  C9  UNL     1      -4.406 -45.796   3.648  1.00  0.00     0.144 C 
HETATM    3  C10 UNL     1      -3.533 -46.768   2.879  1.00  0.00     0.059 C 
HETATM    4  C13 UNL     1      -2.225 -46.828   3.635  1.00  0.00     0.023 C 
HETATM    5  C14 UNL     1      -2.545 -47.588   4.909  1.00  0.00     0.026 C 
HETATM    6  C15 UNL     1      -4.009 -47.824   4.801  1.00  0.00     0.087 C 
HETATM    7  C16 UNL     1      -4.147 -48.090   3.295  1.00  0.00     0.046 C 
ENDROOT
BRANCH   1   8
HETATM    8  C8  UNL     1      -5.610 -46.157   5.881  1.00  0.00     0.123 C 
BRANCH   8   9
HETATM    9  C7  UNL     1      -5.384 -45.902   7.265  1.00  0.00     0.035 C 
HETATM   10  C2  UNL     1      -5.400 -47.030   8.270  1.00  0.00    -0.015 C 
HETATM   11  C1  UNL     1      -6.796 -47.334   8.761  1.00  0.00     0.018 C 
HETATM   12  C3  UNL     1      -4.620 -48.256   7.962  1.00  0.00     0.018 C 
HETATM   13  C4  UNL     1      -4.653 -46.017   9.151  1.00  0.00     0.027 C 
HETATM   14 BR1  UNL     1      -3.558 -46.623  10.497  1.00  0.00    -0.085 Br
HETATM   15  C5  UNL     1      -5.647 -44.930   9.354  1.00  0.00     0.023 C 
HETATM   16  C17 UNL     1      -4.021 -45.589   7.808  1.00  0.00     0.040 C 
HETATM   17  C6  UNL     1      -6.207 -44.824   7.941  1.00  0.00     0.020 C 
ENDBRANCH   8   9
BRANCH   8  18
HETATM   18  O1  UNL     1      -6.852 -46.010   5.518  1.00  0.00    -0.349 OA
ATOM     19  H1  UNL     1      -7.242 -46.800   5.166  1.00  0.00     0.219 HD
ENDBRANCH   8  18
ENDBRANCH   1   8
BRANCH   3  20
HETATM   20  C11 UNL     1      -3.422 -46.551   1.469  1.00  0.00     0.233 C 
HETATM   21  O2  UNL     1      -2.291 -46.226   0.971  1.00  0.00    -0.272 OA
HETATM   22  N2  UNL     1      -4.498 -46.679   0.589  1.00  0.00    -0.288 N 
ATOM     23  H2  UNL     1      -5.405 -46.939   0.976  1.00  0.00     0.169 HD
BRANCH  22  24
HETATM   24  C12 UNL     1      -4.407 -46.463  -0.851  1.00  0.00     0.384 C 
HETATM   25  F1  UNL     1      -3.630 -47.439  -1.450  1.00  0.00    -0.171 F 
HETATM   26  F2  UNL     1      -3.815 -45.242  -1.146  1.00  0.00    -0.171 F 
HETATM   27 BR2  UNL     1      -6.153 -46.510  -1.667  1.00  0.00     0.016 Br
ENDBRANCH  22  24
ENDBRANCH   3  20
TORSDOF 5
ENDMDL
MODEL 2
REMARK VINA RESULT: -7.528030383      3.679      7.858
REMARK  5 active torsions:
REMARK  status: ('A' for Active; 'I' for Inactive)
REMARK    1  A    between atoms: C7_8  and  C8_9 
REMARK    2  A    between atoms: C8_9  and  O1_10 
REMARK    3  A    between atoms: C8_9  and  N1_12 
REMARK    4  A    between atoms: C10_14  and  C11_15 
REMARK       I    between atoms: C11_15  and  N2_17 
REMARK    5  A    between atoms: N2_17  and  C12_19 
ROOT
HETATM    1  N1  UNL     1      -5.436 -45.551   2.186  1.00  0.00    -0.359 N 
HETATM    2  C9  UNL     1      -5.927 -45.992   3.470  1.00  0.00     0.144 C 
HETATM    3  C10 UNL     1      -4.726 -46.703   4.064  1.00  0.00     0.059 C 
HETATM    4  C13 UNL     1      -4.585 -47.988   3.281  1.00  0.00     0.023 C 
HETATM    5  C14 UNL     1      -4.089 -47.561   1.913  1.00  0.00     0.026 C 
HETATM    6  C15 UNL     1      -4.064 -46.078   2.013  1.00  0.00     0.087 C 
HETATM    7  C16 UNL     1      -3.593 -45.895   3.464  1.00  0.00     0.046 C 
ENDROOT
BRANCH   1   8
HETATM    8  C8  UNL     1      -6.102 -44.755   1.233  1.00  0.00     0.123 C 
BRANCH   8   9
HETATM    9  C7  UNL     1      -6.635 -45.056  -0.054  1.00  0.00     0.035 C 
HETATM   10  C2  UNL     1      -5.818 -44.817  -1.302  1.00  0.00    -0.015 C 
HETATM   11  C1  UNL     1      -5.948 -43.398  -1.804  1.00  0.00     0.018 C 
HETATM   12  C3  UNL     1      -4.418 -45.312  -1.330  1.00  0.00     0.018 C 
HETATM   13  C4  UNL     1      -6.835 -45.781  -1.936  1.00  0.00     0.027 C 
HETATM   14 BR1  UNL     1      -6.360 -46.745  -3.426  1.00  0.00    -0.085 Br
HETATM   15  C5  UNL     1      -8.123 -45.045  -1.832  1.00  0.00     0.023 C 
HETATM   16  C17 UNL     1      -6.776 -46.464  -0.552  1.00  0.00     0.040 C 
HETATM   17  C6  UNL     1      -7.996 -44.495  -0.417  1.00  0.00     0.020 C 
ENDBRANCH   8   9
BRANCH   8  18
HETATM   18  O1  UNL     1      -6.260 -43.512   1.587  1.00  0.00    -0.349 OA
ATOM     19  H1  UNL     1      -5.764 -43.270   2.360  1.00  0.00     0.219 HD
ENDBRANCH   8  18
ENDBRANCH   1   8
BRANCH   3  20
HETATM   20  C11 UNL     1      -4.703 -46.840   5.488  1.00  0.00     0.233 C 
HETATM   21  O2  UNL     1      -4.002 -47.768   6.017  1.00  0.00    -0.272 OA
HETATM   22  N2  UNL     1      -5.416 -46.004   6.349  1.00  0.00    -0.288 N 
ATOM     23  H2  UNL     1      -5.978 -45.260   5.936  1.00  0.00     0.169 HD
BRANCH  22  24
HETATM   24  C12 UNL     1      -5.406 -46.126   7.803  1.00  0.00     0.384 C 
HETATM   25  F1  UNL     1      -4.111 -46.186   8.286  1.00  0.00    -0.171 F 
HETATM   26  F2  UNL     1      -6.044 -47.287   8.220  1.00  0.00    -0.171 F 
HETATM   27 BR2  UNL     1      -6.278 -44.618   8.628  1.00  0.00     0.016 Br
ENDBRANCH  22  24
ENDBRANCH   3  20
TORSDOF 5
ENDMDL
MODEL 3
REMARK VINA RESULT: -7.359376797      3.496      8.122
REMARK  5 active torsions:
REMARK  status: ('A' for Active; 'I' for Inactive)
REMARK    1  A    between atoms: C7_8  and  C8_9 
REMARK    2  A    between atoms: C8_9  and  O1_10 
REMARK    3  A    between atoms: C8_9  and  N1_12 
REMARK    4  A    between atoms: C10_14  and  C11_15 
REMARK       I    between atoms: C11_15  and  N2_17 
REMARK    5  A    between atoms: N2_17  and  C12_19 
ROOT
HETATM    1  N1  UNL     1      -4.655 -45.534   1.965  1.00  0.00    -0.359 N 
HETATM    2  C9  UNL     1      -5.664 -44.854   2.743  1.00  0.00     0.144 C 
HETATM    3  C10 UNL     1      -5.617 -45.587   4.069  1.00  0.00     0.059 C 
HETATM    4  C13 UNL     1      -6.230 -46.944   3.807  1.00  0.00     0.023 C 
HETATM    5  C14 UNL     1      -5.202 -47.683   2.971  1.00  0.00     0.026 C 
HETATM    6  C15 UNL     1      -4.138 -46.663   2.769  1.00  0.00     0.087 C 
HETATM    7  C16 UNL     1      -4.150 -45.961   4.135  1.00  0.00     0.046 C 
ENDROOT
BRANCH   1   8
HETATM    8  C8  UNL     1      -4.201 -45.214   0.670  1.00  0.00     0.123 C 
BRANCH   8   9
HETATM    9  C7  UNL     1      -4.735 -45.491  -0.622  1.00  0.00     0.035 C 
HETATM   10  C2  UNL     1      -6.166 -45.142  -0.957  1.00  0.00    -0.015 C 
HETATM   11  C1  UNL     1      -7.129 -46.232  -0.548  1.00  0.00     0.018 C 
HETATM   12  C3  UNL     1      -6.656 -43.783  -0.610  1.00  0.00     0.018 C 
HETATM   13  C4  UNL     1      -5.672 -45.279  -2.406  1.00  0.00     0.027 C 
HETATM   14 BR1  UNL     1      -6.550 -44.382  -3.749  1.00  0.00    -0.085 Br
HETATM   15  C5  UNL     1      -5.296 -46.714  -2.511  1.00  0.00     0.023 C 
HETATM   16  C17 UNL     1      -4.373 -44.677  -1.828  1.00  0.00     0.040 C 
HETATM   17  C6  UNL     1      -4.582 -46.894  -1.177  1.00  0.00     0.020 C 
ENDBRANCH   8   9
BRANCH   8  18
HETATM   18  O1  UNL     1      -3.085 -44.544   0.641  1.00  0.00    -0.349 OA
ATOM     19  H1  UNL     1      -2.386 -44.946   1.143  1.00  0.00     0.219 HD
ENDBRANCH   8  18
ENDBRANCH   1   8
BRANCH   3  20
HETATM   20  C11 UNL     1      -6.131 -44.887   5.206  1.00  0.00     0.233 C 
HETATM   21  O2  UNL     1      -7.183 -44.172   5.080  1.00  0.00    -0.272 OA
HETATM   22  N2  UNL     1      -5.539 -44.940   6.469  1.00  0.00    -0.288 N 
ATOM     23  H2  UNL     1      -4.699 -45.509   6.580  1.00  0.00     0.169 HD
BRANCH  22  24
HETATM   24  C12 UNL     1      -6.045 -44.235   7.641  1.00  0.00     0.384 C 
HETATM   25  F1  UNL     1      -7.424 -44.320   7.713  1.00  0.00    -0.171 F 
HETATM   26  F2  UNL     1      -5.728 -42.883   7.597  1.00  0.00    -0.171 F 
HETATM   27 BR2  UNL     1      -5.319 -44.982   9.263  1.00  0.00     0.016 Br
ENDBRANCH  22  24
ENDBRANCH   3  20
TORSDOF 5
ENDMDL
MODEL 4
REMARK VINA RESULT: -7.231531539      3.453      7.954
REMARK  5 active torsions:
REMARK  status: ('A' for Active; 'I' for Inactive)
REMARK    1  A    between atoms: C7_8  and  C8_9 
REMARK    2  A    between atoms: C8_9  and  O1_10 
REMARK    3  A    between atoms: C8_9  and  N1_12 
REMARK    4  A    between atoms: C10_14  and  C11_15 
REMARK       I    between atoms: C11_15  and  N2_17 
REMARK    5  A    between atoms: N2_17  and  C12_19 
ROOT
HETATM    1  N1  UNL     1      -4.768 -45.704   2.045  1.00  0.00    -0.359 N 
HETATM    2  C9  UNL     1      -5.670 -45.659   3.171  1.00  0.00     0.144 C 
HETATM    3  C10 UNL     1      -4.903 -46.401   4.248  1.00  0.00     0.059 C 
HETATM    4  C13 UNL     1      -4.926 -47.855   3.837  1.00  0.00     0.023 C 
HETATM    5  C14 UNL     1      -4.001 -47.938   2.638  1.00  0.00     0.026 C 
HETATM    6  C15 UNL     1      -3.596 -46.522   2.427  1.00  0.00     0.087 C 
HETATM    7  C16 UNL     1      -3.477 -46.039   3.881  1.00  0.00     0.046 C 
ENDROOT
BRANCH   1   8
HETATM    8  C8  UNL     1      -4.925 -45.091   0.786  1.00  0.00     0.123 C 
BRANCH   8   9
HETATM    9  C7  UNL     1      -6.052 -44.962  -0.076  1.00  0.00     0.035 C 
HETATM   10  C2  UNL     1      -5.890 -45.044  -1.576  1.00  0.00    -0.015 C 
HETATM   11  C1  UNL     1      -5.527 -43.709  -2.183  1.00  0.00     0.018 C 
HETATM   12  C3  UNL     1      -5.092 -46.165  -2.134  1.00  0.00     0.018 C 
HETATM   13  C4  UNL     1      -7.404 -45.307  -1.545  1.00  0.00     0.027 C 
HETATM   14 BR1  UNL     1      -8.188 -46.233  -2.926  1.00  0.00    -0.085 Br
HETATM   15  C5  UNL     1      -7.967 -44.041  -1.006  1.00  0.00     0.023 C 
HETATM   16  C17 UNL     1      -7.063 -46.057  -0.239  1.00  0.00     0.040 C 
HETATM   17  C6  UNL     1      -6.965 -43.765   0.108  1.00  0.00     0.020 C 
ENDBRANCH   8   9
BRANCH   8  18
HETATM   18  O1  UNL     1      -3.842 -44.540   0.318  1.00  0.00    -0.349 OA
ATOM     19  H1  UNL     1      -3.899 -43.595   0.238  1.00  0.00     0.219 HD
ENDBRANCH   8  18
ENDBRANCH   1   8
BRANCH   3  20
HETATM   20  C11 UNL     1      -5.281 -46.135   5.602  1.00  0.00     0.233 C 
HETATM   21  O2  UNL     1      -6.292 -45.389   5.836  1.00  0.00    -0.272 OA
HETATM   22  N2  UNL     1      -4.597 -46.654   6.703  1.00  0.00    -0.288 N 
ATOM     23  H2  UNL     1      -3.789 -47.251   6.527  1.00  0.00     0.169 HD
BRANCH  22  24
HETATM   24  C12 UNL     1      -4.965 -46.395   8.091  1.00  0.00     0.384 C 
HETATM   25  F1  UNL     1      -6.152 -47.029   8.415  1.00  0.00    -0.171 F 
HETATM   26  F2  UNL     1      -5.158 -45.040   8.322  1.00  0.00    -0.171 F 
HETATM   27 BR2  UNL     1      -3.603 -47.035   9.296  1.00  0.00     0.016 Br
ENDBRANCH  22  24
ENDBRANCH   3  20
TORSDOF 5
ENDMDL
MODEL 5
REMARK VINA RESULT: -7.201913404      3.611      7.851
REMARK  5 active torsions:
REMARK  status: ('A' for Active; 'I' for Inactive)
REMARK    1  A    between atoms: C7_8  and  C8_9 
REMARK    2  A    between atoms: C8_9  and  O1_10 
REMARK    3  A    between atoms: C8_9  and  N1_12 
REMARK    4  A    between atoms: C10_14  and  C11_15 
REMARK       I    between atoms: C11_15  and  N2_17 
REMARK    5  A    between atoms: N2_17  and  C12_19 
ROOT
HETATM    1  N1  UNL     1      -4.693 -45.703   1.977  1.00  0.00    -0.359 N 
HETATM    2  C9  UNL     1      -5.525 -45.572   3.150  1.00  0.00     0.144 C 
HETATM    3  C10 UNL     1      -4.754 -46.350   4.198  1.00  0.00     0.059 C 
HETATM    4  C13 UNL     1      -4.905 -47.806   3.819  1.00  0.00     0.023 C 
HETATM    5  C14 UNL     1      -4.058 -47.976   2.573  1.00  0.00     0.026 C 
HETATM    6  C15 UNL     1      -3.564 -46.598   2.311  1.00  0.00     0.087 C 
HETATM    7  C16 UNL     1      -3.328 -46.100   3.745  1.00  0.00     0.046 C 
ENDROOT
BRANCH   1   8
HETATM    8  C8  UNL     1      -4.876 -45.100   0.716  1.00  0.00     0.123 C 
BRANCH   8   9
HETATM    9  C7  UNL     1      -6.023 -44.965  -0.117  1.00  0.00     0.035 C 
HETATM   10  C2  UNL     1      -5.898 -45.030  -1.621  1.00  0.00    -0.015 C 
HETATM   11  C1  UNL     1      -5.554 -43.687  -2.222  1.00  0.00     0.018 C 
HETATM   12  C3  UNL     1      -5.111 -46.142  -2.212  1.00  0.00     0.018 C 
HETATM   13  C4  UNL     1      -7.410 -45.298  -1.557  1.00  0.00     0.027 C 
HETATM   14 BR1  UNL     1      -8.226 -46.210  -2.928  1.00  0.00    -0.085 Br
HETATM   15  C5  UNL     1      -7.963 -44.039  -0.989  1.00  0.00     0.023 C 
HETATM   16  C17 UNL     1      -7.036 -46.061  -0.268  1.00  0.00     0.040 C 
HETATM   17  C6  UNL     1      -6.935 -43.773   0.103  1.00  0.00     0.020 C 
ENDBRANCH   8   9
BRANCH   8  18
HETATM   18  O1  UNL     1      -3.798 -44.570   0.213  1.00  0.00    -0.349 OA
ATOM     19  H1  UNL     1      -3.579 -44.899  -0.651  1.00  0.00     0.219 HD
ENDBRANCH   8  18
ENDBRANCH   1   8
BRANCH   3  20
HETATM   20  C11 UNL     1      -5.034 -46.034   5.565  1.00  0.00     0.233 C 
HETATM   21  O2  UNL     1      -4.609 -46.810   6.488  1.00  0.00    -0.272 OA
HETATM   22  N2  UNL     1      -5.758 -44.907   5.957  1.00  0.00    -0.288 N 
ATOM     23  H2  UNL     1      -6.101 -44.282   5.228  1.00  0.00     0.169 HD
BRANCH  22  24
HETATM   24  C12 UNL     1      -6.055 -44.567   7.344  1.00  0.00     0.384 C 
HETATM   25  F1  UNL     1      -4.892 -44.360   8.063  1.00  0.00    -0.171 F 
HETATM   26  F2  UNL     1      -6.745 -45.589   7.982  1.00  0.00    -0.171 F 
HETATM   27 BR2  UNL     1      -7.112 -42.958   7.448  1.00  0.00     0.016 Br
ENDBRANCH  22  24
ENDBRANCH   3  20
TORSDOF 5
ENDMDL
