MODEL 1
REMARK VINA RESULT: -5.777259393      0.000      0.000
REMARK  6 active torsions:
REMARK  status: ('A' for Active; 'I' for Inactive)
REMARK    1  A    between atoms: C2_2  and  C4_5 
REMARK       I    between atoms: C4_5  and  N1_7 
REMARK    2  A    between atoms: C5_9  and  C6_10 
REMARK    3  A    between atoms: C5_9  and  N3_25 
REMARK    4  A    between atoms: C6_10  and  N2_11 
REMARK    5  A    between atoms: C6_10  and  C14_21 
REMARK       I    between atoms: N2_11  and  C7_13 
REMARK    6  A    between atoms: C7_13  and  C8_15 
ROOT
HETATM    1  C4  UNL     1      -6.629 -46.751  -1.644  1.00  0.00     0.246 C 
HETATM    2  O1  UNL     1      -7.756 -47.220  -1.312  1.00  0.00    -0.271 OA
HETATM    3  N1  UNL     1      -5.664 -46.390  -0.731  1.00  0.00    -0.313 N 
ATOM      4  H1  UNL     1      -4.731 -46.711  -0.988  1.00  0.00     0.170 HD
HETATM    5  C5  UNL     1      -5.682 -45.738   0.373  1.00  0.00     0.109 C 
ENDROOT
BRANCH   5   6
HETATM    6  C6  UNL     1      -6.918 -45.196   0.912  1.00  0.00     0.206 C 
BRANCH   6   7
HETATM    7  N2  UNL     1      -6.774 -44.763   2.285  1.00  0.00    -0.341 N 
HETATM    8  C7  UNL     1      -6.623 -45.635   3.388  1.00  0.00     0.252 C 
HETATM    9  O2  UNL     1      -6.618 -46.867   3.163  1.00  0.00    -0.268 OA
ATOM     10  H2  UNL     1      -6.782 -43.759   2.469  1.00  0.00     0.163 HD
BRANCH   8  11
HETATM   11  C8  UNL     1      -6.472 -45.203   4.763  1.00  0.00     0.032 A 
HETATM   12  C9  UNL     1      -5.756 -45.948   5.678  1.00  0.00     0.017 A 
HETATM   13  C10 UNL     1      -5.611 -45.537   6.997  1.00  0.00     0.001 A 
HETATM   14  C11 UNL     1      -6.176 -44.369   7.442  1.00  0.00     0.000 A 
HETATM   15  C12 UNL     1      -6.894 -43.613   6.537  1.00  0.00     0.001 A 
HETATM   16  C13 UNL     1      -7.027 -44.034   5.244  1.00  0.00     0.017 A 
ENDBRANCH   8  11
ENDBRANCH   6   7
BRANCH   6  17
HETATM   17  C14 UNL     1      -7.508 -44.078   0.061  1.00  0.00     0.215 C 
HETATM   18 CL2  UNL     1      -6.271 -43.495  -1.083  1.00  0.00    -0.081 Cl
HETATM   19 CL3  UNL     1      -7.952 -42.728   1.114  1.00  0.00    -0.081 Cl
HETATM   20 CL4  UNL     1      -8.910 -44.561  -0.871  1.00  0.00    -0.081 Cl
ENDBRANCH   6  17
ENDBRANCH   5   6
BRANCH   5  21
HETATM   21  N3  UNL     1      -4.379 -45.630   0.974  1.00  0.00    -0.366 N 
HETATM   22  C15 UNL     1      -3.601 -44.409   0.971  1.00  0.00     0.152 C 
HETATM   23  C16 UNL     1      -2.385 -44.712   0.073  1.00  0.00     0.256 C 
HETATM   24  N4  UNL     1      -1.766 -45.971   0.426  1.00  0.00    -0.072 N 
HETATM   25  C17 UNL     1      -0.323 -45.681   0.588  1.00  0.00     0.272 C 
HETATM   26  C18 UNL     1      -1.852 -46.870  -0.699  1.00  0.00     0.272 C 
HETATM   27  C19 UNL     1      -2.243 -46.557   1.637  1.00  0.00     0.256 C 
HETATM   28  C20 UNL     1      -3.768 -46.767   1.591  1.00  0.00     0.152 C 
ENDBRANCH   5  21
BRANCH   1  29
HETATM   29  C2  UNL     1      -6.421 -46.620  -3.136  1.00  0.00     0.111 C 
HETATM   30  C1  UNL     1      -7.613 -45.964  -3.768  1.00  0.00     0.042 C 
HETATM   31  C3  UNL     1      -6.261 -48.007  -3.732  1.00  0.00     0.042 C 
HETATM   32 CL1  UNL     1      -4.975 -45.707  -3.542  1.00  0.00    -0.110 Cl
ENDBRANCH   1  29
TORSDOF 6
ENDMDL
MODEL 2
REMARK VINA RESULT: -5.064695226      2.613      5.992
REMARK  6 active torsions:
REMARK  status: ('A' for Active; 'I' for Inactive)
REMARK    1  A    between atoms: C2_2  and  C4_5 
REMARK       I    between atoms: C4_5  and  N1_7 
REMARK    2  A    between atoms: C5_9  and  C6_10 
REMARK    3  A    between atoms: C5_9  and  N3_25 
REMARK    4  A    between atoms: C6_10  and  N2_11 
REMARK    5  A    between atoms: C6_10  and  C14_21 
REMARK       I    between atoms: N2_11  and  C7_13 
REMARK    6  A    between atoms: C7_13  and  C8_15 
ROOT
HETATM    1  C4  UNL     1      -6.354 -44.004   2.787  1.00  0.00     0.246 C 
HETATM    2  O1  UNL     1      -6.456 -43.163   1.848  1.00  0.00    -0.271 OA
HETATM    3  N1  UNL     1      -5.377 -44.974   2.828  1.00  0.00    -0.313 N 
ATOM      4  H1  UNL     1      -4.944 -45.066   3.748  1.00  0.00     0.170 HD
HETATM    5  C5  UNL     1      -4.892 -45.786   1.963  1.00  0.00     0.109 C 
ENDROOT
BRANCH   5   6
HETATM    6  C6  UNL     1      -5.375 -45.810   0.593  1.00  0.00     0.206 C 
BRANCH   6   7
HETATM    7  N2  UNL     1      -6.480 -44.900   0.385  1.00  0.00    -0.341 N 
HETATM    8  C7  UNL     1      -7.558 -45.138  -0.500  1.00  0.00     0.252 C 
HETATM    9  O2  UNL     1      -7.554 -46.208  -1.152  1.00  0.00    -0.268 OA
ATOM     10  H2  UNL     1      -6.482 -44.027   0.913  1.00  0.00     0.163 HD
BRANCH   8  11
HETATM   11  C8  UNL     1      -8.669 -44.231  -0.705  1.00  0.00     0.032 A 
HETATM   12  C9  UNL     1      -8.927 -43.675  -1.941  1.00  0.00     0.017 A 
HETATM   13  C10 UNL     1      -9.992 -42.804  -2.141  1.00  0.00     0.001 A 
HETATM   14  C11 UNL     1     -10.831 -42.464  -1.111  1.00  0.00     0.000 A 
HETATM   15  C12 UNL     1     -10.586 -43.013   0.132  1.00  0.00     0.001 A 
HETATM   16  C13 UNL     1      -9.534 -43.867   0.309  1.00  0.00     0.017 A 
ENDBRANCH   8  11
ENDBRANCH   6   7
BRANCH   6  17
HETATM   17  C14 UNL     1      -4.280 -45.560  -0.438  1.00  0.00     0.215 C 
HETATM   18 CL2  UNL     1      -4.894 -44.446  -1.687  1.00  0.00    -0.081 Cl
HETATM   19 CL3  UNL     1      -3.876 -47.091  -1.228  1.00  0.00    -0.081 Cl
HETATM   20 CL4  UNL     1      -2.822 -44.860   0.232  1.00  0.00    -0.081 Cl
ENDBRANCH   6  17
ENDBRANCH   5   6
BRANCH   5  21
HETATM   21  N3  UNL     1      -3.853 -46.620   2.507  1.00  0.00    -0.366 N 
HETATM   22  C15 UNL     1      -3.839 -48.061   2.374  1.00  0.00     0.152 C 
HETATM   23  C16 UNL     1      -4.045 -48.597   3.805  1.00  0.00     0.256 C 
HETATM   24  N4  UNL     1      -3.164 -47.942   4.748  1.00  0.00    -0.072 N 
HETATM   25  C17 UNL     1      -2.496 -49.029   5.499  1.00  0.00     0.272 C 
HETATM   26  C18 UNL     1      -3.958 -47.234   5.722  1.00  0.00     0.272 C 
HETATM   27  C19 UNL     1      -2.155 -47.122   4.158  1.00  0.00     0.256 C 
HETATM   28  C20 UNL     1      -2.775 -46.043   3.251  1.00  0.00     0.152 C 
ENDBRANCH   5  21
BRANCH   1  29
HETATM   29  C2  UNL     1      -7.394 -43.857   3.875  1.00  0.00     0.111 C 
HETATM   30  C1  UNL     1      -7.370 -45.056   4.777  1.00  0.00     0.042 C 
HETATM   31  C3  UNL     1      -8.765 -43.763   3.233  1.00  0.00     0.042 C 
HETATM   32 CL1  UNL     1      -7.168 -42.404   4.838  1.00  0.00    -0.110 Cl
ENDBRANCH   1  29
TORSDOF 6
ENDMDL
MODEL 3
REMARK VINA RESULT: -4.480916561      1.383      2.307
REMARK  6 active torsions:
REMARK  status: ('A' for Active; 'I' for Inactive)
REMARK    1  A    between atoms: C2_2  and  C4_5 
REMARK       I    between atoms: C4_5  and  N1_7 
REMARK    2  A    between atoms: C5_9  and  C6_10 
REMARK    3  A    between atoms: C5_9  and  N3_25 
REMARK    4  A    between atoms: C6_10  and  N2_11 
REMARK    5  A    between atoms: C6_10  and  C14_21 
REMARK       I    between atoms: N2_11  and  C7_13 
REMARK    6  A    between atoms: C7_13  and  C8_15 
ROOT
HETATM    1  C4  UNL     1      -7.218 -46.710  -1.663  1.00  0.00     0.246 C 
HETATM    2  O1  UNL     1      -8.404 -46.884  -1.259  1.00  0.00    -0.271 OA
HETATM    3  N1  UNL     1      -6.140 -46.600  -0.813  1.00  0.00    -0.313 N 
ATOM      4  H1  UNL     1      -5.333 -47.144  -1.120  1.00  0.00     0.170 HD
HETATM    5  C5  UNL     1      -5.929 -45.963   0.279  1.00  0.00     0.109 C 
ENDROOT
BRANCH   5   6
HETATM    6  C6  UNL     1      -6.956 -45.131   0.881  1.00  0.00     0.206 C 
BRANCH   6   7
HETATM    7  N2  UNL     1      -6.647 -44.781   2.250  1.00  0.00    -0.341 N 
HETATM    8  C7  UNL     1      -7.593 -44.304   3.188  1.00  0.00     0.252 C 
HETATM    9  O2  UNL     1      -8.779 -44.169   2.806  1.00  0.00    -0.268 OA
ATOM     10  H2  UNL     1      -5.682 -44.887   2.561  1.00  0.00     0.163 HD
BRANCH   8  11
HETATM   11  C8  UNL     1      -7.287 -43.959   4.562  1.00  0.00     0.032 A 
HETATM   12  C9  UNL     1      -7.452 -42.674   5.036  1.00  0.00     0.017 A 
HETATM   13  C10 UNL     1      -7.159 -42.340   6.353  1.00  0.00     0.001 A 
HETATM   14  C11 UNL     1      -6.693 -43.282   7.235  1.00  0.00     0.000 A 
HETATM   15  C12 UNL     1      -6.524 -44.572   6.775  1.00  0.00     0.001 A 
HETATM   16  C13 UNL     1      -6.817 -44.881   5.476  1.00  0.00     0.017 A 
ENDBRANCH   8  11
ENDBRANCH   6   7
BRANCH   6  17
HETATM   17  C14 UNL     1      -7.270 -43.878   0.071  1.00  0.00     0.215 C 
HETATM   18 CL2  UNL     1      -7.273 -42.464   1.156  1.00  0.00    -0.081 Cl
HETATM   19 CL3  UNL     1      -8.889 -44.034  -0.624  1.00  0.00    -0.081 Cl
HETATM   20 CL4  UNL     1      -6.124 -43.561  -1.215  1.00  0.00    -0.081 Cl
ENDBRANCH   6  17
ENDBRANCH   5   6
BRANCH   5  21
HETATM   21  N3  UNL     1      -4.606 -46.183   0.801  1.00  0.00    -0.366 N 
HETATM   22  C15 UNL     1      -4.031 -47.498   0.981  1.00  0.00     0.152 C 
HETATM   23  C16 UNL     1      -3.896 -47.672   2.506  1.00  0.00     0.256 C 
HETATM   24  N4  UNL     1      -3.279 -46.515   3.119  1.00  0.00    -0.072 N 
HETATM   25  C17 UNL     1      -2.179 -47.041   3.959  1.00  0.00     0.272 C 
HETATM   26  C18 UNL     1      -4.212 -45.916   4.041  1.00  0.00     0.272 C 
HETATM   27  C19 UNL     1      -2.727 -45.571   2.201  1.00  0.00     0.256 C 
HETATM   28  C20 UNL     1      -3.792 -45.077   1.204  1.00  0.00     0.152 C 
ENDBRANCH   5  21
BRANCH   1  29
HETATM   29  C2  UNL     1      -7.074 -46.636  -3.167  1.00  0.00     0.111 C 
HETATM   30  C1  UNL     1      -8.128 -45.736  -3.742  1.00  0.00     0.042 C 
HETATM   31  C3  UNL     1      -7.258 -48.027  -3.746  1.00  0.00     0.042 C 
HETATM   32 CL1  UNL     1      -5.489 -46.066  -3.670  1.00  0.00    -0.110 Cl
ENDBRANCH   1  29
TORSDOF 6
ENDMDL
MODEL 4
REMARK VINA RESULT: -4.426788154      2.699      6.137
REMARK  6 active torsions:
REMARK  status: ('A' for Active; 'I' for Inactive)
REMARK    1  A    between atoms: C2_2  and  C4_5 
REMARK       I    between atoms: C4_5  and  N1_7 
REMARK    2  A    between atoms: C5_9  and  C6_10 
REMARK    3  A    between atoms: C5_9  and  N3_25 
REMARK    4  A    between atoms: C6_10  and  N2_11 
REMARK    5  A    between atoms: C6_10  and  C14_21 
REMARK       I    between atoms: N2_11  and  C7_13 
REMARK    6  A    between atoms: C7_13  and  C8_15 
ROOT
HETATM    1  C4  UNL     1      -6.400 -44.007   2.666  1.00  0.00     0.246 C 
HETATM    2  O1  UNL     1      -5.925 -43.301   1.731  1.00  0.00    -0.271 OA
HETATM    3  N1  UNL     1      -5.881 -45.232   3.025  1.00  0.00    -0.313 N 
ATOM      4  H1  UNL     1      -5.795 -45.348   4.035  1.00  0.00     0.170 HD
HETATM    5  C5  UNL     1      -5.483 -46.257   2.366  1.00  0.00     0.109 C 
ENDROOT
BRANCH   5   6
HETATM    6  C6  UNL     1      -5.525 -46.288   0.914  1.00  0.00     0.206 C 
BRANCH   6   7
HETATM    7  N2  UNL     1      -6.552 -45.421   0.377  1.00  0.00    -0.341 N 
HETATM    8  C7  UNL     1      -7.285 -45.686  -0.803  1.00  0.00     0.252 C 
HETATM    9  O2  UNL     1      -7.026 -46.739  -1.430  1.00  0.00    -0.268 OA
ATOM     10  H2  UNL     1      -6.761 -44.562   0.884  1.00  0.00     0.163 HD
BRANCH   8  11
HETATM   11  C8  UNL     1      -8.319 -44.823  -1.340  1.00  0.00     0.032 A 
HETATM   12  C9  UNL     1      -8.474 -44.643  -2.699  1.00  0.00     0.017 A 
HETATM   13  C10 UNL     1      -9.463 -43.816  -3.217  1.00  0.00     0.001 A 
HETATM   14  C11 UNL     1     -10.328 -43.144  -2.391  1.00  0.00     0.000 A 
HETATM   15  C12 UNL     1     -10.185 -43.315  -1.029  1.00  0.00     0.001 A 
HETATM   16  C13 UNL     1      -9.206 -44.132  -0.538  1.00  0.00     0.017 A 
ENDBRANCH   8  11
ENDBRANCH   6   7
BRANCH   6  17
HETATM   17  C14 UNL     1      -4.180 -45.984   0.265  1.00  0.00     0.215 C 
HETATM   18 CL2  UNL     1      -4.393 -44.696  -0.950  1.00  0.00    -0.081 Cl
HETATM   19 CL3  UNL     1      -3.608 -47.432  -0.575  1.00  0.00    -0.081 Cl
HETATM   20 CL4  UNL     1      -2.951 -45.454   1.394  1.00  0.00    -0.081 Cl
ENDBRANCH   6  17
ENDBRANCH   5   6
BRANCH   5  21
HETATM   21  N3  UNL     1      -5.008 -47.313   3.220  1.00  0.00    -0.366 N 
HETATM   22  C15 UNL     1      -5.238 -47.345   4.649  1.00  0.00     0.152 C 
HETATM   23  C16 UNL     1      -3.845 -47.164   5.283  1.00  0.00     0.256 C 
HETATM   24  N4  UNL     1      -2.870 -48.047   4.681  1.00  0.00    -0.072 N 
HETATM   25  C17 UNL     1      -2.201 -48.738   5.807  1.00  0.00     0.272 C 
HETATM   26  C18 UNL     1      -1.841 -47.255   4.052  1.00  0.00     0.272 C 
HETATM   27  C19 UNL     1      -3.414 -49.038   3.809  1.00  0.00     0.256 C 
HETATM   28  C20 UNL     1      -4.239 -48.393   2.680  1.00  0.00     0.152 C 
ENDBRANCH   5  21
BRANCH   1  29
HETATM   29  C2  UNL     1      -7.590 -43.395   3.371  1.00  0.00     0.111 C 
HETATM   30  C1  UNL     1      -8.187 -44.384   4.327  1.00  0.00     0.042 C 
HETATM   31  C3  UNL     1      -8.638 -43.030   2.336  1.00  0.00     0.042 C 
HETATM   32 CL1  UNL     1      -7.180 -41.923   4.240  1.00  0.00    -0.110 Cl
ENDBRANCH   1  29
TORSDOF 6
ENDMDL
MODEL 5
REMARK VINA RESULT: -4.202921814      1.505      2.439
REMARK  6 active torsions:
REMARK  status: ('A' for Active; 'I' for Inactive)
REMARK    1  A    between atoms: C2_2  and  C4_5 
REMARK       I    between atoms: C4_5  and  N1_7 
REMARK    2  A    between atoms: C5_9  and  C6_10 
REMARK    3  A    between atoms: C5_9  and  N3_25 
REMARK    4  A    between atoms: C6_10  and  N2_11 
REMARK    5  A    between atoms: C6_10  and  C14_21 
REMARK       I    between atoms: N2_11  and  C7_13 
REMARK    6  A    between atoms: C7_13  and  C8_15 
ROOT
HETATM    1  C4  UNL     1      -7.076 -46.303  -1.219  1.00  0.00     0.246 C 
HETATM    2  O1  UNL     1      -8.268 -46.475  -0.834  1.00  0.00    -0.271 OA
HETATM    3  N1  UNL     1      -5.989 -46.420  -0.382  1.00  0.00    -0.313 N 
ATOM      4  H1  UNL     1      -5.220 -46.947  -0.797  1.00  0.00     0.170 HD
HETATM    5  C5  UNL     1      -5.732 -46.010   0.806  1.00  0.00     0.109 C 
ENDROOT
BRANCH   5   6
HETATM    6  C6  UNL     1      -6.700 -45.240   1.567  1.00  0.00     0.206 C 
BRANCH   6   7
HETATM    7  N2  UNL     1      -6.309 -45.080   2.950  1.00  0.00    -0.341 N 
HETATM    8  C7  UNL     1      -7.201 -44.775   4.005  1.00  0.00     0.252 C 
HETATM    9  O2  UNL     1      -8.412 -44.628   3.722  1.00  0.00    -0.268 OA
ATOM     10  H2  UNL     1      -5.322 -45.195   3.181  1.00  0.00     0.163 HD
BRANCH   8  11
HETATM   11  C8  UNL     1      -6.812 -44.620   5.392  1.00  0.00     0.032 A 
HETATM   12  C9  UNL     1      -6.979 -43.423   6.059  1.00  0.00     0.017 A 
HETATM   13  C10 UNL     1      -6.607 -43.272   7.389  1.00  0.00     0.001 A 
HETATM   14  C11 UNL     1      -6.056 -44.312   8.093  1.00  0.00     0.000 A 
HETATM   15  C12 UNL     1      -5.883 -45.516   7.439  1.00  0.00     0.001 A 
HETATM   16  C13 UNL     1      -6.255 -45.646   6.131  1.00  0.00     0.017 A 
ENDBRANCH   8  11
ENDBRANCH   6   7
BRANCH   6  17
HETATM   17  C14 UNL     1      -7.018 -43.885   0.945  1.00  0.00     0.215 C 
HETATM   18 CL2  UNL     1      -6.861 -42.617   2.188  1.00  0.00    -0.081 Cl
HETATM   19 CL3  UNL     1      -8.696 -43.891   0.384  1.00  0.00    -0.081 Cl
HETATM   20 CL4  UNL     1      -5.971 -43.455  -0.391  1.00  0.00    -0.081 Cl
ENDBRANCH   6  17
ENDBRANCH   5   6
BRANCH   5  21
HETATM   21  N3  UNL     1      -4.423 -46.404   1.256  1.00  0.00    -0.366 N 
HETATM   22  C15 UNL     1      -4.077 -47.767   1.596  1.00  0.00     0.152 C 
HETATM   23  C16 UNL     1      -3.821 -47.748   3.116  1.00  0.00     0.256 C 
HETATM   24  N4  UNL     1      -2.947 -46.657   3.493  1.00  0.00    -0.072 N 
HETATM   25  C17 UNL     1      -1.879 -47.262   4.321  1.00  0.00     0.272 C 
HETATM   26  C18 UNL     1      -3.659 -45.766   4.376  1.00  0.00     0.272 C 
HETATM   27  C19 UNL     1      -2.333 -45.975   2.399  1.00  0.00     0.256 C 
HETATM   28  C20 UNL     1      -3.388 -45.430   1.420  1.00  0.00     0.152 C 
ENDBRANCH   5  21
BRANCH   1  29
HETATM   29  C2  UNL     1      -6.935 -45.963  -2.686  1.00  0.00     0.111 C 
HETATM   30  C1  UNL     1      -7.428 -47.101  -3.529  1.00  0.00     0.042 C 
HETATM   31  C3  UNL     1      -5.467 -45.732  -2.996  1.00  0.00     0.042 C 
HETATM   32 CL1  UNL     1      -7.799 -44.498  -3.129  1.00  0.00    -0.110 Cl
ENDBRANCH   1  29
TORSDOF 6
ENDMDL
