MODEL 1
REMARK VINA RESULT: -9.223628210      0.000      0.000
REMARK  3 active torsions:
REMARK  status: ('A' for Active; 'I' for Inactive)
REMARK    1  A    between atoms: C4_4  and  C5_5 
REMARK       I    between atoms: C5_5  and  N1_7 
REMARK    2  A    between atoms: C8_11  and  N2_12 
REMARK       I    between atoms: N2_12  and  C9_14 
REMARK       I    between atoms: C9_14  and  N3_16 
REMARK    3  A    between atoms: C13_21  and  C14_22 
REMARK       I    between atoms: C14_22  and  N4_24 
ROOT
HETATM    1  N2  UNL     1      -1.728 -46.494   2.239  1.00  0.00    -0.334 N 
ATOM      2  H2  UNL     1      -0.800 -46.827   2.501  1.00  0.00     0.164 HD
HETATM    3  C9  UNL     1      -2.768 -46.511   3.205  1.00  0.00     0.319 C 
HETATM    4  O2  UNL     1      -3.879 -46.086   2.820  1.00  0.00    -0.247 OA
HETATM    5  N3  UNL     1      -2.570 -46.966   4.495  1.00  0.00    -0.318 N 
HETATM    6  C10 UNL     1      -1.236 -47.531   4.900  1.00  0.00     0.166 C 
HETATM    7  C11 UNL     1      -1.651 -48.807   5.621  1.00  0.00     0.190 C 
HETATM    8  F2  UNL     1      -1.472 -49.928   4.871  1.00  0.00    -0.248 F 
HETATM    9  C12 UNL     1      -3.141 -48.580   5.963  1.00  0.00     0.074 C 
HETATM   10  C13 UNL     1      -3.276 -47.120   5.732  1.00  0.00     0.184 C 
ENDROOT
BRANCH   1  11
HETATM   11  C8  UNL     1      -1.958 -46.006   0.863  1.00  0.00     0.139 C 
HETATM   12  C7  UNL     1      -2.531 -44.644   0.961  1.00  0.00     0.212 C 
HETATM   13  C6  UNL     1      -3.797 -44.660   0.184  1.00  0.00     0.165 C 
HETATM   14  F1  UNL     1      -1.638 -43.770   0.339  1.00  0.00    -0.245 F 
HETATM   15  N1  UNL     1      -3.916 -45.966  -0.430  1.00  0.00    -0.347 N 
HETATM   16  C5  UNL     1      -4.830 -46.272  -1.456  1.00  0.00     0.225 C 
HETATM   17  C20 UNL     1      -2.956 -46.870   0.186  1.00  0.00     0.154 C 
HETATM   18  O1  UNL     1      -4.857 -47.431  -1.928  1.00  0.00    -0.273 OA
BRANCH  16  19
HETATM   19  C4  UNL     1      -5.764 -45.264  -1.993  1.00  0.00     0.095 A 
HETATM   20  C2  UNL     1      -7.023 -44.953  -1.226  1.00  0.00    -0.027 A 
HETATM   21  C1  UNL     1      -7.539 -43.515  -1.274  1.00  0.00     0.016 C 
HETATM   22  C3  UNL     1      -7.135 -45.571   0.117  1.00  0.00     0.016 C 
HETATM   23  C21 UNL     1      -7.104 -45.674  -2.498  1.00  0.00    -0.027 A 
HETATM   24  C22 UNL     1      -7.530 -44.938  -3.768  1.00  0.00     0.016 C 
HETATM   25  C23 UNL     1      -7.523 -47.108  -2.491  1.00  0.00     0.016 C 
ENDBRANCH  16  19
ENDBRANCH   1  11
BRANCH  10  26
HETATM   26  C14 UNL     1      -4.501 -46.435   5.977  1.00  0.00     0.243 C 
HETATM   27  O3  UNL     1      -5.210 -46.123   4.937  1.00  0.00    -0.271 OA
HETATM   28  N4  UNL     1      -5.099 -46.021   7.185  1.00  0.00    -0.345 N 
HETATM   29  C15 UNL     1      -4.453 -46.282   8.443  1.00  0.00     0.126 C 
HETATM   30  C19 UNL     1      -6.373 -45.326   7.099  1.00  0.00     0.204 C 
HETATM   31  C16 UNL     1      -5.228 -45.592   9.585  1.00  0.00     0.026 C 
HETATM   32  C17 UNL     1      -5.426 -44.173   9.118  1.00  0.00     0.082 C 
HETATM   33  C18 UNL     1      -6.496 -44.185   8.056  1.00  0.00     0.259 C 
HETATM   34  F3  UNL     1      -7.722 -44.184   8.693  1.00  0.00    -0.205 F 
HETATM   35  F4  UNL     1      -6.395 -42.985   7.372  1.00  0.00    -0.205 F 
ENDBRANCH  10  26
TORSDOF 3
ENDMDL
MODEL 2
REMARK VINA RESULT: -8.937037662      2.890      9.506
REMARK  3 active torsions:
REMARK  status: ('A' for Active; 'I' for Inactive)
REMARK    1  A    between atoms: C4_4  and  C5_5 
REMARK       I    between atoms: C5_5  and  N1_7 
REMARK    2  A    between atoms: C8_11  and  N2_12 
REMARK       I    between atoms: N2_12  and  C9_14 
REMARK       I    between atoms: C9_14  and  N3_16 
REMARK    3  A    between atoms: C13_21  and  C14_22 
REMARK       I    between atoms: C14_22  and  N4_24 
ROOT
HETATM    1  N2  UNL     1      -7.709 -43.900   3.034  1.00  0.00    -0.334 N 
ATOM      2  H2  UNL     1      -8.198 -43.023   2.861  1.00  0.00     0.164 HD
HETATM    3  C9  UNL     1      -7.020 -44.533   1.965  1.00  0.00     0.319 C 
HETATM    4  O2  UNL     1      -6.440 -45.603   2.247  1.00  0.00    -0.247 OA
HETATM    5  N3  UNL     1      -6.990 -44.000   0.690  1.00  0.00    -0.318 N 
HETATM    6  C10 UNL     1      -7.757 -42.744   0.378  1.00  0.00     0.166 C 
HETATM    7  C11 UNL     1      -8.455 -43.129  -0.921  1.00  0.00     0.190 C 
HETATM    8  F2  UNL     1      -9.769 -43.438  -0.751  1.00  0.00    -0.248 F 
HETATM    9  C12 UNL     1      -7.647 -44.340  -1.440  1.00  0.00     0.074 C 
HETATM   10  C13 UNL     1      -6.425 -44.259  -0.600  1.00  0.00     0.184 C 
ENDROOT
BRANCH   1  11
HETATM   11  C8  UNL     1      -7.734 -44.485   4.392  1.00  0.00     0.139 C 
HETATM   12  C7  UNL     1      -7.321 -43.428   5.343  1.00  0.00     0.212 C 
HETATM   13  C6  UNL     1      -6.183 -43.979   6.122  1.00  0.00     0.165 C 
HETATM   14  F1  UNL     1      -8.391 -43.208   6.212  1.00  0.00    -0.245 F 
HETATM   15  N1  UNL     1      -5.994 -45.354   5.706  1.00  0.00    -0.347 N 
HETATM   16  C5  UNL     1      -5.201 -46.285   6.404  1.00  0.00     0.225 C 
HETATM   17  C20 UNL     1      -6.743 -45.586   4.480  1.00  0.00     0.154 C 
HETATM   18  O1  UNL     1      -5.102 -47.454   5.968  1.00  0.00    -0.273 OA
BRANCH  16  19
HETATM   19  C4  UNL     1      -4.481 -45.922   7.640  1.00  0.00     0.095 A 
HETATM   20  C2  UNL     1      -4.163 -47.000   8.643  1.00  0.00    -0.027 A 
HETATM   21  C1  UNL     1      -2.858 -46.868   9.428  1.00  0.00     0.016 C 
HETATM   22  C3  UNL     1      -4.452 -48.391   8.217  1.00  0.00     0.016 C 
HETATM   23  C21 UNL     1      -5.171 -45.986   8.958  1.00  0.00    -0.027 A 
HETATM   24  C22 UNL     1      -4.821 -44.823   9.888  1.00  0.00     0.016 C 
HETATM   25  C23 UNL     1      -6.604 -46.396   9.057  1.00  0.00     0.016 C 
ENDBRANCH  16  19
ENDBRANCH   1  11
BRANCH  10  26
HETATM   26  C14 UNL     1      -5.343 -45.169  -0.767  1.00  0.00     0.243 C 
HETATM   27  O3  UNL     1      -4.212 -44.834  -0.227  1.00  0.00    -0.271 OA
HETATM   28  N4  UNL     1      -5.276 -46.409  -1.438  1.00  0.00    -0.345 N 
HETATM   29  C15 UNL     1      -6.437 -46.941  -2.098  1.00  0.00     0.126 C 
HETATM   30  C19 UNL     1      -4.001 -47.105  -1.433  1.00  0.00     0.204 C 
HETATM   31  C16 UNL     1      -6.058 -48.216  -2.881  1.00  0.00     0.026 C 
HETATM   32  C17 UNL     1      -4.843 -47.830  -3.685  1.00  0.00     0.082 C 
HETATM   33  C18 UNL     1      -3.672 -47.757  -2.737  1.00  0.00     0.259 C 
HETATM   34  F3  UNL     1      -3.191 -49.040  -2.560  1.00  0.00    -0.205 F 
HETATM   35  F4  UNL     1      -2.678 -47.040  -3.384  1.00  0.00    -0.205 F 
ENDBRANCH  10  26
TORSDOF 3
ENDMDL
MODEL 3
REMARK VINA RESULT: -8.869637381      3.177      8.782
REMARK  3 active torsions:
REMARK  status: ('A' for Active; 'I' for Inactive)
REMARK    1  A    between atoms: C4_4  and  C5_5 
REMARK       I    between atoms: C5_5  and  N1_7 
REMARK    2  A    between atoms: C8_11  and  N2_12 
REMARK       I    between atoms: N2_12  and  C9_14 
REMARK       I    between atoms: C9_14  and  N3_16 
REMARK    3  A    between atoms: C13_21  and  C14_22 
REMARK       I    between atoms: C14_22  and  N4_24 
ROOT
HETATM    1  N2  UNL     1      -5.212 -46.672   2.363  1.00  0.00    -0.334 N 
ATOM      2  H2  UNL     1      -4.268 -47.002   2.164  1.00  0.00     0.164 HD
HETATM    3  C9  UNL     1      -5.975 -46.085   1.319  1.00  0.00     0.319 C 
HETATM    4  O2  UNL     1      -7.124 -45.704   1.631  1.00  0.00    -0.247 OA
HETATM    5  N3  UNL     1      -5.482 -45.941   0.036  1.00  0.00    -0.318 N 
HETATM    6  C10 UNL     1      -4.070 -46.351  -0.281  1.00  0.00     0.166 C 
HETATM    7  C11 UNL     1      -3.573 -45.146  -1.069  1.00  0.00     0.190 C 
HETATM    8  F2  UNL     1      -2.769 -44.325  -0.341  1.00  0.00    -0.248 F 
HETATM    9  C12 UNL     1      -4.865 -44.428  -1.518  1.00  0.00     0.074 C 
HETATM   10  C13 UNL     1      -5.887 -45.473  -1.255  1.00  0.00     0.184 C 
ENDROOT
BRANCH   1  11
HETATM   11  C8  UNL     1      -5.753 -46.815   3.731  1.00  0.00     0.139 C 
HETATM   12  C7  UNL     1      -6.180 -45.472   4.187  1.00  0.00     0.212 C 
HETATM   13  C6  UNL     1      -5.486 -45.223   5.476  1.00  0.00     0.165 C 
HETATM   14  F1  UNL     1      -7.554 -45.530   4.424  1.00  0.00    -0.245 F 
HETATM   15  N1  UNL     1      -4.748 -46.422   5.815  1.00  0.00    -0.347 N 
HETATM   16  C5  UNL     1      -4.194 -46.673   7.085  1.00  0.00     0.225 C 
HETATM   17  C20 UNL     1      -4.685 -47.286   4.646  1.00  0.00     0.154 C 
HETATM   18  O1  UNL     1      -3.575 -47.742   7.283  1.00  0.00    -0.273 OA
BRANCH  16  19
HETATM   19  C4  UNL     1      -4.321 -45.707   8.193  1.00  0.00     0.095 A 
HETATM   20  C2  UNL     1      -4.390 -46.224   9.607  1.00  0.00    -0.027 A 
HETATM   21  C1  UNL     1      -3.752 -45.368  10.701  1.00  0.00     0.016 C 
HETATM   22  C3  UNL     1      -4.145 -47.676   9.781  1.00  0.00     0.016 C 
HETATM   23  C21 UNL     1      -5.579 -45.636   8.987  1.00  0.00    -0.027 A 
HETATM   24  C22 UNL     1      -5.999 -44.209   9.340  1.00  0.00     0.016 C 
HETATM   25  C23 UNL     1      -6.741 -46.520   8.668  1.00  0.00     0.016 C 
ENDBRANCH  16  19
ENDBRANCH   1  11
BRANCH  10  26
HETATM   26  C14 UNL     1      -7.261 -45.270  -1.574  1.00  0.00     0.243 C 
HETATM   27  O3  UNL     1      -7.757 -46.020  -2.508  1.00  0.00    -0.271 OA
HETATM   28  N4  UNL     1      -8.208 -44.371  -1.040  1.00  0.00    -0.345 N 
HETATM   29  C15 UNL     1      -7.834 -43.460   0.008  1.00  0.00     0.126 C 
HETATM   30  C19 UNL     1      -9.551 -44.406  -1.593  1.00  0.00     0.204 C 
HETATM   31  C16 UNL     1      -8.998 -42.487   0.297  1.00  0.00     0.026 C 
HETATM   32  C17 UNL     1      -9.407 -41.958  -1.054  1.00  0.00     0.082 C 
HETATM   33  C18 UNL     1     -10.162 -43.053  -1.765  1.00  0.00     0.259 C 
HETATM   34  F3  UNL     1     -11.469 -43.022  -1.317  1.00  0.00    -0.205 F 
HETATM   35  F4  UNL     1     -10.187 -42.715  -3.107  1.00  0.00    -0.205 F 
ENDBRANCH  10  26
TORSDOF 3
ENDMDL
MODEL 4
REMARK VINA RESULT: -8.846861571      5.203      8.412
REMARK  3 active torsions:
REMARK  status: ('A' for Active; 'I' for Inactive)
REMARK    1  A    between atoms: C4_4  and  C5_5 
REMARK       I    between atoms: C5_5  and  N1_7 
REMARK    2  A    between atoms: C8_11  and  N2_12 
REMARK       I    between atoms: N2_12  and  C9_14 
REMARK       I    between atoms: C9_14  and  N3_16 
REMARK    3  A    between atoms: C13_21  and  C14_22 
REMARK       I    between atoms: C14_22  and  N4_24 
ROOT
HETATM    1  N2  UNL     1      -1.447 -50.064   5.743  1.00  0.00    -0.334 N 
ATOM      2  H2  UNL     1      -0.709 -49.668   5.161  1.00  0.00     0.164 HD
HETATM    3  C9  UNL     1      -1.141 -51.148   6.608  1.00  0.00     0.319 C 
HETATM    4  O2  UNL     1      -2.090 -51.583   7.295  1.00  0.00    -0.247 OA
HETATM    5  N3  UNL     1       0.127 -51.691   6.689  1.00  0.00    -0.318 N 
HETATM    6  C10 UNL     1       1.225 -51.183   5.796  1.00  0.00     0.166 C 
HETATM    7  C11 UNL     1       1.827 -52.484   5.282  1.00  0.00     0.190 C 
HETATM    8  F2  UNL     1       1.449 -52.783   4.010  1.00  0.00    -0.248 F 
HETATM    9  C12 UNL     1       1.339 -53.551   6.289  1.00  0.00     0.074 C 
HETATM   10  C13 UNL     1       0.851 -52.699   7.403  1.00  0.00     0.184 C 
ENDROOT
BRANCH   1  11
HETATM   11  C8  UNL     1      -2.810 -49.496   5.666  1.00  0.00     0.139 C 
HETATM   12  C7  UNL     1      -2.837 -48.547   4.530  1.00  0.00     0.212 C 
HETATM   13  C6  UNL     1      -3.319 -47.251   5.071  1.00  0.00     0.165 C 
HETATM   14  F1  UNL     1      -3.774 -49.024   3.612  1.00  0.00    -0.245 F 
HETATM   15  N1  UNL     1      -3.656 -47.457   6.465  1.00  0.00    -0.347 N 
HETATM   16  C5  UNL     1      -4.400 -46.546   7.238  1.00  0.00     0.225 C 
HETATM   17  C20 UNL     1      -3.103 -48.730   6.903  1.00  0.00     0.154 C 
HETATM   18  O1  UNL     1      -4.645 -46.814   8.435  1.00  0.00    -0.273 OA
BRANCH  16  19
HETATM   19  C4  UNL     1      -4.902 -45.277   6.676  1.00  0.00     0.095 A 
HETATM   20  C2  UNL     1      -6.086 -44.608   7.325  1.00  0.00    -0.027 A 
HETATM   21  C1  UNL     1      -6.119 -43.080   7.322  1.00  0.00     0.016 C 
HETATM   22  C3  UNL     1      -6.547 -45.201   8.604  1.00  0.00     0.016 C 
HETATM   23  C21 UNL     1      -6.231 -45.226   6.006  1.00  0.00    -0.027 A 
HETATM   24  C22 UNL     1      -6.250 -44.352   4.751  1.00  0.00     0.016 C 
HETATM   25  C23 UNL     1      -7.072 -46.453   5.870  1.00  0.00     0.016 C 
ENDBRANCH  16  19
ENDBRANCH   1  11
BRANCH  10  26
HETATM   26  C14 UNL     1       0.343 -53.266   8.608  1.00  0.00     0.243 C 
HETATM   27  O3  UNL     1      -0.750 -53.958   8.508  1.00  0.00    -0.271 OA
HETATM   28  N4  UNL     1       0.828 -53.206   9.931  1.00  0.00    -0.345 N 
HETATM   29  C15 UNL     1       2.031 -52.479  10.231  1.00  0.00     0.126 C 
HETATM   30  C19 UNL     1       0.064 -53.896  10.957  1.00  0.00     0.204 C 
HETATM   31  C16 UNL     1       2.252 -52.436  11.758  1.00  0.00     0.026 C 
HETATM   32  C17 UNL     1       0.933 -51.981  12.328  1.00  0.00     0.082 C 
HETATM   33  C18 UNL     1      -0.027 -53.141  12.243  1.00  0.00     0.259 C 
HETATM   34  F3  UNL     1       0.202 -53.959  13.332  1.00  0.00    -0.205 F 
HETATM   35  F4  UNL     1      -1.301 -52.618  12.392  1.00  0.00    -0.205 F 
ENDBRANCH  10  26
TORSDOF 3
ENDMDL
MODEL 5
REMARK VINA RESULT: -8.565032533      2.985      8.886
REMARK  3 active torsions:
REMARK  status: ('A' for Active; 'I' for Inactive)
REMARK    1  A    between atoms: C4_4  and  C5_5 
REMARK       I    between atoms: C5_5  and  N1_7 
REMARK    2  A    between atoms: C8_11  and  N2_12 
REMARK       I    between atoms: N2_12  and  C9_14 
REMARK       I    between atoms: C9_14  and  N3_16 
REMARK    3  A    between atoms: C13_21  and  C14_22 
REMARK       I    between atoms: C14_22  and  N4_24 
ROOT
HETATM    1  N2  UNL     1      -4.919 -47.296   2.570  1.00  0.00    -0.334 N 
ATOM      2  H2  UNL     1      -4.236 -47.998   2.287  1.00  0.00     0.164 HD
HETATM    3  C9  UNL     1      -5.288 -46.278   1.652  1.00  0.00     0.319 C 
HETATM    4  O2  UNL     1      -6.132 -45.452   2.061  1.00  0.00    -0.247 OA
HETATM    5  N3  UNL     1      -4.750 -46.201   0.381  1.00  0.00    -0.318 N 
HETATM    6  C10 UNL     1      -3.688 -47.175  -0.050  1.00  0.00     0.166 C 
HETATM    7  C11 UNL     1      -2.661 -46.245  -0.683  1.00  0.00     0.190 C 
HETATM    8  F2  UNL     1      -1.586 -46.010   0.117  1.00  0.00    -0.248 F 
HETATM    9  C12 UNL     1      -3.452 -44.949  -0.973  1.00  0.00     0.074 C 
HETATM   10  C13 UNL     1      -4.852 -45.418  -0.814  1.00  0.00     0.184 C 
ENDROOT
BRANCH   1  11
HETATM   11  C8  UNL     1      -5.503 -47.362   3.927  1.00  0.00     0.139 C 
HETATM   12  C7  UNL     1      -6.110 -46.043   4.218  1.00  0.00     0.212 C 
HETATM   13  C6  UNL     1      -5.513 -45.575   5.495  1.00  0.00     0.165 C 
HETATM   14  F1  UNL     1      -7.477 -46.248   4.414  1.00  0.00    -0.245 F 
HETATM   15  N1  UNL     1      -4.651 -46.630   5.988  1.00  0.00    -0.347 N 
HETATM   16  C5  UNL     1      -4.131 -46.674   7.295  1.00  0.00     0.225 C 
HETATM   17  C20 UNL     1      -4.429 -47.596   4.923  1.00  0.00     0.154 C 
HETATM   18  O1  UNL     1      -3.396 -47.630   7.630  1.00  0.00    -0.273 OA
BRANCH  16  19
HETATM   19  C4  UNL     1      -4.426 -45.621   8.286  1.00  0.00     0.095 A 
HETATM   20  C2  UNL     1      -4.477 -45.987   9.747  1.00  0.00    -0.027 A 
HETATM   21  C1  UNL     1      -3.998 -44.939  10.751  1.00  0.00     0.016 C 
HETATM   22  C3  UNL     1      -4.046 -47.365  10.087  1.00  0.00     0.016 C 
HETATM   23  C21 UNL     1      -5.710 -45.638   9.040  1.00  0.00    -0.027 A 
HETATM   24  C22 UNL     1      -6.330 -44.252   9.223  1.00  0.00     0.016 C 
HETATM   25  C23 UNL     1      -6.731 -46.701   8.797  1.00  0.00     0.016 C 
ENDBRANCH  16  19
ENDBRANCH   1  11
BRANCH  10  26
HETATM   26  C14 UNL     1      -5.960 -44.553  -1.043  1.00  0.00     0.243 C 
HETATM   27  O3  UNL     1      -6.063 -43.522  -0.262  1.00  0.00    -0.271 OA
HETATM   28  N4  UNL     1      -6.999 -44.618  -1.995  1.00  0.00    -0.345 N 
HETATM   29  C15 UNL     1      -7.047 -45.696  -2.945  1.00  0.00     0.126 C 
HETATM   30  C19 UNL     1      -8.001 -43.566  -1.965  1.00  0.00     0.204 C 
HETATM   31  C16 UNL     1      -8.357 -45.620  -3.759  1.00  0.00     0.026 C 
HETATM   32  C17 UNL     1      -9.446 -45.473  -2.728  1.00  0.00     0.082 C 
HETATM   33  C18 UNL     1      -9.392 -44.060  -2.203  1.00  0.00     0.259 C 
HETATM   34  F3  UNL     1     -10.075 -43.253  -3.092  1.00  0.00    -0.205 F 
HETATM   35  F4  UNL     1     -10.105 -44.047  -1.016  1.00  0.00    -0.205 F 
ENDBRANCH  10  26
TORSDOF 3
ENDMDL
