MODEL 1
REMARK VINA RESULT: -6.324985029      0.000      0.000
REMARK  4 active torsions:
REMARK  status: ('A' for Active; 'I' for Inactive)
REMARK    1  A    between atoms: O1_1  and  N1_3 
REMARK    2  A    between atoms: C1_5  and  N2_6 
REMARK    3  A    between atoms: C1_5  and  C8_14 
REMARK    4  A    between atoms: N2_6  and  C2_8 
ROOT
HETATM    1  N1  UNL     1      30.077  -8.256 -21.882  1.00  0.00    -0.257 N 
ATOM      2  H1  UNL     1      30.816  -7.918 -22.499  1.00  0.00     0.195 HD
HETATM    3  C1  UNL     1      28.954  -8.632 -22.383  1.00  0.00     0.101 C 
ENDROOT
BRANCH   3   4
HETATM    4  N2  UNL     1      27.943  -9.096 -21.500  1.00  0.00    -0.373 N 
ATOM      5  H2  UNL     1      27.245  -8.446 -21.141  1.00  0.00     0.161 HD
BRANCH   4   6
HETATM    6  C2  UNL     1      27.901 -10.457 -21.116  1.00  0.00     0.082 C 
HETATM    7  C3  UNL     1      26.845 -11.266 -21.834  1.00  0.00     0.025 C 
HETATM    8  C4  UNL     1      27.185 -12.723 -21.554  1.00  0.00     0.002 C 
HETATM    9  C5  UNL     1      26.986 -12.992 -20.099  1.00  0.00     0.000 C 
HETATM   10  C6  UNL     1      27.606 -12.013 -19.177  1.00  0.00     0.002 C 
HETATM   11  C7  UNL     1      27.602 -10.595 -19.631  1.00  0.00     0.025 C 
ENDBRANCH   4   6
ENDBRANCH   3   4
BRANCH   3  12
HETATM   12  C8  UNL     1      28.738  -8.573 -23.858  1.00  0.00     0.055 C 
HETATM   13  C9  UNL     1      29.784  -7.650 -24.439  1.00  0.00     0.012 C 
HETATM   14  C10 UNL     1      30.106  -8.226 -25.801  1.00  0.00     0.001 C 
HETATM   15  C11 UNL     1      29.432  -9.552 -25.903  1.00  0.00     0.001 C 
HETATM   16  C12 UNL     1      28.927  -9.906 -24.520  1.00  0.00     0.012 C 
ENDBRANCH   3  12
BRANCH   1  17
HETATM   17  O1  UNL     1      30.290  -8.303 -20.549  1.00  0.00    -0.288 OA
ATOM     18  H1  UNL     1      30.855  -7.668 -20.123  1.00  0.00     0.244 HD
ENDBRANCH   1  17
TORSDOF 4
ENDMDL
MODEL 2
REMARK VINA RESULT: -6.281681151      1.205      5.201
REMARK  4 active torsions:
REMARK  status: ('A' for Active; 'I' for Inactive)
REMARK    1  A    between atoms: O1_1  and  N1_3 
REMARK    2  A    between atoms: C1_5  and  N2_6 
REMARK    3  A    between atoms: C1_5  and  C8_14 
REMARK    4  A    between atoms: N2_6  and  C2_8 
ROOT
HETATM    1  N1  UNL     1      29.064  -9.121 -20.836  1.00  0.00    -0.257 N 
ATOM      2  H1  UNL     1      28.296  -9.026 -20.171  1.00  0.00     0.195 HD
HETATM    3  C1  UNL     1      28.939  -9.912 -21.841  1.00  0.00     0.101 C 
ENDROOT
BRANCH   3   4
HETATM    4  N2  UNL     1      30.026 -10.026 -22.749  1.00  0.00    -0.373 N 
ATOM      5  H2  UNL     1      30.855 -10.558 -22.485  1.00  0.00     0.161 HD
BRANCH   4   6
HETATM    6  C2  UNL     1      29.963  -9.404 -24.018  1.00  0.00     0.082 C 
HETATM    7  C3  UNL     1      29.695  -7.917 -23.962  1.00  0.00     0.025 C 
HETATM    8  C4  UNL     1      30.008  -7.392 -25.355  1.00  0.00     0.002 C 
HETATM    9  C5  UNL     1      29.009  -7.950 -26.314  1.00  0.00     0.000 C 
HETATM   10  C6  UNL     1      28.788  -9.412 -26.229  1.00  0.00     0.002 C 
HETATM   11  C7  UNL     1      28.850 -10.002 -24.863  1.00  0.00     0.025 C 
ENDBRANCH   4   6
ENDBRANCH   3   4
BRANCH   3  12
HETATM   12  C8  UNL     1      27.677 -10.683 -22.031  1.00  0.00     0.055 C 
HETATM   13  C9  UNL     1      27.629 -11.757 -20.969  1.00  0.00     0.012 C 
HETATM   14  C10 UNL     1      26.164 -11.911 -20.628  1.00  0.00     0.001 C 
HETATM   15  C11 UNL     1      25.422 -10.811 -21.309  1.00  0.00     0.001 C 
HETATM   16  C12 UNL     1      26.452  -9.838 -21.841  1.00  0.00     0.012 C 
ENDBRANCH   3  12
BRANCH   1  17
HETATM   17  O1  UNL     1      30.200  -8.414 -20.648  1.00  0.00    -0.288 OA
ATOM     18  H1  UNL     1      30.632  -8.401 -19.801  1.00  0.00     0.244 HD
ENDBRANCH   1  17
TORSDOF 4
ENDMDL
MODEL 3
REMARK VINA RESULT: -6.172021465      1.329      1.872
REMARK  4 active torsions:
REMARK  status: ('A' for Active; 'I' for Inactive)
REMARK    1  A    between atoms: O1_1  and  N1_3 
REMARK    2  A    between atoms: C1_5  and  N2_6 
REMARK    3  A    between atoms: C1_5  and  C8_14 
REMARK    4  A    between atoms: N2_6  and  C2_8 
ROOT
HETATM    1  N1  UNL     1      30.125  -8.308 -21.673  1.00  0.00    -0.257 N 
ATOM      2  H1  UNL     1      30.996  -7.777 -21.696  1.00  0.00     0.195 HD
HETATM    3  C1  UNL     1      29.496  -8.543 -22.770  1.00  0.00     0.101 C 
ENDROOT
BRANCH   3   4
HETATM    4  N2  UNL     1      28.285  -9.284 -22.707  1.00  0.00    -0.373 N 
ATOM      5  H2  UNL     1      27.392  -8.794 -22.663  1.00  0.00     0.161 HD
BRANCH   4   6
HETATM    6  C2  UNL     1      28.314 -10.698 -22.704  1.00  0.00     0.082 C 
HETATM    7  C3  UNL     1      28.037 -11.321 -24.054  1.00  0.00     0.025 C 
HETATM    8  C4  UNL     1      28.450 -12.780 -23.924  1.00  0.00     0.002 C 
HETATM    9  C5  UNL     1      27.528 -13.457 -22.965  1.00  0.00     0.000 C 
HETATM   10  C6  UNL     1      27.306 -12.749 -21.683  1.00  0.00     0.002 C 
HETATM   11  C7  UNL     1      27.268 -11.263 -21.756  1.00  0.00     0.025 C 
ENDBRANCH   4   6
ENDBRANCH   3   4
BRANCH   3  12
HETATM   12  C8  UNL     1      30.040  -8.040 -24.064  1.00  0.00     0.055 C 
HETATM   13  C9  UNL     1      31.244  -8.883 -24.416  1.00  0.00     0.012 C 
HETATM   14  C10 UNL     1      31.235  -8.974 -25.926  1.00  0.00     0.001 C 
HETATM   15  C11 UNL     1      29.949  -8.391 -26.407  1.00  0.00     0.001 C 
HETATM   16  C12 UNL     1      29.065  -8.192 -25.195  1.00  0.00     0.012 C 
ENDBRANCH   3  12
BRANCH   1  17
HETATM   17  O1  UNL     1      29.648  -8.757 -20.492  1.00  0.00    -0.288 OA
ATOM     18  H1  UNL     1      30.035  -8.473 -19.671  1.00  0.00     0.244 HD
ENDBRANCH   1  17
TORSDOF 4
ENDMDL
MODEL 4
REMARK VINA RESULT: -6.157203913      1.042      1.697
REMARK  4 active torsions:
REMARK  status: ('A' for Active; 'I' for Inactive)
REMARK    1  A    between atoms: O1_1  and  N1_3 
REMARK    2  A    between atoms: C1_5  and  N2_6 
REMARK    3  A    between atoms: C1_5  and  C8_14 
REMARK    4  A    between atoms: N2_6  and  C2_8 
ROOT
HETATM    1  N1  UNL     1      29.849  -8.168 -21.856  1.00  0.00    -0.257 N 
ATOM      2  H1  UNL     1      30.146  -7.288 -22.278  1.00  0.00     0.195 HD
HETATM    3  C1  UNL     1      29.143  -8.994 -22.543  1.00  0.00     0.101 C 
ENDROOT
BRANCH   3   4
HETATM    4  N2  UNL     1      28.741 -10.211 -21.929  1.00  0.00    -0.373 N 
ATOM      5  H2  UNL     1      29.329 -11.039 -22.012  1.00  0.00     0.161 HD
BRANCH   4   6
HETATM    6  C2  UNL     1      27.529 -10.277 -21.204  1.00  0.00     0.082 C 
HETATM    7  C3  UNL     1      27.545 -11.276 -20.068  1.00  0.00     0.025 C 
HETATM    8  C4  UNL     1      26.322 -10.953 -19.222  1.00  0.00     0.002 C 
HETATM    9  C5  UNL     1      25.095 -11.258 -20.016  1.00  0.00     0.000 C 
HETATM   10  C6  UNL     1      25.070 -10.710 -21.391  1.00  0.00     0.002 C 
HETATM   11  C7  UNL     1      26.375 -10.684 -22.107  1.00  0.00     0.025 C 
ENDBRANCH   4   6
ENDBRANCH   3   4
BRANCH   3  12
HETATM   12  C8  UNL     1      28.764  -8.663 -23.948  1.00  0.00     0.055 C 
HETATM   13  C9  UNL     1      29.832  -7.754 -24.510  1.00  0.00     0.012 C 
HETATM   14  C10 UNL     1      29.925  -8.115 -25.976  1.00  0.00     0.001 C 
HETATM   15  C11 UNL     1      29.098  -9.337 -26.196  1.00  0.00     0.001 C 
HETATM   16  C12 UNL     1      28.722  -9.874 -24.832  1.00  0.00     0.012 C 
ENDBRANCH   3  12
BRANCH   1  17
HETATM   17  O1  UNL     1      30.202  -8.451 -20.584  1.00  0.00    -0.288 OA
ATOM     18  H1  UNL     1      29.762  -8.034 -19.852  1.00  0.00     0.244 HD
ENDBRANCH   1  17
TORSDOF 4
ENDMDL
MODEL 5
REMARK VINA RESULT: -6.154627178      1.531      5.374
REMARK  4 active torsions:
REMARK  status: ('A' for Active; 'I' for Inactive)
REMARK    1  A    between atoms: O1_1  and  N1_3 
REMARK    2  A    between atoms: C1_5  and  N2_6 
REMARK    3  A    between atoms: C1_5  and  C8_14 
REMARK    4  A    between atoms: N2_6  and  C2_8 
ROOT
HETATM    1  N1  UNL     1      29.848  -8.324 -21.427  1.00  0.00    -0.257 N 
ATOM      2  H1  UNL     1      29.415  -8.738 -20.601  1.00  0.00     0.195 HD
HETATM    3  C1  UNL     1      29.394  -8.614 -22.594  1.00  0.00     0.101 C 
ENDROOT
BRANCH   3   4
HETATM    4  N2  UNL     1      30.018  -8.024 -23.726  1.00  0.00    -0.373 N 
ATOM      5  H2  UNL     1      30.502  -7.131 -23.632  1.00  0.00     0.161 HD
BRANCH   4   6
HETATM    6  C2  UNL     1      29.972  -8.670 -24.984  1.00  0.00     0.082 C 
HETATM    7  C3  UNL     1      31.306  -8.735 -25.692  1.00  0.00     0.025 C 
HETATM    8  C4  UNL     1      31.123  -9.743 -26.818  1.00  0.00     0.002 C 
HETATM    9  C5  UNL     1      30.161  -9.181 -27.812  1.00  0.00     0.000 C 
HETATM   10  C6  UNL     1      28.906  -8.633 -27.249  1.00  0.00     0.002 C 
HETATM   11  C7  UNL     1      29.026  -7.949 -25.932  1.00  0.00     0.025 C 
ENDBRANCH   4   6
ENDBRANCH   3   4
BRANCH   3  12
HETATM   12  C8  UNL     1      28.241  -9.549 -22.735  1.00  0.00     0.055 C 
HETATM   13  C9  UNL     1      28.711 -10.924 -22.319  1.00  0.00     0.012 C 
HETATM   14  C10 UNL     1      27.508 -11.574 -21.673  1.00  0.00     0.001 C 
HETATM   15  C11 UNL     1      26.453 -10.529 -21.525  1.00  0.00     0.001 C 
HETATM   16  C12 UNL     1      27.099  -9.195 -21.829  1.00  0.00     0.012 C 
ENDBRANCH   3  12
BRANCH   1  17
HETATM   17  O1  UNL     1      30.891  -7.478 -21.280  1.00  0.00    -0.288 OA
ATOM     18  H1  UNL     1      31.726  -7.787 -20.948  1.00  0.00     0.244 HD
ENDBRANCH   1  17
TORSDOF 4
ENDMDL
