MODEL 1
REMARK VINA RESULT: -6.729062042      0.000      0.000
REMARK  3 active torsions:
REMARK  status: ('A' for Active; 'I' for Inactive)
REMARK    1  A    between atoms: C2_2  and  C4_4 
REMARK    2  A    between atoms: C9_12  and  C10_13 
REMARK    3  A    between atoms: C10_13  and  O1_14 
ROOT
HETATM    1  C4  UNL     1      28.240 -11.156 -23.610  1.00  0.00    -0.005 C 
HETATM    2  C5  UNL     1      28.851 -10.111 -24.481  1.00  0.00     0.005 C 
HETATM    3  C6  UNL     1      28.795  -8.709 -24.027  1.00  0.00     0.002 C 
HETATM    4  C7  UNL     1      29.369  -8.695 -22.600  1.00  0.00     0.033 C 
HETATM    5  C8  UNL     1      28.327  -9.469 -21.823  1.00  0.00     0.191 C 
HETATM    6  N1  UNL     1      28.543  -9.200 -20.429  1.00  0.00    -0.064 N 
ATOM      7  H11 UNL     1      28.477  -8.199 -20.244  1.00  0.00     0.278 HD
ATOM      8  H12 UNL     1      29.519  -9.358 -20.182  1.00  0.00     0.278 HD
HETATM    9  C9  UNL     1      27.677  -9.931 -19.548  1.00  0.00     0.209 C 
HETATM   10  C11 UNL     1      27.527 -11.387 -19.905  1.00  0.00     0.036 C 
HETATM   11  C12 UNL     1      27.124 -11.461 -21.371  1.00  0.00     0.009 C 
HETATM   12  C13 UNL     1      28.337 -10.950 -22.146  1.00  0.00     0.020 C 
ENDROOT
BRANCH   1  13
HETATM   13  C2  UNL     1      28.794 -12.463 -24.109  1.00  0.00    -0.018 C 
HETATM   14  C1  UNL     1      30.235 -12.263 -24.538  1.00  0.00     0.010 C 
HETATM   15  C3  UNL     1      28.043 -13.115 -25.198  1.00  0.00     0.010 C 
ENDBRANCH   1  13
BRANCH   9  16
HETATM   16  C10 UNL     1      28.163  -9.841 -18.139  1.00  0.00     0.197 C 
BRANCH  16  17
HETATM   17  O1  UNL     1      27.714  -8.723 -17.459  1.00  0.00    -0.399 OA
ATOM     18  H1  UNL     1      26.936  -8.876 -16.935  1.00  0.00     0.209 HD
ENDBRANCH  16  17
ENDBRANCH   9  16
TORSDOF 3
ENDMDL
MODEL 2
REMARK VINA RESULT: -6.261097313      0.865      1.130
REMARK  3 active torsions:
REMARK  status: ('A' for Active; 'I' for Inactive)
REMARK    1  A    between atoms: C2_2  and  C4_4 
REMARK    2  A    between atoms: C9_12  and  C10_13 
REMARK    3  A    between atoms: C10_13  and  O1_14 
ROOT
HETATM    1  C4  UNL     1      28.401 -10.225 -24.152  1.00  0.00    -0.005 C 
HETATM    2  C5  UNL     1      29.278  -9.191 -24.774  1.00  0.00     0.005 C 
HETATM    3  C6  UNL     1      29.467  -7.917 -24.056  1.00  0.00     0.002 C 
HETATM    4  C7  UNL     1      29.914  -8.288 -22.632  1.00  0.00     0.033 C 
HETATM    5  C8  UNL     1      28.678  -8.953 -22.066  1.00  0.00     0.191 C 
HETATM    6  N1  UNL     1      28.829  -8.997 -20.638  1.00  0.00    -0.064 N 
ATOM      7  H11 UNL     1      28.950  -8.056 -20.263  1.00  0.00     0.278 HD
ATOM      8  H12 UNL     1      29.730  -9.401 -20.387  1.00  0.00     0.278 HD
HETATM    9  C9  UNL     1      27.765  -9.677 -19.955  1.00  0.00     0.209 C 
HETATM   10  C11 UNL     1      27.356 -10.977 -20.598  1.00  0.00     0.036 C 
HETATM   11  C12 UNL     1      27.068 -10.693 -22.065  1.00  0.00     0.009 C 
HETATM   12  C13 UNL     1      28.418 -10.317 -22.673  1.00  0.00     0.020 C 
ENDROOT
BRANCH   1  13
HETATM   13  C2  UNL     1      28.721 -11.506 -24.874  1.00  0.00    -0.018 C 
HETATM   14  C1  UNL     1      27.858 -11.606 -26.119  1.00  0.00     0.010 C 
HETATM   15  C3  UNL     1      28.593 -12.746 -24.088  1.00  0.00     0.010 C 
ENDBRANCH   1  13
BRANCH   9  16
HETATM   16  C10 UNL     1      28.143  -9.953 -18.537  1.00  0.00     0.197 C 
BRANCH  16  17
HETATM   17  O1  UNL     1      27.791  -8.946 -17.655  1.00  0.00    -0.399 OA
ATOM     18  H1  UNL     1      27.665  -9.242 -16.761  1.00  0.00     0.209 HD
ENDBRANCH  16  17
ENDBRANCH   9  16
TORSDOF 3
ENDMDL
MODEL 3
REMARK VINA RESULT: -6.201799472      0.886      1.077
REMARK  3 active torsions:
REMARK  status: ('A' for Active; 'I' for Inactive)
REMARK    1  A    between atoms: C2_2  and  C4_4 
REMARK    2  A    between atoms: C9_12  and  C10_13 
REMARK    3  A    between atoms: C10_13  and  O1_14 
ROOT
HETATM    1  C4  UNL     1      27.722 -11.881 -23.348  1.00  0.00    -0.005 C 
HETATM    2  C5  UNL     1      28.397 -11.112 -24.433  1.00  0.00     0.005 C 
HETATM    3  C6  UNL     1      28.570  -9.659 -24.251  1.00  0.00     0.002 C 
HETATM    4  C7  UNL     1      29.255  -9.475 -22.886  1.00  0.00     0.033 C 
HETATM    5  C8  UNL     1      28.183  -9.933 -21.920  1.00  0.00     0.191 C 
HETATM    6  N1  UNL     1      28.547  -9.453 -20.616  1.00  0.00    -0.064 N 
ATOM      7  H11 UNL     1      28.634  -8.437 -20.621  1.00  0.00     0.278 HD
ATOM      8  H12 UNL     1      29.510  -9.708 -20.397  1.00  0.00     0.278 HD
HETATM    9  C9  UNL     1      27.665  -9.877 -19.566  1.00  0.00     0.209 C 
HETATM   10  C11 UNL     1      27.288 -11.334 -19.632  1.00  0.00     0.036 C 
HETATM   11  C12 UNL     1      26.762 -11.609 -21.034  1.00  0.00     0.009 C 
HETATM   12  C13 UNL     1      27.965 -11.432 -21.957  1.00  0.00     0.020 C 
ENDROOT
BRANCH   1  13
HETATM   13  C2  UNL     1      28.050 -13.324 -23.619  1.00  0.00    -0.018 C 
HETATM   14  C1  UNL     1      28.488 -13.473 -25.065  1.00  0.00     0.010 C 
HETATM   15  C3  UNL     1      26.984 -14.300 -23.327  1.00  0.00     0.010 C 
ENDBRANCH   1  13
BRANCH   9  16
HETATM   16  C10 UNL     1      28.272  -9.609 -18.228  1.00  0.00     0.197 C 
BRANCH  16  17
HETATM   17  O1  UNL     1      27.522  -8.763 -17.430  1.00  0.00    -0.399 OA
ATOM     18  H1  UNL     1      27.636  -7.841 -17.631  1.00  0.00     0.209 HD
ENDBRANCH  16  17
ENDBRANCH   9  16
TORSDOF 3
ENDMDL
MODEL 4
REMARK VINA RESULT: -6.175418531      2.997      4.953
REMARK  3 active torsions:
REMARK  status: ('A' for Active; 'I' for Inactive)
REMARK    1  A    between atoms: C2_2  and  C4_4 
REMARK    2  A    between atoms: C9_12  and  C10_13 
REMARK    3  A    between atoms: C10_13  and  O1_14 
ROOT
HETATM    1  C4  UNL     1      27.929 -11.306 -23.070  1.00  0.00    -0.005 C 
HETATM    2  C5  UNL     1      27.962 -12.742 -23.471  1.00  0.00     0.005 C 
HETATM    3  C6  UNL     1      28.702 -13.105 -24.693  1.00  0.00     0.002 C 
HETATM    4  C7  UNL     1      30.110 -12.506 -24.538  1.00  0.00     0.033 C 
HETATM    5  C8  UNL     1      29.837 -11.019 -24.593  1.00  0.00     0.191 C 
HETATM    6  N1  UNL     1      31.090 -10.362 -24.846  1.00  0.00    -0.064 N 
ATOM      7  H11 UNL     1      31.499 -10.698 -25.718  1.00  0.00     0.278 HD
ATOM      8  H12 UNL     1      31.799 -10.680 -24.187  1.00  0.00     0.278 HD
HETATM    9  C9  UNL     1      31.013  -8.928 -24.847  1.00  0.00     0.209 C 
HETATM   10  C11 UNL     1      30.206  -8.357 -23.710  1.00  0.00     0.036 C 
HETATM   11  C12 UNL     1      28.851  -9.051 -23.713  1.00  0.00     0.009 C 
HETATM   12  C13 UNL     1      29.144 -10.504 -23.348  1.00  0.00     0.020 C 
ENDROOT
BRANCH   1  13
HETATM   13  C2  UNL     1      27.478 -11.304 -21.634  1.00  0.00    -0.018 C 
HETATM   14  C1  UNL     1      27.262 -12.735 -21.177  1.00  0.00     0.010 C 
HETATM   15  C3  UNL     1      26.276 -10.506 -21.332  1.00  0.00     0.010 C 
ENDBRANCH   1  13
BRANCH   9  16
HETATM   16  C10 UNL     1      32.379  -8.328 -24.802  1.00  0.00     0.197 C 
BRANCH  16  17
HETATM   17  O1  UNL     1      33.276  -9.030 -24.017  1.00  0.00    -0.399 OA
ATOM     18  H1  UNL     1      34.167  -9.019 -24.345  1.00  0.00     0.209 HD
ENDBRANCH  16  17
ENDBRANCH   9  16
TORSDOF 3
ENDMDL
MODEL 5
REMARK VINA RESULT: -6.052033683      2.355      4.868
REMARK  3 active torsions:
REMARK  status: ('A' for Active; 'I' for Inactive)
REMARK    1  A    between atoms: C2_2  and  C4_4 
REMARK    2  A    between atoms: C9_12  and  C10_13 
REMARK    3  A    between atoms: C10_13  and  O1_14 
ROOT
HETATM    1  C4  UNL     1      25.834 -11.215 -20.148  1.00  0.00    -0.005 C 
HETATM    2  C5  UNL     1      25.999 -11.115 -18.669  1.00  0.00     0.005 C 
HETATM    3  C6  UNL     1      27.350 -10.860 -18.137  1.00  0.00     0.002 C 
HETATM    4  C7  UNL     1      27.876  -9.616 -18.873  1.00  0.00     0.033 C 
HETATM    5  C8  UNL     1      28.030 -10.119 -20.291  1.00  0.00     0.191 C 
HETATM    6  N1  UNL     1      28.867  -9.183 -20.990  1.00  0.00    -0.064 N 
ATOM      7  H11 UNL     1      29.771  -9.097 -20.525  1.00  0.00     0.278 HD
ATOM      8  H12 UNL     1      28.519  -8.233 -20.869  1.00  0.00     0.278 HD
HETATM    9  C9  UNL     1      29.045  -9.479 -22.383  1.00  0.00     0.209 C 
HETATM   10  C11 UNL     1      27.774  -9.860 -23.096  1.00  0.00     0.036 C 
HETATM   11  C12 UNL     1      27.120 -10.983 -22.302  1.00  0.00     0.009 C 
HETATM   12  C13 UNL     1      26.699 -10.346 -20.980  1.00  0.00     0.020 C 
ENDROOT
BRANCH   1  13
HETATM   13  C2  UNL     1      24.357 -11.068 -20.394  1.00  0.00    -0.018 C 
HETATM   14  C1  UNL     1      23.628 -11.053 -19.063  1.00  0.00     0.010 C 
HETATM   15  C3  UNL     1      23.742 -12.074 -21.279  1.00  0.00     0.010 C 
ENDBRANCH   1  13
BRANCH   9  16
HETATM   16  C10 UNL     1      29.653  -8.316 -23.095  1.00  0.00     0.197 C 
BRANCH  16  17
HETATM   17  O1  UNL     1      29.655  -7.144 -22.358  1.00  0.00    -0.399 OA
ATOM     18  H1  UNL     1      29.108  -6.459 -22.723  1.00  0.00     0.209 HD
ENDBRANCH  16  17
ENDBRANCH   9  16
TORSDOF 3
ENDMDL
