MODEL 1
REMARK VINA RESULT: -5.379802392      0.000      0.000
REMARK  5 active torsions:
REMARK  status: ('A' for Active; 'I' for Inactive)
REMARK    1  A    between atoms: C2_2  and  N1_3 
REMARK    2  A    between atoms: C2_2  and  C10_16 
REMARK    3  A    between atoms: N1_3  and  C3_5 
REMARK    4  A    between atoms: C3_5  and  C4_6 
REMARK    5  A    between atoms: C6_8  and  N2_9 
ROOT
HETATM    1  C4  UNL     1      25.817 -11.040 -19.870  1.00  0.00     0.015 C 
HETATM    2  C5  UNL     1      24.918 -11.916 -19.054  1.00  0.00     0.040 C 
HETATM    3  C6  UNL     1      25.841 -11.701 -17.828  1.00  0.00     0.192 C 
HETATM    4  C7  UNL     1      26.926 -11.428 -18.904  1.00  0.00    -0.014 C 
HETATM    5  C8  UNL     1      27.810 -10.253 -18.598  1.00  0.00     0.017 C 
HETATM    6  C9  UNL     1      27.674 -12.667 -19.249  1.00  0.00     0.017 C 
ENDROOT
BRANCH   1   7
HETATM    7  C3  UNL     1      26.020 -11.275 -21.307  1.00  0.00     0.119 C 
BRANCH   7   8
HETATM    8  N1  UNL     1      26.780 -10.327 -22.034  1.00  0.00    -0.416 N 
ATOM      9  H1  UNL     1      26.736  -9.341 -21.776  1.00  0.00     0.153 HD
BRANCH   8  10
HETATM   10  C2  UNL     1      27.593 -10.728 -23.106  1.00  0.00     0.079 C 
HETATM   11  C1  UNL     1      27.860 -12.225 -23.037  1.00  0.00     0.032 C 
BRANCH  10  12
HETATM   12  C10 UNL     1      28.908  -9.956 -23.171  1.00  0.00    -0.032 C 
HETATM   13  C11 UNL     1      29.144  -9.260 -21.820  1.00  0.00     0.016 C 
HETATM   14  C12 UNL     1      28.822  -8.862 -24.200  1.00  0.00     0.016 C 
HETATM   15  C13 UNL     1      30.093 -10.829 -23.454  1.00  0.00     0.016 C 
ENDBRANCH  10  12
ENDBRANCH   8  10
ENDBRANCH   7   8
ENDBRANCH   1   7
BRANCH   3  16
HETATM   16  N2  UNL     1      25.479 -10.484 -17.195  1.00  0.00    -0.074 N 
ATOM     17  H23 UNL     1      26.290  -9.948 -16.886  1.00  0.00     0.274 HD
ATOM     18  H22 UNL     1      25.101  -9.800 -17.851  1.00  0.00     0.274 HD
ATOM     19  H21 UNL     1      24.834 -10.692 -16.433  1.00  0.00     0.274 HD
ENDBRANCH   3  16
TORSDOF 5
ENDMDL
MODEL 2
REMARK VINA RESULT: -5.320162005      1.828      5.828
REMARK  5 active torsions:
REMARK  status: ('A' for Active; 'I' for Inactive)
REMARK    1  A    between atoms: C2_2  and  N1_3 
REMARK    2  A    between atoms: C2_2  and  C10_16 
REMARK    3  A    between atoms: N1_3  and  C3_5 
REMARK    4  A    between atoms: C3_5  and  C4_6 
REMARK    5  A    between atoms: C6_8  and  N2_9 
ROOT
HETATM    1  C4  UNL     1      29.502  -9.105 -22.897  1.00  0.00     0.015 C 
HETATM    2  C5  UNL     1      30.015 -10.506 -23.019  1.00  0.00     0.040 C 
HETATM    3  C6  UNL     1      30.712 -10.122 -24.350  1.00  0.00     0.192 C 
HETATM    4  C7  UNL     1      29.616  -9.024 -24.412  1.00  0.00    -0.014 C 
HETATM    5  C8  UNL     1      30.122  -7.678 -24.843  1.00  0.00     0.017 C 
HETATM    6  C9  UNL     1      28.424  -9.489 -25.171  1.00  0.00     0.017 C 
ENDROOT
BRANCH   1   7
HETATM    7  C3  UNL     1      28.204  -8.815 -22.272  1.00  0.00     0.119 C 
BRANCH   7   8
HETATM    8  N1  UNL     1      27.967  -9.314 -20.969  1.00  0.00    -0.416 N 
ATOM      9  H1  UNL     1      28.272  -8.774 -20.159  1.00  0.00     0.153 HD
BRANCH   8  10
HETATM   10  C2  UNL     1      27.316 -10.542 -20.776  1.00  0.00     0.079 C 
HETATM   11  C1  UNL     1      25.934 -10.514 -21.414  1.00  0.00     0.032 C 
BRANCH  10  12
HETATM   12  C10 UNL     1      27.215 -10.934 -19.305  1.00  0.00    -0.032 C 
HETATM   13  C11 UNL     1      27.765 -12.360 -19.131  1.00  0.00     0.016 C 
HETATM   14  C12 UNL     1      25.773 -10.982 -18.875  1.00  0.00     0.016 C 
HETATM   15  C13 UNL     1      27.987 -10.028 -18.396  1.00  0.00     0.016 C 
ENDBRANCH  10  12
ENDBRANCH   8  10
ENDBRANCH   7   8
ENDBRANCH   1   7
BRANCH   3  16
HETATM   16  N2  UNL     1      31.965  -9.530 -24.051  1.00  0.00    -0.074 N 
ATOM     17  H23 UNL     1      32.168  -9.528 -23.051  1.00  0.00     0.274 HD
ATOM     18  H22 UNL     1      32.752 -10.105 -24.352  1.00  0.00     0.274 HD
ATOM     19  H21 UNL     1      31.988  -8.594 -24.455  1.00  0.00     0.274 HD
ENDBRANCH   3  16
TORSDOF 5
ENDMDL
MODEL 3
REMARK VINA RESULT: -5.285148147      1.823      5.787
REMARK  5 active torsions:
REMARK  status: ('A' for Active; 'I' for Inactive)
REMARK    1  A    between atoms: C2_2  and  N1_3 
REMARK    2  A    between atoms: C2_2  and  C10_16 
REMARK    3  A    between atoms: N1_3  and  C3_5 
REMARK    4  A    between atoms: C3_5  and  C4_6 
REMARK    5  A    between atoms: C6_8  and  N2_9 
ROOT
HETATM    1  C4  UNL     1      29.498  -9.113 -22.913  1.00  0.00     0.015 C 
HETATM    2  C5  UNL     1      30.037 -10.504 -23.022  1.00  0.00     0.040 C 
HETATM    3  C6  UNL     1      30.711 -10.125 -24.366  1.00  0.00     0.192 C 
HETATM    4  C7  UNL     1      29.592  -9.050 -24.430  1.00  0.00    -0.014 C 
HETATM    5  C8  UNL     1      30.066  -7.700 -24.886  1.00  0.00     0.017 C 
HETATM    6  C9  UNL     1      28.401  -9.549 -25.169  1.00  0.00     0.017 C 
ENDROOT
BRANCH   1   7
HETATM    7  C3  UNL     1      28.200  -8.840 -22.277  1.00  0.00     0.119 C 
BRANCH   7   8
HETATM    8  N1  UNL     1      27.974  -9.358 -20.979  1.00  0.00    -0.416 N 
ATOM      9  H1  UNL     1      28.286  -8.830 -20.164  1.00  0.00     0.153 HD
BRANCH   8  10
HETATM   10  C2  UNL     1      27.326 -10.590 -20.800  1.00  0.00     0.079 C 
HETATM   11  C1  UNL     1      25.928 -10.545 -21.401  1.00  0.00     0.032 C 
BRANCH  10  12
HETATM   12  C10 UNL     1      27.261 -11.017 -19.336  1.00  0.00    -0.032 C 
HETATM   13  C11 UNL     1      25.795 -10.984 -18.872  1.00  0.00     0.016 C 
HETATM   14  C12 UNL     1      28.000 -10.032 -18.471  1.00  0.00     0.016 C 
HETATM   15  C13 UNL     1      27.789 -12.399 -19.099  1.00  0.00     0.016 C 
ENDBRANCH  10  12
ENDBRANCH   8  10
ENDBRANCH   7   8
ENDBRANCH   1   7
BRANCH   3  16
HETATM   16  N2  UNL     1      31.955  -9.504 -24.089  1.00  0.00    -0.074 N 
ATOM     17  H23 UNL     1      32.715  -9.882 -24.654  1.00  0.00     0.274 HD
ATOM     18  H22 UNL     1      31.996  -8.542 -24.427  1.00  0.00     0.274 HD
ATOM     19  H21 UNL     1      32.140  -9.574 -23.089  1.00  0.00     0.274 HD
ENDBRANCH   3  16
TORSDOF 5
ENDMDL
MODEL 4
REMARK VINA RESULT: -5.234200840      1.804      5.840
REMARK  5 active torsions:
REMARK  status: ('A' for Active; 'I' for Inactive)
REMARK    1  A    between atoms: C2_2  and  N1_3 
REMARK    2  A    between atoms: C2_2  and  C10_16 
REMARK    3  A    between atoms: N1_3  and  C3_5 
REMARK    4  A    between atoms: C3_5  and  C4_6 
REMARK    5  A    between atoms: C6_8  and  N2_9 
ROOT
HETATM    1  C4  UNL     1      29.498  -9.239 -22.951  1.00  0.00     0.015 C 
HETATM    2  C5  UNL     1      30.079 -10.609 -23.101  1.00  0.00     0.040 C 
HETATM    3  C6  UNL     1      30.766 -10.161 -24.417  1.00  0.00     0.192 C 
HETATM    4  C7  UNL     1      29.618  -9.117 -24.463  1.00  0.00    -0.014 C 
HETATM    5  C8  UNL     1      30.060  -7.738 -24.860  1.00  0.00     0.017 C 
HETATM    6  C9  UNL     1      28.455  -9.622 -25.242  1.00  0.00     0.017 C 
ENDROOT
BRANCH   1   7
HETATM    7  C3  UNL     1      28.182  -9.027 -22.331  1.00  0.00     0.119 C 
BRANCH   7   8
HETATM    8  N1  UNL     1      27.966  -9.552 -21.034  1.00  0.00    -0.416 N 
ATOM      9  H1  UNL     1      28.328  -9.053 -20.221  1.00  0.00     0.153 HD
BRANCH   8  10
HETATM   10  C2  UNL     1      27.260 -10.751 -20.853  1.00  0.00     0.079 C 
HETATM   11  C1  UNL     1      25.892 -10.665 -21.514  1.00  0.00     0.032 C 
BRANCH  10  12
HETATM   12  C10 UNL     1      27.116 -11.137 -19.383  1.00  0.00    -0.032 C 
HETATM   13  C11 UNL     1      27.927 -10.149 -18.527  1.00  0.00     0.016 C 
HETATM   14  C12 UNL     1      27.714 -12.496 -19.138  1.00  0.00     0.016 C 
HETATM   15  C13 UNL     1      25.698 -11.110 -18.900  1.00  0.00     0.016 C 
ENDBRANCH  10  12
ENDBRANCH   8  10
ENDBRANCH   7   8
ENDBRANCH   1   7
BRANCH   3  16
HETATM   16  N2  UNL     1      31.986  -9.515 -24.094  1.00  0.00    -0.074 N 
ATOM     17  H23 UNL     1      31.927  -8.501 -24.184  1.00  0.00     0.274 HD
ATOM     18  H22 UNL     1      32.198  -9.555 -23.097  1.00  0.00     0.274 HD
ATOM     19  H21 UNL     1      32.729  -9.916 -24.667  1.00  0.00     0.274 HD
ENDBRANCH   3  16
TORSDOF 5
ENDMDL
MODEL 5
REMARK VINA RESULT: -5.220192117      1.620      5.762
REMARK  5 active torsions:
REMARK  status: ('A' for Active; 'I' for Inactive)
REMARK    1  A    between atoms: C2_2  and  N1_3 
REMARK    2  A    between atoms: C2_2  and  C10_16 
REMARK    3  A    between atoms: N1_3  and  C3_5 
REMARK    4  A    between atoms: C3_5  and  C4_6 
REMARK    5  A    between atoms: C6_8  and  N2_9 
ROOT
HETATM    1  C4  UNL     1      29.101  -8.876 -23.006  1.00  0.00     0.015 C 
HETATM    2  C5  UNL     1      30.192  -8.118 -23.695  1.00  0.00     0.040 C 
HETATM    3  C6  UNL     1      29.917  -8.922 -24.991  1.00  0.00     0.192 C 
HETATM    4  C7  UNL     1      29.360  -9.989 -24.011  1.00  0.00    -0.014 C 
HETATM    5  C8  UNL     1      28.073 -10.620 -24.460  1.00  0.00     0.017 C 
HETATM    6  C9  UNL     1      30.407 -10.972 -23.625  1.00  0.00     0.017 C 
ENDROOT
BRANCH   1   7
HETATM    7  C3  UNL     1      29.172  -9.193 -21.572  1.00  0.00     0.119 C 
BRANCH   7   8
HETATM    8  N1  UNL     1      27.957  -9.299 -20.854  1.00  0.00    -0.416 N 
ATOM      9  H1  UNL     1      27.539  -8.463 -20.444  1.00  0.00     0.153 HD
BRANCH   8  10
HETATM   10  C2  UNL     1      27.318 -10.539 -20.700  1.00  0.00     0.079 C 
HETATM   11  C1  UNL     1      25.957 -10.522 -21.381  1.00  0.00     0.032 C 
BRANCH  10  12
HETATM   12  C10 UNL     1      27.175 -10.953 -19.239  1.00  0.00    -0.032 C 
HETATM   13  C11 UNL     1      27.748 -12.371 -19.064  1.00  0.00     0.016 C 
HETATM   14  C12 UNL     1      25.721 -11.036 -18.859  1.00  0.00     0.016 C 
HETATM   15  C13 UNL     1      27.898 -10.045 -18.292  1.00  0.00     0.016 C 
ENDBRANCH  10  12
ENDBRANCH   8  10
ENDBRANCH   7   8
ENDBRANCH   1   7
BRANCH   3  16
HETATM   16  N2  UNL     1      28.846  -8.307 -25.687  1.00  0.00    -0.074 N 
ATOM     17  H23 UNL     1      28.703  -7.337 -25.406  1.00  0.00     0.274 HD
ATOM     18  H22 UNL     1      29.064  -8.136 -26.669  1.00  0.00     0.274 HD
ATOM     19  H21 UNL     1      28.008  -8.876 -25.566  1.00  0.00     0.274 HD
ENDBRANCH   3  16
TORSDOF 5
ENDMDL
