MODEL 1
REMARK VINA RESULT: -6.547864332      0.000      0.000
REMARK  4 active torsions:
REMARK  status: ('A' for Active; 'I' for Inactive)
REMARK    1  A    between atoms: C2_2  and  N1_3 
REMARK    2  A    between atoms: N1_3  and  C3_5 
REMARK    3  A    between atoms: C3_5  and  C4_6 
REMARK    4  A    between atoms: C4_6  and  O1_7 
ROOT
HETATM    1  C4  UNL     1      -8.093 -23.939  28.942  1.00  0.00     0.078 C 
HETATM    2  C5  UNL     1      -9.527 -24.045  28.370  1.00  0.00     0.045 C 
HETATM    3  C6  UNL     1     -10.070 -25.062  29.320  1.00  0.00    -0.002 A 
HETATM    4  C7  UNL     1     -10.106 -26.454  29.473  1.00  0.00    -0.005 A 
HETATM    5  C8  UNL     1      -9.745 -27.200  30.769  1.00  0.00     0.010 C 
HETATM    6  C9  UNL     1      -8.760 -26.514  31.613  1.00  0.00    -0.010 C 
HETATM    7  C10 UNL     1      -7.743 -27.549  32.113  1.00  0.00     0.005 C 
HETATM    8  C11 UNL     1      -6.774 -26.564  32.771  1.00  0.00     0.001 C 
HETATM    9  C12 UNL     1      -6.543 -25.626  31.608  1.00  0.00     0.005 C 
HETATM   10  C13 UNL     1      -7.968 -25.381  31.055  1.00  0.00    -0.003 C 
HETATM   11  C14 UNL     1      -7.840 -25.306  29.601  1.00  0.00     0.031 C 
HETATM   12  C15 UNL     1      -8.906 -26.053  28.904  1.00  0.00     0.002 A 
ENDROOT
BRANCH   1  13
HETATM   13  C3  UNL     1      -7.921 -22.792  29.824  1.00  0.00     0.152 C 
BRANCH  13  14
HETATM   14  N1  UNL     1      -7.566 -21.587  29.149  1.00  0.00    -0.419 N 
ATOM     15  H1  UNL     1      -6.776 -21.546  28.504  1.00  0.00     0.153 HD
BRANCH  14  16
HETATM   16  C2  UNL     1      -8.366 -20.445  29.421  1.00  0.00     0.109 C 
HETATM   17  C1  UNL     1      -9.471 -20.403  28.352  1.00  0.00     0.026 C 
ENDBRANCH  14  16
ENDBRANCH  13  14
ENDBRANCH   1  13
BRANCH   1  18
HETATM   18  O1  UNL     1      -7.251 -23.914  27.833  1.00  0.00    -0.388 OA
ATOM     19  H1  UNL     1      -6.947 -24.775  27.571  1.00  0.00     0.210 HD
ENDBRANCH   1  18
TORSDOF 4
ENDMDL
MODEL 2
REMARK VINA RESULT: -6.418138032      1.730      4.699
REMARK  4 active torsions:
REMARK  status: ('A' for Active; 'I' for Inactive)
REMARK    1  A    between atoms: C2_2  and  N1_3 
REMARK    2  A    between atoms: N1_3  and  C3_5 
REMARK    3  A    between atoms: C3_5  and  C4_6 
REMARK    4  A    between atoms: C4_6  and  O1_7 
ROOT
HETATM    1  C4  UNL     1      -7.920 -23.162  29.148  1.00  0.00     0.078 C 
HETATM    2  C5  UNL     1      -7.889 -21.628  29.352  1.00  0.00     0.045 C 
HETATM    3  C6  UNL     1      -9.353 -21.358  29.216  1.00  0.00    -0.002 A 
HETATM    4  C7  UNL     1     -10.297 -21.132  28.206  1.00  0.00    -0.005 A 
HETATM    5  C8  UNL     1     -11.648 -21.859  28.095  1.00  0.00     0.010 C 
HETATM    6  C9  UNL     1     -11.657 -23.216  28.653  1.00  0.00    -0.010 C 
HETATM    7  C10 UNL     1     -12.403 -24.138  27.680  1.00  0.00     0.005 C 
HETATM    8  C11 UNL     1     -12.098 -25.458  28.391  1.00  0.00     0.001 C 
HETATM    9  C12 UNL     1     -10.593 -25.348  28.485  1.00  0.00     0.005 C 
HETATM   10  C13 UNL     1     -10.368 -23.895  28.971  1.00  0.00    -0.003 C 
HETATM   11  C14 UNL     1      -9.171 -23.410  28.287  1.00  0.00     0.031 C 
HETATM   12  C15 UNL     1      -9.331 -22.032  27.782  1.00  0.00     0.002 A 
ENDROOT
BRANCH   1  13
HETATM   13  C3  UNL     1      -7.885 -23.899  30.405  1.00  0.00     0.152 C 
BRANCH  13  14
HETATM   14  N1  UNL     1      -6.618 -23.874  31.059  1.00  0.00    -0.419 N 
ATOM     15  H1  UNL     1      -6.208 -23.005  31.401  1.00  0.00     0.153 HD
BRANCH  14  16
HETATM   16  C2  UNL     1      -5.956 -25.122  31.211  1.00  0.00     0.109 C 
HETATM   17  C1  UNL     1      -6.921 -26.209  30.708  1.00  0.00     0.026 C 
ENDBRANCH  14  16
ENDBRANCH  13  14
ENDBRANCH   1  13
BRANCH   1  18
HETATM   18  O1  UNL     1      -6.845 -23.448  28.310  1.00  0.00    -0.388 OA
ATOM     19  H1  UNL     1      -6.027 -23.575  28.776  1.00  0.00     0.210 HD
ENDBRANCH   1  18
TORSDOF 4
ENDMDL
MODEL 3
REMARK VINA RESULT: -6.416771901      1.677      3.598
REMARK  4 active torsions:
REMARK  status: ('A' for Active; 'I' for Inactive)
REMARK    1  A    between atoms: C2_2  and  N1_3 
REMARK    2  A    between atoms: N1_3  and  C3_5 
REMARK    3  A    between atoms: C3_5  and  C4_6 
REMARK    4  A    between atoms: C4_6  and  O1_7 
ROOT
HETATM    1  C4  UNL     1      -7.679 -23.811  29.199  1.00  0.00     0.078 C 
HETATM    2  C5  UNL     1      -8.462 -22.513  28.887  1.00  0.00     0.045 C 
HETATM    3  C6  UNL     1      -9.848 -23.060  28.993  1.00  0.00    -0.002 A 
HETATM    4  C7  UNL     1     -10.784 -23.731  28.196  1.00  0.00    -0.005 A 
HETATM    5  C8  UNL     1     -11.547 -24.997  28.621  1.00  0.00     0.010 C 
HETATM    6  C9  UNL     1     -10.827 -25.851  29.574  1.00  0.00    -0.010 C 
HETATM    7  C10 UNL     1     -10.988 -27.312  29.135  1.00  0.00     0.005 C 
HETATM    8  C11 UNL     1     -10.019 -27.925  30.148  1.00  0.00     0.001 C 
HETATM    9  C12 UNL     1      -8.799 -27.076  29.872  1.00  0.00     0.005 C 
HETATM   10  C13 UNL     1      -9.369 -25.638  29.804  1.00  0.00    -0.003 C 
HETATM   11  C14 UNL     1      -8.622 -24.944  28.757  1.00  0.00     0.031 C 
HETATM   12  C15 UNL     1      -9.495 -24.136  27.883  1.00  0.00     0.002 A 
ENDROOT
BRANCH   1  13
HETATM   13  C3  UNL     1      -7.240 -23.886  30.586  1.00  0.00     0.152 C 
BRANCH  13  14
HETATM   14  N1  UNL     1      -6.050 -24.648  30.780  1.00  0.00    -0.419 N 
ATOM     15  H1  UNL     1      -5.220 -24.503  30.205  1.00  0.00     0.153 HD
BRANCH  14  16
HETATM   16  C2  UNL     1      -6.080 -25.621  31.816  1.00  0.00     0.109 C 
HETATM   17  C1  UNL     1      -5.438 -26.900  31.252  1.00  0.00     0.026 C 
ENDBRANCH  14  16
ENDBRANCH  13  14
ENDBRANCH   1  13
BRANCH   1  18
HETATM   18  O1  UNL     1      -6.629 -23.842  28.285  1.00  0.00    -0.388 OA
ATOM     19  H1  UNL     1      -6.891 -23.611  27.401  1.00  0.00     0.210 HD
ENDBRANCH   1  18
TORSDOF 4
ENDMDL
MODEL 4
REMARK VINA RESULT: -6.354079954      2.558      4.335
REMARK  4 active torsions:
REMARK  status: ('A' for Active; 'I' for Inactive)
REMARK    1  A    between atoms: C2_2  and  N1_3 
REMARK    2  A    between atoms: N1_3  and  C3_5 
REMARK    3  A    between atoms: C3_5  and  C4_6 
REMARK    4  A    between atoms: C4_6  and  O1_7 
ROOT
HETATM    1  C4  UNL     1      -7.566 -26.158  31.910  1.00  0.00     0.078 C 
HETATM    2  C5  UNL     1      -6.072 -25.823  32.141  1.00  0.00     0.045 C 
HETATM    3  C6  UNL     1      -5.471 -26.909  31.310  1.00  0.00    -0.002 A 
HETATM    4  C7  UNL     1      -5.113 -28.258  31.430  1.00  0.00    -0.005 A 
HETATM    5  C8  UNL     1      -5.500 -29.358  30.427  1.00  0.00     0.010 C 
HETATM    6  C9  UNL     1      -6.762 -29.118  29.718  1.00  0.00    -0.010 C 
HETATM    7  C10 UNL     1      -7.558 -30.430  29.683  1.00  0.00     0.005 C 
HETATM    8  C11 UNL     1      -8.846 -29.859  29.088  1.00  0.00     0.001 C 
HETATM    9  C12 UNL     1      -9.094 -28.731  30.065  1.00  0.00     0.005 C 
HETATM   10  C13 UNL     1      -7.702 -28.070  30.211  1.00  0.00    -0.003 C 
HETATM   11  C14 UNL     1      -7.579 -27.667  31.611  1.00  0.00     0.031 C 
HETATM   12  C15 UNL     1      -6.251 -27.985  32.173  1.00  0.00     0.002 A 
ENDROOT
BRANCH   1  13
HETATM   13  C3  UNL     1      -8.178 -25.324  30.884  1.00  0.00     0.152 C 
BRANCH  13  14
HETATM   14  N1  UNL     1      -7.723 -23.972  30.884  1.00  0.00    -0.419 N 
ATOM     15  H1  UNL     1      -7.351 -23.532  31.726  1.00  0.00     0.153 HD
BRANCH  14  16
HETATM   16  C2  UNL     1      -7.814 -23.270  29.653  1.00  0.00     0.109 C 
HETATM   17  C1  UNL     1      -7.150 -24.151  28.581  1.00  0.00     0.026 C 
ENDBRANCH  14  16
ENDBRANCH  13  14
ENDBRANCH   1  13
BRANCH   1  18
HETATM   18  O1  UNL     1      -8.172 -26.034  33.157  1.00  0.00    -0.388 OA
ATOM     19  H1  UNL     1      -8.127 -25.154  33.513  1.00  0.00     0.210 HD
ENDBRANCH   1  18
TORSDOF 4
ENDMDL
MODEL 5
REMARK VINA RESULT: -6.286583066     11.256     13.187
REMARK  4 active torsions:
REMARK  status: ('A' for Active; 'I' for Inactive)
REMARK    1  A    between atoms: C2_2  and  N1_3 
REMARK    2  A    between atoms: N1_3  and  C3_5 
REMARK    3  A    between atoms: C3_5  and  C4_6 
REMARK    4  A    between atoms: C4_6  and  O1_7 
ROOT
HETATM    1  C4  UNL     1      -5.975 -14.043  22.733  1.00  0.00     0.078 C 
HETATM    2  C5  UNL     1      -5.445 -14.763  23.996  1.00  0.00     0.045 C 
HETATM    3  C6  UNL     1      -6.689 -15.503  24.367  1.00  0.00    -0.002 A 
HETATM    4  C7  UNL     1      -7.877 -15.286  25.077  1.00  0.00    -0.005 A 
HETATM    5  C8  UNL     1      -9.283 -15.613  24.548  1.00  0.00     0.010 C 
HETATM    6  C9  UNL     1      -9.418 -15.539  23.088  1.00  0.00    -0.010 C 
HETATM    7  C10 UNL     1     -10.730 -14.817  22.756  1.00  0.00     0.005 C 
HETATM    8  C11 UNL     1     -10.518 -14.715  21.244  1.00  0.00     0.001 C 
HETATM    9  C12 UNL     1      -9.153 -14.065  21.227  1.00  0.00     0.005 C 
HETATM   10  C13 UNL     1      -8.355 -14.874  22.279  1.00  0.00    -0.003 C 
HETATM   11  C14 UNL     1      -7.491 -13.918  22.969  1.00  0.00     0.031 C 
HETATM   12  C15 UNL     1      -7.473 -14.127  24.430  1.00  0.00     0.002 A 
ENDROOT
BRANCH   1  13
HETATM   13  C3  UNL     1      -5.601 -14.721  21.499  1.00  0.00     0.152 C 
BRANCH  13  14
HETATM   14  N1  UNL     1      -4.948 -13.882  20.548  1.00  0.00    -0.419 N 
ATOM     15  H1  UNL     1      -4.421 -13.057  20.834  1.00  0.00     0.153 HD
BRANCH  14  16
HETATM   16  C2  UNL     1      -5.067 -14.255  19.182  1.00  0.00     0.109 C 
HETATM   17  C1  UNL     1      -6.498 -13.902  18.742  1.00  0.00     0.026 C 
ENDBRANCH  14  16
ENDBRANCH  13  14
ENDBRANCH   1  13
BRANCH   1  18
HETATM   18  O1  UNL     1      -5.491 -12.740  22.816  1.00  0.00    -0.388 OA
ATOM     19  H1  UNL     1      -6.167 -12.097  22.995  1.00  0.00     0.210 HD
ENDBRANCH   1  18
TORSDOF 4
ENDMDL
