MODEL 1
REMARK VINA RESULT: -6.468634636      0.000      0.000
REMARK  5 active torsions:
REMARK  status: ('A' for Active; 'I' for Inactive)
REMARK    1  A    between atoms: C2_3  and  C3_4 
REMARK    2  A    between atoms: C6_7  and  C7_8 
REMARK    3  A    between atoms: C7_8  and  N2_9 
REMARK    4  A    between atoms: C7_8  and  C8_13 
REMARK    5  A    between atoms: C8_13  and  O1_14 
ROOT
HETATM    1  C1  UNL     1     -12.734 -25.630  29.258  1.00  0.00     0.222 C 
HETATM    2  N1  UNL     1     -11.659 -25.433  28.846  1.00  0.00    -0.460 NA
HETATM    3  C2  UNL     1     -10.357 -25.219  28.341  1.00  0.00     0.096 C 
HETATM    4  C5  UNL     1      -9.610 -24.181  29.144  1.00  0.00     0.057 C 
HETATM    5  C6  UNL     1      -9.612 -22.850  28.425  1.00  0.00    -0.006 C 
HETATM    6  C9  UNL     1     -11.016 -22.387  28.300  1.00  0.00     0.012 C 
HETATM    7  C10 UNL     1     -11.783 -22.823  27.134  1.00  0.00     0.006 C 
HETATM    8  C11 UNL     1     -11.393 -24.000  26.383  1.00  0.00    -0.006 C 
HETATM    9  C12 UNL     1     -10.369 -23.658  25.286  1.00  0.00     0.010 C 
HETATM   10  C13 UNL     1      -9.321 -24.158  26.297  1.00  0.00    -0.006 C 
HETATM   11  C14 UNL     1      -8.898 -22.977  27.084  1.00  0.00     0.016 C 
HETATM   12  C15 UNL     1     -10.438 -24.964  26.902  1.00  0.00     0.035 C 
ENDROOT
BRANCH   3  13
HETATM   13  C3  UNL     1      -9.613 -26.548  28.553  1.00  0.00     0.042 C 
HETATM   14  C4  UNL     1      -8.581 -26.429  29.645  1.00  0.00     0.009 C 
ENDBRANCH   3  13
BRANCH   5  15
HETATM   15  C7  UNL     1      -8.801 -21.876  29.231  1.00  0.00     0.215 C 
BRANCH  15  16
HETATM   16  N2  UNL     1      -7.430 -22.271  29.406  1.00  0.00    -0.072 N 
ATOM     17  H23 UNL     1      -7.355 -23.009  30.107  1.00  0.00     0.274 HD
ATOM     18  H22 UNL     1      -7.094 -22.778  28.588  1.00  0.00     0.274 HD
ATOM     19  H21 UNL     1      -6.805 -21.497  29.632  1.00  0.00     0.274 HD
ENDBRANCH  15  16
BRANCH  15  20
HETATM   20  C8  UNL     1      -8.831 -20.471  28.715  1.00  0.00     0.197 C 
BRANCH  20  21
HETATM   21  O1  UNL     1      -7.588 -19.841  28.764  1.00  0.00    -0.399 OA
ATOM     22  H1  UNL     1      -7.123 -19.865  27.937  1.00  0.00     0.209 HD
ENDBRANCH  20  21
ENDBRANCH  15  20
ENDBRANCH   5  15
TORSDOF 5
ENDMDL
MODEL 2
REMARK VINA RESULT: -6.452494906      3.237      5.047
REMARK  5 active torsions:
REMARK  status: ('A' for Active; 'I' for Inactive)
REMARK    1  A    between atoms: C2_3  and  C3_4 
REMARK    2  A    between atoms: C6_7  and  C7_8 
REMARK    3  A    between atoms: C7_8  and  N2_9 
REMARK    4  A    between atoms: C7_8  and  C8_13 
REMARK    5  A    between atoms: C8_13  and  O1_14 
ROOT
HETATM    1  C1  UNL     1      -6.512 -28.285  33.286  1.00  0.00     0.222 C 
HETATM    2  N1  UNL     1      -6.733 -28.035  32.167  1.00  0.00    -0.460 NA
HETATM    3  C2  UNL     1      -6.991 -27.753  30.806  1.00  0.00     0.096 C 
HETATM    4  C5  UNL     1      -6.829 -26.283  30.500  1.00  0.00     0.057 C 
HETATM    5  C6  UNL     1      -8.180 -25.605  30.422  1.00  0.00    -0.006 C 
HETATM    6  C9  UNL     1      -8.835 -25.711  31.748  1.00  0.00     0.012 C 
HETATM    7  C10 UNL     1      -9.640 -26.900  32.025  1.00  0.00     0.006 C 
HETATM    8  C11 UNL     1      -9.449 -28.121  31.270  1.00  0.00    -0.006 C 
HETATM    9  C12 UNL     1     -10.300 -28.133  29.988  1.00  0.00     0.010 C 
HETATM   10  C13 UNL     1      -9.005 -27.690  29.284  1.00  0.00    -0.006 C 
HETATM   11  C14 UNL     1      -9.006 -26.209  29.292  1.00  0.00     0.016 C 
HETATM   12  C15 UNL     1      -8.281 -28.336  30.433  1.00  0.00     0.035 C 
ENDROOT
BRANCH   3  13
HETATM   13  C3  UNL     1      -5.888 -28.483  30.022  1.00  0.00     0.042 C 
HETATM   14  C4  UNL     1      -6.193 -29.953  29.891  1.00  0.00     0.009 C 
ENDBRANCH   3  13
BRANCH   5  15
HETATM   15  C7  UNL     1      -7.965 -24.167  30.048  1.00  0.00     0.215 C 
BRANCH  15  16
HETATM   16  N2  UNL     1      -6.947 -23.513  30.824  1.00  0.00    -0.072 N 
ATOM     17  H23 UNL     1      -6.284 -24.193  31.193  1.00  0.00     0.274 HD
ATOM     18  H22 UNL     1      -6.324 -22.976  30.220  1.00  0.00     0.274 HD
ATOM     19  H21 UNL     1      -7.314 -22.926  31.573  1.00  0.00     0.274 HD
ENDBRANCH  15  16
BRANCH  15  20
HETATM   20  C8  UNL     1      -7.677 -23.942  28.596  1.00  0.00     0.197 C 
BRANCH  20  21
HETATM   21  O1  UNL     1      -6.334 -23.667  28.338  1.00  0.00    -0.399 OA
ATOM     22  H1  UNL     1      -6.171 -23.410  27.439  1.00  0.00     0.209 HD
ENDBRANCH  20  21
ENDBRANCH  15  20
ENDBRANCH   5  15
TORSDOF 5
ENDMDL
MODEL 3
REMARK VINA RESULT: -6.201905402      1.583      2.528
REMARK  5 active torsions:
REMARK  status: ('A' for Active; 'I' for Inactive)
REMARK    1  A    between atoms: C2_3  and  C3_4 
REMARK    2  A    between atoms: C6_7  and  C7_8 
REMARK    3  A    between atoms: C7_8  and  N2_9 
REMARK    4  A    between atoms: C7_8  and  C8_13 
REMARK    5  A    between atoms: C8_13  and  O1_14 
ROOT
HETATM    1  C1  UNL     1     -13.582 -21.480  26.696  1.00  0.00     0.222 C 
HETATM    2  N1  UNL     1     -12.833 -22.252  27.152  1.00  0.00    -0.460 NA
HETATM    3  C2  UNL     1     -11.944 -23.202  27.704  1.00  0.00     0.096 C 
HETATM    4  C5  UNL     1     -11.015 -22.577  28.716  1.00  0.00     0.057 C 
HETATM    5  C6  UNL     1      -9.651 -22.334  28.107  1.00  0.00    -0.006 C 
HETATM    6  C9  UNL     1      -9.802 -21.370  26.990  1.00  0.00     0.012 C 
HETATM    7  C10 UNL     1     -10.110 -21.898  25.662  1.00  0.00     0.006 C 
HETATM    8  C11 UNL     1     -10.701 -23.212  25.502  1.00  0.00    -0.006 C 
HETATM    9  C12 UNL     1      -9.627 -24.311  25.430  1.00  0.00     0.010 C 
HETATM   10  C13 UNL     1      -9.945 -24.531  26.920  1.00  0.00    -0.006 C 
HETATM   11  C14 UNL     1      -9.023 -23.657  27.682  1.00  0.00     0.016 C 
HETATM   12  C15 UNL     1     -11.291 -23.933  26.616  1.00  0.00     0.035 C 
ENDROOT
BRANCH   3  13
HETATM   13  C3  UNL     1     -12.831 -24.188  28.481  1.00  0.00     0.042 C 
HETATM   14  C4  UNL     1     -13.586 -25.098  27.546  1.00  0.00     0.009 C 
ENDBRANCH   3  13
BRANCH   5  15
HETATM   15  C7  UNL     1      -8.751 -21.778  29.173  1.00  0.00     0.215 C 
BRANCH  15  16
HETATM   16  N2  UNL     1      -7.422 -22.326  29.153  1.00  0.00    -0.072 N 
ATOM     17  H23 UNL     1      -7.379 -23.140  28.541  1.00  0.00     0.274 HD
ATOM     18  H22 UNL     1      -6.784 -21.704  28.656  1.00  0.00     0.274 HD
ATOM     19  H21 UNL     1      -7.056 -22.551  30.078  1.00  0.00     0.274 HD
ENDBRANCH  15  16
BRANCH  15  20
HETATM   20  C8  UNL     1      -8.651 -20.284  29.179  1.00  0.00     0.197 C 
BRANCH  20  21
HETATM   21  O1  UNL     1      -7.386 -19.816  28.825  1.00  0.00    -0.399 OA
ATOM     22  H1  UNL     1      -7.392 -19.274  28.046  1.00  0.00     0.209 HD
ENDBRANCH  20  21
ENDBRANCH  15  20
ENDBRANCH   5  15
TORSDOF 5
ENDMDL
MODEL 4
REMARK VINA RESULT: -6.144363601      2.107      3.963
REMARK  5 active torsions:
REMARK  status: ('A' for Active; 'I' for Inactive)
REMARK    1  A    between atoms: C2_3  and  C3_4 
REMARK    2  A    between atoms: C6_7  and  C7_8 
REMARK    3  A    between atoms: C7_8  and  N2_9 
REMARK    4  A    between atoms: C7_8  and  C8_13 
REMARK    5  A    between atoms: C8_13  and  O1_14 
ROOT
HETATM    1  C1  UNL     1     -10.482 -21.688  24.258  1.00  0.00     0.222 C 
HETATM    2  N1  UNL     1     -10.659 -21.746  25.411  1.00  0.00    -0.460 NA
HETATM    3  C2  UNL     1     -10.894 -21.805  26.803  1.00  0.00     0.096 C 
HETATM    4  C5  UNL     1      -9.609 -21.704  27.591  1.00  0.00     0.057 C 
HETATM    5  C6  UNL     1      -9.171 -23.071  28.071  1.00  0.00    -0.006 C 
HETATM    6  C9  UNL     1      -8.898 -23.918  26.885  1.00  0.00     0.012 C 
HETATM    7  C10 UNL     1     -10.010 -24.669  26.304  1.00  0.00     0.006 C 
HETATM    8  C11 UNL     1     -11.383 -24.272  26.545  1.00  0.00    -0.006 C 
HETATM    9  C12 UNL     1     -11.937 -24.906  27.833  1.00  0.00     0.010 C 
HETATM   10  C13 UNL     1     -11.605 -23.551  28.484  1.00  0.00    -0.006 C 
HETATM   11  C14 UNL     1     -10.223 -23.661  29.004  1.00  0.00     0.016 C 
HETATM   12  C15 UNL     1     -11.724 -22.973  27.100  1.00  0.00     0.035 C 
ENDROOT
BRANCH   3  13
HETATM   13  C3  UNL     1     -11.705 -20.542  27.134  1.00  0.00     0.042 C 
HETATM   14  C4  UNL     1     -13.163 -20.726  26.802  1.00  0.00     0.009 C 
ENDBRANCH   3  13
BRANCH   5  15
HETATM   15  C7  UNL     1      -7.933 -22.904  28.903  1.00  0.00     0.215 C 
BRANCH  15  16
HETATM   16  N2  UNL     1      -7.720 -21.559  29.363  1.00  0.00    -0.072 N 
ATOM     17  H23 UNL     1      -7.728 -21.521  30.382  1.00  0.00     0.274 HD
ATOM     18  H22 UNL     1      -6.759 -21.266  29.188  1.00  0.00     0.274 HD
ATOM     19  H21 UNL     1      -8.377 -20.882  28.973  1.00  0.00     0.274 HD
ENDBRANCH  15  16
BRANCH  15  20
HETATM   20  C8  UNL     1      -7.849 -23.828  30.078  1.00  0.00     0.197 C 
BRANCH  20  21
HETATM   21  O1  UNL     1      -6.958 -23.392  31.058  1.00  0.00    -0.399 OA
ATOM     22  H1  UNL     1      -6.050 -23.566  30.843  1.00  0.00     0.209 HD
ENDBRANCH  20  21
ENDBRANCH  15  20
ENDBRANCH   5  15
TORSDOF 5
ENDMDL
MODEL 5
REMARK VINA RESULT: -6.001553513      3.741      5.102
REMARK  5 active torsions:
REMARK  status: ('A' for Active; 'I' for Inactive)
REMARK    1  A    between atoms: C2_3  and  C3_4 
REMARK    2  A    between atoms: C6_7  and  C7_8 
REMARK    3  A    between atoms: C7_8  and  N2_9 
REMARK    4  A    between atoms: C7_8  and  C8_13 
REMARK    5  A    between atoms: C8_13  and  O1_14 
ROOT
HETATM    1  C1  UNL     1      -7.623 -29.586  32.884  1.00  0.00     0.222 C 
HETATM    2  N1  UNL     1      -7.607 -29.099  31.823  1.00  0.00    -0.460 NA
HETATM    3  C2  UNL     1      -7.587 -28.532  30.528  1.00  0.00     0.096 C 
HETATM    4  C5  UNL     1      -6.735 -27.287  30.477  1.00  0.00     0.057 C 
HETATM    5  C6  UNL     1      -7.603 -26.047  30.507  1.00  0.00    -0.006 C 
HETATM    6  C9  UNL     1      -8.342 -26.025  31.793  1.00  0.00     0.012 C 
HETATM    7  C10 UNL     1      -9.629 -26.718  31.860  1.00  0.00     0.006 C 
HETATM    8  C11 UNL     1      -9.963 -27.759  30.909  1.00  0.00    -0.006 C 
HETATM    9  C12 UNL     1     -10.610 -27.178  29.639  1.00  0.00     0.010 C 
HETATM   10  C13 UNL     1      -9.203 -27.302  29.028  1.00  0.00    -0.006 C 
HETATM   11  C14 UNL     1      -8.516 -26.016  29.287  1.00  0.00     0.016 C 
HETATM   12  C15 UNL     1      -8.963 -28.374  30.055  1.00  0.00     0.035 C 
ENDROOT
BRANCH   3  13
HETATM   13  C3  UNL     1      -6.888 -29.572  29.638  1.00  0.00     0.042 C 
HETATM   14  C4  UNL     1      -5.390 -29.410  29.680  1.00  0.00     0.009 C 
ENDBRANCH   3  13
BRANCH   5  15
HETATM   15  C7  UNL     1      -6.713 -24.844  30.384  1.00  0.00     0.215 C 
BRANCH  15  16
HETATM   16  N2  UNL     1      -7.428 -23.609  30.216  1.00  0.00    -0.072 N 
ATOM     17  H23 UNL     1      -8.431 -23.757  30.327  1.00  0.00     0.274 HD
ATOM     18  H22 UNL     1      -7.259 -22.984  31.004  1.00  0.00     0.274 HD
ATOM     19  H21 UNL     1      -7.230 -23.136  29.333  1.00  0.00     0.274 HD
ENDBRANCH  15  16
BRANCH  15  20
HETATM   20  C8  UNL     1      -5.737 -24.681  31.508  1.00  0.00     0.197 C 
BRANCH  20  21
HETATM   21  O1  UNL     1      -5.565 -23.354  31.898  1.00  0.00    -0.399 OA
ATOM     22  H1  UNL     1      -6.385 -22.890  32.020  1.00  0.00     0.209 HD
ENDBRANCH  20  21
ENDBRANCH  15  20
ENDBRANCH   5  15
TORSDOF 5
ENDMDL
