MODEL 1
REMARK VINA RESULT: -6.412957747      0.000      0.000
REMARK  5 active torsions:
REMARK  status: ('A' for Active; 'I' for Inactive)
REMARK    1  A    between atoms: C6_9  and  N2_10 
REMARK    2  A    between atoms: N2_10  and  C7_12 
REMARK    3  A    between atoms: C7_12  and  C8_13 
REMARK    4  A    between atoms: C8_13  and  C9_14 
REMARK    5  A    between atoms: C10_15  and  C11_16 
ROOT
HETATM    1  N2  UNL     1      -9.809 -24.132  27.955  1.00  0.00    -0.414 N 
ATOM      2  H2  UNL     1     -10.051 -24.448  27.016  1.00  0.00     0.153 HD
ENDROOT
BRANCH   1   3
HETATM    3  C6  UNL     1      -9.235 -22.841  28.170  1.00  0.00     0.105 C 
HETATM    4  C2  UNL     1     -10.153 -21.674  28.089  1.00  0.00     0.007 C 
HETATM    5  C1  UNL     1     -11.125 -21.502  29.198  1.00  0.00     0.012 C 
HETATM    6  C3  UNL     1      -9.261 -20.417  28.061  1.00  0.00     0.034 C 
HETATM    7  C4  UNL     1      -8.420 -20.435  29.316  1.00  0.00     0.232 C 
HETATM    8  N1  UNL     1      -7.570 -21.613  29.368  1.00  0.00    -0.073 N 
HETATM    9  C5  UNL     1      -8.317 -22.832  29.346  1.00  0.00     0.257 C 
ATOM     10  H12 UNL     1      -6.874 -21.596  28.623  1.00  0.00     0.277 HD
ATOM     11  H11 UNL     1      -6.947 -21.579  30.175  1.00  0.00     0.277 HD
ENDBRANCH   1   3
BRANCH   1  12
HETATM   12  C7  UNL     1     -10.030 -24.959  29.083  1.00  0.00     0.126 C 
BRANCH  12  13
HETATM   13  C8  UNL     1      -9.363 -26.298  28.821  1.00  0.00     0.113 C 
BRANCH  13  14
HETATM   14  C9  UNL     1      -8.153 -26.480  29.592  1.00  0.00    -0.105 C 
HETATM   15  C10 UNL     1      -7.145 -26.595  30.239  1.00  0.00    -0.101 C 
BRANCH  15  16
HETATM   16  C11 UNL     1      -5.903 -26.703  31.051  1.00  0.00     0.068 C 
HETATM   17  C12 UNL     1      -6.190 -26.408  32.485  1.00  0.00     0.044 C 
HETATM   18  C13 UNL     1      -6.353 -27.565  33.370  1.00  0.00    -0.029 C 
HETATM   19  C14 UNL     1      -6.458 -28.786  32.909  1.00  0.00    -0.031 C 
HETATM   20  C15 UNL     1      -6.415 -29.029  31.455  1.00  0.00     0.028 C 
HETATM   21  C16 UNL     1      -5.317 -28.093  30.926  1.00  0.00     0.021 C 
ENDBRANCH  15  16
ENDBRANCH  13  14
ENDBRANCH  12  13
ENDBRANCH   1  12
TORSDOF 5
ENDMDL
MODEL 2
REMARK VINA RESULT: -6.261558661      0.861      1.634
REMARK  5 active torsions:
REMARK  status: ('A' for Active; 'I' for Inactive)
REMARK    1  A    between atoms: C6_9  and  N2_10 
REMARK    2  A    between atoms: N2_10  and  C7_12 
REMARK    3  A    between atoms: C7_12  and  C8_13 
REMARK    4  A    between atoms: C8_13  and  C9_14 
REMARK    5  A    between atoms: C10_15  and  C11_16 
ROOT
HETATM    1  N2  UNL     1      -9.784 -24.172  27.992  1.00  0.00    -0.414 N 
ATOM      2  H2  UNL     1     -10.154 -24.428  27.077  1.00  0.00     0.153 HD
ENDROOT
BRANCH   1   3
HETATM    3  C6  UNL     1      -9.194 -22.889  28.214  1.00  0.00     0.105 C 
HETATM    4  C2  UNL     1     -10.091 -21.708  28.108  1.00  0.00     0.007 C 
HETATM    5  C1  UNL     1     -11.082 -21.516  29.197  1.00  0.00     0.012 C 
HETATM    6  C3  UNL     1      -9.178 -20.466  28.093  1.00  0.00     0.034 C 
HETATM    7  C4  UNL     1      -8.363 -20.492  29.366  1.00  0.00     0.232 C 
HETATM    8  N1  UNL     1      -7.534 -21.683  29.440  1.00  0.00    -0.073 N 
HETATM    9  C5  UNL     1      -8.300 -22.890  29.408  1.00  0.00     0.257 C 
ATOM     10  H12 UNL     1      -6.823 -21.681  28.709  1.00  0.00     0.277 HD
ATOM     11  H11 UNL     1      -6.928 -21.656  30.260  1.00  0.00     0.277 HD
ENDBRANCH   1   3
BRANCH   1  12
HETATM   12  C7  UNL     1      -9.839 -25.077  29.080  1.00  0.00     0.126 C 
BRANCH  12  13
HETATM   13  C8  UNL     1      -9.782 -26.488  28.521  1.00  0.00     0.113 C 
BRANCH  13  14
HETATM   14  C9  UNL     1      -8.963 -27.372  29.320  1.00  0.00    -0.105 C 
HETATM   15  C10 UNL     1      -8.284 -28.132  29.959  1.00  0.00    -0.101 C 
BRANCH  15  16
HETATM   16  C11 UNL     1      -7.438 -29.093  30.718  1.00  0.00     0.068 C 
HETATM   17  C12 UNL     1      -6.036 -29.070  30.208  1.00  0.00     0.044 C 
HETATM   18  C13 UNL     1      -5.073 -28.280  30.981  1.00  0.00    -0.029 C 
HETATM   19  C14 UNL     1      -5.446 -27.465  31.936  1.00  0.00    -0.031 C 
HETATM   20  C15 UNL     1      -6.878 -27.321  32.262  1.00  0.00     0.028 C 
HETATM   21  C16 UNL     1      -7.449 -28.747  32.191  1.00  0.00     0.021 C 
ENDBRANCH  15  16
ENDBRANCH  13  14
ENDBRANCH  12  13
ENDBRANCH   1  12
TORSDOF 5
ENDMDL
MODEL 3
REMARK VINA RESULT: -6.259884909      1.910      3.072
REMARK  5 active torsions:
REMARK  status: ('A' for Active; 'I' for Inactive)
REMARK    1  A    between atoms: C6_9  and  N2_10 
REMARK    2  A    between atoms: N2_10  and  C7_12 
REMARK    3  A    between atoms: C7_12  and  C8_13 
REMARK    4  A    between atoms: C8_13  and  C9_14 
REMARK    5  A    between atoms: C10_15  and  C11_16 
ROOT
HETATM    1  N2  UNL     1      -9.431 -22.976  28.832  1.00  0.00    -0.414 N 
ATOM      2  H2  UNL     1     -10.257 -22.919  29.427  1.00  0.00     0.153 HD
ENDROOT
BRANCH   1   3
HETATM    3  C6  UNL     1      -9.551 -23.214  27.428  1.00  0.00     0.105 C 
HETATM    4  C2  UNL     1     -10.310 -24.424  27.013  1.00  0.00     0.007 C 
HETATM    5  C1  UNL     1     -11.783 -24.394  27.204  1.00  0.00     0.012 C 
HETATM    6  C3  UNL     1     -10.046 -24.611  25.506  1.00  0.00     0.034 C 
HETATM    7  C4  UNL     1     -10.499 -23.348  24.811  1.00  0.00     0.232 C 
HETATM    8  N1  UNL     1      -9.756 -22.189  25.278  1.00  0.00    -0.073 N 
HETATM    9  C5  UNL     1      -9.903 -21.970  26.683  1.00  0.00     0.257 C 
ATOM     10  H12 UNL     1      -8.771 -22.256  25.020  1.00  0.00     0.277 HD
ATOM     11  H11 UNL     1     -10.008 -21.355  24.749  1.00  0.00     0.277 HD
ENDBRANCH   1   3
BRANCH   1  12
HETATM   12  C7  UNL     1      -8.131 -22.821  29.372  1.00  0.00     0.126 C 
BRANCH  12  13
HETATM   13  C8  UNL     1      -7.230 -23.865  28.734  1.00  0.00     0.113 C 
BRANCH  13  14
HETATM   14  C9  UNL     1      -7.318 -25.152  29.386  1.00  0.00    -0.105 C 
HETATM   15  C10 UNL     1      -7.387 -26.239  29.898  1.00  0.00    -0.101 C 
BRANCH  15  16
HETATM   16  C11 UNL     1      -7.460 -27.598  30.498  1.00  0.00     0.068 C 
HETATM   17  C12 UNL     1      -6.145 -28.294  30.375  1.00  0.00     0.044 C 
HETATM   18  C13 UNL     1      -5.289 -28.286  31.565  1.00  0.00    -0.029 C 
HETATM   19  C14 UNL     1      -5.550 -27.537  32.607  1.00  0.00    -0.031 C 
HETATM   20  C15 UNL     1      -6.739 -26.664  32.606  1.00  0.00     0.028 C 
HETATM   21  C16 UNL     1      -7.850 -27.504  31.957  1.00  0.00     0.021 C 
ENDBRANCH  15  16
ENDBRANCH  13  14
ENDBRANCH  12  13
ENDBRANCH   1  12
TORSDOF 5
ENDMDL
MODEL 4
REMARK VINA RESULT: -6.247988828      2.420      6.552
REMARK  5 active torsions:
REMARK  status: ('A' for Active; 'I' for Inactive)
REMARK    1  A    between atoms: C6_9  and  N2_10 
REMARK    2  A    between atoms: N2_10  and  C7_12 
REMARK    3  A    between atoms: C7_12  and  C8_13 
REMARK    4  A    between atoms: C8_13  and  C9_14 
REMARK    5  A    between atoms: C10_15  and  C11_16 
ROOT
HETATM    1  N2  UNL     1      -7.542 -22.861  29.360  1.00  0.00    -0.414 N 
ATOM      2  H2  UNL     1      -7.272 -23.091  28.404  1.00  0.00     0.153 HD
ENDROOT
BRANCH   1   3
HETATM    3  C6  UNL     1      -7.606 -23.872  30.369  1.00  0.00     0.105 C 
HETATM    4  C2  UNL     1      -8.693 -24.879  30.244  1.00  0.00     0.007 C 
HETATM    5  C1  UNL     1      -8.562 -25.879  29.154  1.00  0.00     0.012 C 
HETATM    6  C3  UNL     1      -8.726 -25.654  31.577  1.00  0.00     0.034 C 
HETATM    7  C4  UNL     1      -7.358 -26.264  31.776  1.00  0.00     0.232 C 
HETATM    8  N1  UNL     1      -6.327 -25.242  31.852  1.00  0.00    -0.073 N 
HETATM    9  C5  UNL     1      -6.260 -24.439  30.671  1.00  0.00     0.257 C 
ATOM     10  H12 UNL     1      -6.446 -24.663  32.683  1.00  0.00     0.277 HD
ATOM     11  H11 UNL     1      -5.419 -25.654  32.067  1.00  0.00     0.277 HD
ENDBRANCH   1   3
BRANCH   1  12
HETATM   12  C7  UNL     1      -7.864 -21.532  29.728  1.00  0.00     0.126 C 
BRANCH  12  13
HETATM   13  C8  UNL     1      -8.850 -20.989  28.708  1.00  0.00     0.113 C 
BRANCH  13  14
HETATM   14  C9  UNL     1     -10.021 -21.826  28.563  1.00  0.00    -0.105 C 
HETATM   15  C10 UNL     1     -10.987 -22.526  28.407  1.00  0.00    -0.101 C 
BRANCH  15  16
HETATM   16  C11 UNL     1     -12.168 -23.402  28.182  1.00  0.00     0.068 C 
HETATM   17  C12 UNL     1     -13.036 -22.841  27.105  1.00  0.00     0.044 C 
HETATM   18  C13 UNL     1     -12.886 -23.432  25.772  1.00  0.00    -0.029 C 
HETATM   19  C14 UNL     1     -11.907 -24.250  25.478  1.00  0.00    -0.031 C 
HETATM   20  C15 UNL     1     -10.910 -24.603  26.505  1.00  0.00     0.028 C 
HETATM   21  C16 UNL     1     -11.719 -24.795  27.798  1.00  0.00     0.021 C 
ENDBRANCH  15  16
ENDBRANCH  13  14
ENDBRANCH  12  13
ENDBRANCH   1  12
TORSDOF 5
ENDMDL
MODEL 5
REMARK VINA RESULT: -6.241705781      2.206      4.072
REMARK  5 active torsions:
REMARK  status: ('A' for Active; 'I' for Inactive)
REMARK    1  A    between atoms: C6_9  and  N2_10 
REMARK    2  A    between atoms: N2_10  and  C7_12 
REMARK    3  A    between atoms: C7_12  and  C8_13 
REMARK    4  A    between atoms: C8_13  and  C9_14 
REMARK    5  A    between atoms: C10_15  and  C11_16 
ROOT
HETATM    1  N2  UNL     1     -10.064 -21.312  27.889  1.00  0.00    -0.414 N 
ATOM      2  H2  UNL     1     -10.881 -21.360  28.498  1.00  0.00     0.153 HD
ENDROOT
BRANCH   1   3
HETATM    3  C6  UNL     1      -9.953 -22.154  26.740  1.00  0.00     0.105 C 
HETATM    4  C2  UNL     1     -10.345 -23.578  26.909  1.00  0.00     0.007 C 
HETATM    5  C1  UNL     1     -11.794 -23.865  27.063  1.00  0.00     0.012 C 
HETATM    6  C3  UNL     1      -9.863 -24.317  25.644  1.00  0.00     0.034 C 
HETATM    7  C4  UNL     1     -10.516 -23.649  24.457  1.00  0.00     0.232 C 
HETATM    8  N1  UNL     1     -10.134 -22.250  24.358  1.00  0.00    -0.073 N 
HETATM    9  C5  UNL     1     -10.499 -21.496  25.517  1.00  0.00     0.257 C 
ATOM     10  H12 UNL     1      -9.138 -22.155  24.159  1.00  0.00     0.277 HD
ATOM     11  H11 UNL     1     -10.512 -21.826  23.511  1.00  0.00     0.277 HD
ENDBRANCH   1   3
BRANCH   1  12
HETATM   12  C7  UNL     1      -9.008 -20.408  28.158  1.00  0.00     0.126 C 
BRANCH  12  13
HETATM   13  C8  UNL     1      -8.339 -20.839  29.452  1.00  0.00     0.113 C 
BRANCH  13  14
HETATM   14  C9  UNL     1      -7.996 -22.244  29.462  1.00  0.00    -0.105 C 
HETATM   15  C10 UNL     1      -7.679 -23.405  29.455  1.00  0.00    -0.101 C 
BRANCH  15  16
HETATM   16  C11 UNL     1      -7.253 -24.830  29.440  1.00  0.00     0.068 C 
HETATM   17  C12 UNL     1      -6.629 -25.202  30.744  1.00  0.00     0.044 C 
HETATM   18  C13 UNL     1      -7.484 -25.918  31.696  1.00  0.00    -0.029 C 
HETATM   19  C14 UNL     1      -8.775 -26.041  31.518  1.00  0.00    -0.031 C 
HETATM   20  C15 UNL     1      -9.413 -25.447  30.328  1.00  0.00     0.028 C 
HETATM   21  C16 UNL     1      -8.440 -25.728  29.171  1.00  0.00     0.021 C 
ENDBRANCH  15  16
ENDBRANCH  13  14
ENDBRANCH  12  13
ENDBRANCH   1  12
TORSDOF 5
ENDMDL
