MODEL 1
REMARK VINA RESULT: -5.832540018      0.000      0.000
REMARK  2 active torsions:
REMARK  status: ('A' for Active; 'I' for Inactive)
REMARK    1  A    between atoms: C4_4  and  C5_5 
REMARK    2  A    between atoms: C5_5  and  N1_6 
ROOT
HETATM    1  N1  UNL     1       8.354 -91.966 152.627  1.00  0.00    -0.371 N 
ATOM      2  H1  UNL     1       7.440 -92.177 153.027  1.00  0.00     0.161 HD
HETATM    3  C6  UNL     1       9.132 -92.943 152.488  1.00  0.00     0.136 C 
HETATM    4  N2  UNL     1       8.906 -94.293 152.811  1.00  0.00    -0.370 N 
ATOM      5  H2  UNL     1       8.244 -94.606 153.522  1.00  0.00     0.161 HD
HETATM    6  C7  UNL     1       9.717 -95.180 152.022  1.00  0.00     0.132 C 
HETATM    7  C8  UNL     1      11.153 -94.669 152.071  1.00  0.00     0.102 C 
HETATM    8  S1  UNL     1      10.781 -92.878 151.820  1.00  0.00    -0.093 SA
ENDROOT
BRANCH   1   9
HETATM    9  C5  UNL     1       8.590 -90.602 152.296  1.00  0.00     0.126 C 
BRANCH   9  10
HETATM   10  C4  UNL     1       8.909 -89.848 153.570  1.00  0.00     0.003 C 
HETATM   11  C3  UNL     1       7.827 -90.102 154.601  1.00  0.00     0.006 C 
HETATM   12  C2  UNL     1       7.892 -89.028 155.658  1.00  0.00     0.000 C 
HETATM   13  C1  UNL     1       7.694 -87.649 155.127  1.00  0.00     0.000 C 
HETATM   14  C10 UNL     1       7.704 -87.727 153.609  1.00  0.00     0.000 C 
HETATM   15  C9  UNL     1       9.027 -88.390 153.232  1.00  0.00     0.006 C 
ENDBRANCH   9  10
ENDBRANCH   1   9
TORSDOF 2
ENDMDL
MODEL 2
REMARK VINA RESULT: -5.635278588      0.550      1.427
REMARK  2 active torsions:
REMARK  status: ('A' for Active; 'I' for Inactive)
REMARK    1  A    between atoms: C4_4  and  C5_5 
REMARK    2  A    between atoms: C5_5  and  N1_6 
ROOT
HETATM    1  N1  UNL     1       8.557 -91.862 152.891  1.00  0.00    -0.371 N 
ATOM      2  H1  UNL     1       7.619 -92.042 153.248  1.00  0.00     0.161 HD
HETATM    3  C6  UNL     1       9.254 -92.876 152.636  1.00  0.00     0.136 C 
HETATM    4  N2  UNL     1       8.907 -94.231 152.778  1.00  0.00    -0.370 N 
ATOM      5  H2  UNL     1       8.204 -94.574 153.433  1.00  0.00     0.161 HD
HETATM    6  C7  UNL     1       9.660 -95.077 151.892  1.00  0.00     0.132 C 
HETATM    7  C8  UNL     1      11.132 -94.702 152.025  1.00  0.00     0.102 C 
HETATM    8  S1  UNL     1      10.918 -92.869 152.004  1.00  0.00    -0.093 SA
ENDROOT
BRANCH   1   9
HETATM    9  C5  UNL     1       8.915 -90.492 152.743  1.00  0.00     0.126 C 
BRANCH   9  10
HETATM   10  C4  UNL     1       7.858 -89.644 153.419  1.00  0.00     0.003 C 
HETATM   11  C3  UNL     1       8.245 -88.181 153.340  1.00  0.00     0.006 C 
HETATM   12  C2  UNL     1       7.468 -87.408 154.375  1.00  0.00     0.000 C 
HETATM   13  C1  UNL     1       7.711 -87.865 155.774  1.00  0.00     0.000 C 
HETATM   14  C10 UNL     1       8.525 -89.147 155.712  1.00  0.00     0.000 C 
HETATM   15  C9  UNL     1       7.723 -90.110 154.839  1.00  0.00     0.006 C 
ENDBRANCH   9  10
ENDBRANCH   1   9
TORSDOF 2
ENDMDL
MODEL 3
REMARK VINA RESULT: -5.467088299      0.970      1.267
REMARK  2 active torsions:
REMARK  status: ('A' for Active; 'I' for Inactive)
REMARK    1  A    between atoms: C4_4  and  C5_5 
REMARK    2  A    between atoms: C5_5  and  N1_6 
ROOT
HETATM    1  N1  UNL     1       8.608 -91.990 152.718  1.00  0.00    -0.371 N 
ATOM      2  H1  UNL     1       7.966 -91.965 153.509  1.00  0.00     0.161 HD
HETATM    3  C6  UNL     1       9.145 -93.101 152.479  1.00  0.00     0.136 C 
HETATM    4  N2  UNL     1       8.975 -94.318 153.162  1.00  0.00    -0.370 N 
ATOM      5  H2  UNL     1       8.689 -94.388 154.139  1.00  0.00     0.161 HD
HETATM    6  C7  UNL     1       9.250 -95.452 152.322  1.00  0.00     0.132 C 
HETATM    7  C8  UNL     1      10.586 -95.208 151.629  1.00  0.00     0.102 C 
HETATM    8  S1  UNL     1      10.299 -93.443 151.168  1.00  0.00    -0.093 SA
ENDROOT
BRANCH   1   9
HETATM    9  C5  UNL     1       8.785 -90.762 152.020  1.00  0.00     0.126 C 
BRANCH   9  10
HETATM   10  C4  UNL     1       9.393 -89.753 152.971  1.00  0.00     0.003 C 
HETATM   11  C3  UNL     1       9.978 -90.468 154.173  1.00  0.00     0.006 C 
HETATM   12  C2  UNL     1      10.158 -89.478 155.296  1.00  0.00     0.000 C 
HETATM   13  C1  UNL     1       8.889 -88.827 155.732  1.00  0.00     0.000 C 
HETATM   14  C10 UNL     1       7.804 -89.208 154.739  1.00  0.00     0.000 C 
HETATM   15  C9  UNL     1       8.321 -88.781 153.368  1.00  0.00     0.006 C 
ENDBRANCH   9  10
ENDBRANCH   1   9
TORSDOF 2
ENDMDL
MODEL 4
REMARK VINA RESULT: -5.219396173      2.129      5.795
REMARK  2 active torsions:
REMARK  status: ('A' for Active; 'I' for Inactive)
REMARK    1  A    between atoms: C4_4  and  C5_5 
REMARK    2  A    between atoms: C5_5  and  N1_6 
ROOT
HETATM    1  N1  UNL     1       9.514 -90.934 154.037  1.00  0.00    -0.371 N 
ATOM      2  H1  UNL     1       9.592 -91.744 154.652  1.00  0.00     0.161 HD
HETATM    3  C6  UNL     1       8.852 -89.965 154.485  1.00  0.00     0.136 C 
HETATM    4  N2  UNL     1       8.203 -89.850 155.727  1.00  0.00    -0.370 N 
ATOM      5  H2  UNL     1       7.873 -90.646 156.274  1.00  0.00     0.161 HD
HETATM    6  C7  UNL     1       8.058 -88.479 156.136  1.00  0.00     0.132 C 
HETATM    7  C8  UNL     1       7.482 -87.698 154.960  1.00  0.00     0.102 C 
HETATM    8  S1  UNL     1       8.550 -88.427 153.642  1.00  0.00    -0.093 SA
ENDROOT
BRANCH   1   9
HETATM    9  C5  UNL     1      10.170 -91.041 152.778  1.00  0.00     0.126 C 
BRANCH   9  10
HETATM   10  C4  UNL     1       9.704 -92.313 152.102  1.00  0.00     0.003 C 
HETATM   11  C3  UNL     1       9.300 -93.333 153.148  1.00  0.00     0.006 C 
HETATM   12  C2  UNL     1       9.284 -94.704 152.521  1.00  0.00     0.000 C 
HETATM   13  C1  UNL     1      10.601 -95.126 151.963  1.00  0.00     0.000 C 
HETATM   14  C10 UNL     1      11.532 -93.925 152.005  1.00  0.00     0.000 C 
HETATM   15  C9  UNL     1      10.820 -92.816 151.234  1.00  0.00     0.006 C 
ENDBRANCH   9  10
ENDBRANCH   1   9
TORSDOF 2
ENDMDL
MODEL 5
REMARK VINA RESULT: -5.184766987      1.640      1.980
REMARK  2 active torsions:
REMARK  status: ('A' for Active; 'I' for Inactive)
REMARK    1  A    between atoms: C4_4  and  C5_5 
REMARK    2  A    between atoms: C5_5  and  N1_6 
ROOT
HETATM    1  N1  UNL     1       9.341 -91.729 151.140  1.00  0.00    -0.371 N 
ATOM      2  H1  UNL     1       9.543 -91.098 150.364  1.00  0.00     0.161 HD
HETATM    3  C6  UNL     1       9.874 -92.865 151.078  1.00  0.00     0.136 C 
HETATM    4  N2  UNL     1      10.716 -93.382 150.077  1.00  0.00    -0.370 N 
ATOM      5  H2  UNL     1      10.717 -93.058 149.110  1.00  0.00     0.161 HD
HETATM    6  C7  UNL     1      11.574 -94.422 150.578  1.00  0.00     0.132 C 
HETATM    7  C8  UNL     1      10.711 -95.407 151.358  1.00  0.00     0.102 C 
HETATM    8  S1  UNL     1       9.704 -94.166 152.282  1.00  0.00    -0.093 SA
ENDROOT
BRANCH   1   9
HETATM    9  C5  UNL     1       8.491 -91.213 152.158  1.00  0.00     0.126 C 
BRANCH   9  10
HETATM   10  C4  UNL     1       9.229 -90.109 152.885  1.00  0.00     0.003 C 
HETATM   11  C3  UNL     1      10.035 -90.695 154.027  1.00  0.00     0.006 C 
HETATM   12  C2  UNL     1      10.382 -89.597 155.001  1.00  0.00     0.000 C 
HETATM   13  C1  UNL     1       9.193 -88.917 155.589  1.00  0.00     0.000 C 
HETATM   14  C10 UNL     1       7.960 -89.405 154.846  1.00  0.00     0.000 C 
HETATM   15  C9  UNL     1       8.218 -89.112 153.370  1.00  0.00     0.006 C 
ENDBRANCH   9  10
ENDBRANCH   1   9
TORSDOF 2
ENDMDL
