MODEL 1
REMARK VINA RESULT: -5.570366254      0.000      0.000
REMARK  2 active torsions:
REMARK  status: ('A' for Active; 'I' for Inactive)
REMARK    1  A    between atoms: C2_2  and  O1_4 
REMARK    2  A    between atoms: O1_4  and  C4_5 
ROOT
HETATM    1  C4  UNL     1       9.094 -89.304 152.969  1.00  0.00     0.334 C 
HETATM    2  N1  UNL     1       9.139 -88.629 154.207  1.00  0.00    -0.036 N 
ATOM      3  H11 UNL     1       9.478 -87.673 154.091  1.00  0.00     0.281 HD
ATOM      4  H12 UNL     1       9.884 -88.997 154.798  1.00  0.00     0.281 HD
HETATM    5  C5  UNL     1       7.693 -88.652 154.993  1.00  0.00     0.139 C 
HETATM    6  C6  UNL     1       8.078 -88.387 156.406  1.00  0.00     0.050 C 
HETATM    7  C7  UNL     1       6.987 -87.552 154.316  1.00  0.00     0.050 C 
HETATM    8  C8  UNL     1       7.555 -89.940 154.612  1.00  0.00     0.008 C 
HETATM    9  C9  UNL     1       7.858 -90.597 154.099  1.00  0.00    -0.015 C 
HETATM   10  C10 UNL     1       8.737 -90.960 153.141  1.00  0.00     0.022 C 
HETATM   11  C11 UNL     1      10.048 -91.549 153.556  1.00  0.00     0.023 C 
HETATM   12  C12 UNL     1       8.276 -91.397 151.800  1.00  0.00     0.023 C 
ENDROOT
BRANCH   1  13
HETATM   13  O1  UNL     1      10.255 -89.288 152.272  1.00  0.00    -0.354 OA
BRANCH  13  14
HETATM   14  C2  UNL     1      11.092 -88.222 152.444  1.00  0.00     0.116 C 
HETATM   15  C1  UNL     1      10.874 -87.061 151.534  1.00  0.00     0.039 C 
HETATM   16  C3  UNL     1      12.503 -88.772 152.131  1.00  0.00     0.039 C 
ENDBRANCH  13  14
ENDBRANCH   1  13
TORSDOF 2
ENDMDL
MODEL 2
REMARK VINA RESULT: -5.543650570      1.526      3.584
REMARK  2 active torsions:
REMARK  status: ('A' for Active; 'I' for Inactive)
REMARK    1  A    between atoms: C2_2  and  O1_4 
REMARK    2  A    between atoms: O1_4  and  C4_5 
ROOT
HETATM    1  C4  UNL     1       9.235 -88.708 154.054  1.00  0.00     0.334 C 
HETATM    2  N1  UNL     1       9.125 -89.425 152.844  1.00  0.00    -0.036 N 
ATOM      3  H11 UNL     1       9.969 -89.323 152.280  1.00  0.00     0.281 HD
ATOM      4  H12 UNL     1       8.453 -88.983 152.216  1.00  0.00     0.281 HD
HETATM    5  C5  UNL     1       8.759 -91.012 153.081  1.00  0.00     0.139 C 
HETATM    6  C6  UNL     1       8.191 -91.422 151.767  1.00  0.00     0.050 C 
HETATM    7  C7  UNL     1      10.089 -91.564 153.392  1.00  0.00     0.050 C 
HETATM    8  C8  UNL     1       7.895 -90.626 154.044  1.00  0.00     0.008 C 
HETATM    9  C9  UNL     1       7.607 -89.963 154.557  1.00  0.00    -0.015 C 
HETATM   10  C10 UNL     1       7.774 -88.676 154.929  1.00  0.00     0.022 C 
HETATM   11  C11 UNL     1       6.981 -87.618 154.230  1.00  0.00     0.023 C 
HETATM   12  C12 UNL     1       8.163 -88.321 156.317  1.00  0.00     0.023 C 
ENDROOT
BRANCH   1  13
HETATM   13  O1  UNL     1       9.561 -87.401 153.912  1.00  0.00    -0.354 OA
BRANCH  13  14
HETATM   14  C2  UNL     1      10.875 -87.051 154.047  1.00  0.00     0.116 C 
HETATM   15  C1  UNL     1      11.767 -88.070 154.670  1.00  0.00     0.039 C 
HETATM   16  C3  UNL     1      10.863 -85.831 154.998  1.00  0.00     0.039 C 
ENDBRANCH  13  14
ENDBRANCH   1  13
TORSDOF 2
ENDMDL
MODEL 3
REMARK VINA RESULT: -5.516188572      1.533      4.357
REMARK  2 active torsions:
REMARK  status: ('A' for Active; 'I' for Inactive)
REMARK    1  A    between atoms: C2_2  and  O1_4 
REMARK    2  A    between atoms: O1_4  and  C4_5 
ROOT
HETATM    1  C4  UNL     1       9.499 -89.537 153.497  1.00  0.00     0.334 C 
HETATM    2  N1  UNL     1       9.797 -90.916 153.501  1.00  0.00    -0.036 N 
ATOM      3  H11 UNL     1       9.088 -91.442 154.013  1.00  0.00     0.281 HD
ATOM      4  H12 UNL     1      10.606 -91.113 154.090  1.00  0.00     0.281 HD
HETATM    5  C5  UNL     1      10.005 -91.523 151.986  1.00  0.00     0.139 C 
HETATM    6  C6  UNL     1      10.791 -92.764 152.230  1.00  0.00     0.050 C 
HETATM    7  C7  UNL     1       8.607 -91.735 151.573  1.00  0.00     0.050 C 
HETATM    8  C8  UNL     1      10.687 -90.400 151.676  1.00  0.00     0.008 C 
HETATM    9  C9  UNL     1      10.911 -89.578 151.922  1.00  0.00    -0.015 C 
HETATM   10  C10 UNL     1      10.758 -88.598 152.839  1.00  0.00     0.022 C 
HETATM   11  C11 UNL     1      11.740 -88.510 153.964  1.00  0.00     0.023 C 
HETATM   12  C12 UNL     1      10.129 -87.303 152.481  1.00  0.00     0.023 C 
ENDROOT
BRANCH   1  13
HETATM   13  O1  UNL     1       9.292 -88.996 154.721  1.00  0.00    -0.354 OA
BRANCH  13  14
HETATM   14  C2  UNL     1       8.011 -88.953 155.195  1.00  0.00     0.116 C 
HETATM   15  C1  UNL     1       7.107 -87.955 154.556  1.00  0.00     0.039 C 
HETATM   16  C3  UNL     1       8.151 -88.541 156.679  1.00  0.00     0.039 C 
ENDBRANCH  13  14
ENDBRANCH   1  13
TORSDOF 2
ENDMDL
MODEL 4
REMARK VINA RESULT: -5.454700104      3.069      4.879
REMARK  2 active torsions:
REMARK  status: ('A' for Active; 'I' for Inactive)
REMARK    1  A    between atoms: C2_2  and  O1_4 
REMARK    2  A    between atoms: O1_4  and  C4_5 
ROOT
HETATM    1  C4  UNL     1      10.663 -92.282 151.366  1.00  0.00     0.334 C 
HETATM    2  N1  UNL     1       9.510 -91.733 151.964  1.00  0.00    -0.036 N 
ATOM      3  H11 UNL     1       9.084 -92.394 152.613  1.00  0.00     0.281 HD
ATOM      4  H12 UNL     1       8.750 -91.652 151.288  1.00  0.00     0.281 HD
HETATM    5  C5  UNL     1       9.804 -90.289 152.698  1.00  0.00     0.139 C 
HETATM    6  C6  UNL     1       8.451 -89.674 152.776  1.00  0.00     0.050 C 
HETATM    7  C7  UNL     1      10.367 -90.737 153.983  1.00  0.00     0.050 C 
HETATM    8  C8  UNL     1      10.582 -89.961 151.644  1.00  0.00     0.008 C 
HETATM    9  C9  UNL     1      10.990 -90.242 150.909  1.00  0.00    -0.015 C 
HETATM   10  C10 UNL     1      11.286 -91.299 150.122  1.00  0.00     0.022 C 
HETATM   11  C11 UNL     1      10.388 -91.604 148.965  1.00  0.00     0.023 C 
HETATM   12  C12 UNL     1      12.687 -91.751 149.936  1.00  0.00     0.023 C 
ENDROOT
BRANCH   1  13
HETATM   13  O1  UNL     1      10.477 -93.484 150.771  1.00  0.00    -0.354 OA
BRANCH  13  14
HETATM   14  C2  UNL     1      10.758 -94.608 151.496  1.00  0.00     0.116 C 
HETATM   15  C1  UNL     1       9.750 -94.997 152.523  1.00  0.00     0.039 C 
HETATM   16  C3  UNL     1      12.061 -94.272 152.258  1.00  0.00     0.039 C 
ENDBRANCH  13  14
ENDBRANCH   1  13
TORSDOF 2
ENDMDL
MODEL 5
REMARK VINA RESULT: -5.427184713      3.540      4.583
REMARK  2 active torsions:
REMARK  status: ('A' for Active; 'I' for Inactive)
REMARK    1  A    between atoms: C2_2  and  O1_4 
REMARK    2  A    between atoms: O1_4  and  C4_5 
ROOT
HETATM    1  C4  UNL     1      10.823 -92.789 150.963  1.00  0.00     0.334 C 
HETATM    2  N1  UNL     1      10.536 -91.857 151.983  1.00  0.00    -0.036 N 
ATOM      3  H11 UNL     1      10.615 -90.900 151.637  1.00  0.00     0.281 HD
ATOM      4  H12 UNL     1      11.278 -91.841 152.683  1.00  0.00     0.281 HD
HETATM    5  C5  UNL     1       9.068 -92.115 152.681  1.00  0.00     0.139 C 
HETATM    6  C6  UNL     1       9.198 -91.422 153.993  1.00  0.00     0.050 C 
HETATM    7  C7  UNL     1       8.175 -91.462 151.709  1.00  0.00     0.050 C 
HETATM    8  C8  UNL     1       9.331 -93.439 152.644  1.00  0.00     0.008 C 
HETATM    9  C9  UNL     1       9.859 -94.081 152.334  1.00  0.00    -0.015 C 
HETATM   10  C10 UNL     1      10.911 -94.387 151.545  1.00  0.00     0.022 C 
HETATM   11  C11 UNL     1      12.273 -94.451 152.158  1.00  0.00     0.023 C 
HETATM   12  C12 UNL     1      10.747 -95.245 150.345  1.00  0.00     0.023 C 
ENDROOT
BRANCH   1  13
HETATM   13  O1  UNL     1      12.010 -92.601 150.339  1.00  0.00    -0.354 OA
BRANCH  13  14
HETATM   14  C2  UNL     1      12.025 -91.832 149.210  1.00  0.00     0.116 C 
HETATM   15  C1  UNL     1      10.733 -91.714 148.477  1.00  0.00     0.039 C 
HETATM   16  C3  UNL     1      13.012 -92.547 148.257  1.00  0.00     0.039 C 
ENDBRANCH  13  14
ENDBRANCH   1  13
TORSDOF 2
ENDMDL
