MODEL 1
REMARK VINA RESULT: -5.400789088      0.000      0.000
REMARK  2 active torsions:
REMARK  status: ('A' for Active; 'I' for Inactive)
REMARK    1  A    between atoms: N1_2  and  C3_4 
REMARK    2  A    between atoms: C3_4  and  C4_5 
ROOT
HETATM    1  C4  UNL     1       9.021 -90.497 152.904  1.00  0.00     0.018 C 
HETATM    2  C5  UNL     1      10.167 -89.630 152.520  1.00  0.00     0.036 C 
HETATM    3  C6  UNL     1      10.339 -88.369 153.254  1.00  0.00     0.019 C 
HETATM    4  C7  UNL     1      11.687 -88.345 154.004  1.00  0.00     0.037 C 
HETATM    5  C8  UNL     1      10.466 -87.194 152.258  1.00  0.00     0.037 C 
HETATM    6  N2  UNL     1       9.385 -87.964 154.178  1.00  0.00    -0.405 N 
ATOM      7  H2  UNL     1       9.476 -87.031 154.580  1.00  0.00     0.154 HD
HETATM    8  C9  UNL     1       8.315 -88.745 154.589  1.00  0.00     0.019 C 
HETATM    9  C10 UNL     1       8.388 -88.811 156.129  1.00  0.00     0.037 C 
HETATM   10  C11 UNL     1       7.037 -87.935 154.302  1.00  0.00     0.037 C 
HETATM   11  C12 UNL     1       8.171 -90.107 154.031  1.00  0.00     0.036 C 
ENDROOT
BRANCH   1  12
HETATM   12  C3  UNL     1       9.540 -91.906 153.122  1.00  0.00     0.276 C 
BRANCH  12  13
HETATM   13  N1  UNL     1       9.068 -92.846 152.113  1.00  0.00     0.080 N 
HETATM   14  C1  UNL     1      10.088 -92.894 151.036  1.00  0.00     0.309 C 
HETATM   15  C2  UNL     1       9.190 -94.190 152.746  1.00  0.00     0.309 C 
ENDBRANCH  12  13
ENDBRANCH   1  12
TORSDOF 2
ENDMDL
MODEL 2
REMARK VINA RESULT: -5.337358096      0.731      3.035
REMARK  2 active torsions:
REMARK  status: ('A' for Active; 'I' for Inactive)
REMARK    1  A    between atoms: N1_2  and  C3_4 
REMARK    2  A    between atoms: C3_4  and  C4_5 
ROOT
HETATM    1  C4  UNL     1       9.360 -90.553 153.956  1.00  0.00     0.018 C 
HETATM    2  C5  UNL     1       8.233 -89.947 154.712  1.00  0.00     0.036 C 
HETATM    3  C6  UNL     1       8.276 -88.499 154.950  1.00  0.00     0.019 C 
HETATM    4  C7  UNL     1       7.078 -87.792 154.285  1.00  0.00     0.037 C 
HETATM    5  C8  UNL     1       8.072 -88.206 156.454  1.00  0.00     0.037 C 
HETATM    6  N2  UNL     1       9.398 -87.766 154.585  1.00  0.00    -0.405 N 
ATOM      7  H2  UNL     1       9.443 -86.788 154.871  1.00  0.00     0.154 HD
HETATM    8  C9  UNL     1      10.462 -88.278 153.857  1.00  0.00     0.019 C 
HETATM    9  C10 UNL     1      10.642 -87.351 152.635  1.00  0.00     0.037 C 
HETATM   10  C11 UNL     1      11.730 -88.047 154.700  1.00  0.00     0.037 C 
HETATM   11  C12 UNL     1      10.412 -89.689 153.417  1.00  0.00     0.036 C 
ENDROOT
BRANCH   1  12
HETATM   12  C3  UNL     1       8.784 -91.407 152.842  1.00  0.00     0.276 C 
BRANCH  12  13
HETATM   13  N1  UNL     1       9.761 -92.324 152.267  1.00  0.00     0.080 N 
HETATM   14  C1  UNL     1       9.291 -93.705 152.541  1.00  0.00     0.309 C 
HETATM   15  C2  UNL     1       9.587 -92.202 150.791  1.00  0.00     0.309 C 
ENDBRANCH  12  13
ENDBRANCH   1  12
TORSDOF 2
ENDMDL
MODEL 3
REMARK VINA RESULT: -5.264950392      2.105      5.489
REMARK  2 active torsions:
REMARK  status: ('A' for Active; 'I' for Inactive)
REMARK    1  A    between atoms: N1_2  and  C3_4 
REMARK    2  A    between atoms: C3_4  and  C4_5 
ROOT
HETATM    1  C4  UNL     1       9.213 -92.451 152.127  1.00  0.00     0.018 C 
HETATM    2  C5  UNL     1       9.774 -93.826 152.196  1.00  0.00     0.036 C 
HETATM    3  C6  UNL     1      10.943 -94.125 151.359  1.00  0.00     0.019 C 
HETATM    4  C7  UNL     1      12.158 -94.514 152.224  1.00  0.00     0.037 C 
HETATM    5  C8  UNL     1      10.679 -95.399 150.523  1.00  0.00     0.037 C 
HETATM    6  N2  UNL     1      11.409 -93.183 150.451  1.00  0.00    -0.405 N 
ATOM      7  H2  UNL     1      12.146 -93.467 149.805  1.00  0.00     0.154 HD
HETATM    8  C9  UNL     1      10.939 -91.882 150.366  1.00  0.00     0.019 C 
HETATM    9  C10 UNL     1      12.171 -90.961 150.493  1.00  0.00     0.037 C 
HETATM   10  C11 UNL     1      10.457 -91.676 148.917  1.00  0.00     0.037 C 
HETATM   11  C12 UNL     1       9.882 -91.442 151.303  1.00  0.00     0.036 C 
ENDROOT
BRANCH   1  12
HETATM   12  C3  UNL     1       9.054 -91.928 153.542  1.00  0.00     0.276 C 
BRANCH  12  13
HETATM   13  N1  UNL     1       9.007 -90.472 153.606  1.00  0.00     0.080 N 
HETATM   14  C1  UNL     1       7.776 -90.099 154.347  1.00  0.00     0.309 C 
HETATM   15  C2  UNL     1      10.092 -90.089 154.554  1.00  0.00     0.309 C 
ENDBRANCH  12  13
ENDBRANCH   1  12
TORSDOF 2
ENDMDL
MODEL 4
REMARK VINA RESULT: -5.151650707      0.671      1.044
REMARK  2 active torsions:
REMARK  status: ('A' for Active; 'I' for Inactive)
REMARK    1  A    between atoms: N1_2  and  C3_4 
REMARK    2  A    between atoms: C3_4  and  C4_5 
ROOT
HETATM    1  C4  UNL     1       8.868 -90.220 153.137  1.00  0.00     0.018 C 
HETATM    2  C5  UNL     1      10.195 -89.578 152.944  1.00  0.00     0.036 C 
HETATM    3  C6  UNL     1      10.437 -88.302 153.630  1.00  0.00     0.019 C 
HETATM    4  C7  UNL     1      11.603 -88.424 154.631  1.00  0.00     0.037 C 
HETATM    5  C8  UNL     1      10.946 -87.250 152.618  1.00  0.00     0.037 C 
HETATM    6  N2  UNL     1       9.408 -87.676 154.321  1.00  0.00    -0.405 N 
ATOM      7  H2  UNL     1       9.578 -86.738 154.683  1.00  0.00     0.154 HD
HETATM    8  C9  UNL     1       8.164 -88.243 154.551  1.00  0.00     0.019 C 
HETATM    9  C10 UNL     1       7.933 -88.188 156.076  1.00  0.00     0.037 C 
HETATM   10  C11 UNL     1       7.118 -87.272 153.972  1.00  0.00     0.037 C 
HETATM   11  C12 UNL     1       7.899 -89.609 154.049  1.00  0.00     0.036 C 
ENDROOT
BRANCH   1  12
HETATM   12  C3  UNL     1       9.091 -91.669 153.529  1.00  0.00     0.276 C 
BRANCH  12  13
HETATM   13  N1  UNL     1       9.704 -92.456 152.466  1.00  0.00     0.080 N 
HETATM   14  C1  UNL     1       9.306 -93.871 152.673  1.00  0.00     0.309 C 
HETATM   15  C2  UNL     1       8.965 -92.081 151.228  1.00  0.00     0.309 C 
ENDBRANCH  12  13
ENDBRANCH   1  12
TORSDOF 2
ENDMDL
MODEL 5
REMARK VINA RESULT: -5.128327303      1.491      4.431
REMARK  2 active torsions:
REMARK  status: ('A' for Active; 'I' for Inactive)
REMARK    1  A    between atoms: N1_2  and  C3_4 
REMARK    2  A    between atoms: C3_4  and  C4_5 
ROOT
HETATM    1  C4  UNL     1       9.691 -90.550 154.123  1.00  0.00     0.018 C 
HETATM    2  C5  UNL     1      10.563 -89.391 153.796  1.00  0.00     0.036 C 
HETATM    3  C6  UNL     1      11.260 -89.409 152.504  1.00  0.00     0.019 C 
HETATM    4  C7  UNL     1      10.818 -88.225 151.620  1.00  0.00     0.037 C 
HETATM    5  C8  UNL     1      12.769 -89.150 152.717  1.00  0.00     0.037 C 
HETATM    6  N2  UNL     1      11.194 -90.534 151.692  1.00  0.00    -0.405 N 
ATOM      7  H2  UNL     1      11.783 -90.557 150.860  1.00  0.00     0.154 HD
HETATM    8  C9  UNL     1      10.377 -91.627 151.938  1.00  0.00     0.019 C 
HETATM    9  C10 UNL     1       9.531 -91.837 150.665  1.00  0.00     0.037 C 
HETATM   10  C11 UNL     1      11.294 -92.863 151.994  1.00  0.00     0.037 C 
HETATM   11  C12 UNL     1       9.501 -91.609 153.130  1.00  0.00     0.036 C 
ENDROOT
BRANCH   1  12
HETATM   12  C3  UNL     1       8.340 -90.022 154.568  1.00  0.00     0.276 C 
BRANCH  12  13
HETATM   13  N1  UNL     1       8.404 -88.656 155.074  1.00  0.00     0.080 N 
HETATM   14  C1  UNL     1       7.176 -87.956 154.620  1.00  0.00     0.309 C 
HETATM   15  C2  UNL     1       8.192 -88.776 156.544  1.00  0.00     0.309 C 
ENDBRANCH  12  13
ENDBRANCH   1  12
TORSDOF 2
ENDMDL
