MODEL 1
REMARK VINA RESULT: -6.365813701      0.000      0.000
REMARK  3 active torsions:
REMARK  status: ('A' for Active; 'I' for Inactive)
REMARK    1  A    between atoms: C8_8  and  C9_9 
REMARK    2  A    between atoms: C9_9  and  C10_10 
REMARK    3  A    between atoms: C10_10  and  N1_11 
ROOT
HETATM    1  C1  UNL     1      10.707 -88.974 154.468  1.00  0.00     0.015 C 
HETATM    2  C2  UNL     1       9.879 -89.113 153.195  1.00  0.00    -0.040 C 
HETATM    3  C3  UNL     1      10.096 -87.936 152.337  1.00  0.00     0.009 C 
HETATM    4  C4  UNL     1      11.572 -88.130 151.941  1.00  0.00     0.001 C 
HETATM    5  C5  UNL     1      11.848 -89.607 152.042  1.00  0.00     0.006 C 
HETATM    6  C6  UNL     1      10.489 -90.206 152.280  1.00  0.00    -0.001 C 
HETATM    7  C7  UNL     1      10.395 -91.441 153.015  1.00  0.00     0.004 A 
HETATM    8  C8  UNL     1       9.826 -92.743 152.884  1.00  0.00     0.001 A 
HETATM    9  C11 UNL     1       8.859 -91.697 152.876  1.00  0.00    -0.035 A 
HETATM   10  C12 UNL     1       8.155 -91.452 151.600  1.00  0.00     0.016 C 
HETATM   11  C13 UNL     1       8.306 -90.893 153.999  1.00  0.00     0.011 C 
HETATM   12  C14 UNL     1       8.489 -89.415 153.607  1.00  0.00     0.010 C 
ENDROOT
BRANCH   8  13
HETATM   13  C9  UNL     1      10.021 -93.651 151.702  1.00  0.00     0.033 C 
BRANCH  13  14
HETATM   14  C10 UNL     1      10.063 -95.126 152.120  1.00  0.00     0.230 C 
BRANCH  14  15
HETATM   15  N1  UNL     1       8.733 -95.656 152.326  1.00  0.00    -0.079 N 
ATOM     16  H13 UNL     1       8.746 -96.467 152.943  1.00  0.00     0.274 HD
ATOM     17  H12 UNL     1       8.166 -95.030 152.899  1.00  0.00     0.274 HD
ATOM     18  H11 UNL     1       8.275 -95.869 151.441  1.00  0.00     0.274 HD
ENDBRANCH  14  15
ENDBRANCH  13  14
ENDBRANCH   8  13
TORSDOF 3
ENDMDL
MODEL 2
REMARK VINA RESULT: -6.153661908      1.935      4.022
REMARK  3 active torsions:
REMARK  status: ('A' for Active; 'I' for Inactive)
REMARK    1  A    between atoms: C8_8  and  C9_9 
REMARK    2  A    between atoms: C9_9  and  C10_10 
REMARK    3  A    between atoms: C10_10  and  N1_11 
ROOT
HETATM    1  C1  UNL     1      12.111 -92.196 151.624  1.00  0.00     0.015 C 
HETATM    2  C2  UNL     1      11.384 -90.923 151.202  1.00  0.00    -0.040 C 
HETATM    3  C3  UNL     1      10.979 -91.033 149.790  1.00  0.00     0.009 C 
HETATM    4  C4  UNL     1       9.924 -92.151 149.874  1.00  0.00     0.001 C 
HETATM    5  C5  UNL     1       9.378 -92.117 151.277  1.00  0.00     0.006 C 
HETATM    6  C6  UNL     1       9.981 -90.868 151.860  1.00  0.00    -0.001 C 
HETATM    7  C7  UNL     1      10.209 -90.806 153.281  1.00  0.00     0.004 A 
HETATM    8  C8  UNL     1       9.911 -89.963 154.393  1.00  0.00     0.001 A 
HETATM    9  C11 UNL     1      10.696 -89.324 153.390  1.00  0.00    -0.035 A 
HETATM   10  C12 UNL     1      10.043 -88.245 152.622  1.00  0.00     0.016 C 
HETATM   11  C13 UNL     1      12.147 -89.450 153.082  1.00  0.00     0.011 C 
HETATM   12  C14 UNL     1      12.245 -89.780 151.581  1.00  0.00     0.010 C 
ENDROOT
BRANCH   8  13
HETATM   13  C9  UNL     1       8.538 -89.472 154.757  1.00  0.00     0.033 C 
BRANCH  13  14
HETATM   14  C10 UNL     1       7.445 -90.429 154.267  1.00  0.00     0.230 C 
BRANCH  14  15
HETATM   15  N1  UNL     1       7.391 -91.629 155.073  1.00  0.00    -0.079 N 
ATOM     16  H13 UNL     1       6.536 -92.156 154.901  1.00  0.00     0.274 HD
ATOM     17  H12 UNL     1       8.070 -92.322 154.757  1.00  0.00     0.274 HD
ATOM     18  H11 UNL     1       7.506 -91.418 156.064  1.00  0.00     0.274 HD
ENDBRANCH  14  15
ENDBRANCH  13  14
ENDBRANCH   8  13
TORSDOF 3
ENDMDL
MODEL 3
REMARK VINA RESULT: -6.153336781      1.210      2.593
REMARK  3 active torsions:
REMARK  status: ('A' for Active; 'I' for Inactive)
REMARK    1  A    between atoms: C8_8  and  C9_9 
REMARK    2  A    between atoms: C9_9  and  C10_10 
REMARK    3  A    between atoms: C10_10  and  N1_11 
ROOT
HETATM    1  C1  UNL     1       9.205 -88.761 152.740  1.00  0.00     0.015 C 
HETATM    2  C2  UNL     1      10.563 -89.431 152.921  1.00  0.00    -0.040 C 
HETATM    3  C3  UNL     1      11.186 -88.952 154.167  1.00  0.00     0.009 C 
HETATM    4  C4  UNL     1      10.239 -89.557 155.219  1.00  0.00     0.001 C 
HETATM    5  C5  UNL     1       9.614 -90.769 154.582  1.00  0.00     0.006 C 
HETATM    6  C6  UNL     1      10.376 -90.924 153.293  1.00  0.00    -0.001 C 
HETATM    7  C7  UNL     1       9.718 -91.537 152.168  1.00  0.00     0.004 A 
HETATM    8  C8  UNL     1       9.923 -92.596 151.235  1.00  0.00     0.001 A 
HETATM    9  C11 UNL     1      10.921 -91.582 151.171  1.00  0.00    -0.035 A 
HETATM   10  C12 UNL     1      12.277 -91.955 151.624  1.00  0.00     0.016 C 
HETATM   11  C13 UNL     1      10.873 -90.225 150.562  1.00  0.00     0.011 C 
HETATM   12  C14 UNL     1      11.318 -89.240 151.661  1.00  0.00     0.010 C 
ENDROOT
BRANCH   8  13
HETATM   13  C9  UNL     1      10.256 -94.015 151.604  1.00  0.00     0.033 C 
BRANCH  13  14
HETATM   14  C10 UNL     1       9.321 -94.552 152.694  1.00  0.00     0.230 C 
BRANCH  14  15
HETATM   15  N1  UNL     1       8.679 -95.781 152.282  1.00  0.00    -0.079 N 
ATOM     16  H13 UNL     1       7.679 -95.648 152.135  1.00  0.00     0.274 HD
ATOM     17  H12 UNL     1       8.945 -96.041 151.332  1.00  0.00     0.274 HD
ATOM     18  H11 UNL     1       8.861 -96.537 152.941  1.00  0.00     0.274 HD
ENDBRANCH  14  15
ENDBRANCH  13  14
ENDBRANCH   8  13
TORSDOF 3
ENDMDL
MODEL 4
REMARK VINA RESULT: -6.148234617      2.554      4.508
REMARK  3 active torsions:
REMARK  status: ('A' for Active; 'I' for Inactive)
REMARK    1  A    between atoms: C8_8  and  C9_9 
REMARK    2  A    between atoms: C9_9  and  C10_10 
REMARK    3  A    between atoms: C10_10  and  N1_11 
ROOT
HETATM    1  C1  UNL     1      11.921 -92.110 151.827  1.00  0.00     0.015 C 
HETATM    2  C2  UNL     1      11.224 -90.837 151.358  1.00  0.00    -0.040 C 
HETATM    3  C3  UNL     1      10.889 -90.957 149.929  1.00  0.00     0.009 C 
HETATM    4  C4  UNL     1       9.823 -92.068 149.971  1.00  0.00     0.001 C 
HETATM    5  C5  UNL     1       9.210 -92.017 151.345  1.00  0.00     0.006 C 
HETATM    6  C6  UNL     1       9.791 -90.766 151.946  1.00  0.00    -0.001 C 
HETATM    7  C7  UNL     1       9.949 -90.693 153.376  1.00  0.00     0.004 A 
HETATM    8  C8  UNL     1       9.603 -89.838 154.464  1.00  0.00     0.001 A 
HETATM    9  C11 UNL     1      10.441 -89.213 153.495  1.00  0.00    -0.035 A 
HETATM   10  C12 UNL     1       9.833 -88.138 152.686  1.00  0.00     0.016 C 
HETATM   11  C13 UNL     1      11.904 -89.351 153.261  1.00  0.00     0.011 C 
HETATM   12  C14 UNL     1      12.073 -89.695 151.769  1.00  0.00     0.010 C 
ENDROOT
BRANCH   8  13
HETATM   13  C9  UNL     1       8.216 -89.334 154.755  1.00  0.00     0.033 C 
BRANCH  13  14
HETATM   14  C10 UNL     1       8.170 -88.515 156.050  1.00  0.00     0.230 C 
BRANCH  14  15
HETATM   15  N1  UNL     1       8.663 -89.277 157.177  1.00  0.00    -0.079 N 
ATOM     16  H13 UNL     1       8.791 -90.260 156.936  1.00  0.00     0.274 HD
ATOM     17  H12 UNL     1       9.632 -89.040 157.393  1.00  0.00     0.274 HD
ATOM     18  H11 UNL     1       8.061 -89.169 157.993  1.00  0.00     0.274 HD
ENDBRANCH  14  15
ENDBRANCH  13  14
ENDBRANCH   8  13
TORSDOF 3
ENDMDL
MODEL 5
REMARK VINA RESULT: -5.997354937      1.852      3.592
REMARK  3 active torsions:
REMARK  status: ('A' for Active; 'I' for Inactive)
REMARK    1  A    between atoms: C8_8  and  C9_9 
REMARK    2  A    between atoms: C9_9  and  C10_10 
REMARK    3  A    between atoms: C10_10  and  N1_11 
ROOT
HETATM    1  C1  UNL     1       7.664 -86.878 153.126  1.00  0.00     0.015 C 
HETATM    2  C2  UNL     1       8.892 -87.296 153.928  1.00  0.00    -0.040 C 
HETATM    3  C3  UNL     1       8.719 -86.896 155.335  1.00  0.00     0.009 C 
HETATM    4  C4  UNL     1       7.562 -87.820 155.762  1.00  0.00     0.001 C 
HETATM    5  C5  UNL     1       7.621 -89.021 154.856  1.00  0.00     0.006 C 
HETATM    6  C6  UNL     1       8.912 -88.836 154.106  1.00  0.00    -0.001 C 
HETATM    7  C7  UNL     1       9.031 -89.389 152.782  1.00  0.00     0.004 A 
HETATM    8  C8  UNL     1       9.897 -90.241 152.034  1.00  0.00     0.001 A 
HETATM    9  C11 UNL     1      10.534 -89.057 152.507  1.00  0.00    -0.035 A 
HETATM   10  C12 UNL     1      11.559 -89.228 153.556  1.00  0.00     0.016 C 
HETATM   11  C13 UNL     1      10.457 -87.659 152.003  1.00  0.00     0.011 C 
HETATM   12  C14 UNL     1      10.081 -86.782 153.211  1.00  0.00     0.010 C 
ENDROOT
BRANCH   8  13
HETATM   13  C9  UNL     1      10.345 -91.609 152.469  1.00  0.00     0.033 C 
BRANCH  13  14
HETATM   14  C10 UNL     1       9.163 -92.578 152.598  1.00  0.00     0.230 C 
BRANCH  14  15
HETATM   15  N1  UNL     1       8.608 -92.561 153.933  1.00  0.00    -0.079 N 
ATOM     16  H13 UNL     1       9.314 -92.321 154.628  1.00  0.00     0.274 HD
ATOM     17  H12 UNL     1       7.979 -91.768 154.066  1.00  0.00     0.274 HD
ATOM     18  H11 UNL     1       8.148 -93.443 154.158  1.00  0.00     0.274 HD
ENDBRANCH  14  15
ENDBRANCH  13  14
ENDBRANCH   8  13
TORSDOF 3
ENDMDL
