MODEL 1
REMARK VINA RESULT: -5.683575117      0.000      0.000
REMARK  2 active torsions:
REMARK  status: ('A' for Active; 'I' for Inactive)
REMARK    1  A    between atoms: C5_5  and  C6_6 
REMARK    2  A    between atoms: C6_6  and  N1_7 
ROOT
HETATM    1  N1  UNL     1      10.154 -92.933 151.987  1.00  0.00     0.092 N 
HETATM    2  C7  UNL     1       9.202 -93.791 152.656  1.00  0.00     0.300 C 
HETATM    3  C8  UNL     1       9.568 -95.241 152.612  1.00  0.00     0.262 C 
HETATM    4  N2  UNL     1       9.821 -95.690 151.248  1.00  0.00    -0.072 N 
ATOM      5  H21 UNL     1       8.998 -95.647 150.648  1.00  0.00     0.277 HD
ATOM      6  H22 UNL     1       9.976 -96.696 151.174  1.00  0.00     0.277 HD
HETATM    7  C9  UNL     1      10.937 -94.895 150.758  1.00  0.00     0.262 C 
HETATM    8  C10 UNL     1      10.463 -93.456 150.674  1.00  0.00     0.300 C 
ENDROOT
BRANCH   1   9
HETATM    9  C6  UNL     1       9.569 -91.634 151.882  1.00  0.00     0.288 C 
BRANCH   9  10
HETATM   10  C5  UNL     1       9.804 -90.801 153.158  1.00  0.00     0.083 C 
HETATM   11  C4  UNL     1       8.690 -90.233 153.792  1.00  0.00    -0.176 C 
HETATM   12  C3  UNL     1       7.608 -89.582 154.412  1.00  0.00     0.084 C 
HETATM   13  C2  UNL     1       7.822 -88.050 154.169  1.00  0.00     0.038 C 
HETATM   14  C1  UNL     1       9.253 -87.738 153.769  1.00  0.00    -0.030 C 
HETATM   15  C12 UNL     1       9.895 -88.305 152.619  1.00  0.00    -0.029 C 
HETATM   16  C11 UNL     1      10.698 -89.605 152.677  1.00  0.00     0.045 C 
ENDBRANCH   9  10
ENDBRANCH   1   9
TORSDOF 2
ENDMDL
MODEL 2
REMARK VINA RESULT: -5.452578697      1.529      2.132
REMARK  2 active torsions:
REMARK  status: ('A' for Active; 'I' for Inactive)
REMARK    1  A    between atoms: C5_5  and  C6_6 
REMARK    2  A    between atoms: C6_6  and  N1_7 
ROOT
HETATM    1  N1  UNL     1       9.375 -92.965 151.438  1.00  0.00     0.092 N 
HETATM    2  C7  UNL     1      10.430 -93.518 150.619  1.00  0.00     0.300 C 
HETATM    3  C8  UNL     1      10.418 -95.012 150.553  1.00  0.00     0.262 C 
HETATM    4  N2  UNL     1      10.411 -95.609 151.882  1.00  0.00    -0.072 N 
ATOM      5  H21 UNL     1      11.255 -95.413 152.419  1.00  0.00     0.277 HD
ATOM      6  H22 UNL     1      10.502 -96.625 151.872  1.00  0.00     0.277 HD
HETATM    7  C9  UNL     1       9.193 -95.144 152.530  1.00  0.00     0.262 C 
HETATM    8  C10 UNL     1       9.325 -93.644 152.715  1.00  0.00     0.300 C 
ENDROOT
BRANCH   1   9
HETATM    9  C6  UNL     1       9.648 -91.575 151.621  1.00  0.00     0.288 C 
BRANCH   9  10
HETATM   10  C5  UNL     1      10.727 -91.346 152.697  1.00  0.00     0.083 C 
HETATM   11  C4  UNL     1      10.406 -90.531 153.792  1.00  0.00    -0.176 C 
HETATM   12  C3  UNL     1      10.151 -89.657 154.865  1.00  0.00     0.084 C 
HETATM   13  C2  UNL     1      11.057 -88.402 154.632  1.00  0.00     0.038 C 
HETATM   14  C1  UNL     1      12.178 -88.691 153.650  1.00  0.00    -0.030 C 
HETATM   15  C12 UNL     1      11.957 -89.141 152.306  1.00  0.00    -0.029 C 
HETATM   16  C11 UNL     1      11.887 -90.620 151.929  1.00  0.00     0.045 C 
ENDBRANCH   9  10
ENDBRANCH   1   9
TORSDOF 2
ENDMDL
MODEL 3
REMARK VINA RESULT: -5.446925989      0.886      1.537
REMARK  2 active torsions:
REMARK  status: ('A' for Active; 'I' for Inactive)
REMARK    1  A    between atoms: C5_5  and  C6_6 
REMARK    2  A    between atoms: C6_6  and  N1_7 
ROOT
HETATM    1  N1  UNL     1       9.346 -92.947 151.600  1.00  0.00     0.092 N 
HETATM    2  C7  UNL     1      10.422 -93.376 150.735  1.00  0.00     0.300 C 
HETATM    3  C8  UNL     1      10.463 -94.856 150.517  1.00  0.00     0.262 C 
HETATM    4  N2  UNL     1      10.474 -95.584 151.780  1.00  0.00    -0.072 N 
ATOM      5  H21 UNL     1      11.311 -95.415 152.338  1.00  0.00     0.277 HD
ATOM      6  H22 UNL     1      10.602 -96.590 151.667  1.00  0.00     0.277 HD
HETATM    7  C9  UNL     1       9.240 -95.231 152.465  1.00  0.00     0.262 C 
HETATM    8  C10 UNL     1       9.318 -93.753 152.801  1.00  0.00     0.300 C 
ENDROOT
BRANCH   1   9
HETATM    9  C6  UNL     1       9.569 -91.575 151.924  1.00  0.00     0.288 C 
BRANCH   9  10
HETATM   10  C5  UNL     1       9.516 -91.334 153.446  1.00  0.00     0.083 C 
HETATM   11  C4  UNL     1       8.391 -90.687 153.975  1.00  0.00    -0.176 C 
HETATM   12  C3  UNL     1       7.317 -89.970 154.534  1.00  0.00     0.084 C 
HETATM   13  C2  UNL     1       7.904 -88.598 155.006  1.00  0.00     0.038 C 
HETATM   14  C1  UNL     1       9.418 -88.643 155.122  1.00  0.00    -0.030 C 
HETATM   15  C12 UNL     1      10.286 -88.969 154.028  1.00  0.00    -0.029 C 
HETATM   16  C11 UNL     1      10.742 -90.397 153.730  1.00  0.00     0.045 C 
ENDBRANCH   9  10
ENDBRANCH   1   9
TORSDOF 2
ENDMDL
MODEL 4
REMARK VINA RESULT: -5.428413102      2.539      3.744
REMARK  2 active torsions:
REMARK  status: ('A' for Active; 'I' for Inactive)
REMARK    1  A    between atoms: C5_5  and  C6_6 
REMARK    2  A    between atoms: C6_6  and  N1_7 
ROOT
HETATM    1  N1  UNL     1      10.386 -93.160 150.954  1.00  0.00     0.092 N 
HETATM    2  C7  UNL     1       9.366 -93.329 151.965  1.00  0.00     0.300 C 
HETATM    3  C8  UNL     1       9.539 -94.566 152.790  1.00  0.00     0.262 C 
HETATM    4  N2  UNL     1       9.662 -95.754 151.956  1.00  0.00    -0.072 N 
ATOM      5  H21 UNL     1       8.822 -95.959 151.415  1.00  0.00     0.277 HD
ATOM      6  H22 UNL     1       9.682 -96.624 152.489  1.00  0.00     0.277 HD
HETATM    7  C9  UNL     1      10.846 -95.553 151.132  1.00  0.00     0.262 C 
HETATM    8  C10 UNL     1      10.558 -94.386 150.207  1.00  0.00     0.300 C 
ENDROOT
BRANCH   1   9
HETATM    9  C6  UNL     1       9.969 -92.102 150.090  1.00  0.00     0.288 C 
BRANCH   9  10
HETATM   10  C5  UNL     1      11.070 -91.035 149.926  1.00  0.00     0.083 C 
HETATM   11  C4  UNL     1      12.404 -91.429 150.102  1.00  0.00    -0.176 C 
HETATM   12  C3  UNL     1      13.748 -91.765 150.349  1.00  0.00     0.084 C 
HETATM   13  C2  UNL     1      14.150 -91.025 151.668  1.00  0.00     0.038 C 
HETATM   14  C1  UNL     1      13.185 -89.899 151.999  1.00  0.00    -0.030 C 
HETATM   15  C12 UNL     1      11.778 -90.094 152.193  1.00  0.00    -0.029 C 
HETATM   16  C11 UNL     1      10.763 -89.990 151.056  1.00  0.00     0.045 C 
ENDBRANCH   9  10
ENDBRANCH   1   9
TORSDOF 2
ENDMDL
MODEL 5
REMARK VINA RESULT: -5.426103985      2.782      5.493
REMARK  2 active torsions:
REMARK  status: ('A' for Active; 'I' for Inactive)
REMARK    1  A    between atoms: C5_5  and  C6_6 
REMARK    2  A    between atoms: C6_6  and  N1_7 
ROOT
HETATM    1  N1  UNL     1       9.721 -90.317 153.263  1.00  0.00     0.092 N 
HETATM    2  C7  UNL     1       8.469 -90.973 153.568  1.00  0.00     0.300 C 
HETATM    3  C8  UNL     1       7.606 -90.206 154.519  1.00  0.00     0.262 C 
HETATM    4  N2  UNL     1       8.329 -89.852 155.734  1.00  0.00    -0.072 N 
ATOM      5  H21 UNL     1       8.612 -90.660 156.287  1.00  0.00     0.277 HD
ATOM      6  H22 UNL     1       7.741 -89.415 156.444  1.00  0.00     0.277 HD
HETATM    7  C9  UNL     1       9.446 -89.018 155.315  1.00  0.00     0.262 C 
HETATM    8  C10 UNL     1      10.370 -89.886 154.482  1.00  0.00     0.300 C 
ENDROOT
BRANCH   1   9
HETATM    9  C6  UNL     1      10.543 -91.252 152.562  1.00  0.00     0.288 C 
BRANCH   9  10
HETATM   10  C5  UNL     1      11.245 -90.598 151.356  1.00  0.00     0.083 C 
HETATM   11  C4  UNL     1      10.923 -91.059 150.072  1.00  0.00    -0.176 C 
HETATM   12  C3  UNL     1      10.687 -91.547 148.774  1.00  0.00     0.084 C 
HETATM   13  C2  UNL     1      12.011 -92.250 148.322  1.00  0.00     0.038 C 
HETATM   14  C1  UNL     1      13.194 -91.822 149.173  1.00  0.00    -0.030 C 
HETATM   15  C12 UNL     1      13.247 -91.991 150.596  1.00  0.00    -0.029 C 
HETATM   16  C11 UNL     1      12.765 -90.921 151.575  1.00  0.00     0.045 C 
ENDBRANCH   9  10
ENDBRANCH   1   9
TORSDOF 2
ENDMDL
