MODEL 1
REMARK VINA RESULT: -7.496739000      0.000      0.000
REMARK  5 active torsions:
REMARK  status: ('A' for Active; 'I' for Inactive)
REMARK    1  A    between atoms: C2_2  and  N1_4 
REMARK    2  A    between atoms: C8_9  and  N2_10 
REMARK    3  A    between atoms: N2_10  and  S1_12 
REMARK    4  A    between atoms: S1_12  and  C9_15 
REMARK    5  A    between atoms: C11_18  and  O3_19 
ROOT
HETATM    1  S1  UNL     1      -8.987 -11.670  -2.806  1.00  0.00     0.265 S 
HETATM    2  O1  UNL     1      -8.521 -10.921  -1.552  1.00  0.00    -0.200 OA
HETATM    3  O2  UNL     1      -8.063 -12.856  -3.032  1.00  0.00    -0.200 OA
ENDROOT
BRANCH   1   4
HETATM    4  N2  UNL     1      -8.869 -10.572  -4.084  1.00  0.00    -0.301 N 
ATOM      5  H2  UNL     1      -9.536 -10.521  -4.854  1.00  0.00     0.173 HD
BRANCH   4   6
HETATM    6  C8  UNL     1      -7.745  -9.735  -3.965  1.00  0.00     0.194 C 
HETATM    7  C5  UNL     1      -8.031  -8.314  -3.561  1.00  0.00    -0.002 C 
HETATM    8  C4  UNL     1      -8.476  -7.688  -4.859  1.00  0.00     0.137 C 
HETATM    9  C6  UNL     1      -6.687  -7.680  -3.209  1.00  0.00     0.019 C 
HETATM   10  C7  UNL     1      -9.018  -8.135  -2.472  1.00  0.00     0.019 C 
HETATM   11  N1  UNL     1      -7.512  -8.214  -5.801  1.00  0.00    -0.346 N 
HETATM   12  C15 UNL     1      -7.095  -9.476  -5.315  1.00  0.00     0.244 C 
HETATM   13  O4  UNL     1      -6.321 -10.292  -5.859  1.00  0.00    -0.271 OA
BRANCH  11  14
HETATM   14  C2  UNL     1      -7.032  -7.590  -7.035  1.00  0.00     0.079 C 
HETATM   15  C1  UNL     1      -7.682  -8.347  -8.174  1.00  0.00     0.032 C 
HETATM   16  C3  UNL     1      -7.404  -6.145  -7.095  1.00  0.00     0.032 C 
ENDBRANCH  11  14
ENDBRANCH   4   6
ENDBRANCH   1   4
BRANCH   1  17
HETATM   17  C9  UNL     1     -10.542 -12.307  -2.450  1.00  0.00     0.162 A 
HETATM   18  C10 UNL     1     -11.657 -11.516  -2.568  1.00  0.00     0.177 A 
HETATM   19  F1  UNL     1     -11.607 -10.183  -2.906  1.00  0.00    -0.201 F 
HETATM   20  C11 UNL     1     -12.945 -11.975  -2.322  1.00  0.00     0.131 A 
HETATM   21  C12 UNL     1     -13.115 -13.287  -1.939  1.00  0.00     0.112 A 
HETATM   22 CL1  UNL     1     -14.743 -13.865  -1.629  1.00  0.00    -0.078 Cl
HETATM   23  C13 UNL     1     -12.011 -14.095  -1.815  1.00  0.00     0.181 A 
HETATM   24  F2  UNL     1     -12.239 -15.391  -1.431  1.00  0.00    -0.201 F 
HETATM   25  C14 UNL     1     -10.746 -13.629  -2.061  1.00  0.00     0.183 A 
HETATM   26  F3  UNL     1      -9.651 -14.406  -1.944  1.00  0.00    -0.201 F 
BRANCH  20  27
HETATM   27  O3  UNL     1     -14.039 -11.121  -2.461  1.00  0.00    -0.356 OA
ATOM     28  H3  UNL     1     -14.767 -11.357  -3.024  1.00  0.00     0.218 HD
ENDBRANCH  20  27
ENDBRANCH   1  17
TORSDOF 5
ENDMDL
MODEL 2
REMARK VINA RESULT: -7.312113567      1.167      1.703
REMARK  5 active torsions:
REMARK  status: ('A' for Active; 'I' for Inactive)
REMARK    1  A    between atoms: C2_2  and  N1_4 
REMARK    2  A    between atoms: C8_9  and  N2_10 
REMARK    3  A    between atoms: N2_10  and  S1_12 
REMARK    4  A    between atoms: S1_12  and  C9_15 
REMARK    5  A    between atoms: C11_18  and  O3_19 
ROOT
HETATM    1  S1  UNL     1      -9.103 -11.740  -2.396  1.00  0.00     0.265 S 
HETATM    2  O1  UNL     1      -8.442 -11.787  -1.014  1.00  0.00    -0.200 OA
HETATM    3  O2  UNL     1      -8.337 -12.666  -3.329  1.00  0.00    -0.200 OA
ENDROOT
BRANCH   1   4
HETATM    4  N2  UNL     1      -8.990 -10.139  -2.922  1.00  0.00    -0.301 N 
ATOM      5  H2  UNL     1      -9.422  -9.351  -2.441  1.00  0.00     0.173 HD
BRANCH   4   6
HETATM    6  C8  UNL     1      -8.230 -10.018  -4.100  1.00  0.00     0.194 C 
HETATM    7  C5  UNL     1      -6.814  -9.543  -3.915  1.00  0.00    -0.002 C 
HETATM    8  C4  UNL     1      -6.986  -8.053  -3.762  1.00  0.00     0.137 C 
HETATM    9  C6  UNL     1      -6.101  -9.765  -5.247  1.00  0.00     0.019 C 
HETATM   10  C7  UNL     1      -6.067 -10.151  -2.791  1.00  0.00     0.019 C 
HETATM   11  N1  UNL     1      -7.946  -7.745  -4.800  1.00  0.00    -0.346 N 
HETATM   12  C15 UNL     1      -8.747  -8.896  -4.986  1.00  0.00     0.244 C 
HETATM   13  O4  UNL     1      -9.734  -9.032  -5.741  1.00  0.00    -0.271 OA
BRANCH  11  14
HETATM   14  C2  UNL     1      -8.092  -6.492  -5.542  1.00  0.00     0.079 C 
HETATM   15  C1  UNL     1      -7.357  -5.436  -4.741  1.00  0.00     0.032 C 
HETATM   16  C3  UNL     1      -7.510  -6.599  -6.913  1.00  0.00     0.032 C 
ENDBRANCH  11  14
ENDBRANCH   4   6
ENDBRANCH   1   4
BRANCH   1  17
HETATM   17  C9  UNL     1     -10.677 -12.405  -2.212  1.00  0.00     0.162 A 
HETATM   18  C10 UNL     1     -11.784 -11.617  -2.392  1.00  0.00     0.177 A 
HETATM   19  F1  UNL     1     -11.719 -10.268  -2.659  1.00  0.00    -0.201 F 
HETATM   20  C11 UNL     1     -13.084 -12.095  -2.285  1.00  0.00     0.131 A 
HETATM   21  C12 UNL     1     -13.273 -13.426  -1.982  1.00  0.00     0.112 A 
HETATM   22 CL1  UNL     1     -14.916 -14.028  -1.848  1.00  0.00    -0.078 Cl
HETATM   23  C13 UNL     1     -12.176 -14.231  -1.798  1.00  0.00     0.181 A 
HETATM   24  F2  UNL     1     -12.423 -15.546  -1.499  1.00  0.00    -0.201 F 
HETATM   25  C14 UNL     1     -10.900 -13.746  -1.907  1.00  0.00     0.183 A 
HETATM   26  F3  UNL     1      -9.811 -14.520  -1.730  1.00  0.00    -0.201 F 
BRANCH  20  27
HETATM   27  O3  UNL     1     -14.171 -11.243  -2.479  1.00  0.00    -0.356 OA
ATOM     28  H3  UNL     1     -14.388 -10.930  -3.350  1.00  0.00     0.218 HD
ENDBRANCH  20  27
ENDBRANCH   1  17
TORSDOF 5
ENDMDL
MODEL 3
REMARK VINA RESULT: -7.162147627      2.171      2.781
REMARK  5 active torsions:
REMARK  status: ('A' for Active; 'I' for Inactive)
REMARK    1  A    between atoms: C2_2  and  N1_4 
REMARK    2  A    between atoms: C8_9  and  N2_10 
REMARK    3  A    between atoms: N2_10  and  S1_12 
REMARK    4  A    between atoms: S1_12  and  C9_15 
REMARK    5  A    between atoms: C11_18  and  O3_19 
ROOT
HETATM    1  S1  UNL     1     -11.914 -10.463  -2.948  1.00  0.00     0.265 S 
HETATM    2  O1  UNL     1     -11.970 -10.449  -4.479  1.00  0.00    -0.200 OA
HETATM    3  O2  UNL     1     -13.062  -9.619  -2.415  1.00  0.00    -0.200 OA
ENDROOT
BRANCH   1   4
HETATM    4  N2  UNL     1     -10.428  -9.782  -2.522  1.00  0.00    -0.301 N 
ATOM      5  H2  UNL     1     -10.279  -9.219  -1.684  1.00  0.00     0.173 HD
BRANCH   4   6
HETATM    6  C8  UNL     1      -9.419 -10.081  -3.455  1.00  0.00     0.194 C 
HETATM    7  C5  UNL     1      -8.008  -9.854  -2.982  1.00  0.00    -0.002 C 
HETATM    8  C4  UNL     1      -7.845  -8.364  -3.143  1.00  0.00     0.137 C 
HETATM    9  C6  UNL     1      -7.091 -10.507  -4.015  1.00  0.00     0.019 C 
HETATM   10  C7  UNL     1      -7.700 -10.319  -1.611  1.00  0.00     0.019 C 
HETATM   11  N1  UNL     1      -8.445  -8.126  -4.437  1.00  0.00    -0.346 N 
HETATM   12  C15 UNL     1      -9.438  -9.115  -4.628  1.00  0.00     0.244 C 
HETATM   13  O4  UNL     1     -10.234  -9.230  -5.585  1.00  0.00    -0.271 OA
BRANCH  11  14
HETATM   14  C2  UNL     1      -8.114  -7.071  -5.398  1.00  0.00     0.079 C 
HETATM   15  C1  UNL     1      -7.342  -6.021  -4.626  1.00  0.00     0.032 C 
HETATM   16  C3  UNL     1      -7.287  -7.599  -6.523  1.00  0.00     0.032 C 
ENDBRANCH  11  14
ENDBRANCH   4   6
ENDBRANCH   1   4
BRANCH   1  17
HETATM   17  C9  UNL     1     -12.214 -12.082  -2.458  1.00  0.00     0.162 A 
HETATM   18  C10 UNL     1     -13.500 -12.526  -2.290  1.00  0.00     0.177 A 
HETATM   19  F1  UNL     1     -14.605 -11.717  -2.432  1.00  0.00    -0.201 F 
HETATM   20  C11 UNL     1     -13.814 -13.828  -1.921  1.00  0.00     0.131 A 
HETATM   21  C12 UNL     1     -12.785 -14.720  -1.714  1.00  0.00     0.112 A 
HETATM   22 CL1  UNL     1     -13.184 -16.365  -1.249  1.00  0.00    -0.078 Cl
HETATM   23  C13 UNL     1     -11.490 -14.295  -1.877  1.00  0.00     0.181 A 
HETATM   24  F2  UNL     1     -10.506 -15.224  -1.657  1.00  0.00    -0.201 F 
HETATM   25  C14 UNL     1     -11.194 -13.007  -2.240  1.00  0.00     0.183 A 
HETATM   26  F3  UNL     1      -9.930 -12.571  -2.405  1.00  0.00    -0.201 F 
BRANCH  20  27
HETATM   27  O3  UNL     1     -15.144 -14.219  -1.767  1.00  0.00    -0.356 OA
ATOM     28  H3  UNL     1     -15.669 -14.454  -2.523  1.00  0.00     0.218 HD
ENDBRANCH  20  27
ENDBRANCH   1  17
TORSDOF 5
ENDMDL
MODEL 4
REMARK VINA RESULT: -7.066458784      7.067      9.895
REMARK  5 active torsions:
REMARK  status: ('A' for Active; 'I' for Inactive)
REMARK    1  A    between atoms: C2_2  and  N1_4 
REMARK    2  A    between atoms: C8_9  and  N2_10 
REMARK    3  A    between atoms: N2_10  and  S1_12 
REMARK    4  A    between atoms: S1_12  and  C9_15 
REMARK    5  A    between atoms: C11_18  and  O3_19 
ROOT
HETATM    1  S1  UNL     1      -5.398  -3.081  -7.268  1.00  0.00     0.265 S 
HETATM    2  O1  UNL     1      -6.037  -1.897  -6.534  1.00  0.00    -0.200 OA
HETATM    3  O2  UNL     1      -4.031  -3.347  -6.657  1.00  0.00    -0.200 OA
ENDROOT
BRANCH   1   4
HETATM    4  N2  UNL     1      -5.246  -2.612  -8.883  1.00  0.00    -0.301 N 
ATOM      5  H2  UNL     1      -6.035  -2.363  -9.480  1.00  0.00     0.173 HD
BRANCH   4   6
HETATM    6  C8  UNL     1      -3.907  -2.605  -9.312  1.00  0.00     0.194 C 
HETATM    7  C5  UNL     1      -3.338  -1.252  -9.646  1.00  0.00    -0.002 C 
HETATM    8  C4  UNL     1      -3.880  -1.002 -11.031  1.00  0.00     0.137 C 
HETATM    9  C6  UNL     1      -1.829  -1.437  -9.795  1.00  0.00     0.019 C 
HETATM   10  C7  UNL     1      -3.661  -0.160  -8.700  1.00  0.00     0.019 C 
HETATM   11  N1  UNL     1      -3.682  -2.283 -11.674  1.00  0.00    -0.346 N 
HETATM   12  C15 UNL     1      -3.750  -3.274 -10.668  1.00  0.00     0.244 C 
HETATM   13  O4  UNL     1      -3.695  -4.515 -10.806  1.00  0.00    -0.271 OA
BRANCH  11  14
HETATM   14  C2  UNL     1      -3.453  -2.545 -13.096  1.00  0.00     0.079 C 
HETATM   15  C1  UNL     1      -4.438  -1.677 -13.852  1.00  0.00     0.032 C 
HETATM   16  C3  UNL     1      -2.054  -2.206 -13.494  1.00  0.00     0.032 C 
ENDBRANCH  11  14
ENDBRANCH   4   6
ENDBRANCH   1   4
BRANCH   1  17
HETATM   17  C9  UNL     1      -6.374  -4.455  -6.930  1.00  0.00     0.162 A 
HETATM   18  C10 UNL     1      -6.716  -5.323  -7.935  1.00  0.00     0.177 A 
HETATM   19  F1  UNL     1      -6.371  -5.129  -9.253  1.00  0.00    -0.201 F 
HETATM   20  C11 UNL     1      -7.479  -6.465  -7.726  1.00  0.00     0.131 A 
HETATM   21  C12 UNL     1      -7.915  -6.742  -6.449  1.00  0.00     0.112 A 
HETATM   22 CL1  UNL     1      -8.878  -8.186  -6.188  1.00  0.00    -0.078 Cl
HETATM   23  C13 UNL     1      -7.583  -5.884  -5.429  1.00  0.00     0.181 A 
HETATM   24  F2  UNL     1      -8.043  -6.209  -4.180  1.00  0.00    -0.201 F 
HETATM   25  C14 UNL     1      -6.830  -4.761  -5.649  1.00  0.00     0.183 A 
HETATM   26  F3  UNL     1      -6.493  -3.907  -4.662  1.00  0.00    -0.201 F 
BRANCH  20  27
HETATM   27  O3  UNL     1      -7.794  -7.310  -8.790  1.00  0.00    -0.356 OA
ATOM     28  H3  UNL     1      -7.825  -6.976  -9.679  1.00  0.00     0.218 HD
ENDBRANCH  20  27
ENDBRANCH   1  17
TORSDOF 5
ENDMDL
MODEL 5
REMARK VINA RESULT: -7.031460513      2.125      3.478
REMARK  5 active torsions:
REMARK  status: ('A' for Active; 'I' for Inactive)
REMARK    1  A    between atoms: C2_2  and  N1_4 
REMARK    2  A    between atoms: C8_9  and  N2_10 
REMARK    3  A    between atoms: N2_10  and  S1_12 
REMARK    4  A    between atoms: S1_12  and  C9_15 
REMARK    5  A    between atoms: C11_18  and  O3_19 
ROOT
HETATM    1  S1  UNL     1     -11.621 -10.527  -3.399  1.00  0.00     0.265 S 
HETATM    2  O1  UNL     1     -12.690 -10.225  -4.455  1.00  0.00    -0.200 OA
HETATM    3  O2  UNL     1     -11.747  -9.507  -2.279  1.00  0.00    -0.200 OA
ENDROOT
BRANCH   1   4
HETATM    4  N2  UNL     1     -10.130 -10.375  -4.177  1.00  0.00    -0.301 N 
ATOM      5  H2  UNL     1      -9.833 -10.962  -4.957  1.00  0.00     0.173 HD
BRANCH   4   6
HETATM    6  C8  UNL     1      -9.345  -9.346  -3.627  1.00  0.00     0.194 C 
HETATM    7  C5  UNL     1      -8.347  -8.718  -4.562  1.00  0.00    -0.002 C 
HETATM    8  C4  UNL     1      -7.215  -9.715  -4.550  1.00  0.00     0.137 C 
HETATM    9  C6  UNL     1      -7.828  -7.461  -3.868  1.00  0.00     0.019 C 
HETATM   10  C7  UNL     1      -8.833  -8.423  -5.929  1.00  0.00     0.019 C 
HETATM   11  N1  UNL     1      -7.103 -10.036  -3.144  1.00  0.00    -0.346 N 
HETATM   12  C15 UNL     1      -8.387  -9.876  -2.572  1.00  0.00     0.244 C 
HETATM   13  O4  UNL     1      -8.741 -10.114  -1.398  1.00  0.00    -0.271 OA
BRANCH  11  14
HETATM   14  C2  UNL     1      -5.905 -10.452  -2.413  1.00  0.00     0.079 C 
HETATM   15  C1  UNL     1      -5.202  -9.179  -1.989  1.00  0.00     0.032 C 
HETATM   16  C3  UNL     1      -6.254 -11.273  -1.215  1.00  0.00     0.032 C 
ENDBRANCH  11  14
ENDBRANCH   4   6
ENDBRANCH   1   4
BRANCH   1  17
HETATM   17  C9  UNL     1     -12.012 -12.059  -2.726  1.00  0.00     0.162 A 
HETATM   18  C10 UNL     1     -13.320 -12.392  -2.481  1.00  0.00     0.177 A 
HETATM   19  F1  UNL     1     -14.372 -11.529  -2.686  1.00  0.00    -0.201 F 
HETATM   20  C11 UNL     1     -13.708 -13.622  -1.964  1.00  0.00     0.131 A 
HETATM   21  C12 UNL     1     -12.734 -14.555  -1.682  1.00  0.00     0.112 A 
HETATM   22 CL1  UNL     1     -13.226 -16.108  -1.030  1.00  0.00    -0.078 Cl
HETATM   23  C13 UNL     1     -11.419 -14.240  -1.921  1.00  0.00     0.181 A 
HETATM   24  F2  UNL     1     -10.492 -15.205  -1.622  1.00  0.00    -0.201 F 
HETATM   25  C14 UNL     1     -11.050 -13.023  -2.431  1.00  0.00     0.183 A 
HETATM   26  F3  UNL     1      -9.765 -12.695  -2.672  1.00  0.00    -0.201 F 
BRANCH  20  27
HETATM   27  O3  UNL     1     -15.055 -13.902  -1.736  1.00  0.00    -0.356 OA
ATOM     28  H3  UNL     1     -15.337 -14.787  -1.538  1.00  0.00     0.218 HD
ENDBRANCH  20  27
ENDBRANCH   1  17
TORSDOF 5
ENDMDL
