MODEL 1
REMARK VINA RESULT: -6.097170848      0.000      0.000
REMARK  5 active torsions:
REMARK  status: ('A' for Active; 'I' for Inactive)
REMARK    1  A    between atoms: N1_1  and  C1_5 
REMARK    2  A    between atoms: C1_5  and  C2_6 
REMARK    3  A    between atoms: C1_5  and  C4_10 
REMARK    4  A    between atoms: C2_6  and  C3_7 
REMARK       I    between atoms: C4_10  and  N2_12 
REMARK    5  A    between atoms: N2_12  and  N3_14 
ROOT
HETATM    1  C4  UNL     1      -6.864  -6.916  -9.434  1.00  0.00     0.266 C 
HETATM    2  O1  UNL     1      -6.403  -7.782 -10.216  1.00  0.00    -0.269 OA
HETATM    3  N2  UNL     1      -6.440  -5.538  -9.510  1.00  0.00    -0.268 N 
ATOM      4  H2  UNL     1      -6.812  -4.828  -8.878  1.00  0.00     0.190 HD
ENDROOT
BRANCH   1   5
HETATM    5  C1  UNL     1      -7.863  -7.343  -8.427  1.00  0.00     0.281 C 
BRANCH   5   6
HETATM    6  N1  UNL     1      -7.348  -8.474  -7.713  1.00  0.00    -0.066 N 
ATOM      7  H13 UNL     1      -6.390  -8.685  -7.991  1.00  0.00     0.275 HD
ATOM      8  H12 UNL     1      -7.184  -8.251  -6.732  1.00  0.00     0.275 HD
ATOM      9  H11 UNL     1      -7.951  -9.291  -7.812  1.00  0.00     0.275 HD
ENDBRANCH   5   6
BRANCH   5  10
HETATM   10  C2  UNL     1      -8.082  -6.144  -7.506  1.00  0.00     0.113 C 
BRANCH  10  11
HETATM   11  C3  UNL     1      -7.475  -6.387  -6.144  1.00  0.00     0.355 C 
HETATM   12  F1  UNL     1      -7.114  -5.155  -5.637  1.00  0.00    -0.214 F 
HETATM   13  F2  UNL     1      -8.434  -6.980  -5.342  1.00  0.00    -0.214 F 
ENDBRANCH  10  11
ENDBRANCH   5  10
ENDBRANCH   1   5
BRANCH   3  14
HETATM   14  N3  UNL     1      -5.499  -5.225 -10.486  1.00  0.00    -0.304 N 
HETATM   15  C5  UNL     1      -4.940  -4.073 -10.577  1.00  0.00     0.035 C 
HETATM   16  C6  UNL     1      -3.928  -3.542 -11.527  1.00  0.00     0.122 C 
HETATM   17  C8  UNL     1      -4.934  -2.747  -9.911  1.00  0.00     0.122 C 
HETATM   18 BR1  UNL     1      -2.161  -4.077 -10.968  1.00  0.00    -0.084 Br
HETATM   19  C7  UNL     1      -4.265  -2.124 -11.128  1.00  0.00     0.098 C 
HETATM   20 BR2  UNL     1      -5.499  -1.356 -12.393  1.00  0.00    -0.088 Br
HETATM   21 BR3  UNL     1      -3.812  -2.671  -8.333  1.00  0.00    -0.084 Br
ATOM     22  H3  UNL     1      -5.241  -5.944 -11.161  1.00  0.00     0.186 HD
ENDBRANCH   3  14
TORSDOF 5
ENDMDL
MODEL 2
REMARK VINA RESULT: -5.959481156     11.329     13.967
REMARK  5 active torsions:
REMARK  status: ('A' for Active; 'I' for Inactive)
REMARK    1  A    between atoms: N1_1  and  C1_5 
REMARK    2  A    between atoms: C1_5  and  C2_6 
REMARK    3  A    between atoms: C1_5  and  C4_10 
REMARK    4  A    between atoms: C2_6  and  C3_7 
REMARK       I    between atoms: C4_10  and  N2_12 
REMARK    5  A    between atoms: N2_12  and  N3_14 
ROOT
HETATM    1  C4  UNL     1     -10.138 -13.350  -1.997  1.00  0.00     0.266 C 
HETATM    2  O1  UNL     1      -9.375 -14.343  -1.911  1.00  0.00    -0.269 OA
HETATM    3  N2  UNL     1     -11.565 -13.484  -1.820  1.00  0.00    -0.268 N 
ATOM      4  H2  UNL     1     -12.190 -12.681  -1.887  1.00  0.00     0.190 HD
ENDROOT
BRANCH   1   5
HETATM    5  C1  UNL     1      -9.535 -12.027  -2.285  1.00  0.00     0.281 C 
BRANCH   5   6
HETATM    6  N1  UNL     1      -8.276 -12.223  -2.941  1.00  0.00    -0.066 N 
ATOM      7  H13 UNL     1      -7.742 -11.356  -2.987  1.00  0.00     0.275 HD
ATOM      8  H12 UNL     1      -7.639 -12.773  -2.365  1.00  0.00     0.275 HD
ATOM      9  H11 UNL     1      -8.392 -12.638  -3.866  1.00  0.00     0.275 HD
ENDBRANCH   5   6
BRANCH   5  10
HETATM   10  C2  UNL     1     -10.530 -11.289  -3.179  1.00  0.00     0.113 C 
BRANCH  10  11
HETATM   11  C3  UNL     1      -9.837 -10.230  -4.004  1.00  0.00     0.355 C 
HETATM   12  F1  UNL     1     -10.736  -9.816  -4.967  1.00  0.00    -0.214 F 
HETATM   13  F2  UNL     1      -9.503  -9.179  -3.169  1.00  0.00    -0.214 F 
ENDBRANCH  10  11
ENDBRANCH   5  10
ENDBRANCH   1   5
BRANCH   3  14
HETATM   14  N3  UNL     1     -12.045 -14.763  -1.552  1.00  0.00    -0.304 N 
HETATM   15  C5  UNL     1     -13.295 -15.033  -1.443  1.00  0.00     0.035 C 
HETATM   16  C6  UNL     1     -14.005 -16.308  -1.166  1.00  0.00     0.122 C 
HETATM   17  C8  UNL     1     -14.620 -14.369  -1.510  1.00  0.00     0.122 C 
HETATM   18 BR1  UNL     1     -14.184 -17.325  -2.796  1.00  0.00    -0.084 Br
HETATM   19  C7  UNL     1     -15.264 -15.554  -0.804  1.00  0.00     0.098 C 
HETATM   20 BR2  UNL     1     -15.388 -15.353   1.108  1.00  0.00    -0.088 Br
HETATM   21 BR3  UNL     1     -15.285 -14.137  -3.316  1.00  0.00    -0.084 Br
ATOM     22  H3  UNL     1     -11.372 -15.521  -1.438  1.00  0.00     0.186 HD
ENDBRANCH   3  14
TORSDOF 5
ENDMDL
MODEL 3
REMARK VINA RESULT: -5.755145275      1.112      1.294
REMARK  5 active torsions:
REMARK  status: ('A' for Active; 'I' for Inactive)
REMARK    1  A    between atoms: N1_1  and  C1_5 
REMARK    2  A    between atoms: C1_5  and  C2_6 
REMARK    3  A    between atoms: C1_5  and  C4_10 
REMARK    4  A    between atoms: C2_6  and  C3_7 
REMARK       I    between atoms: C4_10  and  N2_12 
REMARK    5  A    between atoms: N2_12  and  N3_14 
ROOT
HETATM    1  C4  UNL     1      -7.119  -6.035  -9.037  1.00  0.00     0.266 C 
HETATM    2  O1  UNL     1      -7.053  -6.844  -9.994  1.00  0.00    -0.269 OA
HETATM    3  N2  UNL     1      -6.224  -4.905  -8.948  1.00  0.00    -0.268 N 
ATOM      4  H2  UNL     1      -6.272  -4.243  -8.174  1.00  0.00     0.190 HD
ENDROOT
BRANCH   1   5
HETATM    5  C1  UNL     1      -8.145  -6.267  -7.994  1.00  0.00     0.281 C 
BRANCH   5   6
HETATM    6  N1  UNL     1      -8.775  -7.532  -8.235  1.00  0.00    -0.066 N 
ATOM      7  H13 UNL     1      -8.340  -8.274  -7.686  1.00  0.00     0.275 HD
ATOM      8  H12 UNL     1      -9.711  -7.563  -7.833  1.00  0.00     0.275 HD
ATOM      9  H11 UNL     1      -8.789  -7.764  -9.228  1.00  0.00     0.275 HD
ENDBRANCH   5   6
BRANCH   5  10
HETATM   10  C2  UNL     1      -7.407  -6.248  -6.656  1.00  0.00     0.113 C 
BRANCH  10  11
HETATM   11  C3  UNL     1      -8.100  -7.126  -5.641  1.00  0.00     0.355 C 
HETATM   12  F1  UNL     1      -7.340  -8.272  -5.513  1.00  0.00    -0.214 F 
HETATM   13  F2  UNL     1      -8.152  -6.443  -4.440  1.00  0.00    -0.214 F 
ENDBRANCH  10  11
ENDBRANCH   5  10
ENDBRANCH   1   5
BRANCH   3  14
HETATM   14  N3  UNL     1      -5.291  -4.763  -9.972  1.00  0.00    -0.304 N 
HETATM   15  C5  UNL     1      -4.468  -3.781 -10.039  1.00  0.00     0.035 C 
HETATM   16  C6  UNL     1      -3.411  -3.449 -11.029  1.00  0.00     0.122 C 
HETATM   17  C8  UNL     1      -4.092  -2.550  -9.301  1.00  0.00     0.122 C 
HETATM   18 BR1  UNL     1      -1.806  -4.442 -10.632  1.00  0.00    -0.084 Br
HETATM   19  C7  UNL     1      -3.358  -2.024 -10.526  1.00  0.00     0.098 C 
HETATM   20 BR2  UNL     1      -4.430  -0.885 -11.652  1.00  0.00    -0.088 Br
HETATM   21 BR3  UNL     1      -2.898  -2.869  -7.807  1.00  0.00    -0.084 Br
ATOM     22  H3  UNL     1      -5.261  -5.473 -10.704  1.00  0.00     0.186 HD
ENDBRANCH   3  14
TORSDOF 5
ENDMDL
MODEL 4
REMARK VINA RESULT: -5.701611583      2.222      3.045
REMARK  5 active torsions:
REMARK  status: ('A' for Active; 'I' for Inactive)
REMARK    1  A    between atoms: N1_1  and  C1_5 
REMARK    2  A    between atoms: C1_5  and  C2_6 
REMARK    3  A    between atoms: C1_5  and  C4_10 
REMARK    4  A    between atoms: C2_6  and  C3_7 
REMARK       I    between atoms: C4_10  and  N2_12 
REMARK    5  A    between atoms: N2_12  and  N3_14 
ROOT
HETATM    1  C4  UNL     1      -6.699  -4.872  -7.482  1.00  0.00     0.266 C 
HETATM    2  O1  UNL     1      -6.244  -4.615  -6.341  1.00  0.00    -0.269 OA
HETATM    3  N2  UNL     1      -6.006  -4.451  -8.677  1.00  0.00    -0.268 N 
ATOM      4  H2  UNL     1      -6.370  -4.658  -9.607  1.00  0.00     0.190 HD
ENDROOT
BRANCH   1   5
HETATM    5  C1  UNL     1      -7.972  -5.626  -7.574  1.00  0.00     0.281 C 
BRANCH   5   6
HETATM    6  N1  UNL     1      -7.988  -6.361  -8.804  1.00  0.00    -0.066 N 
ATOM      7  H13 UNL     1      -8.304  -5.781  -9.580  1.00  0.00     0.275 HD
ATOM      8  H12 UNL     1      -7.042  -6.562  -9.129  1.00  0.00     0.275 HD
ATOM      9  H11 UNL     1      -8.542  -7.214  -8.727  1.00  0.00     0.275 HD
ENDBRANCH   5   6
BRANCH   5  10
HETATM   10  C2  UNL     1      -8.009  -6.553  -6.360  1.00  0.00     0.113 C 
BRANCH  10  11
HETATM   11  C3  UNL     1      -8.217  -7.989  -6.779  1.00  0.00     0.355 C 
HETATM   12  F1  UNL     1      -6.977  -8.596  -6.767  1.00  0.00    -0.214 F 
HETATM   13  F2  UNL     1      -9.060  -8.590  -5.862  1.00  0.00    -0.214 F 
ENDBRANCH  10  11
ENDBRANCH   5  10
ENDBRANCH   1   5
BRANCH   3  14
HETATM   14  N3  UNL     1      -4.818  -3.749  -8.497  1.00  0.00    -0.304 N 
HETATM   15  C5  UNL     1      -3.936  -3.615  -9.420  1.00  0.00     0.035 C 
HETATM   16  C6  UNL     1      -2.625  -2.917  -9.435  1.00  0.00     0.122 C 
HETATM   17  C8  UNL     1      -3.689  -3.999 -10.832  1.00  0.00     0.122 C 
HETATM   18 BR1  UNL     1      -2.889  -1.034  -9.762  1.00  0.00    -0.084 Br
HETATM   19  C7  UNL     1      -2.210  -3.675 -10.675  1.00  0.00     0.098 C 
HETATM   20 BR2  UNL     1      -1.123  -5.191 -10.191  1.00  0.00    -0.088 Br
HETATM   21 BR3  UNL     1      -4.565  -2.846 -12.119  1.00  0.00    -0.084 Br
ATOM     22  H3  UNL     1      -4.640  -3.320  -7.589  1.00  0.00     0.186 HD
ENDBRANCH   3  14
TORSDOF 5
ENDMDL
MODEL 5
REMARK VINA RESULT: -5.669933511      2.337      3.199
REMARK  5 active torsions:
REMARK  status: ('A' for Active; 'I' for Inactive)
REMARK    1  A    between atoms: N1_1  and  C1_5 
REMARK    2  A    between atoms: C1_5  and  C2_6 
REMARK    3  A    between atoms: C1_5  and  C4_10 
REMARK    4  A    between atoms: C2_6  and  C3_7 
REMARK       I    between atoms: C4_10  and  N2_12 
REMARK    5  A    between atoms: N2_12  and  N3_14 
ROOT
HETATM    1  C4  UNL     1      -7.311  -5.253  -7.091  1.00  0.00     0.266 C 
HETATM    2  O1  UNL     1      -7.361  -4.666  -5.983  1.00  0.00    -0.269 OA
HETATM    3  N2  UNL     1      -6.447  -4.782  -8.149  1.00  0.00    -0.268 N 
ATOM      4  H2  UNL     1      -6.399  -5.255  -9.052  1.00  0.00     0.190 HD
ENDROOT
BRANCH   1   5
HETATM    5  C1  UNL     1      -8.162  -6.449  -7.290  1.00  0.00     0.281 C 
BRANCH   5   6
HETATM    6  N1  UNL     1      -8.373  -6.642  -8.694  1.00  0.00    -0.066 N 
ATOM      7  H13 UNL     1      -7.744  -7.350  -9.071  1.00  0.00     0.275 HD
ATOM      8  H12 UNL     1      -9.263  -7.105  -8.876  1.00  0.00     0.275 HD
ATOM      9  H11 UNL     1      -8.298  -5.766  -9.211  1.00  0.00     0.275 HD
ENDBRANCH   5   6
BRANCH   5  10
HETATM   10  C2  UNL     1      -7.406  -7.621  -6.665  1.00  0.00     0.113 C 
BRANCH  10  11
HETATM   11  C3  UNL     1      -8.164  -8.192  -5.490  1.00  0.00     0.355 C 
HETATM   12  F1  UNL     1      -8.338  -7.165  -4.584  1.00  0.00    -0.214 F 
HETATM   13  F2  UNL     1      -9.388  -8.650  -5.945  1.00  0.00    -0.214 F 
ENDBRANCH  10  11
ENDBRANCH   5  10
ENDBRANCH   1   5
BRANCH   3  14
HETATM   14  N3  UNL     1      -5.682  -3.652  -7.876  1.00  0.00    -0.304 N 
HETATM   15  C5  UNL     1      -4.595  -3.374  -8.500  1.00  0.00     0.035 C 
HETATM   16  C6  UNL     1      -3.646  -2.239  -8.366  1.00  0.00     0.122 C 
HETATM   17  C8  UNL     1      -3.724  -3.907  -9.577  1.00  0.00     0.122 C 
HETATM   18 BR1  UNL     1      -4.304  -0.716  -9.349  1.00  0.00    -0.084 Br
HETATM   19  C7  UNL     1      -2.585  -3.008  -9.119  1.00  0.00     0.098 C 
HETATM   20 BR2  UNL     1      -1.373  -3.850  -7.879  1.00  0.00    -0.088 Br
HETATM   21 BR3  UNL     1      -4.336  -3.470 -11.363  1.00  0.00    -0.084 Br
ATOM     22  H3  UNL     1      -5.999  -3.014  -7.146  1.00  0.00     0.186 HD
ENDBRANCH   3  14
TORSDOF 5
ENDMDL
