MODEL 1
REMARK VINA RESULT: -6.420191678      0.000      0.000
REMARK  6 active torsions:
REMARK  status: ('A' for Active; 'I' for Inactive)
REMARK    1  A    between atoms: C2_2  and  C3_4 
REMARK    2  A    between atoms: C3_4  and  C4_6 
REMARK    3  A    between atoms: C3_4  and  N2_14 
REMARK    4  A    between atoms: C4_6  and  C5_7 
REMARK    5  A    between atoms: C5_7  and  N1_8 
REMARK    6  A    between atoms: C5_7  and  O1_12 
ROOT
HETATM    1  C3  UNL     1      -7.901  -9.596  -3.876  1.00  0.00     0.131 C 
HETATM    2 CL2  UNL     1      -8.407  -8.192  -2.800  1.00  0.00    -0.094 Cl
ENDROOT
BRANCH   1   3
HETATM    3  C2  UNL     1      -8.164  -9.049  -5.255  1.00  0.00     0.122 C 
HETATM    4  C1  UNL     1      -7.121  -9.378  -6.257  1.00  0.00     0.030 C 
HETATM    5 CL1  UNL     1      -8.300  -7.276  -5.151  1.00  0.00    -0.121 Cl
ENDBRANCH   1   3
BRANCH   1   6
HETATM    6  C4  UNL     1      -6.510  -9.818  -3.495  1.00  0.00     0.110 C 
BRANCH   6   7
HETATM    7  C5  UNL     1      -5.954  -9.276  -2.247  1.00  0.00     0.319 C 
BRANCH   7   8
HETATM    8  N1  UNL     1      -6.079 -10.366  -1.240  1.00  0.00    -0.053 N 
ATOM      9  H13 UNL     1      -6.408 -11.248  -1.632  1.00  0.00     0.277 HD
ATOM     10  H12 UNL     1      -5.181 -10.711  -0.899  1.00  0.00     0.277 HD
ATOM     11  H11 UNL     1      -6.680  -9.997  -0.503  1.00  0.00     0.277 HD
ENDBRANCH   7   8
BRANCH   7  12
HETATM   12  O1  UNL     1      -4.576  -9.035  -2.252  1.00  0.00    -0.370 OA
ATOM     13  H1  UNL     1      -4.312  -8.168  -2.537  1.00  0.00     0.212 HD
ENDBRANCH   7  12
ENDBRANCH   6   7
ENDBRANCH   1   6
BRANCH   1  14
HETATM   14  N2  UNL     1      -8.864 -10.630  -3.612  1.00  0.00    -0.345 N 
HETATM   15  C6  UNL     1      -8.673 -11.948  -3.029  1.00  0.00     0.147 C 
HETATM   16  C7  UNL     1      -9.936 -12.064  -2.210  1.00  0.00     0.119 C 
HETATM   17 BR1  UNL     1     -10.396 -13.876  -1.795  1.00  0.00    -0.084 Br
HETATM   18  C8  UNL     1     -10.925 -11.388  -3.068  1.00  0.00     0.043 C 
HETATM   19 BR2  UNL     1     -12.803 -11.727  -2.953  1.00  0.00    -0.051 Br
HETATM   20  C9  UNL     1     -10.287 -10.567  -3.867  1.00  0.00     0.118 C 
HETATM   21 CL3  UNL     1     -11.038  -9.543  -5.066  1.00  0.00    -0.063 Cl
ENDBRANCH   1  14
TORSDOF 6
ENDMDL
MODEL 2
REMARK VINA RESULT: -6.248845115      2.151      3.067
REMARK  6 active torsions:
REMARK  status: ('A' for Active; 'I' for Inactive)
REMARK    1  A    between atoms: C2_2  and  C3_4 
REMARK    2  A    between atoms: C3_4  and  C4_6 
REMARK    3  A    between atoms: C3_4  and  N2_14 
REMARK    4  A    between atoms: C4_6  and  C5_7 
REMARK    5  A    between atoms: C5_7  and  N1_8 
REMARK    6  A    between atoms: C5_7  and  O1_12 
ROOT
HETATM    1  C3  UNL     1      -8.319  -9.365  -4.350  1.00  0.00     0.131 C 
HETATM    2 CL2  UNL     1      -6.707 -10.124  -4.806  1.00  0.00    -0.094 Cl
ENDROOT
BRANCH   1   3
HETATM    3  C2  UNL     1      -7.952  -8.541  -3.143  1.00  0.00     0.122 C 
HETATM    4  C1  UNL     1      -7.907  -7.078  -3.386  1.00  0.00     0.030 C 
HETATM    5 CL1  UNL     1      -6.350  -9.060  -2.562  1.00  0.00    -0.121 Cl
ENDBRANCH   1   3
BRANCH   1   6
HETATM    6  C4  UNL     1      -8.700  -8.648  -5.563  1.00  0.00     0.110 C 
BRANCH   6   7
HETATM    7  C5  UNL     1      -7.735  -8.381  -6.638  1.00  0.00     0.319 C 
BRANCH   7   8
HETATM    8  N1  UNL     1      -8.547  -8.013  -7.831  1.00  0.00    -0.053 N 
ATOM      9  H13 UNL     1      -9.011  -7.108  -7.746  1.00  0.00     0.277 HD
ATOM     10  H12 UNL     1      -7.986  -7.786  -8.652  1.00  0.00     0.277 HD
ATOM     11  H11 UNL     1      -9.192  -8.789  -7.979  1.00  0.00     0.277 HD
ENDBRANCH   7   8
BRANCH   7  12
HETATM   12  O1  UNL     1      -6.934  -7.247  -6.465  1.00  0.00    -0.370 OA
ATOM     13  H1  UNL     1      -6.287  -7.094  -7.143  1.00  0.00     0.212 HD
ENDBRANCH   7  12
ENDBRANCH   6   7
ENDBRANCH   1   6
BRANCH   1  14
HETATM   14  N2  UNL     1      -9.135 -10.464  -3.912  1.00  0.00    -0.345 N 
HETATM   15  C6  UNL     1      -8.745 -11.722  -3.298  1.00  0.00     0.147 C 
HETATM   16  C7  UNL     1      -9.877 -11.903  -2.314  1.00  0.00     0.119 C 
HETATM   17 BR1  UNL     1     -10.103 -13.720  -1.757  1.00  0.00    -0.084 Br
HETATM   18  C8  UNL     1     -11.027 -11.370  -3.066  1.00  0.00     0.043 C 
HETATM   19 BR2  UNL     1     -12.834 -11.869  -2.687  1.00  0.00    -0.051 Br
HETATM   20  C9  UNL     1     -10.579 -10.544  -3.979  1.00  0.00     0.118 C 
HETATM   21 CL3  UNL     1     -11.571  -9.664  -5.115  1.00  0.00    -0.063 Cl
ENDBRANCH   1  14
TORSDOF 6
ENDMDL
MODEL 3
REMARK VINA RESULT: -5.999876013      2.322      3.600
REMARK  6 active torsions:
REMARK  status: ('A' for Active; 'I' for Inactive)
REMARK    1  A    between atoms: C2_2  and  C3_4 
REMARK    2  A    between atoms: C3_4  and  C4_6 
REMARK    3  A    between atoms: C3_4  and  N2_14 
REMARK    4  A    between atoms: C4_6  and  C5_7 
REMARK    5  A    between atoms: C5_7  and  N1_8 
REMARK    6  A    between atoms: C5_7  and  O1_12 
ROOT
HETATM    1  C3  UNL     1      -8.390  -9.170  -4.159  1.00  0.00     0.131 C 
HETATM    2 CL2  UNL     1      -6.940 -10.235  -4.541  1.00  0.00    -0.094 Cl
ENDROOT
BRANCH   1   3
HETATM    3  C2  UNL     1      -7.819  -8.205  -3.153  1.00  0.00     0.122 C 
HETATM    4  C1  UNL     1      -7.856  -6.783  -3.572  1.00  0.00     0.030 C 
HETATM    5 CL1  UNL     1      -6.124  -8.649  -2.832  1.00  0.00    -0.121 Cl
ENDBRANCH   1   3
BRANCH   1   6
HETATM    6  C4  UNL     1      -8.760  -8.636  -5.466  1.00  0.00     0.110 C 
BRANCH   6   7
HETATM    7  C5  UNL     1      -7.780  -8.505  -6.553  1.00  0.00     0.319 C 
BRANCH   7   8
HETATM    8  N1  UNL     1      -8.556  -8.082  -7.751  1.00  0.00    -0.053 N 
ATOM      9  H13 UNL     1      -9.074  -8.842  -8.192  1.00  0.00     0.277 HD
ATOM     10  H12 UNL     1      -9.362  -7.497  -7.530  1.00  0.00     0.277 HD
ATOM     11  H11 UNL     1      -7.884  -7.632  -8.373  1.00  0.00     0.277 HD
ENDBRANCH   7   8
BRANCH   7  12
HETATM   12  O1  UNL     1      -6.858  -7.462  -6.415  1.00  0.00    -0.370 OA
ATOM     13  H1  UNL     1      -6.614  -7.020  -7.219  1.00  0.00     0.212 HD
ENDBRANCH   7  12
ENDBRANCH   6   7
ENDBRANCH   1   6
BRANCH   1  14
HETATM   14  N2  UNL     1      -9.315 -10.033  -3.478  1.00  0.00    -0.345 N 
HETATM   15  C6  UNL     1     -10.764  -9.956  -3.391  1.00  0.00     0.147 C 
HETATM   16  C7  UNL     1     -11.114 -11.425  -3.450  1.00  0.00     0.119 C 
HETATM   17 BR1  UNL     1     -12.846 -11.811  -2.729  1.00  0.00    -0.084 Br
HETATM   18  C8  UNL     1     -10.011 -12.036  -2.689  1.00  0.00     0.043 C 
HETATM   19 BR2  UNL     1     -10.158 -13.743  -1.840  1.00  0.00    -0.051 Br
HETATM   20  C9  UNL     1      -8.985 -11.221  -2.718  1.00  0.00     0.118 C 
HETATM   21 CL3  UNL     1      -7.442 -11.515  -1.956  1.00  0.00    -0.063 Cl
ENDBRANCH   1  14
TORSDOF 6
ENDMDL
MODEL 4
REMARK VINA RESULT: -5.731365685      1.211      2.077
REMARK  6 active torsions:
REMARK  status: ('A' for Active; 'I' for Inactive)
REMARK    1  A    between atoms: C2_2  and  C3_4 
REMARK    2  A    between atoms: C3_4  and  C4_6 
REMARK    3  A    between atoms: C3_4  and  N2_14 
REMARK    4  A    between atoms: C4_6  and  C5_7 
REMARK    5  A    between atoms: C5_7  and  N1_8 
REMARK    6  A    between atoms: C5_7  and  O1_12 
ROOT
HETATM    1  C3  UNL     1      -7.812  -9.549  -3.859  1.00  0.00     0.131 C 
HETATM    2 CL2  UNL     1      -7.683  -7.907  -3.040  1.00  0.00    -0.094 Cl
ENDROOT
BRANCH   1   3
HETATM    3  C2  UNL     1      -8.118  -9.171  -5.284  1.00  0.00     0.122 C 
HETATM    4  C1  UNL     1      -7.039  -9.487  -6.252  1.00  0.00     0.030 C 
HETATM    5 CL1  UNL     1      -8.434  -7.419  -5.356  1.00  0.00    -0.121 Cl
ENDBRANCH   1   3
BRANCH   1   6
HETATM    6  C4  UNL     1      -6.512 -10.155  -3.588  1.00  0.00     0.110 C 
BRANCH   6   7
HETATM    7  C5  UNL     1      -5.500  -9.477  -2.767  1.00  0.00     0.319 C 
BRANCH   7   8
HETATM    8  N1  UNL     1      -5.893  -9.723  -1.352  1.00  0.00    -0.053 N 
ATOM      9  H13 UNL     1      -6.882  -9.947  -1.237  1.00  0.00     0.277 HD
ATOM     10  H12 UNL     1      -5.525 -10.595  -0.972  1.00  0.00     0.277 HD
ATOM     11  H11 UNL     1      -5.599  -8.896  -0.833  1.00  0.00     0.277 HD
ENDBRANCH   7   8
BRANCH   7  12
HETATM   12  O1  UNL     1      -4.214 -10.026  -2.815  1.00  0.00    -0.370 OA
ATOM     13  H1  UNL     1      -3.824 -10.235  -1.974  1.00  0.00     0.212 HD
ENDBRANCH   7  12
ENDBRANCH   6   7
ENDBRANCH   1   6
BRANCH   1  14
HETATM   14  N2  UNL     1      -8.986 -10.154  -3.293  1.00  0.00    -0.345 N 
HETATM   15  C6  UNL     1     -10.356  -9.670  -3.261  1.00  0.00     0.147 C 
HETATM   16  C7  UNL     1     -11.104 -10.967  -3.456  1.00  0.00     0.119 C 
HETATM   17 BR1  UNL     1     -12.917 -10.887  -2.846  1.00  0.00    -0.084 Br
HETATM   18  C8  UNL     1     -10.271 -11.920  -2.702  1.00  0.00     0.043 C 
HETATM   19 BR2  UNL     1     -10.951 -13.566  -2.004  1.00  0.00    -0.051 Br
HETATM   20  C9  UNL     1      -9.056 -11.434  -2.620  1.00  0.00     0.118 C 
HETATM   21 CL3  UNL     1      -7.713 -12.210  -1.819  1.00  0.00    -0.063 Cl
ENDBRANCH   1  14
TORSDOF 6
ENDMDL
MODEL 5
REMARK VINA RESULT: -5.480576542      4.055      5.362
REMARK  6 active torsions:
REMARK  status: ('A' for Active; 'I' for Inactive)
REMARK    1  A    between atoms: C2_2  and  C3_4 
REMARK    2  A    between atoms: C3_4  and  C4_6 
REMARK    3  A    between atoms: C3_4  and  N2_14 
REMARK    4  A    between atoms: C4_6  and  C5_7 
REMARK    5  A    between atoms: C5_7  and  N1_8 
REMARK    6  A    between atoms: C5_7  and  O1_12 
ROOT
HETATM    1  C3  UNL     1      -8.315  -9.677  -3.870  1.00  0.00     0.131 C 
HETATM    2 CL2  UNL     1      -8.718  -8.466  -2.546  1.00  0.00    -0.094 Cl
ENDROOT
BRANCH   1   3
HETATM    3  C2  UNL     1      -7.144 -10.418  -3.278  1.00  0.00     0.122 C 
HETATM    4  C1  UNL     1      -7.508 -11.428  -2.255  1.00  0.00     0.030 C 
HETATM    5 CL1  UNL     1      -6.040  -9.238  -2.529  1.00  0.00    -0.121 Cl
ENDBRANCH   1   3
BRANCH   1   6
HETATM    6  C4  UNL     1      -9.564 -10.414  -4.033  1.00  0.00     0.110 C 
BRANCH   6   7
HETATM    7  C5  UNL     1     -10.717 -10.185  -3.152  1.00  0.00     0.319 C 
BRANCH   7   8
HETATM    8  N1  UNL     1     -11.924 -10.426  -3.991  1.00  0.00    -0.053 N 
ATOM      9  H13 UNL     1     -12.229  -9.603  -4.511  1.00  0.00     0.277 HD
ATOM     10  H12 UNL     1     -11.746 -11.023  -4.799  1.00  0.00     0.277 HD
ATOM     11  H11 UNL     1     -12.633 -10.795  -3.358  1.00  0.00     0.277 HD
ENDBRANCH   7   8
BRANCH   7  12
HETATM   12  O1  UNL     1     -10.885 -11.115  -2.120  1.00  0.00    -0.370 OA
ATOM     13  H1  UNL     1     -11.466 -11.841  -2.312  1.00  0.00     0.212 HD
ENDBRANCH   7  12
ENDBRANCH   6   7
ENDBRANCH   1   6
BRANCH   1  14
HETATM   14  N2  UNL     1      -7.835  -8.881  -4.966  1.00  0.00    -0.345 N 
HETATM   15  C6  UNL     1      -7.274  -9.298  -6.240  1.00  0.00     0.147 C 
HETATM   16  C7  UNL     1      -7.862  -8.245  -7.150  1.00  0.00     0.119 C 
HETATM   17 BR1  UNL     1      -6.886  -8.036  -8.783  1.00  0.00    -0.084 Br
HETATM   18  C8  UNL     1      -7.838  -7.048  -6.292  1.00  0.00     0.043 C 
HETATM   19 BR2  UNL     1      -7.831  -5.269  -6.994  1.00  0.00    -0.051 Br
HETATM   20  C9  UNL     1      -7.823  -7.435  -5.040  1.00  0.00     0.118 C 
HETATM   21 CL3  UNL     1      -7.794  -6.370  -3.656  1.00  0.00    -0.063 Cl
ENDBRANCH   1  14
TORSDOF 6
ENDMDL
