MODEL 1
REMARK VINA RESULT: -5.684968043      0.000      0.000
REMARK  4 active torsions:
REMARK  status: ('A' for Active; 'I' for Inactive)
REMARK    1  A    between atoms: C2_2  and  C3_3 
REMARK    2  A    between atoms: C2_2  and  N2_6 
REMARK    3  A    between atoms: N2_6  and  C5_8 
REMARK    4  A    between atoms: C5_8  and  N3_10 
ROOT
HETATM    1  C3  UNL     1      -1.883   0.766  81.149  1.00  0.00     0.148 C 
HETATM    2  C4  UNL     1      -1.202  -0.414  81.603  1.00  0.00     0.061 C 
HETATM    3  N1  UNL     1      -0.666  -1.397  81.952  1.00  0.00    -0.197 NA
ENDROOT
BRANCH   1   4
HETATM    4  C2  UNL     1      -1.397   2.054  81.827  1.00  0.00     0.092 C 
HETATM    5  C1  UNL     1      -0.540   2.711  80.698  1.00  0.00     0.033 C 
BRANCH   4   6
HETATM    6  N2  UNL     1      -0.447   1.778  82.876  1.00  0.00    -0.362 N 
ATOM      7  H2  UNL     1       0.238   1.041  82.712  1.00  0.00     0.162 HD
BRANCH   6   8
HETATM    8  C5  UNL     1      -0.398   2.448  84.101  1.00  0.00     0.170 C 
HETATM    9  S1  UNL     1       0.737   3.608  84.322  1.00  0.00    -0.041 SA
BRANCH   8  10
HETATM   10  N3  UNL     1      -1.297   2.101  85.182  1.00  0.00    -0.350 N 
HETATM   11  C6  UNL     1      -2.458   2.813  85.608  1.00  0.00     0.083 C 
HETATM   12  C7  UNL     1      -3.225   3.449  84.474  1.00  0.00     0.032 C 
HETATM   13  C8  UNL     1      -3.274   1.858  86.398  1.00  0.00     0.027 C 
HETATM   14  C9  UNL     1      -2.167   1.041  87.084  1.00  0.00     0.027 C 
HETATM   15  C10 UNL     1      -1.110   0.940  85.998  1.00  0.00     0.083 C 
HETATM   16  C11 UNL     1      -1.355  -0.350  85.253  1.00  0.00     0.032 C 
ENDBRANCH   8  10
ENDBRANCH   6   8
ENDBRANCH   4   6
ENDBRANCH   1   4
TORSDOF 4
ENDMDL
MODEL 2
REMARK VINA RESULT: -5.469775349      2.651      4.904
REMARK  4 active torsions:
REMARK  status: ('A' for Active; 'I' for Inactive)
REMARK    1  A    between atoms: C2_2  and  C3_3 
REMARK    2  A    between atoms: C2_2  and  N2_6 
REMARK    3  A    between atoms: N2_6  and  C5_8 
REMARK    4  A    between atoms: C5_8  and  N3_10 
ROOT
HETATM    1  C3  UNL     1      -1.202   1.011  86.102  1.00  0.00     0.148 C 
HETATM    2  C4  UNL     1      -1.270  -0.232  85.385  1.00  0.00     0.061 C 
HETATM    3  N1  UNL     1      -1.330  -1.264  84.830  1.00  0.00    -0.197 NA
ENDROOT
BRANCH   1   4
HETATM    4  C2  UNL     1      -0.904   2.220  85.205  1.00  0.00     0.092 C 
HETATM    5  C1  UNL     1      -2.332   2.810  84.971  1.00  0.00     0.033 C 
BRANCH   4   6
HETATM    6  N2  UNL     1      -0.469   1.816  83.892  1.00  0.00    -0.362 N 
ATOM      7  H2  UNL     1      -0.264   0.828  83.744  1.00  0.00     0.162 HD
BRANCH   6   8
HETATM    8  C5  UNL     1      -0.308   2.680  82.806  1.00  0.00     0.170 C 
HETATM    9  S1  UNL     1      -1.033   2.308  81.386  1.00  0.00    -0.041 SA
BRANCH   8  10
HETATM   10  N3  UNL     1       0.520   3.863  82.906  1.00  0.00    -0.350 N 
HETATM   11  C6  UNL     1       1.933   3.952  82.726  1.00  0.00     0.083 C 
HETATM   12  C7  UNL     1       2.463   3.032  81.653  1.00  0.00     0.032 C 
HETATM   13  C8  UNL     1       2.239   5.381  82.469  1.00  0.00     0.027 C 
HETATM   14  C9  UNL     1       1.197   6.059  83.374  1.00  0.00     0.027 C 
HETATM   15  C10 UNL     1      -0.012   5.154  83.221  1.00  0.00     0.083 C 
HETATM   16  C11 UNL     1      -0.863   5.728  82.113  1.00  0.00     0.032 C 
ENDBRANCH   8  10
ENDBRANCH   6   8
ENDBRANCH   4   6
ENDBRANCH   1   4
TORSDOF 4
ENDMDL
MODEL 3
REMARK VINA RESULT: -5.416999965      2.005      3.645
REMARK  4 active torsions:
REMARK  status: ('A' for Active; 'I' for Inactive)
REMARK    1  A    between atoms: C2_2  and  C3_3 
REMARK    2  A    between atoms: C2_2  and  N2_6 
REMARK    3  A    between atoms: N2_6  and  C5_8 
REMARK    4  A    between atoms: C5_8  and  N3_10 
ROOT
HETATM    1  C3  UNL     1      -1.173  -0.530  84.341  1.00  0.00     0.148 C 
HETATM    2  C4  UNL     1      -0.574   0.316  85.336  1.00  0.00     0.061 C 
HETATM    3  N1  UNL     1      -0.091   0.981  86.172  1.00  0.00    -0.197 NA
ENDROOT
BRANCH   1   4
HETATM    4  C2  UNL     1      -1.292   0.135  82.963  1.00  0.00     0.092 C 
HETATM    5  C1  UNL     1      -0.769  -0.992  82.014  1.00  0.00     0.033 C 
BRANCH   4   6
HETATM    6  N2  UNL     1      -0.338   1.203  82.801  1.00  0.00    -0.362 N 
ATOM      7  H2  UNL     1       0.632   1.014  83.055  1.00  0.00     0.162 HD
BRANCH   6   8
HETATM    8  C5  UNL     1      -0.645   2.478  82.322  1.00  0.00     0.170 C 
HETATM    9  S1  UNL     1      -0.933   2.673  80.722  1.00  0.00    -0.041 SA
BRANCH   8  10
HETATM   10  N3  UNL     1      -0.665   3.626  83.205  1.00  0.00    -0.350 N 
HETATM   11  C6  UNL     1      -1.783   4.154  83.918  1.00  0.00     0.083 C 
HETATM   12  C7  UNL     1      -2.735   3.094  84.416  1.00  0.00     0.032 C 
HETATM   13  C8  UNL     1      -1.232   4.999  85.006  1.00  0.00     0.027 C 
HETATM   14  C9  UNL     1       0.008   5.583  84.309  1.00  0.00     0.027 C 
HETATM   15  C10 UNL     1       0.500   4.412  83.476  1.00  0.00     0.083 C 
HETATM   16  C11 UNL     1       1.530   3.677  84.300  1.00  0.00     0.032 C 
ENDBRANCH   8  10
ENDBRANCH   6   8
ENDBRANCH   4   6
ENDBRANCH   1   4
TORSDOF 4
ENDMDL
MODEL 4
REMARK VINA RESULT: -5.365897826      1.302      2.022
REMARK  4 active torsions:
REMARK  status: ('A' for Active; 'I' for Inactive)
REMARK    1  A    between atoms: C2_2  and  C3_3 
REMARK    2  A    between atoms: C2_2  and  N2_6 
REMARK    3  A    between atoms: N2_6  and  C5_8 
REMARK    4  A    between atoms: C5_8  and  N3_10 
ROOT
HETATM    1  C3  UNL     1      -1.734   1.397  81.857  1.00  0.00     0.148 C 
HETATM    2  C4  UNL     1      -1.297   2.208  80.755  1.00  0.00     0.061 C 
HETATM    3  N1  UNL     1      -0.973   2.879  79.849  1.00  0.00    -0.197 NA
ENDROOT
BRANCH   1   4
HETATM    4  C2  UNL     1      -0.595   0.636  82.548  1.00  0.00     0.092 C 
HETATM    5  C1  UNL     1      -0.885  -0.839  82.123  1.00  0.00     0.033 C 
BRANCH   4   6
HETATM    6  N2  UNL     1      -0.751   0.628  83.981  1.00  0.00    -0.362 N 
ATOM      7  H2  UNL     1      -0.821  -0.278  84.444  1.00  0.00     0.162 HD
BRANCH   6   8
HETATM    8  C5  UNL     1      -0.815   1.771  84.781  1.00  0.00     0.170 C 
HETATM    9  S1  UNL     1       0.322   2.934  84.591  1.00  0.00    -0.041 SA
BRANCH   8  10
HETATM   10  N3  UNL     1      -1.836   1.918  85.798  1.00  0.00    -0.350 N 
HETATM   11  C6  UNL     1      -2.796   2.967  85.920  1.00  0.00     0.083 C 
HETATM   12  C7  UNL     1      -3.303   3.476  84.593  1.00  0.00     0.032 C 
HETATM   13  C8  UNL     1      -3.877   2.453  86.797  1.00  0.00     0.027 C 
HETATM   14  C9  UNL     1      -3.062   1.584  87.769  1.00  0.00     0.027 C 
HETATM   15  C10 UNL     1      -2.006   0.977  86.864  1.00  0.00     0.083 C 
HETATM   16  C11 UNL     1      -2.532  -0.358  86.394  1.00  0.00     0.032 C 
ENDBRANCH   8  10
ENDBRANCH   6   8
ENDBRANCH   4   6
ENDBRANCH   1   4
TORSDOF 4
ENDMDL
MODEL 5
REMARK VINA RESULT: -5.344207955      1.650      4.453
REMARK  4 active torsions:
REMARK  status: ('A' for Active; 'I' for Inactive)
REMARK    1  A    between atoms: C2_2  and  C3_3 
REMARK    2  A    between atoms: C2_2  and  N2_6 
REMARK    3  A    between atoms: N2_6  and  C5_8 
REMARK    4  A    between atoms: C5_8  and  N3_10 
ROOT
HETATM    1  C3  UNL     1      -1.366   0.548  86.491  1.00  0.00     0.148 C 
HETATM    2  C4  UNL     1      -1.314  -0.459  85.468  1.00  0.00     0.061 C 
HETATM    3  N1  UNL     1      -1.246  -1.297  84.650  1.00  0.00    -0.197 NA
ENDROOT
BRANCH   1   4
HETATM    4  C2  UNL     1      -2.340   1.691  86.177  1.00  0.00     0.092 C 
HETATM    5  C1  UNL     1      -3.713   1.067  86.585  1.00  0.00     0.033 C 
BRANCH   4   6
HETATM    6  N2  UNL     1      -2.460   1.915  84.759  1.00  0.00    -0.362 N 
ATOM      7  H2  UNL     1      -2.832   1.154  84.190  1.00  0.00     0.162 HD
BRANCH   6   8
HETATM    8  C5  UNL     1      -2.105   3.098  84.107  1.00  0.00     0.170 C 
HETATM    9  S1  UNL     1      -2.903   4.478  84.483  1.00  0.00    -0.041 SA
BRANCH   8  10
HETATM   10  N3  UNL     1      -1.085   3.111  83.080  1.00  0.00    -0.350 N 
HETATM   11  C6  UNL     1       0.225   3.673  83.163  1.00  0.00     0.083 C 
HETATM   12  C7  UNL     1       0.856   3.529  84.527  1.00  0.00     0.032 C 
HETATM   13  C8  UNL     1       1.025   3.046  82.083  1.00  0.00     0.027 C 
HETATM   14  C9  UNL     1      -0.045   2.899  80.988  1.00  0.00     0.027 C 
HETATM   15  C10 UNL     1      -1.284   2.533  81.785  1.00  0.00     0.083 C 
HETATM   16  C11 UNL     1      -1.366   1.026  81.818  1.00  0.00     0.032 C 
ENDBRANCH   8  10
ENDBRANCH   6   8
ENDBRANCH   4   6
ENDBRANCH   1   4
TORSDOF 4
ENDMDL
