MODEL 1
REMARK VINA RESULT: -6.407893836      0.000      0.000
REMARK  3 active torsions:
REMARK  status: ('A' for Active; 'I' for Inactive)
REMARK    1  A    between atoms: C7_7  and  C9_9 
REMARK    2  A    between atoms: C9_9  and  N1_10 
REMARK    3  A    between atoms: N2_15  and  O1_16 
ROOT
HETATM    1  N1  UNL     1      -2.417   1.806  85.917  1.00  0.00    -0.373 N 
HETATM    2  C10 UNL     1      -2.696   2.104  87.269  1.00  0.00     0.129 C 
HETATM    3  C11 UNL     1      -3.371   0.834  87.803  1.00  0.00     0.022 C 
HETATM    4  C12 UNL     1      -4.092   0.412  86.511  1.00  0.00     0.051 C 
HETATM    5  C13 UNL     1      -2.787   0.446  85.681  1.00  0.00     0.184 C 
HETATM    6  N2  UNL     1      -2.014  -0.493  86.474  1.00  0.00    -0.176 NA
HETATM    7  C14 UNL     1      -2.328  -0.219  87.860  1.00  0.00     0.129 C 
ENDROOT
BRANCH   1   8
HETATM    8  C9  UNL     1      -1.314   2.312  85.254  1.00  0.00     0.070 C 
BRANCH   8   9
HETATM    9  C7  UNL     1      -1.623   3.188  84.094  1.00  0.00    -0.005 C 
HETATM   10  C2  UNL     1      -0.396   3.829  83.504  1.00  0.00    -0.036 C 
HETATM   11  C1  UNL     1      -0.635   5.110  82.755  1.00  0.00     0.016 C 
HETATM   12  C3  UNL     1       0.664   4.114  84.545  1.00  0.00     0.016 C 
HETATM   13  C4  UNL     1       0.201   2.801  82.547  1.00  0.00     0.010 C 
HETATM   14  C5  UNL     1      -0.806   1.704  82.434  1.00  0.00     0.002 C 
HETATM   15  C6  UNL     1      -2.079   2.295  82.924  1.00  0.00     0.015 C 
HETATM   16  C8  UNL     1      -2.741   4.174  84.289  1.00  0.00     0.021 C 
ENDBRANCH   8   9
ENDBRANCH   1   8
BRANCH   6  17
HETATM   17  O1  UNL     1      -0.702  -0.416  86.286  1.00  0.00    -0.311 OA
ATOM     18  H1  UNL     1      -0.281   0.291  86.761  1.00  0.00     0.237 HD
ENDBRANCH   6  17
TORSDOF 3
ENDMDL
MODEL 2
REMARK VINA RESULT: -5.733433399      1.986      2.636
REMARK  3 active torsions:
REMARK  status: ('A' for Active; 'I' for Inactive)
REMARK    1  A    between atoms: C7_7  and  C9_9 
REMARK    2  A    between atoms: C9_9  and  N1_10 
REMARK    3  A    between atoms: N2_15  and  O1_16 
ROOT
HETATM    1  N1  UNL     1      -0.842   2.527  84.514  1.00  0.00    -0.373 N 
HETATM    2  C10 UNL     1      -0.338   1.969  85.709  1.00  0.00     0.129 C 
HETATM    3  C11 UNL     1      -1.258   0.772  85.984  1.00  0.00     0.022 C 
HETATM    4  C12 UNL     1      -2.558   1.360  85.408  1.00  0.00     0.051 C 
HETATM    5  C13 UNL     1      -1.898   1.684  84.047  1.00  0.00     0.184 C 
HETATM    6  N2  UNL     1      -1.445   0.346  83.714  1.00  0.00    -0.176 NA
HETATM    7  C14 UNL     1      -0.965  -0.246  84.944  1.00  0.00     0.129 C 
ENDROOT
BRANCH   1   8
HETATM    8  C9  UNL     1      -0.032   3.144  83.580  1.00  0.00     0.070 C 
BRANCH   8   9
HETATM    9  C7  UNL     1      -0.223   4.613  83.452  1.00  0.00    -0.005 C 
HETATM   10  C2  UNL     1       0.834   5.268  82.605  1.00  0.00    -0.036 C 
HETATM   11  C1  UNL     1       1.065   6.728  82.877  1.00  0.00     0.016 C 
HETATM   12  C3  UNL     1       2.176   4.576  82.720  1.00  0.00     0.016 C 
HETATM   13  C4  UNL     1       0.382   5.099  81.157  1.00  0.00     0.010 C 
HETATM   14  C5  UNL     1      -1.013   4.570  81.216  1.00  0.00     0.002 C 
HETATM   15  C6  UNL     1      -1.480   4.863  82.597  1.00  0.00     0.015 C 
HETATM   16  C8  UNL     1      -0.469   5.361  84.732  1.00  0.00     0.021 C 
ENDBRANCH   8   9
ENDBRANCH   1   8
BRANCH   6  17
HETATM   17  O1  UNL     1      -0.488   0.307  82.793  1.00  0.00    -0.311 OA
ATOM     18  H1  UNL     1      -0.306  -0.562  82.457  1.00  0.00     0.237 HD
ENDBRANCH   6  17
TORSDOF 3
ENDMDL
MODEL 3
REMARK VINA RESULT: -5.502404148      2.077      3.101
REMARK  3 active torsions:
REMARK  status: ('A' for Active; 'I' for Inactive)
REMARK    1  A    between atoms: C7_7  and  C9_9 
REMARK    2  A    between atoms: C9_9  and  N1_10 
REMARK    3  A    between atoms: N2_15  and  O1_16 
ROOT
HETATM    1  N1  UNL     1      -0.717   2.655  84.056  1.00  0.00    -0.373 N 
HETATM    2  C10 UNL     1      -0.240   2.343  85.349  1.00  0.00     0.129 C 
HETATM    3  C11 UNL     1      -1.222   1.285  85.868  1.00  0.00     0.022 C 
HETATM    4  C12 UNL     1      -2.490   1.805  85.168  1.00  0.00     0.051 C 
HETATM    5  C13 UNL     1      -1.819   1.790  83.775  1.00  0.00     0.184 C 
HETATM    6  N2  UNL     1      -1.441   0.389  83.743  1.00  0.00    -0.176 NA
HETATM    7  C14 UNL     1      -0.990   0.053  85.076  1.00  0.00     0.129 C 
ENDROOT
BRANCH   1   8
HETATM    8  C9  UNL     1       0.123   3.011  83.017  1.00  0.00     0.070 C 
BRANCH   8   9
HETATM    9  C7  UNL     1       0.458   4.457  82.945  1.00  0.00    -0.005 C 
HETATM   10  C2  UNL     1       0.779   4.912  81.547  1.00  0.00    -0.036 C 
HETATM   11  C1  UNL     1       1.650   6.133  81.451  1.00  0.00     0.016 C 
HETATM   12  C3  UNL     1       1.440   3.828  80.724  1.00  0.00     0.016 C 
HETATM   13  C4  UNL     1      -0.561   5.207  80.879  1.00  0.00     0.010 C 
HETATM   14  C5  UNL     1      -1.588   5.142  81.961  1.00  0.00     0.002 C 
HETATM   15  C6  UNL     1      -0.822   5.264  83.230  1.00  0.00     0.015 C 
HETATM   16  C8  UNL     1       1.462   4.953  83.948  1.00  0.00     0.021 C 
ENDBRANCH   8   9
ENDBRANCH   1   8
BRANCH   6  17
HETATM   17  O1  UNL     1      -0.492   0.099  82.860  1.00  0.00    -0.311 OA
ATOM     18  H1  UNL     1       0.093  -0.598  83.131  1.00  0.00     0.237 HD
ENDBRANCH   6  17
TORSDOF 3
ENDMDL
MODEL 4
REMARK VINA RESULT: -5.383824294      3.243      4.278
REMARK  3 active torsions:
REMARK  status: ('A' for Active; 'I' for Inactive)
REMARK    1  A    between atoms: C7_7  and  C9_9 
REMARK    2  A    between atoms: C9_9  and  N1_10 
REMARK    3  A    between atoms: N2_15  and  O1_16 
ROOT
HETATM    1  N1  UNL     1      -0.392   2.162  82.635  1.00  0.00    -0.373 N 
HETATM    2  C10 UNL     1       0.436   1.062  82.320  1.00  0.00     0.129 C 
HETATM    3  C11 UNL     1      -0.490  -0.154  82.443  1.00  0.00     0.022 C 
HETATM    4  C12 UNL     1      -1.383   0.367  83.582  1.00  0.00     0.051 C 
HETATM    5  C13 UNL     1      -1.721   1.671  82.823  1.00  0.00     0.184 C 
HETATM    6  N2  UNL     1      -2.275   1.073  81.622  1.00  0.00    -0.176 NA
HETATM    7  C14 UNL     1      -1.454  -0.079  81.318  1.00  0.00     0.129 C 
ENDROOT
BRANCH   1   8
HETATM    8  C9  UNL     1      -0.226   3.409  82.061  1.00  0.00     0.070 C 
BRANCH   8   9
HETATM    9  C7  UNL     1      -0.359   4.556  82.997  1.00  0.00    -0.005 C 
HETATM   10  C2  UNL     1       0.565   5.695  82.659  1.00  0.00    -0.036 C 
HETATM   11  C1  UNL     1       0.917   6.601  83.806  1.00  0.00     0.016 C 
HETATM   12  C3  UNL     1       1.867   5.220  82.052  1.00  0.00     0.016 C 
HETATM   13  C4  UNL     1      -0.144   6.512  81.582  1.00  0.00     0.010 C 
HETATM   14  C5  UNL     1      -1.533   5.969  81.496  1.00  0.00     0.002 C 
HETATM   15  C6  UNL     1      -1.732   5.213  82.761  1.00  0.00     0.015 C 
HETATM   16  C8  UNL     1      -0.336   4.221  84.461  1.00  0.00     0.021 C 
ENDBRANCH   8   9
ENDBRANCH   1   8
BRANCH   6  17
HETATM   17  O1  UNL     1      -2.312   1.888  80.574  1.00  0.00    -0.311 OA
ATOM     18  H1  UNL     1      -3.176   1.996  80.195  1.00  0.00     0.237 HD
ENDBRANCH   6  17
TORSDOF 3
ENDMDL
MODEL 5
REMARK VINA RESULT: -5.366410629      2.226      3.510
REMARK  3 active torsions:
REMARK  status: ('A' for Active; 'I' for Inactive)
REMARK    1  A    between atoms: C7_7  and  C9_9 
REMARK    2  A    between atoms: C9_9  and  N1_10 
REMARK    3  A    between atoms: N2_15  and  O1_16 
ROOT
HETATM    1  N1  UNL     1      -1.017   3.872  83.900  1.00  0.00    -0.373 N 
HETATM    2  C10 UNL     1      -2.137   3.968  84.755  1.00  0.00     0.129 C 
HETATM    3  C11 UNL     1      -2.610   2.518  84.922  1.00  0.00     0.022 C 
HETATM    4  C12 UNL     1      -2.230   2.004  83.522  1.00  0.00     0.051 C 
HETATM    5  C13 UNL     1      -0.767   2.486  83.659  1.00  0.00     0.184 C 
HETATM    6  N2  UNL     1      -0.422   1.758  84.867  1.00  0.00    -0.176 NA
HETATM    7  C14 UNL     1      -1.582   1.818  85.730  1.00  0.00     0.129 C 
ENDROOT
BRANCH   1   8
HETATM    8  C9  UNL     1       0.063   4.730  83.987  1.00  0.00     0.070 C 
BRANCH   8   9
HETATM    9  C7  UNL     1       0.288   5.583  82.790  1.00  0.00    -0.005 C 
HETATM   10  C2  UNL     1       1.185   6.758  83.071  1.00  0.00    -0.036 C 
HETATM   11  C1  UNL     1       1.014   7.934  82.151  1.00  0.00     0.016 C 
HETATM   12  C3  UNL     1       1.034   7.274  84.485  1.00  0.00     0.016 C 
HETATM   13  C4  UNL     1       2.615   6.238  82.949  1.00  0.00     0.010 C 
HETATM   14  C5  UNL     1       2.509   4.861  82.380  1.00  0.00     0.002 C 
HETATM   15  C6  UNL     1       1.148   4.790  81.788  1.00  0.00     0.015 C 
HETATM   16  C8  UNL     1      -0.941   5.979  82.020  1.00  0.00     0.021 C 
ENDBRANCH   8   9
ENDBRANCH   1   8
BRANCH   6  17
HETATM   17  O1  UNL     1       0.640   2.233  85.506  1.00  0.00    -0.311 OA
ATOM     18  H1  UNL     1       1.463   1.841  85.241  1.00  0.00     0.237 HD
ENDBRANCH   6  17
TORSDOF 3
ENDMDL
