MODEL 1
REMARK VINA RESULT: -6.269978324      0.000      0.000
REMARK  3 active torsions:
REMARK  status: ('A' for Active; 'I' for Inactive)
REMARK    1  A    between atoms: C2_2  and  C3_3 
REMARK    2  A    between atoms: C3_3  and  O1_5 
REMARK    3  A    between atoms: C3_3  and  C5_7 
ROOT
HETATM    1  C5  UNL     1      -1.003   3.390  84.084  1.00  0.00     0.054 C 
HETATM    2  C6  UNL     1      -1.044   3.060  82.611  1.00  0.00     0.281 C 
HETATM    3  N1  UNL     1      -0.312   4.150  81.952  1.00  0.00     0.094 N 
HETATM    4  C7  UNL     1       1.071   3.880  82.081  1.00  0.00     0.273 C 
HETATM    5  C8  UNL     1       1.694   4.181  83.388  1.00  0.00     0.036 C 
HETATM    6  C9  UNL     1       0.884   5.008  84.321  1.00  0.00     0.002 C 
HETATM    7  C10 UNL     1      -0.625   4.813  84.113  1.00  0.00     0.032 C 
HETATM    8  C11 UNL     1      -0.724   5.330  82.673  1.00  0.00     0.228 C 
HETATM    9  C12 UNL     1       0.288   6.449  82.570  1.00  0.00     0.046 C 
HETATM   10  C13 UNL     1       1.013   6.460  83.864  1.00  0.00    -0.034 A 
HETATM   11  C14 UNL     1       0.955   7.561  84.827  1.00  0.00     0.011 A 
HETATM   12  C15 UNL     1       2.270   7.160  84.103  1.00  0.00     0.011 A 
ENDROOT
BRANCH   1  13
HETATM   13  C3  UNL     1      -2.316   3.046  84.705  1.00  0.00     0.059 C 
HETATM   14  C4  UNL     1      -2.997   4.150  85.417  1.00  0.00     0.046 C 
BRANCH  13  15
HETATM   15  C2  UNL     1      -2.127   1.903  85.714  1.00  0.00     0.033 C 
HETATM   16  C1  UNL     1      -3.336   1.872  86.610  1.00  0.00     0.008 C 
ENDBRANCH  13  15
BRANCH  13  17
HETATM   17  O1  UNL     1      -3.124   2.505  83.692  1.00  0.00    -0.390 OA
ATOM     18  H1  UNL     1      -2.554   1.917  83.211  1.00  0.00     0.210 HD
ENDBRANCH  13  17
ENDBRANCH   1  13
TORSDOF 3
ENDMDL
MODEL 2
REMARK VINA RESULT: -6.203745412      1.918      2.939
REMARK  3 active torsions:
REMARK  status: ('A' for Active; 'I' for Inactive)
REMARK    1  A    between atoms: C2_2  and  C3_3 
REMARK    2  A    between atoms: C3_3  and  O1_5 
REMARK    3  A    between atoms: C3_3  and  C5_7 
ROOT
HETATM    1  C5  UNL     1      -1.280   2.002  84.516  1.00  0.00     0.054 C 
HETATM    2  C6  UNL     1      -2.427   2.859  84.998  1.00  0.00     0.281 C 
HETATM    3  N1  UNL     1      -2.041   4.238  84.670  1.00  0.00     0.094 N 
HETATM    4  C7  UNL     1      -2.322   4.450  83.299  1.00  0.00     0.273 C 
HETATM    5  C8  UNL     1      -1.359   3.893  82.323  1.00  0.00     0.036 C 
HETATM    6  C9  UNL     1      -0.057   3.439  82.880  1.00  0.00     0.002 C 
HETATM    7  C10 UNL     1      -0.178   2.963  84.335  1.00  0.00     0.032 C 
HETATM    8  C11 UNL     1      -0.630   4.284  84.968  1.00  0.00     0.228 C 
HETATM    9  C12 UNL     1       0.085   5.372  84.199  1.00  0.00     0.046 C 
HETATM   10  C13 UNL     1       0.800   4.685  83.095  1.00  0.00    -0.034 A 
HETATM   11  C14 UNL     1       2.257   4.627  82.973  1.00  0.00     0.011 A 
HETATM   12  C15 UNL     1       1.364   5.356  81.930  1.00  0.00     0.011 A 
ENDROOT
BRANCH   1  13
HETATM   13  C3  UNL     1      -1.039   0.902  85.495  1.00  0.00     0.059 C 
HETATM   14  C4  UNL     1      -1.235  -0.471  84.977  1.00  0.00     0.046 C 
BRANCH  13  15
HETATM   15  C2  UNL     1      -1.974   1.069  86.702  1.00  0.00     0.033 C 
HETATM   16  C1  UNL     1      -2.637  -0.256  86.961  1.00  0.00     0.008 C 
ENDBRANCH  13  15
BRANCH  13  17
HETATM   17  O1  UNL     1       0.255   1.083  86.010  1.00  0.00    -0.390 OA
ATOM     18  H1  UNL     1       0.354   0.406  86.669  1.00  0.00     0.210 HD
ENDBRANCH  13  17
ENDBRANCH   1  13
TORSDOF 3
ENDMDL
MODEL 3
REMARK VINA RESULT: -6.176094635      1.704      2.266
REMARK  3 active torsions:
REMARK  status: ('A' for Active; 'I' for Inactive)
REMARK    1  A    between atoms: C2_2  and  C3_3 
REMARK    2  A    between atoms: C3_3  and  O1_5 
REMARK    3  A    between atoms: C3_3  and  C5_7 
ROOT
HETATM    1  C5  UNL     1      -0.322   1.691  84.137  1.00  0.00     0.054 C 
HETATM    2  C6  UNL     1      -1.125   1.427  82.885  1.00  0.00     0.281 C 
HETATM    3  N1  UNL     1      -1.275   2.739  82.242  1.00  0.00     0.094 N 
HETATM    4  C7  UNL     1      -0.078   3.016  81.541  1.00  0.00     0.273 C 
HETATM    5  C8  UNL     1       1.076   3.483  82.342  1.00  0.00     0.036 C 
HETATM    6  C9  UNL     1       0.773   3.899  83.737  1.00  0.00     0.002 C 
HETATM    7  C10 UNL     1      -0.432   3.148  84.322  1.00  0.00     0.032 C 
HETATM    8  C11 UNL     1      -1.503   3.643  83.344  1.00  0.00     0.228 C 
HETATM    9  C12 UNL     1      -1.125   5.067  83.008  1.00  0.00     0.046 C 
HETATM   10  C13 UNL     1       0.181   5.306  83.670  1.00  0.00    -0.034 A 
HETATM   11  C14 UNL     1       0.386   6.262  84.759  1.00  0.00     0.011 A 
HETATM   12  C15 UNL     1       1.068   6.425  83.372  1.00  0.00     0.011 A 
ENDROOT
BRANCH   1  13
HETATM   13  C3  UNL     1      -0.848   0.845  85.250  1.00  0.00     0.059 C 
HETATM   14  C4  UNL     1      -1.287  -0.515  84.867  1.00  0.00     0.046 C 
BRANCH  13  15
HETATM   15  C2  UNL     1      -2.050   1.543  85.905  1.00  0.00     0.033 C 
HETATM   16  C1  UNL     1      -2.428   0.757  87.131  1.00  0.00     0.008 C 
ENDBRANCH  13  15
BRANCH  13  17
HETATM   17  O1  UNL     1       0.140   0.812  86.246  1.00  0.00    -0.390 OA
ATOM     18  H1  UNL     1       0.143   1.685  86.619  1.00  0.00     0.210 HD
ENDBRANCH  13  17
ENDBRANCH   1  13
TORSDOF 3
ENDMDL
MODEL 4
REMARK VINA RESULT: -6.005541225      0.934      1.125
REMARK  3 active torsions:
REMARK  status: ('A' for Active; 'I' for Inactive)
REMARK    1  A    between atoms: C2_2  and  C3_3 
REMARK    2  A    between atoms: C3_3  and  O1_5 
REMARK    3  A    between atoms: C3_3  and  C5_7 
ROOT
HETATM    1  C5  UNL     1      -0.460   2.758  83.978  1.00  0.00     0.054 C 
HETATM    2  C6  UNL     1      -0.648   2.583  82.490  1.00  0.00     0.281 C 
HETATM    3  N1  UNL     1      -0.235   3.863  81.897  1.00  0.00     0.094 N 
HETATM    4  C7  UNL     1       1.179   3.866  81.823  1.00  0.00     0.273 C 
HETATM    5  C8  UNL     1       1.915   4.148  83.076  1.00  0.00     0.036 C 
HETATM    6  C9  UNL     1       1.105   4.691  84.199  1.00  0.00     0.002 C 
HETATM    7  C10 UNL     1      -0.355   4.217  84.148  1.00  0.00     0.032 C 
HETATM    8  C11 UNL     1      -0.752   4.852  82.811  1.00  0.00     0.228 C 
HETATM    9  C12 UNL     1       0.007   6.158  82.735  1.00  0.00     0.046 C 
HETATM   10  C13 UNL     1       0.894   6.179  83.924  1.00  0.00    -0.034 A 
HETATM   11  C14 UNL     1       0.769   7.137  85.023  1.00  0.00     0.011 A 
HETATM   12  C15 UNL     1       2.019   7.090  84.101  1.00  0.00     0.011 A 
ENDROOT
BRANCH   1  13
HETATM   13  C3  UNL     1      -1.584   2.091  84.700  1.00  0.00     0.059 C 
HETATM   14  C4  UNL     1      -2.630   2.995  85.229  1.00  0.00     0.046 C 
BRANCH  13  15
HETATM   15  C2  UNL     1      -1.031   1.291  85.890  1.00  0.00     0.033 C 
HETATM   16  C1  UNL     1      -0.935  -0.151  85.473  1.00  0.00     0.008 C 
ENDBRANCH  13  15
BRANCH  13  17
HETATM   17  O1  UNL     1      -2.120   1.127  83.832  1.00  0.00    -0.390 OA
ATOM     18  H1  UNL     1      -1.781   1.354  82.974  1.00  0.00     0.210 HD
ENDBRANCH  13  17
ENDBRANCH   1  13
TORSDOF 3
ENDMDL
MODEL 5
REMARK VINA RESULT: -5.947960263      1.821      2.938
REMARK  3 active torsions:
REMARK  status: ('A' for Active; 'I' for Inactive)
REMARK    1  A    between atoms: C2_2  and  C3_3 
REMARK    2  A    between atoms: C3_3  and  O1_5 
REMARK    3  A    between atoms: C3_3  and  C5_7 
ROOT
HETATM    1  C5  UNL     1      -0.461   2.932  84.762  1.00  0.00     0.054 C 
HETATM    2  C6  UNL     1       1.040   2.970  84.930  1.00  0.00     0.281 C 
HETATM    3  N1  UNL     1       1.527   3.817  83.832  1.00  0.00     0.094 N 
HETATM    4  C7  UNL     1       1.345   5.167  84.216  1.00  0.00     0.273 C 
HETATM    5  C8  UNL     1      -0.023   5.718  84.103  1.00  0.00     0.036 C 
HETATM    6  C9  UNL     1      -0.991   4.902  83.322  1.00  0.00     0.002 C 
HETATM    7  C10 UNL     1      -0.670   3.401  83.382  1.00  0.00     0.032 C 
HETATM    8  C11 UNL     1       0.706   3.437  82.708  1.00  0.00     0.228 C 
HETATM    9  C12 UNL     1       0.623   4.525  81.662  1.00  0.00     0.046 C 
HETATM   10  C13 UNL     1      -0.707   5.159  81.843  1.00  0.00    -0.034 A 
HETATM   11  C14 UNL     1      -1.781   5.108  80.850  1.00  0.00     0.011 A 
HETATM   12  C15 UNL     1      -1.098   6.441  81.267  1.00  0.00     0.011 A 
ENDROOT
BRANCH   1  13
HETATM   13  C3  UNL     1      -0.958   1.559  85.073  1.00  0.00     0.059 C 
HETATM   14  C4  UNL     1      -1.256   0.706  83.900  1.00  0.00     0.046 C 
BRANCH  13  15
HETATM   15  C2  UNL     1      -2.247   1.652  85.905  1.00  0.00     0.033 C 
HETATM   16  C1  UNL     1      -2.271   0.482  86.851  1.00  0.00     0.008 C 
ENDBRANCH  13  15
BRANCH  13  17
HETATM   17  O1  UNL     1      -0.017   0.961  85.926  1.00  0.00    -0.390 OA
ATOM     18  H1  UNL     1      -0.219   0.033  85.902  1.00  0.00     0.210 HD
ENDBRANCH  13  17
ENDBRANCH   1  13
TORSDOF 3
ENDMDL
