MODEL 1
REMARK VINA RESULT: -7.264015599      0.000      0.000
REMARK  2 active torsions:
REMARK  status: ('A' for Active; 'I' for Inactive)
REMARK    1  A    between atoms: N1_4  and  C4_5 
REMARK    2  A    between atoms: C9_13  and  C10_14 
ROOT
HETATM    1  C1  UNL     1       0.831   5.853  82.852  1.00  0.00     0.004 C 
HETATM    2  C2  UNL     1       1.078   5.517  84.281  1.00  0.00     0.030 C 
HETATM    3  C3  UNL     1      -0.244   5.044  84.889  1.00  0.00     0.273 C 
HETATM    4  N1  UNL     1      -0.520   3.724  84.350  1.00  0.00     0.098 N 
HETATM    5  C9  UNL     1      -0.395   3.727  82.947  1.00  0.00     0.228 C 
HETATM    6  C16 UNL     1      -0.440   5.123  82.386  1.00  0.00     0.036 C 
ENDROOT
BRANCH   4   7
HETATM    7  C4  UNL     1      -1.732   3.166  84.887  1.00  0.00     0.226 C 
HETATM    8  C5  UNL     1      -1.451   2.027  85.853  1.00  0.00     0.063 C 
HETATM    9  C6  UNL     1      -2.202   2.147  87.154  1.00  0.00     0.234 C 
HETATM   10  N2  UNL     1      -3.592   2.390  86.793  1.00  0.00    -0.075 N 
HETATM   11  C7  UNL     1      -3.672   3.768  86.382  1.00  0.00     0.234 C 
ATOM     12  H22 UNL     1      -3.947   1.738  86.093  1.00  0.00     0.277 HD
ATOM     13  H21 UNL     1      -4.250   2.150  87.534  1.00  0.00     0.277 HD
HETATM   14  C8  UNL     1      -2.378   4.245  85.749  1.00  0.00     0.063 C 
ENDBRANCH   4   7
BRANCH   5  15
HETATM   15  C10 UNL     1      -1.058   2.683  82.141  1.00  0.00     0.023 C 
HETATM   16  C11 UNL     1      -0.521   1.276  82.361  1.00  0.00     0.011 C 
HETATM   17  C12 UNL     1      -0.154   0.942  80.935  1.00  0.00    -0.013 C 
HETATM   18  C13 UNL     1       0.486   2.208  80.430  1.00  0.00     0.010 C 
HETATM   19  C15 UNL     1      -1.406   1.423  80.185  1.00  0.00     0.010 C 
HETATM   20  C14 UNL     1      -0.909   2.799  80.668  1.00  0.00    -0.008 C 
ENDBRANCH   5  15
TORSDOF 2
ENDMDL
MODEL 2
REMARK VINA RESULT: -6.606522837      1.539      4.885
REMARK  2 active torsions:
REMARK  status: ('A' for Active; 'I' for Inactive)
REMARK    1  A    between atoms: N1_4  and  C4_5 
REMARK    2  A    between atoms: C9_13  and  C10_14 
ROOT
HETATM    1  C1  UNL     1       0.869   5.685  84.743  1.00  0.00     0.004 C 
HETATM    2  C2  UNL     1       0.831   5.888  83.269  1.00  0.00     0.030 C 
HETATM    3  C3  UNL     1       0.463   4.554  82.618  1.00  0.00     0.273 C 
HETATM    4  N1  UNL     1      -0.943   4.314  82.890  1.00  0.00     0.098 N 
HETATM    5  C9  UNL     1      -1.220   4.487  84.259  1.00  0.00     0.228 C 
HETATM    6  C16 UNL     1       0.034   4.441  85.091  1.00  0.00     0.036 C 
ENDROOT
BRANCH   4   7
HETATM    7  C4  UNL     1      -1.407   3.093  82.288  1.00  0.00     0.226 C 
HETATM    8  C5  UNL     1      -1.514   3.212  80.777  1.00  0.00     0.063 C 
HETATM    9  C6  UNL     1      -0.869   2.066  80.040  1.00  0.00     0.234 C 
HETATM   10  N2  UNL     1      -1.387   0.852  80.654  1.00  0.00    -0.075 N 
HETATM   11  C7  UNL     1      -0.696   0.703  81.909  1.00  0.00     0.234 C 
ATOM     12  H22 UNL     1      -2.402   0.849  80.748  1.00  0.00     0.277 HD
ATOM     13  H21 UNL     1      -1.313   0.032  80.052  1.00  0.00     0.277 HD
HETATM   14  C8  UNL     1      -0.323   2.045  82.511  1.00  0.00     0.063 C 
ENDBRANCH   4   7
BRANCH   5  15
HETATM   15  C10 UNL     1      -2.417   3.866  84.859  1.00  0.00     0.023 C 
HETATM   16  C11 UNL     1      -3.137   4.737  85.880  1.00  0.00     0.011 C 
HETATM   17  C12 UNL     1      -3.107   3.790  87.055  1.00  0.00    -0.013 C 
HETATM   18  C13 UNL     1      -1.715   3.216  87.009  1.00  0.00     0.010 C 
HETATM   19  C15 UNL     1      -3.538   2.474  86.389  1.00  0.00     0.010 C 
HETATM   20  C14 UNL     1      -2.187   2.642  85.667  1.00  0.00    -0.008 C 
ENDBRANCH   5  15
TORSDOF 2
ENDMDL
MODEL 3
REMARK VINA RESULT: -6.559869052      1.798      5.142
REMARK  2 active torsions:
REMARK  status: ('A' for Active; 'I' for Inactive)
REMARK    1  A    between atoms: N1_4  and  C4_5 
REMARK    2  A    between atoms: C9_13  and  C10_14 
ROOT
HETATM    1  C1  UNL     1      -1.718   3.584  86.101  1.00  0.00     0.004 C 
HETATM    2  C2  UNL     1      -0.793   2.443  85.853  1.00  0.00     0.030 C 
HETATM    3  C3  UNL     1      -0.956   2.013  84.394  1.00  0.00     0.273 C 
HETATM    4  N1  UNL     1      -0.340   3.038  83.570  1.00  0.00     0.098 N 
HETATM    5  C9  UNL     1      -0.799   4.316  83.944  1.00  0.00     0.228 C 
HETATM    6  C16 UNL     1      -2.066   4.238  84.753  1.00  0.00     0.036 C 
ENDROOT
BRANCH   4   7
HETATM    7  C4  UNL     1      -0.405   2.715  82.170  1.00  0.00     0.226 C 
HETATM    8  C5  UNL     1       0.968   2.741  81.520  1.00  0.00     0.063 C 
HETATM    9  C6  UNL     1       1.259   1.519  80.687  1.00  0.00     0.234 C 
HETATM   10  N2  UNL     1       0.107   1.347  79.812  1.00  0.00    -0.075 N 
HETATM   11  C7  UNL     1      -0.945   0.795  80.626  1.00  0.00     0.234 C 
ATOM     12  H22 UNL     1      -0.163   2.204  79.328  1.00  0.00     0.277 HD
ATOM     13  H21 UNL     1       0.310   0.791  78.982  1.00  0.00     0.277 HD
HETATM   14  C8  UNL     1      -0.846   1.259  82.068  1.00  0.00     0.063 C 
ENDBRANCH   4   7
BRANCH   5  15
HETATM   15  C10 UNL     1      -0.704   5.445  82.998  1.00  0.00     0.023 C 
HETATM   16  C11 UNL     1       0.702   6.000  82.815  1.00  0.00     0.011 C 
HETATM   17  C12 UNL     1       0.432   7.440  83.179  1.00  0.00    -0.013 C 
HETATM   18  C13 UNL     1      -0.473   7.337  84.378  1.00  0.00     0.010 C 
HETATM   19  C15 UNL     1      -0.857   7.712  82.386  1.00  0.00     0.010 C 
HETATM   20  C14 UNL     1      -1.432   6.682  83.377  1.00  0.00    -0.008 C 
ENDBRANCH   5  15
TORSDOF 2
ENDMDL
MODEL 4
REMARK VINA RESULT: -6.500820738      2.034      4.149
REMARK  2 active torsions:
REMARK  status: ('A' for Active; 'I' for Inactive)
REMARK    1  A    between atoms: N1_4  and  C4_5 
REMARK    2  A    between atoms: C9_13  and  C10_14 
ROOT
HETATM    1  C1  UNL     1       0.380   0.977  79.919  1.00  0.00     0.004 C 
HETATM    2  C2  UNL     1      -1.019   1.148  80.399  1.00  0.00     0.030 C 
HETATM    3  C3  UNL     1      -0.965   1.580  81.865  1.00  0.00     0.273 C 
HETATM    4  N1  UNL     1      -0.504   2.956  81.894  1.00  0.00     0.098 N 
HETATM    5  C9  UNL     1       0.658   3.105  81.113  1.00  0.00     0.228 C 
HETATM    6  C16 UNL     1       1.317   1.781  80.836  1.00  0.00     0.036 C 
ENDROOT
BRANCH   4   7
HETATM    7  C4  UNL     1      -0.450   3.477  83.234  1.00  0.00     0.226 C 
HETATM    8  C5  UNL     1      -1.532   4.514  83.481  1.00  0.00     0.063 C 
HETATM    9  C6  UNL     1      -2.304   4.282  84.754  1.00  0.00     0.234 C 
HETATM   10  N2  UNL     1      -1.306   4.094  85.798  1.00  0.00    -0.075 N 
HETATM   11  C7  UNL     1      -0.783   2.763  85.629  1.00  0.00     0.234 C 
ATOM     12  H22 UNL     1      -0.584   4.815  85.801  1.00  0.00     0.277 HD
ATOM     13  H21 UNL     1      -1.665   4.271  86.737  1.00  0.00     0.277 HD
HETATM   14  C8  UNL     1      -0.800   2.330  84.174  1.00  0.00     0.063 C 
ENDBRANCH   4   7
BRANCH   5  15
HETATM   15  C10 UNL     1       1.567   4.245  81.343  1.00  0.00     0.023 C 
HETATM   16  C11 UNL     1       1.160   5.532  80.638  1.00  0.00     0.011 C 
HETATM   17  C12 UNL     1       2.428   5.781  79.858  1.00  0.00    -0.013 C 
HETATM   18  C13 UNL     1       2.800   4.414  79.347  1.00  0.00     0.010 C 
HETATM   19  C15 UNL     1       3.495   5.530  80.936  1.00  0.00     0.010 C 
HETATM   20  C14 UNL     1       2.954   4.091  80.838  1.00  0.00    -0.008 C 
ENDBRANCH   5  15
TORSDOF 2
ENDMDL
MODEL 5
REMARK VINA RESULT: -6.336073255      1.655      4.272
REMARK  2 active torsions:
REMARK  status: ('A' for Active; 'I' for Inactive)
REMARK    1  A    between atoms: N1_4  and  C4_5 
REMARK    2  A    between atoms: C9_13  and  C10_14 
ROOT
HETATM    1  C1  UNL     1      -1.699   2.725  85.272  1.00  0.00     0.004 C 
HETATM    2  C2  UNL     1      -2.242   4.111  85.324  1.00  0.00     0.030 C 
HETATM    3  C3  UNL     1      -1.187   5.053  84.742  1.00  0.00     0.273 C 
HETATM    4  N1  UNL     1      -1.156   4.834  83.308  1.00  0.00     0.098 N 
HETATM    5  C9  UNL     1      -1.053   3.460  83.019  1.00  0.00     0.228 C 
HETATM    6  C16 UNL     1      -0.585   2.673  84.214  1.00  0.00     0.036 C 
ENDROOT
BRANCH   4   7
HETATM    7  C4  UNL     1      -0.215   5.701  82.651  1.00  0.00     0.226 C 
HETATM    8  C5  UNL     1      -0.752   7.116  82.512  1.00  0.00     0.063 C 
HETATM    9  C6  UNL     1       0.225   8.173  82.959  1.00  0.00     0.234 C 
HETATM   10  N2  UNL     1       1.482   7.866  82.290  1.00  0.00    -0.075 N 
HETATM   11  C7  UNL     1       2.055   6.746  82.993  1.00  0.00     0.234 C 
ATOM     12  H22 UNL     1       1.377   7.703  81.289  1.00  0.00     0.277 HD
ATOM     13  H21 UNL     1       2.110   8.666  82.224  1.00  0.00     0.277 HD
HETATM   14  C8  UNL     1       0.987   5.840  83.578  1.00  0.00     0.063 C 
ENDBRANCH   4   7
BRANCH   5  15
HETATM   15  C10 UNL     1      -0.543   3.012  81.708  1.00  0.00     0.023 C 
HETATM   16  C11 UNL     1      -1.622   2.619  80.709  1.00  0.00     0.011 C 
HETATM   17  C12 UNL     1      -1.161   1.213  80.410  1.00  0.00    -0.013 C 
HETATM   18  C13 UNL     1      -0.782   0.672  81.764  1.00  0.00     0.010 C 
HETATM   19  C15 UNL     1       0.347   1.429  80.213  1.00  0.00     0.010 C 
HETATM   20  C14 UNL     1       0.281   1.777  81.712  1.00  0.00    -0.008 C 
ENDBRANCH   5  15
TORSDOF 2
ENDMDL
