MODEL 1
REMARK VINA RESULT: -7.183735177      0.000      0.000
REMARK  2 active torsions:
REMARK  status: ('A' for Active; 'I' for Inactive)
REMARK    1  A    between atoms: N2_14  and  C11_15 
REMARK    2  A    between atoms: C11_15  and  C12_16 
ROOT
HETATM    1  C1  UNL     1      -1.240   3.023  81.091  1.00  0.00     0.098 C 
HETATM    2  C2  UNL     1      -0.792   4.089  81.496  1.00  0.00    -0.175 C 
HETATM    3  C3  UNL     1      -0.235   5.360  81.964  1.00  0.00     0.040 C 
HETATM    4  C4  UNL     1      -0.603   6.373  80.865  1.00  0.00     0.031 C 
HETATM    5  C5  UNL     1       1.271   5.209  81.868  1.00  0.00     0.254 C 
HETATM    6  N1  UNL     1       1.901   5.128  83.155  1.00  0.00    -0.073 N 
ATOM      7  H11 UNL     1       2.891   4.885  83.114  1.00  0.00     0.277 HD
ATOM      8  H12 UNL     1       1.604   4.323  83.708  1.00  0.00     0.277 HD
HETATM    9  C6  UNL     1       1.635   6.411  83.792  1.00  0.00     0.233 C 
HETATM   10  C7  UNL     1       0.205   6.428  84.209  1.00  0.00     0.040 C 
HETATM   11  C8  UNL     1      -0.757   5.766  83.283  1.00  0.00    -0.002 C 
HETATM   12  C9  UNL     1      -1.902   6.727  83.043  1.00  0.00     0.033 C 
HETATM   13  C10 UNL     1      -2.661   6.676  84.380  1.00  0.00     0.122 C 
HETATM   14  N2  UNL     1      -2.516   5.361  84.780  1.00  0.00    -0.392 N 
HETATM   15  C16 UNL     1      -1.481   4.696  84.070  1.00  0.00     0.133 C 
ENDROOT
BRANCH  14  16
HETATM   16  C11 UNL     1      -3.061   4.803  85.921  1.00  0.00     0.062 C 
BRANCH  16  17
HETATM   17  C12 UNL     1      -2.830   3.319  86.015  1.00  0.00     0.024 C 
HETATM   18  C13 UNL     1      -3.886   2.463  86.603  1.00  0.00     0.010 C 
HETATM   19  C14 UNL     1      -2.769   1.635  87.255  1.00  0.00     0.001 C 
HETATM   20  C15 UNL     1      -1.931   2.920  87.183  1.00  0.00     0.010 C 
ENDBRANCH  16  17
ENDBRANCH  14  16
TORSDOF 2
ENDMDL
MODEL 2
REMARK VINA RESULT: -6.666980137      2.055      4.722
REMARK  2 active torsions:
REMARK  status: ('A' for Active; 'I' for Inactive)
REMARK    1  A    between atoms: N2_14  and  C11_15 
REMARK    2  A    between atoms: C11_15  and  C12_16 
ROOT
HETATM    1  C1  UNL     1      -0.426   3.410  85.692  1.00  0.00     0.098 C 
HETATM    2  C2  UNL     1      -0.217   4.334  84.913  1.00  0.00    -0.175 C 
HETATM    3  C3  UNL     1       0.031   5.454  84.002  1.00  0.00     0.040 C 
HETATM    4  C4  UNL     1       1.526   5.774  84.180  1.00  0.00     0.031 C 
HETATM    5  C5  UNL     1      -0.697   6.640  84.605  1.00  0.00     0.254 C 
HETATM    6  N1  UNL     1      -1.846   7.029  83.838  1.00  0.00    -0.073 N 
ATOM      7  H11 UNL     1      -2.428   7.731  84.296  1.00  0.00     0.277 HD
ATOM      8  H12 UNL     1      -2.561   6.306  83.772  1.00  0.00     0.277 HD
HETATM    9  C6  UNL     1      -1.317   7.455  82.548  1.00  0.00     0.233 C 
HETATM   10  C7  UNL     1      -0.910   6.237  81.795  1.00  0.00     0.040 C 
HETATM   11  C8  UNL     1      -0.302   5.140  82.600  1.00  0.00    -0.002 C 
HETATM   12  C9  UNL     1       0.979   4.718  81.912  1.00  0.00     0.033 C 
HETATM   13  C10 UNL     1       0.458   3.958  80.681  1.00  0.00     0.122 C 
HETATM   14  N2  UNL     1      -0.685   3.338  81.149  1.00  0.00    -0.392 N 
HETATM   15  C16 UNL     1      -1.134   3.897  82.376  1.00  0.00     0.133 C 
ENDROOT
BRANCH  14  16
HETATM   16  C11 UNL     1      -1.501   2.496  80.417  1.00  0.00     0.062 C 
BRANCH  16  17
HETATM   17  C12 UNL     1      -1.117   1.047  80.549  1.00  0.00     0.024 C 
HETATM   18  C13 UNL     1      -0.595   0.556  81.845  1.00  0.00     0.010 C 
HETATM   19  C14 UNL     1       0.379  -0.326  81.051  1.00  0.00     0.001 C 
HETATM   20  C15 UNL     1       0.245   0.724  79.939  1.00  0.00     0.010 C 
ENDBRANCH  16  17
ENDBRANCH  14  16
TORSDOF 2
ENDMDL
MODEL 3
REMARK VINA RESULT: -6.521698046      1.408      1.667
REMARK  2 active torsions:
REMARK  status: ('A' for Active; 'I' for Inactive)
REMARK    1  A    between atoms: N2_14  and  C11_15 
REMARK    2  A    between atoms: C11_15  and  C12_16 
ROOT
HETATM    1  C1  UNL     1       0.601   1.863  80.849  1.00  0.00     0.098 C 
HETATM    2  C2  UNL     1       0.740   3.071  81.000  1.00  0.00    -0.175 C 
HETATM    3  C3  UNL     1       0.924   4.515  81.163  1.00  0.00     0.040 C 
HETATM    4  C4  UNL     1       0.142   5.140  79.993  1.00  0.00     0.031 C 
HETATM    5  C5  UNL     1       2.383   4.780  80.844  1.00  0.00     0.254 C 
HETATM    6  N1  UNL     1       3.145   5.141  82.005  1.00  0.00    -0.073 N 
ATOM      7  H11 UNL     1       4.150   5.186  81.840  1.00  0.00     0.277 HD
ATOM      8  H12 UNL     1       3.174   4.414  82.720  1.00  0.00     0.277 HD
HETATM    9  C6  UNL     1       2.567   6.397  82.466  1.00  0.00     0.233 C 
HETATM   10  C7  UNL     1       1.257   6.092  83.106  1.00  0.00     0.040 C 
HETATM   11  C8  UNL     1       0.451   5.012  82.469  1.00  0.00    -0.002 C 
HETATM   12  C9  UNL     1      -0.954   5.540  82.272  1.00  0.00     0.033 C 
HETATM   13  C10 UNL     1      -1.508   5.546  83.707  1.00  0.00     0.122 C 
HETATM   14  N2  UNL     1      -0.921   4.434  84.281  1.00  0.00    -0.392 N 
HETATM   15  C16 UNL     1       0.185   3.961  83.524  1.00  0.00     0.133 C 
ENDROOT
BRANCH  14  16
HETATM   16  C11 UNL     1      -1.137   3.985  85.570  1.00  0.00     0.062 C 
BRANCH  16  17
HETATM   17  C12 UNL     1      -2.455   3.277  85.731  1.00  0.00     0.024 C 
HETATM   18  C13 UNL     1      -3.462   3.836  86.663  1.00  0.00     0.010 C 
HETATM   19  C14 UNL     1      -3.814   2.394  87.054  1.00  0.00     0.001 C 
HETATM   20  C15 UNL     1      -2.376   2.051  86.637  1.00  0.00     0.010 C 
ENDBRANCH  16  17
ENDBRANCH  14  16
TORSDOF 2
ENDMDL
MODEL 4
REMARK VINA RESULT: -6.429559172      1.600      2.240
REMARK  2 active torsions:
REMARK  status: ('A' for Active; 'I' for Inactive)
REMARK    1  A    between atoms: N2_14  and  C11_15 
REMARK    2  A    between atoms: C11_15  and  C12_16 
ROOT
HETATM    1  C1  UNL     1      -0.673   0.391  81.853  1.00  0.00     0.098 C 
HETATM    2  C2  UNL     1      -0.484   1.590  81.676  1.00  0.00    -0.175 C 
HETATM    3  C3  UNL     1      -0.246   3.016  81.441  1.00  0.00     0.040 C 
HETATM    4  C4  UNL     1      -1.343   3.433  80.445  1.00  0.00     0.031 C 
HETATM    5  C5  UNL     1       1.047   3.091  80.653  1.00  0.00     0.254 C 
HETATM    6  N1  UNL     1       2.131   3.632  81.421  1.00  0.00    -0.073 N 
ATOM      7  H11 UNL     1       3.039   3.562  80.960  1.00  0.00     0.277 HD
ATOM      8  H12 UNL     1       2.372   3.076  82.242  1.00  0.00     0.277 HD
HETATM    9  C6  UNL     1       1.734   5.000  81.732  1.00  0.00     0.233 C 
HETATM   10  C7  UNL     1       0.680   4.943  82.784  1.00  0.00     0.040 C 
HETATM   11  C8  UNL     1      -0.292   3.817  82.679  1.00  0.00    -0.002 C 
HETATM   12  C9  UNL     1      -1.685   4.399  82.792  1.00  0.00     0.033 C 
HETATM   13  C10 UNL     1      -1.773   4.757  84.285  1.00  0.00     0.122 C 
HETATM   14  N2  UNL     1      -1.048   3.752  84.898  1.00  0.00    -0.392 N 
HETATM   15  C16 UNL     1      -0.231   3.042  83.976  1.00  0.00     0.133 C 
ENDROOT
BRANCH  14  16
HETATM   16  C11 UNL     1      -0.863   3.609  86.260  1.00  0.00     0.062 C 
BRANCH  16  17
HETATM   17  C12 UNL     1      -2.077   3.065  86.963  1.00  0.00     0.024 C 
HETATM   18  C13 UNL     1      -2.653   1.778  86.509  1.00  0.00     0.010 C 
HETATM   19  C14 UNL     1      -4.043   2.376  86.774  1.00  0.00     0.001 C 
HETATM   20  C15 UNL     1      -3.377   3.739  86.532  1.00  0.00     0.010 C 
ENDBRANCH  16  17
ENDBRANCH  14  16
TORSDOF 2
ENDMDL
MODEL 5
REMARK VINA RESULT: -6.366318605      2.507      5.193
REMARK  2 active torsions:
REMARK  status: ('A' for Active; 'I' for Inactive)
REMARK    1  A    between atoms: N2_14  and  C11_15 
REMARK    2  A    between atoms: C11_15  and  C12_16 
ROOT
HETATM    1  C1  UNL     1      -0.920   2.212  84.140  1.00  0.00     0.098 C 
HETATM    2  C2  UNL     1      -0.578   2.629  83.039  1.00  0.00    -0.175 C 
HETATM    3  C3  UNL     1      -0.167   3.103  81.716  1.00  0.00     0.040 C 
HETATM    4  C4  UNL     1      -1.465   3.109  80.887  1.00  0.00     0.031 C 
HETATM    5  C5  UNL     1       0.670   1.987  81.122  1.00  0.00     0.254 C 
HETATM    6  N1  UNL     1       2.061   2.329  81.033  1.00  0.00    -0.073 N 
ATOM      7  H11 UNL     1       2.661   1.547  80.770  1.00  0.00     0.277 HD
ATOM      8  H12 UNL     1       2.498   2.515  81.936  1.00  0.00     0.277 HD
HETATM    9  C6  UNL     1       2.120   3.453  80.107  1.00  0.00     0.233 C 
HETATM   10  C7  UNL     1       1.607   4.658  80.817  1.00  0.00     0.040 C 
HETATM   11  C8  UNL     1       0.468   4.434  81.752  1.00  0.00    -0.002 C 
HETATM   12  C9  UNL     1      -0.601   5.457  81.431  1.00  0.00     0.033 C 
HETATM   13  C10 UNL     1       0.011   6.757  81.981  1.00  0.00     0.122 C 
HETATM   14  N2  UNL     1       0.699   6.337  83.103  1.00  0.00    -0.392 N 
HETATM   15  C16 UNL     1       0.896   4.929  83.116  1.00  0.00     0.133 C 
ENDROOT
BRANCH  14  16
HETATM   16  C11 UNL     1       1.395   7.154  83.974  1.00  0.00     0.062 C 
BRANCH  16  17
HETATM   17  C12 UNL     1       1.184   8.619  83.698  1.00  0.00     0.024 C 
HETATM   18  C13 UNL     1       2.318   9.426  83.194  1.00  0.00     0.010 C 
HETATM   19  C14 UNL     1       1.814  10.577  84.078  1.00  0.00     0.001 C 
HETATM   20  C15 UNL     1       1.201   9.479  84.960  1.00  0.00     0.010 C 
ENDBRANCH  16  17
ENDBRANCH  14  16
TORSDOF 2
ENDMDL
