MODEL 1
REMARK VINA RESULT: -6.809872652      0.000      0.000
REMARK  3 active torsions:
REMARK  status: ('A' for Active; 'I' for Inactive)
REMARK    1  A    between atoms: C9_10  and  C10_11 
REMARK    2  A    between atoms: C10_11  and  O1_12 
REMARK    3  A    between atoms: C12_15  and  C13_16 
ROOT
HETATM    1  C1  UNL     1       0.576   7.315  80.305  1.00  0.00     0.010 C 
HETATM    2  C2  UNL     1      -0.565   6.542  80.917  1.00  0.00    -0.016 C 
HETATM    3  C3  UNL     1      -0.648   5.124  80.507  1.00  0.00     0.009 C 
HETATM    4  C4  UNL     1       0.090   4.078  81.297  1.00  0.00    -0.008 C 
HETATM    5  C5  UNL     1       0.537   4.860  82.536  1.00  0.00     0.041 C 
HETATM    6  C6  UNL     1      -0.748   5.420  83.011  1.00  0.00     0.223 C 
HETATM    7  C7  UNL     1      -0.716   6.838  82.418  1.00  0.00     0.040 C 
HETATM    8  N1  UNL     1      -1.066   5.262  84.353  1.00  0.00     0.094 N 
HETATM    9  C8  UNL     1      -2.088   4.183  84.443  1.00  0.00     0.286 C 
HETATM   10  C9  UNL     1      -0.994   3.183  84.447  1.00  0.00     0.034 C 
HETATM   11  C11 UNL     1      -0.529   2.549  83.248  1.00  0.00     0.020 C 
HETATM   12  C12 UNL     1      -0.823   3.000  81.867  1.00  0.00    -0.006 C 
HETATM   13  C16 UNL     1      -0.256   4.306  85.093  1.00  0.00     0.286 C 
ENDROOT
BRANCH  10  14
HETATM   14  C10 UNL     1      -1.308   2.150  85.563  1.00  0.00     0.177 C 
BRANCH  14  15
HETATM   15  O1  UNL     1      -1.292   0.904  84.937  1.00  0.00    -0.400 OA
ATOM     16  H1  UNL     1      -1.301   1.086  84.004  1.00  0.00     0.209 HD
ENDBRANCH  14  15
ENDBRANCH  10  14
BRANCH  12  17
HETATM   17  C13 UNL     1      -0.601   1.789  80.934  1.00  0.00    -0.018 C 
HETATM   18  C14 UNL     1      -0.744   0.486  81.645  1.00  0.00     0.010 C 
HETATM   19  C15 UNL     1       0.792   1.796  80.337  1.00  0.00     0.010 C 
ENDBRANCH  12  17
TORSDOF 3
ENDMDL
MODEL 2
REMARK VINA RESULT: -6.583094163      1.728      3.669
REMARK  3 active torsions:
REMARK  status: ('A' for Active; 'I' for Inactive)
REMARK    1  A    between atoms: C9_10  and  C10_11 
REMARK    2  A    between atoms: C10_11  and  O1_12 
REMARK    3  A    between atoms: C12_15  and  C13_16 
ROOT
HETATM    1  C1  UNL     1       0.885   8.493  83.789  1.00  0.00     0.010 C 
HETATM    2  C2  UNL     1       1.371   7.088  83.533  1.00  0.00    -0.016 C 
HETATM    3  C3  UNL     1       0.879   6.075  84.491  1.00  0.00     0.009 C 
HETATM    4  C4  UNL     1      -0.414   5.358  84.214  1.00  0.00    -0.008 C 
HETATM    5  C5  UNL     1      -0.713   5.771  82.769  1.00  0.00     0.041 C 
HETATM    6  C6  UNL     1       0.542   5.387  82.087  1.00  0.00     0.223 C 
HETATM    7  C7  UNL     1       1.303   6.723  82.043  1.00  0.00     0.040 C 
HETATM    8  N1  UNL     1       0.443   4.634  80.925  1.00  0.00     0.094 N 
HETATM    9  C8  UNL     1       0.803   3.232  81.273  1.00  0.00     0.286 C 
HETATM   10  C9  UNL     1      -0.600   3.005  81.699  1.00  0.00     0.034 C 
HETATM   11  C11 UNL     1      -1.023   3.162  83.058  1.00  0.00     0.020 C 
HETATM   12  C12 UNL     1      -0.254   3.845  84.126  1.00  0.00    -0.006 C 
HETATM   13  C16 UNL     1      -0.859   4.041  80.657  1.00  0.00     0.286 C 
ENDROOT
BRANCH  10  14
HETATM   14  C10 UNL     1      -1.056   1.645  81.104  1.00  0.00     0.177 C 
BRANCH  14  15
HETATM   15  O1  UNL     1      -1.030   0.743  82.166  1.00  0.00    -0.400 OA
ATOM     16  H1  UNL     1      -0.722  -0.077  81.798  1.00  0.00     0.209 HD
ENDBRANCH  14  15
ENDBRANCH  10  14
BRANCH  12  17
HETATM   17  C13 UNL     1      -0.796   3.332  85.479  1.00  0.00    -0.018 C 
HETATM   18  C14 UNL     1      -0.945   1.849  85.510  1.00  0.00     0.010 C 
HETATM   19  C15 UNL     1      -2.167   3.903  85.781  1.00  0.00     0.010 C 
ENDBRANCH  12  17
TORSDOF 3
ENDMDL
MODEL 3
REMARK VINA RESULT: -6.394323466      2.183      4.098
REMARK  3 active torsions:
REMARK  status: ('A' for Active; 'I' for Inactive)
REMARK    1  A    between atoms: C9_10  and  C10_11 
REMARK    2  A    between atoms: C10_11  and  O1_12 
REMARK    3  A    between atoms: C12_15  and  C13_16 
ROOT
HETATM    1  C1  UNL     1      -2.485   4.255  85.723  1.00  0.00     0.010 C 
HETATM    2  C2  UNL     1      -1.098   4.004  85.189  1.00  0.00    -0.016 C 
HETATM    3  C3  UNL     1      -0.979   2.841  84.283  1.00  0.00     0.009 C 
HETATM    4  C4  UNL     1      -1.191   3.027  82.806  1.00  0.00    -0.008 C 
HETATM    5  C5  UNL     1      -1.224   4.552  82.669  1.00  0.00     0.041 C 
HETATM    6  C6  UNL     1       0.050   4.934  83.320  1.00  0.00     0.223 C 
HETATM    7  C7  UNL     1      -0.416   5.305  84.738  1.00  0.00     0.040 C 
HETATM    8  N1  UNL     1       0.887   5.808  82.639  1.00  0.00     0.094 N 
HETATM    9  C8  UNL     1       2.006   5.002  82.078  1.00  0.00     0.286 C 
HETATM   10  C9  UNL     1       1.157   4.690  80.903  1.00  0.00     0.034 C 
HETATM   11  C11 UNL     1       0.357   3.504  80.829  1.00  0.00     0.020 C 
HETATM   12  C12 UNL     1       0.018   2.621  81.971  1.00  0.00    -0.006 C 
HETATM   13  C16 UNL     1       0.578   6.024  81.234  1.00  0.00     0.286 C 
ENDROOT
BRANCH  10  14
HETATM   14  C10 UNL     1       2.029   4.880  79.632  1.00  0.00     0.177 C 
BRANCH  14  15
HETATM   15  O1  UNL     1       2.019   3.647  78.982  1.00  0.00    -0.400 OA
ATOM     16  H1  UNL     1       2.267   3.008  79.640  1.00  0.00     0.209 HD
ENDBRANCH  14  15
ENDBRANCH  10  14
BRANCH  12  17
HETATM   17  C13 UNL     1      -0.375   1.246  81.385  1.00  0.00    -0.018 C 
HETATM   18  C14 UNL     1       0.796   0.500  80.842  1.00  0.00     0.010 C 
HETATM   19  C15 UNL     1      -1.356   1.391  80.239  1.00  0.00     0.010 C 
ENDBRANCH  12  17
TORSDOF 3
ENDMDL
MODEL 4
REMARK VINA RESULT: -6.328444817      2.039      4.211
REMARK  3 active torsions:
REMARK  status: ('A' for Active; 'I' for Inactive)
REMARK    1  A    between atoms: C9_10  and  C10_11 
REMARK    2  A    between atoms: C10_11  and  O1_12 
REMARK    3  A    between atoms: C12_15  and  C13_16 
ROOT
HETATM    1  C1  UNL     1      -1.873   2.904  86.656  1.00  0.00     0.010 C 
HETATM    2  C2  UNL     1      -0.667   3.030  85.760  1.00  0.00    -0.016 C 
HETATM    3  C3  UNL     1      -0.640   2.094  84.616  1.00  0.00     0.009 C 
HETATM    4  C4  UNL     1      -1.277   2.494  83.314  1.00  0.00    -0.008 C 
HETATM    5  C5  UNL     1      -1.564   3.982  83.534  1.00  0.00     0.041 C 
HETATM    6  C6  UNL     1      -0.228   4.485  83.925  1.00  0.00     0.223 C 
HETATM    7  C7  UNL     1      -0.329   4.499  85.460  1.00  0.00     0.040 C 
HETATM    8  N1  UNL     1       0.255   5.613  83.276  1.00  0.00     0.094 N 
HETATM    9  C8  UNL     1       1.277   5.156  82.295  1.00  0.00     0.286 C 
HETATM   10  C9  UNL     1       0.189   4.897  81.321  1.00  0.00     0.034 C 
HETATM   11  C11 UNL     1      -0.423   3.609  81.180  1.00  0.00     0.020 C 
HETATM   12  C12 UNL     1      -0.302   2.488  82.143  1.00  0.00    -0.006 C 
HETATM   13  C16 UNL     1      -0.459   6.011  82.072  1.00  0.00     0.286 C 
ENDROOT
BRANCH  10  14
HETATM   14  C10 UNL     1       0.637   5.478  79.953  1.00  0.00     0.177 C 
BRANCH  14  15
HETATM   15  O1  UNL     1      -0.381   5.158  79.056  1.00  0.00    -0.400 OA
ATOM     16  H1  UNL     1      -0.496   4.217  79.124  1.00  0.00     0.209 HD
ENDBRANCH  14  15
ENDBRANCH  10  14
BRANCH  12  17
HETATM   17  C13 UNL     1      -0.643   1.190  81.377  1.00  0.00    -0.018 C 
HETATM   18  C14 UNL     1       0.575   0.463  80.915  1.00  0.00     0.010 C 
HETATM   19  C15 UNL     1      -1.464   1.476  80.136  1.00  0.00     0.010 C 
ENDBRANCH  12  17
TORSDOF 3
ENDMDL
MODEL 5
REMARK VINA RESULT: -6.197308908      2.293      4.258
REMARK  3 active torsions:
REMARK  status: ('A' for Active; 'I' for Inactive)
REMARK    1  A    between atoms: C9_10  and  C10_11 
REMARK    2  A    between atoms: C10_11  and  O1_12 
REMARK    3  A    between atoms: C12_15  and  C13_16 
ROOT
HETATM    1  C1  UNL     1      -2.161   3.290  85.544  1.00  0.00     0.010 C 
HETATM    2  C2  UNL     1      -0.790   3.310  84.915  1.00  0.00    -0.016 C 
HETATM    3  C3  UNL     1      -0.637   2.443  83.728  1.00  0.00     0.009 C 
HETATM    4  C4  UNL     1      -0.944   2.992  82.362  1.00  0.00    -0.008 C 
HETATM    5  C5  UNL     1      -1.098   4.491  82.640  1.00  0.00     0.041 C 
HETATM    6  C6  UNL     1       0.178   4.796  83.324  1.00  0.00     0.223 C 
HETATM    7  C7  UNL     1      -0.233   4.738  84.805  1.00  0.00     0.040 C 
HETATM    8  N1  UNL     1       0.909   5.887  82.874  1.00  0.00     0.094 N 
HETATM    9  C8  UNL     1       2.051   5.358  82.080  1.00  0.00     0.286 C 
HETATM   10  C9  UNL     1       1.163   5.295  80.894  1.00  0.00     0.034 C 
HETATM   11  C11 UNL     1       0.450   4.106  80.533  1.00  0.00     0.020 C 
HETATM   12  C12 UNL     1       0.242   2.927  81.408  1.00  0.00    -0.006 C 
HETATM   13  C16 UNL     1       0.506   6.439  81.590  1.00  0.00     0.286 C 
ENDROOT
BRANCH  10  14
HETATM   14  C10 UNL     1       1.945   5.889  79.691  1.00  0.00     0.177 C 
BRANCH  14  15
HETATM   15  O1  UNL     1       1.642   5.070  78.604  1.00  0.00    -0.400 OA
ATOM     16  H1  UNL     1       0.749   4.776  78.746  1.00  0.00     0.209 HD
ENDBRANCH  14  15
ENDBRANCH  10  14
BRANCH  12  17
HETATM   17  C13 UNL     1      -0.081   1.727  80.489  1.00  0.00    -0.018 C 
HETATM   18  C14 UNL     1      -1.547   1.508  80.331  1.00  0.00     0.010 C 
HETATM   19  C15 UNL     1       0.485   0.435  81.044  1.00  0.00     0.010 C 
ENDBRANCH  12  17
TORSDOF 3
ENDMDL
