MODEL 1
REMARK VINA RESULT: -6.380132602      0.000      0.000
REMARK  4 active torsions:
REMARK  status: ('A' for Active; 'I' for Inactive)
REMARK    1  A    between atoms: C3_3  and  O1_4 
REMARK    2  A    between atoms: O1_4  and  C4_5 
REMARK    3  A    between atoms: C4_5  and  N1_7 
REMARK    4  A    between atoms: N1_7  and  C5_9 
ROOT
HETATM    1  C1  UNL     1      -3.158   2.426  86.807  1.00  0.00     0.014 C 
HETATM    2  C2  UNL     1      -2.153   2.161  86.197  1.00  0.00    -0.091 C 
HETATM    3  C3  UNL     1      -0.930   1.840  85.424  1.00  0.00     0.271 C 
ENDROOT
BRANCH   3   4
HETATM    4  O1  UNL     1      -1.290   1.520  84.084  1.00  0.00    -0.315 OA
BRANCH   4   5
HETATM    5  C4  UNL     1      -0.671   2.282  83.092  1.00  0.00     0.211 C 
HETATM    6  S1  UNL     1      -0.951   1.820  81.563  1.00  0.00    -0.033 SA
BRANCH   5   7
HETATM    7  N1  UNL     1       0.136   3.377  83.490  1.00  0.00    -0.352 N 
ATOM      8  H1  UNL     1       1.047   3.155  83.891  1.00  0.00     0.163 HD
BRANCH   7   9
HETATM    9  C5  UNL     1      -0.203   4.765  83.385  1.00  0.00     0.034 C 
HETATM   10  C6  UNL     1       0.682   5.563  84.357  1.00  0.00     0.035 C 
HETATM   11  C7  UNL     1       0.313   7.013  84.395  1.00  0.00    -0.012 C 
HETATM   12  C8  UNL     1       0.583   7.605  83.020  1.00  0.00     0.009 C 
HETATM   13  C12 UNL     1      -1.126   7.227  84.743  1.00  0.00     0.009 C 
HETATM   14  C9  UNL     1      -0.212   6.827  82.023  1.00  0.00    -0.012 C 
HETATM   15  C10 UNL     1      -1.689   7.034  82.344  1.00  0.00     0.009 C 
HETATM   16  C14 UNL     1       0.052   5.352  82.017  1.00  0.00     0.035 C 
HETATM   17  C11 UNL     1      -1.958   6.497  83.718  1.00  0.00    -0.012 C 
HETATM   18  C13 UNL     1      -1.615   5.025  83.832  1.00  0.00     0.035 C 
ENDBRANCH   7   9
ENDBRANCH   5   7
ENDBRANCH   4   5
ENDBRANCH   3   4
TORSDOF 4
ENDMDL
MODEL 2
REMARK VINA RESULT: -6.359183749      0.130      1.725
REMARK  4 active torsions:
REMARK  status: ('A' for Active; 'I' for Inactive)
REMARK    1  A    between atoms: C3_3  and  O1_4 
REMARK    2  A    between atoms: O1_4  and  C4_5 
REMARK    3  A    between atoms: C4_5  and  N1_7 
REMARK    4  A    between atoms: N1_7  and  C5_9 
ROOT
HETATM    1  C1  UNL     1      -3.177   2.474  86.735  1.00  0.00     0.014 C 
HETATM    2  C2  UNL     1      -2.169   2.202  86.132  1.00  0.00    -0.091 C 
HETATM    3  C3  UNL     1      -0.943   1.871  85.368  1.00  0.00     0.271 C 
ENDROOT
BRANCH   3   4
HETATM    4  O1  UNL     1      -1.298   1.530  84.032  1.00  0.00    -0.315 OA
BRANCH   4   5
HETATM    5  C4  UNL     1      -0.693   2.292  83.031  1.00  0.00     0.211 C 
HETATM    6  S1  UNL     1      -1.025   1.852  81.506  1.00  0.00    -0.033 SA
BRANCH   5   7
HETATM    7  N1  UNL     1       0.145   3.367  83.418  1.00  0.00    -0.352 N 
ATOM      8  H1  UNL     1       1.100   3.132  83.687  1.00  0.00     0.163 HD
BRANCH   7   9
HETATM    9  C5  UNL     1      -0.219   4.752  83.468  1.00  0.00     0.034 C 
HETATM   10  C6  UNL     1       0.127   5.401  82.117  1.00  0.00     0.035 C 
HETATM   11  C7  UNL     1      -0.116   6.878  82.122  1.00  0.00    -0.012 C 
HETATM   12  C8  UNL     1      -1.608   7.111  82.315  1.00  0.00     0.009 C 
HETATM   13  C12 UNL     1       0.630   7.576  83.214  1.00  0.00     0.009 C 
HETATM   14  C9  UNL     1      -2.012   6.449  83.591  1.00  0.00    -0.012 C 
HETATM   15  C10 UNL     1      -1.275   7.146  84.730  1.00  0.00     0.009 C 
HETATM   16  C14 UNL     1      -1.698   4.986  83.672  1.00  0.00     0.035 C 
HETATM   17  C11 UNL     1       0.199   6.964  84.525  1.00  0.00    -0.012 C 
HETATM   18  C13 UNL     1       0.594   5.502  84.486  1.00  0.00     0.035 C 
ENDBRANCH   7   9
ENDBRANCH   5   7
ENDBRANCH   4   5
ENDBRANCH   3   4
TORSDOF 4
ENDMDL
MODEL 3
REMARK VINA RESULT: -6.300580759      0.575      1.586
REMARK  4 active torsions:
REMARK  status: ('A' for Active; 'I' for Inactive)
REMARK    1  A    between atoms: C3_3  and  O1_4 
REMARK    2  A    between atoms: O1_4  and  C4_5 
REMARK    3  A    between atoms: C4_5  and  N1_7 
REMARK    4  A    between atoms: N1_7  and  C5_9 
ROOT
HETATM    1  C1  UNL     1      -3.695   2.516  86.930  1.00  0.00     0.014 C 
HETATM    2  C2  UNL     1      -2.629   2.239  86.439  1.00  0.00    -0.091 C 
HETATM    3  C3  UNL     1      -1.329   1.904  85.812  1.00  0.00     0.271 C 
ENDROOT
BRANCH   3   4
HETATM    4  O1  UNL     1      -1.531   1.631  84.429  1.00  0.00    -0.315 OA
BRANCH   4   5
HETATM    5  C4  UNL     1      -0.711   2.336  83.546  1.00  0.00     0.211 C 
HETATM    6  S1  UNL     1      -0.754   1.854  81.999  1.00  0.00    -0.033 SA
BRANCH   5   7
HETATM    7  N1  UNL     1       0.078   3.395  84.061  1.00  0.00    -0.352 N 
ATOM      8  H1  UNL     1       0.848   3.137  84.677  1.00  0.00     0.163 HD
BRANCH   7   9
HETATM    9  C5  UNL     1      -0.103   4.792  83.802  1.00  0.00     0.034 C 
HETATM   10  C6  UNL     1      -1.320   5.288  84.601  1.00  0.00     0.035 C 
HETATM   11  C7  UNL     1      -1.651   6.716  84.298  1.00  0.00    -0.012 C 
HETATM   12  C8  UNL     1      -0.484   7.579  84.757  1.00  0.00     0.009 C 
HETATM   13  C12 UNL     1      -1.885   6.951  82.840  1.00  0.00     0.009 C 
HETATM   14  C9  UNL     1       0.743   7.101  84.050  1.00  0.00    -0.012 C 
HETATM   15  C10 UNL     1       0.540   7.338  82.557  1.00  0.00     0.009 C 
HETATM   16  C14 UNL     1       1.059   5.650  84.245  1.00  0.00     0.035 C 
HETATM   17  C11 UNL     1      -0.638   6.529  82.102  1.00  0.00    -0.012 C 
HETATM   18  C13 UNL     1      -0.447   5.048  82.360  1.00  0.00     0.035 C 
ENDBRANCH   7   9
ENDBRANCH   5   7
ENDBRANCH   4   5
ENDBRANCH   3   4
TORSDOF 4
ENDMDL
MODEL 4
REMARK VINA RESULT: -6.081445676      2.224      4.329
REMARK  4 active torsions:
REMARK  status: ('A' for Active; 'I' for Inactive)
REMARK    1  A    between atoms: C3_3  and  O1_4 
REMARK    2  A    between atoms: O1_4  and  C4_5 
REMARK    3  A    between atoms: C4_5  and  N1_7 
REMARK    4  A    between atoms: N1_7  and  C5_9 
ROOT
HETATM    1  C1  UNL     1       3.143   4.468  80.717  1.00  0.00     0.014 C 
HETATM    2  C2  UNL     1       2.529   3.436  80.599  1.00  0.00    -0.091 C 
HETATM    3  C3  UNL     1       1.757   2.182  80.442  1.00  0.00     0.271 C 
ENDROOT
BRANCH   3   4
HETATM    4  O1  UNL     1       0.399   2.498  80.155  1.00  0.00    -0.315 OA
BRANCH   4   5
HETATM    5  C4  UNL     1      -0.539   2.035  81.079  1.00  0.00     0.211 C 
HETATM    6  S1  UNL     1      -0.584   0.430  81.301  1.00  0.00    -0.033 SA
BRANCH   5   7
HETATM    7  N1  UNL     1      -1.361   2.984  81.737  1.00  0.00    -0.352 N 
ATOM      8  H1  UNL     1      -2.218   3.261  81.259  1.00  0.00     0.163 HD
BRANCH   7   9
HETATM    9  C5  UNL     1      -1.104   3.594  83.007  1.00  0.00     0.034 C 
HETATM   10  C6  UNL     1      -2.354   4.379  83.438  1.00  0.00     0.035 C 
HETATM   11  C7  UNL     1      -2.131   5.144  84.705  1.00  0.00    -0.012 C 
HETATM   12  C8  UNL     1      -1.875   4.143  85.823  1.00  0.00     0.009 C 
HETATM   13  C12 UNL     1      -0.966   6.077  84.612  1.00  0.00     0.009 C 
HETATM   14  C9  UNL     1      -0.699   3.311  85.429  1.00  0.00    -0.012 C 
HETATM   15  C10 UNL     1       0.513   4.233  85.336  1.00  0.00     0.009 C 
HETATM   16  C14 UNL     1      -0.837   2.602  84.116  1.00  0.00     0.035 C 
HETATM   17  C11 UNL     1       0.252   5.255  84.270  1.00  0.00    -0.012 C 
HETATM   18  C13 UNL     1      -0.005   4.617  82.919  1.00  0.00     0.035 C 
ENDBRANCH   7   9
ENDBRANCH   5   7
ENDBRANCH   4   5
ENDBRANCH   3   4
TORSDOF 4
ENDMDL
MODEL 5
REMARK VINA RESULT: -6.045242310      1.687      3.276
REMARK  4 active torsions:
REMARK  status: ('A' for Active; 'I' for Inactive)
REMARK    1  A    between atoms: C3_3  and  O1_4 
REMARK    2  A    between atoms: O1_4  and  C4_5 
REMARK    3  A    between atoms: C4_5  and  N1_7 
REMARK    4  A    between atoms: N1_7  and  C5_9 
ROOT
HETATM    1  C1  UNL     1       0.537  -0.862  81.058  1.00  0.00     0.014 C 
HETATM    2  C2  UNL     1       0.021   0.228  81.087  1.00  0.00    -0.091 C 
HETATM    3  C3  UNL     1      -0.615   1.564  81.149  1.00  0.00     0.271 C 
ENDROOT
BRANCH   3   4
HETATM    4  O1  UNL     1      -1.304   1.702  82.388  1.00  0.00    -0.315 OA
BRANCH   4   5
HETATM    5  C4  UNL     1      -0.636   2.428  83.375  1.00  0.00     0.211 C 
HETATM    6  S1  UNL     1      -0.925   1.978  84.905  1.00  0.00    -0.033 SA
BRANCH   5   7
HETATM    7  N1  UNL     1       0.223   3.480  82.970  1.00  0.00    -0.352 N 
ATOM      8  H1  UNL     1       1.100   3.212  82.525  1.00  0.00     0.163 HD
BRANCH   7   9
HETATM    9  C5  UNL     1      -0.021   4.883  83.126  1.00  0.00     0.034 C 
HETATM   10  C6  UNL     1      -1.512   5.092  83.439  1.00  0.00     0.035 C 
HETATM   11  C7  UNL     1      -1.877   6.542  83.504  1.00  0.00    -0.012 C 
HETATM   12  C8  UNL     1      -1.126   7.167  84.671  1.00  0.00     0.009 C 
HETATM   13  C12 UNL     1      -1.525   7.277  82.250  1.00  0.00     0.009 C 
HETATM   14  C9  UNL     1       0.334   6.942  84.446  1.00  0.00    -0.012 C 
HETATM   15  C10 UNL     1       0.729   7.690  83.176  1.00  0.00     0.009 C 
HETATM   16  C14 UNL     1       0.734   5.508  84.276  1.00  0.00     0.035 C 
HETATM   17  C11 UNL     1      -0.042   7.114  82.026  1.00  0.00    -0.012 C 
HETATM   18  C13 UNL     1       0.223   5.633  81.846  1.00  0.00     0.035 C 
ENDBRANCH   7   9
ENDBRANCH   5   7
ENDBRANCH   4   5
ENDBRANCH   3   4
TORSDOF 4
ENDMDL
