MODEL 1
REMARK VINA RESULT: -6.686537146      0.000      0.000
REMARK  3 active torsions:
REMARK  status: ('A' for Active; 'I' for Inactive)
REMARK    1  A    between atoms: N2_5  and  N3_6 
REMARK       I    between atoms: N3_6  and  C4_8 
REMARK    2  A    between atoms: C4_8  and  C5_10 
REMARK    3  A    between atoms: C5_10  and  C6_11 
ROOT
HETATM    1  N3  UNL     1       7.751  -1.617  75.364  1.00  0.00    -0.289 N 
ATOM      2  H3  UNL     1       6.903  -1.897  74.870  1.00  0.00     0.183 HD
HETATM    3  C4  UNL     1       8.375  -2.578  76.182  1.00  0.00     0.232 C 
HETATM    4  O1  UNL     1       9.408  -2.249  76.787  1.00  0.00    -0.272 OA
ENDROOT
BRANCH   3   5
HETATM    5  C5  UNL     1       7.817  -3.906  76.308  1.00  0.00     0.108 C 
BRANCH   5   6
HETATM    6  C6  UNL     1       8.811  -5.015  76.496  1.00  0.00    -0.006 C 
HETATM    7  C7  UNL     1       8.254  -6.254  77.091  1.00  0.00     0.005 C 
HETATM    8  C8  UNL     1       8.631  -7.527  76.419  1.00  0.00     0.000 C 
HETATM    9  C9  UNL     1      10.087  -7.827  76.377  1.00  0.00     0.000 C 
HETATM   10  C10 UNL     1      10.985  -6.650  76.577  1.00  0.00     0.000 C 
HETATM   11  C11 UNL     1      10.914  -5.671  75.413  1.00  0.00     0.000 C 
HETATM   12  C12 UNL     1       9.494  -5.250  75.158  1.00  0.00     0.005 C 
ENDBRANCH   5   6
ENDBRANCH   3   5
BRANCH   1  13
HETATM   13  N2  UNL     1       8.203  -0.318  75.178  1.00  0.00    -0.226 NA
HETATM   14  C3  UNL     1       9.413  -0.166  74.474  1.00  0.00     0.144 C 
HETATM   15  C2  UNL     1       9.706   1.167  73.910  1.00  0.00     0.288 C 
HETATM   16  N1  UNL     1       8.620   2.071  73.765  1.00  0.00     0.086 N 
HETATM   17  C1  UNL     1       9.117   3.435  73.809  1.00  0.00     0.310 C 
HETATM   18  C14 UNL     1       7.631   1.974  74.841  1.00  0.00     0.288 C 
HETATM   19  C13 UNL     1       7.134   0.540  74.807  1.00  0.00     0.144 C 
ENDBRANCH   1  13
TORSDOF 3
ENDMDL
MODEL 2
REMARK VINA RESULT: -6.594032518      2.141      3.732
REMARK  3 active torsions:
REMARK  status: ('A' for Active; 'I' for Inactive)
REMARK    1  A    between atoms: N2_5  and  N3_6 
REMARK       I    between atoms: N3_6  and  C4_8 
REMARK    2  A    between atoms: C4_8  and  C5_10 
REMARK    3  A    between atoms: C5_10  and  C6_11 
ROOT
HETATM    1  N3  UNL     1       8.197  -5.124  75.877  1.00  0.00    -0.289 N 
ATOM      2  H3  UNL     1       7.486  -5.575  75.302  1.00  0.00     0.183 HD
HETATM    3  C4  UNL     1       8.706  -5.850  76.970  1.00  0.00     0.232 C 
HETATM    4  O1  UNL     1       9.573  -5.311  77.677  1.00  0.00    -0.272 OA
ENDROOT
BRANCH   3   5
HETATM    5  C5  UNL     1       8.223  -7.184  77.252  1.00  0.00     0.108 C 
BRANCH   5   6
HETATM    6  C6  UNL     1       8.590  -8.235  76.244  1.00  0.00    -0.006 C 
HETATM    7  C7  UNL     1       9.987  -8.163  75.753  1.00  0.00     0.005 C 
HETATM    8  C8  UNL     1      10.734  -9.449  75.719  1.00  0.00     0.000 C 
HETATM    9  C9  UNL     1      10.152 -10.510  74.855  1.00  0.00     0.000 C 
HETATM   10  C10 UNL     1       8.708 -10.335  74.517  1.00  0.00     0.000 C 
HETATM   11  C11 UNL     1       7.810 -10.506  75.734  1.00  0.00     0.000 C 
HETATM   12  C12 UNL     1       8.238  -9.587  76.845  1.00  0.00     0.005 C 
ENDBRANCH   5   6
ENDBRANCH   3   5
BRANCH   1  13
HETATM   13  N2  UNL     1       8.589  -3.840  75.523  1.00  0.00    -0.226 NA
HETATM   14  C3  UNL     1       8.955  -3.640  74.178  1.00  0.00     0.144 C 
HETATM   15  C2  UNL     1       8.977  -2.250  73.682  1.00  0.00     0.288 C 
HETATM   16  N1  UNL     1       8.271  -1.273  74.433  1.00  0.00     0.086 N 
HETATM   17  C1  UNL     1       8.867   0.032  74.211  1.00  0.00     0.310 C 
HETATM   18  C14 UNL     1       8.330  -1.495  75.880  1.00  0.00     0.288 C 
HETATM   19  C13 UNL     1       7.729  -2.871  76.104  1.00  0.00     0.144 C 
ENDBRANCH   1  13
TORSDOF 3
ENDMDL
MODEL 3
REMARK VINA RESULT: -6.580078495      1.684      2.699
REMARK  3 active torsions:
REMARK  status: ('A' for Active; 'I' for Inactive)
REMARK    1  A    between atoms: N2_5  and  N3_6 
REMARK       I    between atoms: N3_6  and  C4_8 
REMARK    2  A    between atoms: C4_8  and  C5_10 
REMARK    3  A    between atoms: C5_10  and  C6_11 
ROOT
HETATM    1  N3  UNL     1       9.510  -0.585  74.412  1.00  0.00    -0.289 N 
ATOM      2  H3  UNL     1      10.157  -0.483  75.193  1.00  0.00     0.183 HD
HETATM    3  C4  UNL     1       9.458  -1.836  73.768  1.00  0.00     0.232 C 
HETATM    4  O1  UNL     1       8.674  -1.971  72.816  1.00  0.00    -0.272 OA
ENDROOT
BRANCH   3   5
HETATM    5  C5  UNL     1      10.301  -2.924  74.214  1.00  0.00     0.108 C 
BRANCH   5   6
HETATM    6  C6  UNL     1       9.722  -3.799  75.288  1.00  0.00    -0.006 C 
HETATM    7  C7  UNL     1       8.943  -3.077  76.323  1.00  0.00     0.005 C 
HETATM    8  C8  UNL     1       7.623  -3.668  76.676  1.00  0.00     0.000 C 
HETATM    9  C9  UNL     1       7.662  -5.051  77.220  1.00  0.00     0.000 C 
HETATM   10  C10 UNL     1       8.905  -5.821  76.916  1.00  0.00     0.000 C 
HETATM   11  C11 UNL     1       9.028  -6.149  75.434  1.00  0.00     0.000 C 
HETATM   12  C12 UNL     1       8.928  -4.900  74.603  1.00  0.00     0.005 C 
ENDBRANCH   5   6
ENDBRANCH   3   5
BRANCH   1  13
HETATM   13  N2  UNL     1       8.748   0.521  74.061  1.00  0.00    -0.226 NA
HETATM   14  C3  UNL     1       7.468   0.615  74.643  1.00  0.00     0.144 C 
HETATM   15  C2  UNL     1       6.812   1.938  74.625  1.00  0.00     0.288 C 
HETATM   16  N1  UNL     1       7.633   3.075  74.399  1.00  0.00     0.086 N 
HETATM   17  C1  UNL     1       6.836   4.138  73.812  1.00  0.00     0.310 C 
HETATM   18  C14 UNL     1       8.724   2.829  73.454  1.00  0.00     0.288 C 
HETATM   19  C13 UNL     1       9.539   1.700  74.060  1.00  0.00     0.144 C 
ENDBRANCH   1  13
TORSDOF 3
ENDMDL
MODEL 4
REMARK VINA RESULT: -6.376997622      2.218      3.555
REMARK  3 active torsions:
REMARK  status: ('A' for Active; 'I' for Inactive)
REMARK    1  A    between atoms: N2_5  and  N3_6 
REMARK       I    between atoms: N3_6  and  C4_8 
REMARK    2  A    between atoms: C4_8  and  C5_10 
REMARK    3  A    between atoms: C5_10  and  C6_11 
ROOT
HETATM    1  N3  UNL     1       8.056  -4.952  76.175  1.00  0.00    -0.289 N 
ATOM      2  H3  UNL     1       7.114  -5.142  75.832  1.00  0.00     0.183 HD
HETATM    3  C4  UNL     1       8.623  -5.883  77.065  1.00  0.00     0.232 C 
HETATM    4  O1  UNL     1       9.769  -5.664  77.489  1.00  0.00    -0.272 OA
ENDROOT
BRANCH   3   5
HETATM    5  C5  UNL     1       7.880  -7.057  77.469  1.00  0.00     0.108 C 
BRANCH   5   6
HETATM    6  C6  UNL     1       8.444  -8.372  77.013  1.00  0.00    -0.006 C 
HETATM    7  C7  UNL     1       7.747  -9.566  77.552  1.00  0.00     0.005 C 
HETATM    8  C8  UNL     1       7.415 -10.628  76.565  1.00  0.00     0.000 C 
HETATM    9  C9  UNL     1       8.574 -11.235  75.857  1.00  0.00     0.000 C 
HETATM   10  C10 UNL     1       9.825 -10.419  75.867  1.00  0.00     0.000 C 
HETATM   11  C11 UNL     1       9.686  -9.147  75.043  1.00  0.00     0.000 C 
HETATM   12  C12 UNL     1       8.495  -8.347  75.494  1.00  0.00     0.005 C 
ENDBRANCH   5   6
ENDBRANCH   3   5
BRANCH   1  13
HETATM   13  N2  UNL     1       8.681  -3.796  75.729  1.00  0.00    -0.226 NA
HETATM   14  C3  UNL     1       9.095  -3.782  74.382  1.00  0.00     0.144 C 
HETATM   15  C2  UNL     1       9.378  -2.467  73.775  1.00  0.00     0.288 C 
HETATM   16  N1  UNL     1       8.854  -1.317  74.423  1.00  0.00     0.086 N 
HETATM   17  C1  UNL     1       9.682  -0.166  74.112  1.00  0.00     0.310 C 
HETATM   18  C14 UNL     1       8.851  -1.421  75.884  1.00  0.00     0.288 C 
HETATM   19  C13 UNL     1       8.006  -2.641  76.204  1.00  0.00     0.144 C 
ENDBRANCH   1  13
TORSDOF 3
ENDMDL
MODEL 5
REMARK VINA RESULT: -6.286257049      0.483      1.233
REMARK  3 active torsions:
REMARK  status: ('A' for Active; 'I' for Inactive)
REMARK    1  A    between atoms: N2_5  and  N3_6 
REMARK       I    between atoms: N3_6  and  C4_8 
REMARK    2  A    between atoms: C4_8  and  C5_10 
REMARK    3  A    between atoms: C5_10  and  C6_11 
ROOT
HETATM    1  N3  UNL     1       7.596  -1.967  74.798  1.00  0.00    -0.289 N 
ATOM      2  H3  UNL     1       6.988  -2.513  74.187  1.00  0.00     0.183 HD
HETATM    3  C4  UNL     1       8.001  -2.558  76.009  1.00  0.00     0.232 C 
HETATM    4  O1  UNL     1       8.742  -1.904  76.760  1.00  0.00    -0.272 OA
ENDROOT
BRANCH   3   5
HETATM    5  C5  UNL     1       7.557  -3.890  76.359  1.00  0.00     0.108 C 
BRANCH   5   6
HETATM    6  C6  UNL     1       8.640  -4.921  76.500  1.00  0.00    -0.006 C 
HETATM    7  C7  UNL     1       8.214  -6.184  77.149  1.00  0.00     0.005 C 
HETATM    8  C8  UNL     1       8.639  -7.440  76.475  1.00  0.00     0.000 C 
HETATM    9  C9  UNL     1      10.107  -7.635  76.343  1.00  0.00     0.000 C 
HETATM   10  C10 UNL     1      10.929  -6.393  76.465  1.00  0.00     0.000 C 
HETATM   11  C11 UNL     1      10.713  -5.446  75.294  1.00  0.00     0.000 C 
HETATM   12  C12 UNL     1       9.252  -5.133  75.124  1.00  0.00     0.005 C 
ENDBRANCH   5   6
ENDBRANCH   3   5
BRANCH   1  13
HETATM   13  N2  UNL     1       7.962  -0.698  74.372  1.00  0.00    -0.226 NA
HETATM   14  C3  UNL     1       7.169   0.374  74.827  1.00  0.00     0.144 C 
HETATM   15  C2  UNL     1       7.748   1.729  74.742  1.00  0.00     0.288 C 
HETATM   16  N1  UNL     1       9.157   1.833  74.591  1.00  0.00     0.086 N 
HETATM   17  C1  UNL     1       9.481   3.082  73.926  1.00  0.00     0.310 C 
HETATM   18  C14 UNL     1       9.734   0.777  73.756  1.00  0.00     0.288 C 
HETATM   19  C13 UNL     1       9.370  -0.528  74.441  1.00  0.00     0.144 C 
ENDBRANCH   1  13
TORSDOF 3
ENDMDL
