MODEL 1
REMARK VINA RESULT: -6.867146359      0.000      0.000
REMARK  3 active torsions:
REMARK  status: ('A' for Active; 'I' for Inactive)
REMARK    1  A    between atoms: N1_6  and  C6_7 
REMARK    2  A    between atoms: C6_7  and  C7_8 
REMARK    3  A    between atoms: C7_8  and  O1_9 
ROOT
HETATM    1  C7  UNL     1      -1.810   3.433  84.180  1.00  0.00     0.097 C 
HETATM    2  C8  UNL     1      -2.018   4.863  84.621  1.00  0.00     0.079 C 
HETATM    3  C9  UNL     1      -0.788   5.635  84.132  1.00  0.00     0.226 C 
HETATM    4  C10 UNL     1      -0.702   6.935  84.841  1.00  0.00     0.036 C 
HETATM    5  C11 UNL     1       0.245   7.906  84.145  1.00  0.00     0.004 C 
HETATM    6  C12 UNL     1      -0.302   8.088  82.736  1.00  0.00     0.030 C 
HETATM    7  C13 UNL     1      -0.143   6.718  82.078  1.00  0.00     0.273 C 
HETATM    8  N2  UNL     1      -0.980   5.734  82.702  1.00  0.00     0.098 N 
HETATM    9  C14 UNL     1      -0.644   4.437  82.154  1.00  0.00     0.226 C 
HETATM   10  C15 UNL     1      -1.246   4.216  80.777  1.00  0.00     0.043 C 
HETATM   11  C16 UNL     1      -0.813   3.285  83.063  1.00  0.00     0.054 C 
HETATM   12  C17 UNL     1      -1.166   2.050  82.228  1.00  0.00     0.015 C 
ENDROOT
BRANCH   1  13
HETATM   13  C6  UNL     1      -1.297   2.571  85.319  1.00  0.00     0.101 C 
BRANCH  13  14
HETATM   14  N1  UNL     1      -2.163   1.708  85.935  1.00  0.00    -0.367 N 
HETATM   15  C2  UNL     1      -2.322   0.365  85.601  1.00  0.00     0.084 C 
HETATM   16  C1  UNL     1      -1.031  -0.432  85.526  1.00  0.00     0.033 C 
HETATM   17  C3  UNL     1      -3.095  -0.268  86.791  1.00  0.00     0.030 C 
HETATM   18  C4  UNL     1      -3.749   0.934  87.401  1.00  0.00     0.046 C 
HETATM   19  C5  UNL     1      -2.687   2.013  87.195  1.00  0.00     0.063 C 
ENDBRANCH  13  14
ENDBRANCH   1  13
BRANCH   1  20
HETATM   20  O1  UNL     1      -3.023   2.913  83.763  1.00  0.00    -0.384 OA
ATOM     21  H1  UNL     1      -3.206   3.257  82.897  1.00  0.00     0.211 HD
ENDBRANCH   1  20
TORSDOF 3
ENDMDL
MODEL 2
REMARK VINA RESULT: -6.210975419      2.243      6.342
REMARK  3 active torsions:
REMARK  status: ('A' for Active; 'I' for Inactive)
REMARK    1  A    between atoms: N1_6  and  C6_7 
REMARK    2  A    between atoms: C6_7  and  C7_8 
REMARK    3  A    between atoms: C7_8  and  O1_9 
ROOT
HETATM    1  C7  UNL     1       0.462   5.438  83.357  1.00  0.00     0.097 C 
HETATM    2  C8  UNL     1       0.677   4.209  84.209  1.00  0.00     0.079 C 
HETATM    3  C9  UNL     1      -0.620   3.398  84.109  1.00  0.00     0.226 C 
HETATM    4  C10 UNL     1      -0.665   2.395  85.200  1.00  0.00     0.036 C 
HETATM    5  C11 UNL     1      -1.708   1.314  84.942  1.00  0.00     0.004 C 
HETATM    6  C12 UNL     1      -1.321   0.666  83.620  1.00  0.00     0.030 C 
HETATM    7  C13 UNL     1      -1.513   1.767  82.577  1.00  0.00     0.273 C 
HETATM    8  N2  UNL     1      -0.586   2.844  82.774  1.00  0.00     0.098 N 
HETATM    9  C14 UNL     1      -0.943   3.921  81.875  1.00  0.00     0.226 C 
HETATM   10  C15 UNL     1      -0.488   3.661  80.449  1.00  0.00     0.043 C 
HETATM   11  C16 UNL     1      -0.645   5.288  82.350  1.00  0.00     0.054 C 
HETATM   12  C17 UNL     1      -0.350   6.175  81.136  1.00  0.00     0.015 C 
ENDROOT
BRANCH   1  13
HETATM   13  C6  UNL     1       0.100   6.644  84.205  1.00  0.00     0.101 C 
BRANCH  13  14
HETATM   14  N1  UNL     1       0.955   7.712  84.233  1.00  0.00    -0.367 N 
HETATM   15  C2  UNL     1       0.806   8.872  83.477  1.00  0.00     0.084 C 
HETATM   16  C1  UNL     1      -0.565   9.522  83.566  1.00  0.00     0.033 C 
HETATM   17  C3  UNL     1       1.765   9.911  84.120  1.00  0.00     0.030 C 
HETATM   18  C4  UNL     1       2.739   9.023  84.833  1.00  0.00     0.046 C 
HETATM   19  C5  UNL     1       1.843   7.877  85.300  1.00  0.00     0.063 C 
ENDBRANCH  13  14
ENDBRANCH   1  13
BRANCH   1  20
HETATM   20  O1  UNL     1       1.637   5.726  82.684  1.00  0.00    -0.384 OA
ATOM     21  H1  UNL     1       2.061   4.904  82.472  1.00  0.00     0.211 HD
ENDBRANCH   1  20
TORSDOF 3
ENDMDL
MODEL 3
REMARK VINA RESULT: -6.162021207      1.510      3.365
REMARK  3 active torsions:
REMARK  status: ('A' for Active; 'I' for Inactive)
REMARK    1  A    between atoms: N1_6  and  C6_7 
REMARK    2  A    between atoms: C6_7  and  C7_8 
REMARK    3  A    between atoms: C7_8  and  O1_9 
ROOT
HETATM    1  C7  UNL     1      -0.785   3.842  83.752  1.00  0.00     0.097 C 
HETATM    2  C8  UNL     1      -0.106   3.299  82.517  1.00  0.00     0.079 C 
HETATM    3  C9  UNL     1      -0.586   4.176  81.355  1.00  0.00     0.226 C 
HETATM    4  C10 UNL     1      -0.299   3.498  80.068  1.00  0.00     0.036 C 
HETATM    5  C11 UNL     1      -0.385   4.455  78.885  1.00  0.00     0.004 C 
HETATM    6  C12 UNL     1       0.631   5.554  79.160  1.00  0.00     0.030 C 
HETATM    7  C13 UNL     1       0.093   6.279  80.394  1.00  0.00     0.273 C 
HETATM    8  N2  UNL     1       0.108   5.429  81.551  1.00  0.00     0.098 N 
HETATM    9  C14 UNL     1      -0.577   6.113  82.626  1.00  0.00     0.226 C 
HETATM   10  C15 UNL     1       0.285   7.180  83.278  1.00  0.00     0.043 C 
HETATM   11  C16 UNL     1      -1.285   5.251  83.596  1.00  0.00     0.054 C 
HETATM   12  C17 UNL     1      -1.280   5.946  84.962  1.00  0.00     0.015 C 
ENDROOT
BRANCH   1  13
HETATM   13  C6  UNL     1      -1.994   3.006  84.132  1.00  0.00     0.101 C 
BRANCH  13  14
HETATM   14  N1  UNL     1      -1.803   1.860  84.856  1.00  0.00    -0.367 N 
HETATM   15  C2  UNL     1      -2.202   1.677  86.178  1.00  0.00     0.084 C 
HETATM   16  C1  UNL     1      -3.651   2.033  86.464  1.00  0.00     0.033 C 
HETATM   17  C3  UNL     1      -2.126   0.146  86.425  1.00  0.00     0.030 C 
HETATM   18  C4  UNL     1      -1.167  -0.286  85.358  1.00  0.00     0.046 C 
HETATM   19  C5  UNL     1      -1.527   0.653  84.207  1.00  0.00     0.063 C 
ENDBRANCH  13  14
ENDBRANCH   1  13
BRANCH   1  20
HETATM   20  O1  UNL     1       0.110   3.803  84.807  1.00  0.00    -0.384 OA
ATOM     21  H1  UNL     1       0.390   2.903  84.920  1.00  0.00     0.211 HD
ENDBRANCH   1  20
TORSDOF 3
ENDMDL
MODEL 4
REMARK VINA RESULT: -6.072692144      1.968      6.230
REMARK  3 active torsions:
REMARK  status: ('A' for Active; 'I' for Inactive)
REMARK    1  A    between atoms: N1_6  and  C6_7 
REMARK    2  A    between atoms: C6_7  and  C7_8 
REMARK    3  A    between atoms: C7_8  and  O1_9 
ROOT
HETATM    1  C7  UNL     1      -0.753   3.312  83.369  1.00  0.00     0.097 C 
HETATM    2  C8  UNL     1      -1.174   1.868  83.516  1.00  0.00     0.079 C 
HETATM    3  C9  UNL     1      -1.513   1.680  84.998  1.00  0.00     0.226 C 
HETATM    4  C10 UNL     1      -1.554   0.233  85.320  1.00  0.00     0.036 C 
HETATM    5  C11 UNL     1      -2.254  -0.039  86.646  1.00  0.00     0.004 C 
HETATM    6  C12 UNL     1      -3.660   0.527  86.502  1.00  0.00     0.030 C 
HETATM    7  C13 UNL     1      -3.458   2.037  86.375  1.00  0.00     0.273 C 
HETATM    8  N2  UNL     1      -2.770   2.376  85.163  1.00  0.00     0.098 N 
HETATM    9  C14 UNL     1      -2.455   3.788  85.197  1.00  0.00     0.226 C 
HETATM   10  C15 UNL     1      -3.657   4.658  84.873  1.00  0.00     0.043 C 
HETATM   11  C16 UNL     1      -1.223   4.196  84.491  1.00  0.00     0.054 C 
HETATM   12  C17 UNL     1      -1.408   5.624  83.968  1.00  0.00     0.015 C 
ENDROOT
BRANCH   1  13
HETATM   13  C6  UNL     1       0.759   3.447  83.331  1.00  0.00     0.101 C 
BRANCH  13  14
HETATM   14  N1  UNL     1       1.350   3.939  82.199  1.00  0.00    -0.367 N 
HETATM   15  C2  UNL     1       1.509   5.292  81.907  1.00  0.00     0.084 C 
HETATM   16  C1  UNL     1       2.140   6.116  83.016  1.00  0.00     0.033 C 
HETATM   17  C3  UNL     1       2.545   5.346  80.750  1.00  0.00     0.030 C 
HETATM   18  C4  UNL     1       2.428   3.968  80.174  1.00  0.00     0.046 C 
HETATM   19  C5  UNL     1       2.176   3.121  81.422  1.00  0.00     0.063 C 
ENDBRANCH  13  14
ENDBRANCH   1  13
BRANCH   1  20
HETATM   20  O1  UNL     1      -1.255   3.804  82.177  1.00  0.00    -0.384 OA
ATOM     21  H1  UNL     1      -1.887   4.482  82.383  1.00  0.00     0.211 HD
ENDBRANCH   1  20
TORSDOF 3
ENDMDL
MODEL 5
REMARK VINA RESULT: -5.919543751      2.057      3.035
REMARK  3 active torsions:
REMARK  status: ('A' for Active; 'I' for Inactive)
REMARK    1  A    between atoms: N1_6  and  C6_7 
REMARK    2  A    between atoms: C6_7  and  C7_8 
REMARK    3  A    between atoms: C7_8  and  O1_9 
ROOT
HETATM    1  C7  UNL     1      -0.940   4.577  81.261  1.00  0.00     0.097 C 
HETATM    2  C8  UNL     1      -1.467   5.457  82.370  1.00  0.00     0.079 C 
HETATM    3  C9  UNL     1      -0.424   6.563  82.558  1.00  0.00     0.226 C 
HETATM    4  C10 UNL     1      -0.642   7.237  83.861  1.00  0.00     0.036 C 
HETATM    5  C11 UNL     1       0.087   8.573  83.944  1.00  0.00     0.004 C 
HETATM    6  C12 UNL     1      -0.449   9.417  82.796  1.00  0.00     0.030 C 
HETATM    7  C13 UNL     1       0.023   8.698  81.533  1.00  0.00     0.273 C 
HETATM    8  N2  UNL     1      -0.595   7.410  81.399  1.00  0.00     0.098 N 
HETATM    9  C14 UNL     1       0.030   6.719  80.292  1.00  0.00     0.226 C 
HETATM   10  C15 UNL     1      -0.472   7.208  78.944  1.00  0.00     0.043 C 
HETATM   11  C16 UNL     1       0.094   5.246  80.398  1.00  0.00     0.054 C 
HETATM   12  C17 UNL     1       0.041   4.650  78.988  1.00  0.00     0.015 C 
ENDROOT
BRANCH   1  13
HETATM   13  C6  UNL     1      -0.282   3.325  81.813  1.00  0.00     0.101 C 
BRANCH  13  14
HETATM   14  N1  UNL     1      -0.762   2.784  82.975  1.00  0.00    -0.367 N 
HETATM   15  C2  UNL     1      -1.576   1.658  83.053  1.00  0.00     0.084 C 
HETATM   16  C1  UNL     1      -1.068   0.446  82.290  1.00  0.00     0.033 C 
HETATM   17  C3  UNL     1      -1.533   1.219  84.543  1.00  0.00     0.030 C 
HETATM   18  C4  UNL     1      -1.122   2.490  85.222  1.00  0.00     0.046 C 
HETATM   19  C5  UNL     1      -0.165   3.101  84.199  1.00  0.00     0.063 C 
ENDBRANCH  13  14
ENDBRANCH   1  13
BRANCH   1  20
HETATM   20  O1  UNL     1      -1.999   4.185  80.460  1.00  0.00    -0.384 OA
ATOM     21  H1  UNL     1      -2.784   4.609  80.785  1.00  0.00     0.211 HD
ENDBRANCH   1  20
TORSDOF 3
ENDMDL
