MODEL 1
REMARK VINA RESULT: -5.799790684      0.000      0.000
REMARK  4 active torsions:
REMARK  status: ('A' for Active; 'I' for Inactive)
REMARK    1  A    between atoms: C2_2  and  O2_4 
REMARK    2  A    between atoms: O2_4  and  C3_5 
REMARK    3  A    between atoms: C3_5  and  C4_6 
REMARK    4  A    between atoms: C7_9  and  O3_10 
ROOT
HETATM    1  C4  UNL     1      -0.650   5.251  82.585  1.00  0.00     0.022 C 
HETATM    2  C5  UNL     1      -0.687   6.799  82.652  1.00  0.00     0.017 C 
HETATM    3  C6  UNL     1       0.705   7.221  82.244  1.00  0.00     0.033 C 
HETATM    4  C7  UNL     1       1.473   6.304  83.196  1.00  0.00     0.127 C 
HETATM    5  C8  UNL     1       0.755   4.973  83.011  1.00  0.00    -0.006 C 
HETATM    6  C9  UNL     1       1.578   4.366  81.850  1.00  0.00     0.019 C 
HETATM    7  C10 UNL     1       1.028   4.183  84.208  1.00  0.00     0.014 C 
HETATM    8  C11 UNL     1       0.196   3.073  84.645  1.00  0.00     0.031 C 
HETATM    9  C12 UNL     1      -0.839   2.557  83.701  1.00  0.00     0.273 C 
HETATM   10  N1  UNL     1      -1.947   3.409  83.566  1.00  0.00     0.093 N 
HETATM   11  C13 UNL     1      -2.959   3.261  84.585  1.00  0.00     0.273 C 
HETATM   12  C14 UNL     1      -2.878   4.497  85.450  1.00  0.00     0.032 C 
HETATM   13  C15 UNL     1      -1.882   5.428  84.789  1.00  0.00     0.038 C 
HETATM   14  C16 UNL     1      -1.745   4.808  83.422  1.00  0.00     0.234 C 
ENDROOT
BRANCH   1  15
HETATM   15  C3  UNL     1      -0.888   4.918  81.139  1.00  0.00     0.191 C 
BRANCH  15  16
HETATM   16  O2  UNL     1      -2.012   5.121  80.478  1.00  0.00    -0.321 OA
BRANCH  16  17
HETATM   17  C2  UNL     1      -2.705   5.915  79.671  1.00  0.00     0.254 C 
HETATM   18  C1  UNL     1      -2.420   7.376  79.454  1.00  0.00     0.126 C 
HETATM   19  O1  UNL     1      -3.672   5.470  79.023  1.00  0.00    -0.266 OA
ENDBRANCH  16  17
ENDBRANCH  15  16
ENDBRANCH   1  15
BRANCH   4  20
HETATM   20  O3  UNL     1       1.409   6.777  84.496  1.00  0.00    -0.395 OA
ATOM     21  H3  UNL     1       0.525   6.711  84.838  1.00  0.00     0.210 HD
ENDBRANCH   4  20
TORSDOF 4
ENDMDL
MODEL 2
REMARK VINA RESULT: -5.698271991      2.088      3.112
REMARK  4 active torsions:
REMARK  status: ('A' for Active; 'I' for Inactive)
REMARK    1  A    between atoms: C2_2  and  O2_4 
REMARK    2  A    between atoms: O2_4  and  C3_5 
REMARK    3  A    between atoms: C3_5  and  C4_6 
REMARK    4  A    between atoms: C7_9  and  O3_10 
ROOT
HETATM    1  C4  UNL     1      -0.840   3.856  82.060  1.00  0.00     0.022 C 
HETATM    2  C5  UNL     1      -1.153   5.137  81.244  1.00  0.00     0.017 C 
HETATM    3  C6  UNL     1       0.149   5.459  80.547  1.00  0.00     0.033 C 
HETATM    4  C7  UNL     1       1.052   5.382  81.777  1.00  0.00     0.127 C 
HETATM    5  C8  UNL     1       0.586   4.092  82.441  1.00  0.00    -0.006 C 
HETATM    6  C9  UNL     1       1.521   3.067  81.757  1.00  0.00     0.019 C 
HETATM    7  C10 UNL     1       0.976   4.181  83.845  1.00  0.00     0.014 C 
HETATM    8  C11 UNL     1       0.348   3.408  84.904  1.00  0.00     0.031 C 
HETATM    9  C12 UNL     1      -0.564   2.292  84.513  1.00  0.00     0.273 C 
HETATM   10  N1  UNL     1      -1.804   2.731  84.020  1.00  0.00     0.093 N 
HETATM   11  C13 UNL     1      -2.789   3.037  85.030  1.00  0.00     0.273 C 
HETATM   12  C14 UNL     1      -2.942   4.540  85.035  1.00  0.00     0.032 C 
HETATM   13  C15 UNL     1      -2.118   5.067  83.879  1.00  0.00     0.038 C 
HETATM   14  C16 UNL     1      -1.852   3.807  83.094  1.00  0.00     0.234 C 
ENDROOT
BRANCH   1  15
HETATM   15  C3  UNL     1      -0.993   2.725  81.082  1.00  0.00     0.191 C 
BRANCH  15  16
HETATM   16  O2  UNL     1      -1.645   1.598  81.303  1.00  0.00    -0.321 OA
BRANCH  16  17
HETATM   17  C2  UNL     1      -1.612   0.272  81.305  1.00  0.00     0.254 C 
HETATM   18  C1  UNL     1      -0.940  -0.568  82.356  1.00  0.00     0.126 C 
HETATM   19  O1  UNL     1      -2.161  -0.375  80.393  1.00  0.00    -0.266 OA
ENDBRANCH  16  17
ENDBRANCH  15  16
ENDBRANCH   1  15
BRANCH   4  20
HETATM   20  O3  UNL     1       0.885   6.496  82.583  1.00  0.00    -0.395 OA
ATOM     21  H3  UNL     1       1.242   6.343  83.450  1.00  0.00     0.210 HD
ENDBRANCH   4  20
TORSDOF 4
ENDMDL
MODEL 3
REMARK VINA RESULT: -5.656794843      2.456      4.977
REMARK  4 active torsions:
REMARK  status: ('A' for Active; 'I' for Inactive)
REMARK    1  A    between atoms: C2_2  and  O2_4 
REMARK    2  A    between atoms: O2_4  and  C3_5 
REMARK    3  A    between atoms: C3_5  and  C4_6 
REMARK    4  A    between atoms: C7_9  and  O3_10 
ROOT
HETATM    1  C4  UNL     1      -0.072   4.097  83.389  1.00  0.00     0.022 C 
HETATM    2  C5  UNL     1      -1.567   3.697  83.304  1.00  0.00     0.017 C 
HETATM    3  C6  UNL     1      -1.591   2.563  82.306  1.00  0.00     0.033 C 
HETATM    4  C7  UNL     1      -0.788   3.256  81.206  1.00  0.00     0.127 C 
HETATM    5  C8  UNL     1       0.376   3.856  81.984  1.00  0.00    -0.006 C 
HETATM    6  C9  UNL     1       1.393   2.692  81.917  1.00  0.00     0.019 C 
HETATM    7  C10 UNL     1       0.901   4.950  81.172  1.00  0.00     0.014 C 
HETATM    8  C11 UNL     1       1.684   6.049  81.714  1.00  0.00     0.031 C 
HETATM    9  C12 UNL     1       2.188   5.929  83.114  1.00  0.00     0.273 C 
HETATM   10  N1  UNL     1       1.185   6.091  84.084  1.00  0.00     0.093 N 
HETATM   11  C13 UNL     1       0.883   7.460  84.427  1.00  0.00     0.273 C 
HETATM   12  C14 UNL     1      -0.480   7.753  83.843  1.00  0.00     0.032 C 
HETATM   13  C15 UNL     1      -1.009   6.447  83.287  1.00  0.00     0.038 C 
HETATM   14  C16 UNL     1      -0.069   5.447  83.913  1.00  0.00     0.234 C 
ENDROOT
BRANCH   1  15
HETATM   15  C3  UNL     1       0.537   3.125  84.361  1.00  0.00     0.191 C 
BRANCH  15  16
HETATM   16  O2  UNL     1      -0.094   2.540  85.362  1.00  0.00    -0.321 OA
BRANCH  16  17
HETATM   17  C2  UNL     1      -0.792   1.492  85.780  1.00  0.00     0.254 C 
HETATM   18  C1  UNL     1      -2.259   1.514  86.108  1.00  0.00     0.126 C 
HETATM   19  O1  UNL     1      -0.240   0.384  85.929  1.00  0.00    -0.266 OA
ENDBRANCH  16  17
ENDBRANCH  15  16
ENDBRANCH   1  15
BRANCH   4  20
HETATM   20  O3  UNL     1      -1.557   4.211  80.560  1.00  0.00    -0.395 OA
ATOM     21  H3  UNL     1      -1.646   4.006  79.637  1.00  0.00     0.210 HD
ENDBRANCH   4  20
TORSDOF 4
ENDMDL
MODEL 4
REMARK VINA RESULT: -5.629413418      1.178      1.377
REMARK  4 active torsions:
REMARK  status: ('A' for Active; 'I' for Inactive)
REMARK    1  A    between atoms: C2_2  and  O2_4 
REMARK    2  A    between atoms: O2_4  and  C3_5 
REMARK    3  A    between atoms: C3_5  and  C4_6 
REMARK    4  A    between atoms: C7_9  and  O3_10 
ROOT
HETATM    1  C4  UNL     1      -0.222   6.550  82.753  1.00  0.00     0.022 C 
HETATM    2  C5  UNL     1      -0.487   7.958  83.345  1.00  0.00     0.017 C 
HETATM    3  C6  UNL     1       0.823   8.689  83.163  1.00  0.00     0.033 C 
HETATM    4  C7  UNL     1       1.728   7.619  83.774  1.00  0.00     0.127 C 
HETATM    5  C8  UNL     1       1.213   6.346  83.115  1.00  0.00    -0.006 C 
HETATM    6  C9  UNL     1       2.104   6.300  81.851  1.00  0.00     0.019 C 
HETATM    7  C10 UNL     1       1.613   5.239  83.979  1.00  0.00     0.014 C 
HETATM    8  C11 UNL     1       0.958   3.940  83.975  1.00  0.00     0.031 C 
HETATM    9  C12 UNL     1       0.001   3.639  82.870  1.00  0.00     0.273 C 
HETATM   10  N1  UNL     1      -1.223   4.318  82.990  1.00  0.00     0.093 N 
HETATM   11  C13 UNL     1      -2.190   3.685  83.854  1.00  0.00     0.273 C 
HETATM   12  C14 UNL     1      -2.283   4.546  85.092  1.00  0.00     0.032 C 
HETATM   13  C15 UNL     1      -1.444   5.779  84.832  1.00  0.00     0.038 C 
HETATM   14  C16 UNL     1      -1.231   5.695  83.341  1.00  0.00     0.234 C 
ENDROOT
BRANCH   1  15
HETATM   15  C3  UNL     1      -0.425   6.706  81.272  1.00  0.00     0.191 C 
BRANCH  15  16
HETATM   16  O2  UNL     1      -1.590   6.785  80.658  1.00  0.00    -0.321 OA
BRANCH  16  17
HETATM   17  C2  UNL     1      -2.552   6.147  80.003  1.00  0.00     0.254 C 
HETATM   18  C1  UNL     1      -3.749   6.808  79.377  1.00  0.00     0.126 C 
HETATM   19  O1  UNL     1      -2.509   4.909  79.868  1.00  0.00    -0.266 OA
ENDBRANCH  16  17
ENDBRANCH  15  16
ENDBRANCH   1  15
BRANCH   4  20
HETATM   20  O3  UNL     1       1.609   7.601  85.154  1.00  0.00    -0.395 OA
ATOM     21  H3  UNL     1       2.356   8.019  85.564  1.00  0.00     0.210 HD
ENDBRANCH   4  20
TORSDOF 4
ENDMDL
MODEL 5
REMARK VINA RESULT: -5.622757170      2.143      4.469
REMARK  4 active torsions:
REMARK  status: ('A' for Active; 'I' for Inactive)
REMARK    1  A    between atoms: C2_2  and  O2_4 
REMARK    2  A    between atoms: O2_4  and  C3_5 
REMARK    3  A    between atoms: C3_5  and  C4_6 
REMARK    4  A    between atoms: C7_9  and  O3_10 
ROOT
HETATM    1  C4  UNL     1      -0.143   4.297  82.333  1.00  0.00     0.022 C 
HETATM    2  C5  UNL     1       1.238   3.711  82.725  1.00  0.00     0.017 C 
HETATM    3  C6  UNL     1       1.434   4.149  84.157  1.00  0.00     0.033 C 
HETATM    4  C7  UNL     1       1.118   5.630  83.952  1.00  0.00     0.127 C 
HETATM    5  C8  UNL     1      -0.147   5.576  83.105  1.00  0.00    -0.006 C 
HETATM    6  C9  UNL     1      -1.229   5.555  84.210  1.00  0.00     0.019 C 
HETATM    7  C10 UNL     1      -0.243   6.860  82.416  1.00  0.00     0.014 C 
HETATM    8  C11 UNL     1      -1.012   7.063  81.199  1.00  0.00     0.031 C 
HETATM    9  C12 UNL     1      -1.946   5.981  80.769  1.00  0.00     0.273 C 
HETATM   10  N1  UNL     1      -1.292   4.858  80.235  1.00  0.00     0.093 N 
HETATM   11  C13 UNL     1      -0.943   4.962  78.839  1.00  0.00     0.273 C 
HETATM   12  C14 UNL     1       0.561   5.107  78.786  1.00  0.00     0.032 C 
HETATM   13  C15 UNL     1       1.068   4.927  80.201  1.00  0.00     0.038 C 
HETATM   14  C16 UNL     1      -0.140   4.340  80.886  1.00  0.00     0.234 C 
ENDROOT
BRANCH   1  15
HETATM   15  C3  UNL     1      -1.147   3.307  82.855  1.00  0.00     0.191 C 
BRANCH  15  16
HETATM   16  O2  UNL     1      -1.170   2.016  82.581  1.00  0.00    -0.321 OA
BRANCH  16  17
HETATM   17  C2  UNL     1      -1.616   1.052  81.786  1.00  0.00     0.254 C 
HETATM   18  C1  UNL     1      -1.197  -0.390  81.867  1.00  0.00     0.126 C 
HETATM   19  O1  UNL     1      -2.444   1.306  80.890  1.00  0.00    -0.266 OA
ENDBRANCH  16  17
ENDBRANCH  15  16
ENDBRANCH   1  15
BRANCH   4  20
HETATM   20  O3  UNL     1       2.166   6.276  83.318  1.00  0.00    -0.395 OA
ATOM     21  H3  UNL     1       1.893   7.124  82.989  1.00  0.00     0.210 HD
ENDBRANCH   4  20
TORSDOF 4
ENDMDL
