MODEL 1
REMARK VINA RESULT: -5.847444351      0.000      0.000
REMARK  3 active torsions:
REMARK  status: ('A' for Active; 'I' for Inactive)
REMARK    1  A    between atoms: C2_2  and  C4_4 
REMARK    2  A    between atoms: C4_4  and  N1_7 
REMARK    3  A    between atoms: N1_7  and  C7_8 
REMARK       I    between atoms: N1_7  and  C9_10 
REMARK       I    between atoms: C9_10  and  N3_14 
ROOT
HETATM    1  N1  UNL     1      16.782   7.085  14.903  1.00  0.00    -0.206 N 
HETATM    2  C9  UNL     1      16.306   5.743  14.848  1.00  0.00     0.672 C 
HETATM    3  N2  UNL     1      16.064   5.234  13.690  1.00  0.00    -0.235 N 
ATOM      4  H21 UNL     1      15.723   4.274  13.650  1.00  0.00     0.174 HD
ATOM      5  H22 UNL     1      16.271   5.826  12.885  1.00  0.00     0.174 HD
HETATM    6  N3  UNL     1      16.023   4.928  15.954  1.00  0.00    -0.214 N 
HETATM    7  C10 UNL     1      17.013   4.085  16.590  1.00  0.00     0.167 C 
HETATM    8  C11 UNL     1      16.549   2.656  16.240  1.00  0.00     0.188 C 
HETATM    9  O1  UNL     1      15.233   2.464  16.497  1.00  0.00    -0.388 OA
HETATM   10  C12 UNL     1      14.523   3.455  17.106  1.00  0.00     0.188 C 
HETATM   11  C13 UNL     1      14.689   4.835  16.517  1.00  0.00     0.167 C 
ENDROOT
BRANCH   1  12
HETATM   12  C4  UNL     1      18.073   7.438  14.429  1.00  0.00     0.065 C 
HETATM   13  C5  UNL     1      19.100   6.478  15.087  1.00  0.00     0.044 C 
HETATM   14  C6  UNL     1      18.548   8.822  14.778  1.00  0.00     0.044 C 
BRANCH  12  15
HETATM   15  C2  UNL     1      18.299   7.253  12.927  1.00  0.00    -0.065 C 
HETATM   16  C1  UNL     1      17.678   7.997  12.135  1.00  0.00     0.016 C 
HETATM   17  C3  UNL     1      19.277   6.179  12.557  1.00  0.00     0.045 C 
ENDBRANCH  12  15
ENDBRANCH   1  12
BRANCH   1  18
HETATM   18  C7  UNL     1      15.854   8.068  15.413  1.00  0.00     0.138 C 
HETATM   19  C8  UNL     1      14.952   8.733  14.444  1.00  0.00     0.027 C 
ENDBRANCH   1  18
TORSDOF 3
ENDMDL
MODEL 2
REMARK VINA RESULT: -5.701596267      2.516      3.789
REMARK  3 active torsions:
REMARK  status: ('A' for Active; 'I' for Inactive)
REMARK    1  A    between atoms: C2_2  and  C4_4 
REMARK    2  A    between atoms: C4_4  and  N1_7 
REMARK    3  A    between atoms: N1_7  and  C7_8 
REMARK       I    between atoms: N1_7  and  C9_10 
REMARK       I    between atoms: C9_10  and  N3_14 
ROOT
HETATM    1  N1  UNL     1      17.545   6.977  13.117  1.00  0.00    -0.206 N 
HETATM    2  C9  UNL     1      17.872   5.663  12.672  1.00  0.00     0.672 C 
HETATM    3  N2  UNL     1      19.110   5.395  12.438  1.00  0.00    -0.235 N 
ATOM      4  H21 UNL     1      19.344   4.455  12.119  1.00  0.00     0.174 HD
ATOM      5  H22 UNL     1      19.776   6.143  12.626  1.00  0.00     0.174 HD
HETATM    6  N3  UNL     1      16.955   4.634  12.413  1.00  0.00    -0.214 N 
HETATM    7  C10 UNL     1      16.504   3.703  13.426  1.00  0.00     0.167 C 
HETATM    8  C11 UNL     1      17.137   2.364  12.995  1.00  0.00     0.188 C 
HETATM    9  O1  UNL     1      16.925   2.092  11.684  1.00  0.00    -0.388 OA
HETATM   10  C12 UNL     1      16.127   2.921  10.954  1.00  0.00     0.188 C 
HETATM   11  C13 UNL     1      16.423   4.396  11.085  1.00  0.00     0.167 C 
ENDROOT
BRANCH   1  12
HETATM   12  C4  UNL     1      17.937   7.450  14.397  1.00  0.00     0.065 C 
HETATM   13  C5  UNL     1      18.999   8.562  14.189  1.00  0.00     0.044 C 
HETATM   14  C6  UNL     1      18.595   6.442  15.299  1.00  0.00     0.044 C 
BRANCH  12  15
HETATM   15  C2  UNL     1      16.838   8.132  15.215  1.00  0.00    -0.065 C 
HETATM   16  C1  UNL     1      17.016   9.315  15.582  1.00  0.00     0.016 C 
HETATM   17  C3  UNL     1      15.629   7.289  15.485  1.00  0.00     0.045 C 
ENDBRANCH  12  15
ENDBRANCH   1  12
BRANCH   1  18
HETATM   18  C7  UNL     1      16.845   7.813  12.168  1.00  0.00     0.138 C 
HETATM   19  C8  UNL     1      17.474   8.027  10.843  1.00  0.00     0.027 C 
ENDBRANCH   1  18
TORSDOF 3
ENDMDL
MODEL 3
REMARK VINA RESULT: -5.568642344      1.412      2.908
REMARK  3 active torsions:
REMARK  status: ('A' for Active; 'I' for Inactive)
REMARK    1  A    between atoms: C2_2  and  C4_4 
REMARK    2  A    between atoms: C4_4  and  N1_7 
REMARK    3  A    between atoms: N1_7  and  C7_8 
REMARK       I    between atoms: N1_7  and  C9_10 
REMARK       I    between atoms: C9_10  and  N3_14 
ROOT
HETATM    1  N1  UNL     1      16.991   6.778  13.581  1.00  0.00    -0.206 N 
HETATM    2  C9  UNL     1      17.351   5.886  14.633  1.00  0.00     0.672 C 
HETATM    3  N2  UNL     1      18.433   6.128  15.287  1.00  0.00    -0.235 N 
ATOM      4  H21 UNL     1      18.691   5.489  16.039  1.00  0.00     0.174 HD
ATOM      5  H22 UNL     1      18.939   6.973  15.024  1.00  0.00     0.174 HD
HETATM    6  N3  UNL     1      16.654   4.723  14.995  1.00  0.00    -0.214 N 
HETATM    7  C10 UNL     1      15.571   4.716  15.955  1.00  0.00     0.167 C 
HETATM    8  C11 UNL     1      16.161   3.957  17.161  1.00  0.00     0.188 C 
HETATM    9  O1  UNL     1      16.750   2.791  16.798  1.00  0.00    -0.388 OA
HETATM   10  C12 UNL     1      16.666   2.380  15.501  1.00  0.00     0.188 C 
HETATM   11  C13 UNL     1      17.007   3.421  14.462  1.00  0.00     0.167 C 
ENDROOT
BRANCH   1  12
HETATM   12  C4  UNL     1      16.587   8.114  13.843  1.00  0.00     0.065 C 
HETATM   13  C5  UNL     1      15.467   8.071  14.916  1.00  0.00     0.044 C 
HETATM   14  C6  UNL     1      15.991   8.862  12.682  1.00  0.00     0.044 C 
BRANCH  12  15
HETATM   15  C2  UNL     1      17.657   9.019  14.457  1.00  0.00    -0.065 C 
HETATM   16  C1  UNL     1      17.438   9.523  15.581  1.00  0.00     0.016 C 
HETATM   17  C3  UNL     1      18.891   9.200  13.626  1.00  0.00     0.045 C 
ENDBRANCH  12  15
ENDBRANCH   1  12
BRANCH   1  18
HETATM   18  C7  UNL     1      17.117   6.261  12.238  1.00  0.00     0.138 C 
HETATM   19  C8  UNL     1      18.484   6.049  11.706  1.00  0.00     0.027 C 
ENDBRANCH   1  18
TORSDOF 3
ENDMDL
MODEL 4
REMARK VINA RESULT: -5.525317313      1.842      3.398
REMARK  3 active torsions:
REMARK  status: ('A' for Active; 'I' for Inactive)
REMARK    1  A    between atoms: C2_2  and  C4_4 
REMARK    2  A    between atoms: C4_4  and  N1_7 
REMARK    3  A    between atoms: N1_7  and  C7_8 
REMARK       I    between atoms: N1_7  and  C9_10 
REMARK       I    between atoms: C9_10  and  N3_14 
ROOT
HETATM    1  N1  UNL     1      17.216   7.634  13.473  1.00  0.00    -0.206 N 
HETATM    2  C9  UNL     1      17.623   6.333  13.891  1.00  0.00     0.672 C 
HETATM    3  N2  UNL     1      18.753   6.219  14.497  1.00  0.00    -0.235 N 
ATOM      4  H21 UNL     1      19.044   5.288  14.796  1.00  0.00     0.174 HD
ATOM      5  H22 UNL     1      19.262   7.085  14.669  1.00  0.00     0.174 HD
HETATM    6  N3  UNL     1      16.922   5.141  13.655  1.00  0.00    -0.214 N 
HETATM    7  C10 UNL     1      15.906   4.629  14.551  1.00  0.00     0.167 C 
HETATM    8  C11 UNL     1      16.557   3.366  15.153  1.00  0.00     0.188 C 
HETATM    9  O1  UNL     1      17.089   2.559  14.204  1.00  0.00    -0.388 OA
HETATM   10  C12 UNL     1      16.907   2.869  12.889  1.00  0.00     0.188 C 
HETATM   11  C13 UNL     1      17.203   4.299  12.507  1.00  0.00     0.167 C 
ENDROOT
BRANCH   1  12
HETATM   12  C4  UNL     1      16.866   8.641  14.410  1.00  0.00     0.065 C 
HETATM   13  C5  UNL     1      18.162   9.406  14.793  1.00  0.00     0.044 C 
HETATM   14  C6  UNL     1      16.295   8.159  15.715  1.00  0.00     0.044 C 
BRANCH  12  15
HETATM   15  C2  UNL     1      15.930   9.733  13.888  1.00  0.00    -0.065 C 
HETATM   16  C1  UNL     1      14.707   9.481  13.808  1.00  0.00     0.016 C 
HETATM   17  C3  UNL     1      16.597  11.026  13.529  1.00  0.00     0.045 C 
ENDBRANCH  12  15
ENDBRANCH   1  12
BRANCH   1  18
HETATM   18  C7  UNL     1      17.237   7.879  12.050  1.00  0.00     0.138 C 
HETATM   19  C8  UNL     1      18.560   7.971  11.386  1.00  0.00     0.027 C 
ENDBRANCH   1  18
TORSDOF 3
ENDMDL
MODEL 5
REMARK VINA RESULT: -5.492987405      1.894      3.666
REMARK  3 active torsions:
REMARK  status: ('A' for Active; 'I' for Inactive)
REMARK    1  A    between atoms: C2_2  and  C4_4 
REMARK    2  A    between atoms: C4_4  and  N1_7 
REMARK    3  A    between atoms: N1_7  and  C7_8 
REMARK       I    between atoms: N1_7  and  C9_10 
REMARK       I    between atoms: C9_10  and  N3_14 
ROOT
HETATM    1  N1  UNL     1      18.093   7.862  12.995  1.00  0.00    -0.206 N 
HETATM    2  C9  UNL     1      18.204   6.565  13.576  1.00  0.00     0.672 C 
HETATM    3  N2  UNL     1      19.254   6.304  14.275  1.00  0.00    -0.235 N 
ATOM      4  H21 UNL     1      19.333   5.376  14.691  1.00  0.00     0.174 HD
ATOM      5  H22 UNL     1      19.918   7.068  14.393  1.00  0.00     0.174 HD
HETATM    6  N3  UNL     1      17.289   5.514  13.415  1.00  0.00    -0.214 N 
HETATM    7  C10 UNL     1      16.145   5.322  14.281  1.00  0.00     0.167 C 
HETATM    8  C11 UNL     1      16.492   4.035  15.059  1.00  0.00     0.188 C 
HETATM    9  O1  UNL     1      16.898   3.033  14.242  1.00  0.00    -0.388 OA
HETATM   10  C12 UNL     1      16.853   3.215  12.892  1.00  0.00     0.188 C 
HETATM   11  C13 UNL     1      17.454   4.505  12.387  1.00  0.00     0.167 C 
ENDROOT
BRANCH   1  12
HETATM   12  C4  UNL     1      17.906   9.022  13.792  1.00  0.00     0.065 C 
HETATM   13  C5  UNL     1      17.770  10.238  12.837  1.00  0.00     0.044 C 
HETATM   14  C6  UNL     1      19.038   9.375  14.718  1.00  0.00     0.044 C 
BRANCH  12  15
HETATM   15  C2  UNL     1      16.622   9.054  14.623  1.00  0.00    -0.065 C 
HETATM   16  C1  UNL     1      16.719   9.167  15.865  1.00  0.00     0.016 C 
HETATM   17  C3  UNL     1      15.351   8.956  13.835  1.00  0.00     0.045 C 
ENDBRANCH  12  15
ENDBRANCH   1  12
BRANCH   1  18
HETATM   18  C7  UNL     1      18.239   7.929  11.559  1.00  0.00     0.138 C 
HETATM   19  C8  UNL     1      19.528   7.486  10.976  1.00  0.00     0.027 C 
ENDBRANCH   1  18
TORSDOF 3
ENDMDL
