MODEL 1
REMARK VINA RESULT: -6.484517648      0.000      0.000
REMARK  2 active torsions:
REMARK  status: ('A' for Active; 'I' for Inactive)
REMARK    1  A    between atoms: C7_8  and  N2_9 
REMARK    2  A    between atoms: N2_9  and  C8_12 
ROOT
HETATM    1  C1  UNL     1      16.229   9.553  12.255  1.00  0.00     0.310 C 
HETATM    2  N1  UNL     1      16.311   8.292  12.946  1.00  0.00     0.089 N 
HETATM    3  C2  UNL     1      16.300   8.412  14.375  1.00  0.00     0.277 C 
HETATM    4  C3  UNL     1      17.488   7.887  15.075  1.00  0.00     0.024 C 
HETATM    5  C4  UNL     1      18.795   8.029  14.368  1.00  0.00    -0.006 C 
HETATM    6  C5  UNL     1      19.191   6.700  15.004  1.00  0.00     0.012 C 
HETATM    7  C6  UNL     1      17.694   6.452  15.168  1.00  0.00     0.023 C 
HETATM    8  C7  UNL     1      17.253   5.533  14.124  1.00  0.00     0.193 C 
HETATM    9  C13 UNL     1      16.977   6.029  12.767  1.00  0.00     0.069 C 
HETATM   10  C14 UNL     1      17.358   7.434  12.455  1.00  0.00     0.224 C 
HETATM   11  C15 UNL     1      18.730   7.834  12.890  1.00  0.00     0.041 C 
ENDROOT
BRANCH   8  12
HETATM   12  N2  UNL     1      16.083   4.807  14.623  1.00  0.00    -0.066 N 
ATOM     13  H22 UNL     1      15.219   5.297  14.389  1.00  0.00     0.278 HD
ATOM     14  H21 UNL     1      15.930   3.948  14.095  1.00  0.00     0.278 HD
BRANCH  12  15
HETATM   15  C8  UNL     1      16.162   4.542  16.033  1.00  0.00     0.186 C 
HETATM   16  C9  UNL     1      16.436   3.109  16.370  1.00  0.00     0.033 C 
HETATM   17  C10 UNL     1      15.391   2.671  17.362  1.00  0.00     0.002 C 
HETATM   18  C11 UNL     1      14.697   3.927  17.832  1.00  0.00     0.002 C 
HETATM   19  C12 UNL     1      14.870   4.922  16.698  1.00  0.00     0.033 C 
ENDBRANCH  12  15
ENDBRANCH   8  12
TORSDOF 2
ENDMDL
MODEL 2
REMARK VINA RESULT: -6.337339632      1.209      2.428
REMARK  2 active torsions:
REMARK  status: ('A' for Active; 'I' for Inactive)
REMARK    1  A    between atoms: C7_8  and  N2_9 
REMARK    2  A    between atoms: N2_9  and  C8_12 
ROOT
HETATM    1  C1  UNL     1      19.715   7.181  12.598  1.00  0.00     0.310 C 
HETATM    2  N1  UNL     1      18.556   6.667  13.283  1.00  0.00     0.089 N 
HETATM    3  C2  UNL     1      17.312   7.037  12.675  1.00  0.00     0.277 C 
HETATM    4  C3  UNL     1      16.390   7.821  13.518  1.00  0.00     0.024 C 
HETATM    5  C4  UNL     1      17.015   8.779  14.477  1.00  0.00    -0.006 C 
HETATM    6  C5  UNL     1      15.860   8.462  15.422  1.00  0.00     0.012 C 
HETATM    7  C6  UNL     1      15.693   7.175  14.617  1.00  0.00     0.023 C 
HETATM    8  C7  UNL     1      16.281   6.072  15.369  1.00  0.00     0.193 C 
HETATM    9  C13 UNL     1      17.735   5.847  15.343  1.00  0.00     0.069 C 
HETATM   10  C14 UNL     1      18.583   6.891  14.705  1.00  0.00     0.224 C 
HETATM   11  C15 UNL     1      18.278   8.296  15.109  1.00  0.00     0.041 C 
ENDROOT
BRANCH   8  12
HETATM   12  N2  UNL     1      15.593   4.839  14.980  1.00  0.00    -0.066 N 
ATOM     13  H22 UNL     1      14.965   5.001  14.192  1.00  0.00     0.278 HD
ATOM     14  H21 UNL     1      16.237   4.181  14.542  1.00  0.00     0.278 HD
BRANCH  12  15
HETATM   15  C8  UNL     1      14.897   4.230  16.080  1.00  0.00     0.186 C 
HETATM   16  C9  UNL     1      14.719   5.130  17.263  1.00  0.00     0.033 C 
HETATM   17  C10 UNL     1      15.223   4.389  18.474  1.00  0.00     0.002 C 
HETATM   18  C11 UNL     1      15.411   2.953  18.046  1.00  0.00     0.002 C 
HETATM   19  C12 UNL     1      15.646   3.014  16.547  1.00  0.00     0.033 C 
ENDBRANCH  12  15
ENDBRANCH   8  12
TORSDOF 2
ENDMDL
MODEL 3
REMARK VINA RESULT: -6.242146387      1.122      2.006
REMARK  2 active torsions:
REMARK  status: ('A' for Active; 'I' for Inactive)
REMARK    1  A    between atoms: C7_8  and  N2_9 
REMARK    2  A    between atoms: N2_9  and  C8_12 
ROOT
HETATM    1  C1  UNL     1      19.351   7.859  11.680  1.00  0.00     0.310 C 
HETATM    2  N1  UNL     1      18.522   7.266  12.698  1.00  0.00     0.089 N 
HETATM    3  C2  UNL     1      17.118   7.464  12.490  1.00  0.00     0.277 C 
HETATM    4  C3  UNL     1      16.404   8.194  13.555  1.00  0.00     0.024 C 
HETATM    5  C4  UNL     1      17.169   9.268  14.254  1.00  0.00    -0.006 C 
HETATM    6  C5  UNL     1      16.398   8.886  15.514  1.00  0.00     0.012 C 
HETATM    7  C6  UNL     1      16.153   7.543  14.830  1.00  0.00     0.023 C 
HETATM    8  C7  UNL     1      17.066   6.556  15.393  1.00  0.00     0.193 C 
HETATM    9  C13 UNL     1      18.461   6.487  14.930  1.00  0.00     0.069 C 
HETATM   10  C14 UNL     1      18.947   7.575  14.039  1.00  0.00     0.224 C 
HETATM   11  C15 UNL     1      18.612   8.961  14.483  1.00  0.00     0.041 C 
ENDROOT
BRANCH   8  12
HETATM   12  N2  UNL     1      16.446   5.236  15.262  1.00  0.00    -0.066 N 
ATOM     13  H22 UNL     1      15.574   5.290  14.734  1.00  0.00     0.278 HD
ATOM     14  H21 UNL     1      16.981   4.639  14.631  1.00  0.00     0.278 HD
BRANCH  12  15
HETATM   15  C8  UNL     1      16.243   4.597  16.534  1.00  0.00     0.186 C 
HETATM   16  C9  UNL     1      16.477   3.118  16.518  1.00  0.00     0.033 C 
HETATM   17  C10 UNL     1      15.263   2.463  17.122  1.00  0.00     0.002 C 
HETATM   18  C11 UNL     1      14.458   3.568  17.764  1.00  0.00     0.002 C 
HETATM   19  C12 UNL     1      14.834   4.826  17.001  1.00  0.00     0.033 C 
ENDBRANCH  12  15
ENDBRANCH   8  12
TORSDOF 2
ENDMDL
MODEL 4
REMARK VINA RESULT: -6.241901080      1.359      2.657
REMARK  2 active torsions:
REMARK  status: ('A' for Active; 'I' for Inactive)
REMARK    1  A    between atoms: C7_8  and  N2_9 
REMARK    2  A    between atoms: N2_9  and  C8_12 
ROOT
HETATM    1  C1  UNL     1      20.346   6.585  11.715  1.00  0.00     0.310 C 
HETATM    2  N1  UNL     1      19.505   6.181  12.812  1.00  0.00     0.089 N 
HETATM    3  C2  UNL     1      18.267   5.584  12.405  1.00  0.00     0.277 C 
HETATM    4  C3  UNL     1      17.041   6.272  12.851  1.00  0.00     0.024 C 
HETATM    5  C4  UNL     1      17.107   7.760  12.940  1.00  0.00    -0.006 C 
HETATM    6  C5  UNL     1      16.165   7.650  14.135  1.00  0.00     0.012 C 
HETATM    7  C6  UNL     1      16.646   6.205  14.248  1.00  0.00     0.023 C 
HETATM    8  C7  UNL     1      17.621   6.119  15.329  1.00  0.00     0.193 C 
HETATM    9  C13 UNL     1      19.019   6.520  15.102  1.00  0.00     0.069 C 
HETATM   10  C14 UNL     1      19.342   7.199  13.817  1.00  0.00     0.224 C 
HETATM   11  C15 UNL     1      18.411   8.300  13.427  1.00  0.00     0.041 C 
ENDROOT
BRANCH   8  12
HETATM   12  N2  UNL     1      17.589   4.755  15.862  1.00  0.00    -0.066 N 
ATOM     13  H22 UNL     1      18.089   4.109  15.250  1.00  0.00     0.278 HD
ATOM     14  H21 UNL     1      18.170   4.672  16.696  1.00  0.00     0.278 HD
BRANCH  12  15
HETATM   15  C8  UNL     1      16.250   4.298  16.115  1.00  0.00     0.186 C 
HETATM   16  C9  UNL     1      15.573   4.992  17.256  1.00  0.00     0.033 C 
HETATM   17  C10 UNL     1      15.041   3.928  18.181  1.00  0.00     0.002 C 
HETATM   18  C11 UNL     1      15.140   2.623  17.428  1.00  0.00     0.002 C 
HETATM   19  C12 UNL     1      16.262   2.828  16.425  1.00  0.00     0.033 C 
ENDBRANCH  12  15
ENDBRANCH   8  12
TORSDOF 2
ENDMDL
MODEL 5
REMARK VINA RESULT: -6.086158896      1.290      2.464
REMARK  2 active torsions:
REMARK  status: ('A' for Active; 'I' for Inactive)
REMARK    1  A    between atoms: C7_8  and  N2_9 
REMARK    2  A    between atoms: N2_9  and  C8_12 
ROOT
HETATM    1  C1  UNL     1      18.981   8.770  12.024  1.00  0.00     0.310 C 
HETATM    2  N1  UNL     1      17.999   8.162  12.885  1.00  0.00     0.089 N 
HETATM    3  C2  UNL     1      16.664   8.209  12.366  1.00  0.00     0.277 C 
HETATM    4  C3  UNL     1      15.676   8.929  13.191  1.00  0.00     0.024 C 
HETATM    5  C4  UNL     1      16.177  10.113  13.950  1.00  0.00    -0.006 C 
HETATM    6  C5  UNL     1      15.181   9.734  15.042  1.00  0.00     0.012 C 
HETATM    7  C6  UNL     1      15.203   8.335  14.431  1.00  0.00     0.023 C 
HETATM    8  C7  UNL     1      16.048   7.477  15.254  1.00  0.00     0.193 C 
HETATM    9  C13 UNL     1      17.511   7.516  15.108  1.00  0.00     0.069 C 
HETATM   10  C14 UNL     1      18.092   8.591  14.257  1.00  0.00     0.224 C 
HETATM   11  C15 UNL     1      17.554   9.962  14.506  1.00  0.00     0.041 C 
ENDROOT
BRANCH   8  12
HETATM   12  N2  UNL     1      15.582   6.097  15.099  1.00  0.00    -0.066 N 
ATOM     13  H22 UNL     1      14.594   6.069  14.846  1.00  0.00     0.278 HD
ATOM     14  H21 UNL     1      15.976   5.667  14.262  1.00  0.00     0.278 HD
BRANCH  12  15
HETATM   15  C8  UNL     1      15.841   5.298  16.265  1.00  0.00     0.186 C 
HETATM   16  C9  UNL     1      16.520   3.995  15.973  1.00  0.00     0.033 C 
HETATM   17  C10 UNL     1      15.715   2.908  16.635  1.00  0.00     0.002 C 
HETATM   18  C11 UNL     1      14.744   3.602  17.561  1.00  0.00     0.002 C 
HETATM   19  C12 UNL     1      14.550   4.986  16.967  1.00  0.00     0.033 C 
ENDBRANCH  12  15
ENDBRANCH   8  12
TORSDOF 2
ENDMDL
