MODEL 1
REMARK VINA RESULT: -6.235288077      0.000      0.000
REMARK  4 active torsions:
REMARK  status: ('A' for Active; 'I' for Inactive)
REMARK    1  A    between atoms: C2_3  and  C3_4 
REMARK    2  A    between atoms: N2_6  and  C5_7 
REMARK    3  A    between atoms: C5_7  and  N3_9 
REMARK    4  A    between atoms: N3_9  and  C6_11 
ROOT
HETATM    1  N1  UNL     1      17.152   2.492  13.341  1.00  0.00    -0.197 NA
HETATM    2  C1  UNL     1      16.796   3.278  12.588  1.00  0.00     0.061 C 
HETATM    3  C2  UNL     1      16.323   4.275  11.606  1.00  0.00     0.150 C 
ENDROOT
BRANCH   3   4
HETATM    4  C3  UNL     1      17.145   5.527  11.738  1.00  0.00     0.117 A 
HETATM    5  C4  UNL     1      18.552   5.437  11.891  1.00  0.00     0.152 A 
HETATM    6  N2  UNL     1      17.700   5.812  13.049  1.00  0.00    -0.349 N 
BRANCH   6   7
HETATM    7  C5  UNL     1      17.686   6.161  14.410  1.00  0.00     0.170 C 
HETATM    8  S1  UNL     1      17.673   7.725  14.858  1.00  0.00    -0.041 SA
BRANCH   7   9
HETATM    9  N3  UNL     1      17.697   5.168  15.405  1.00  0.00    -0.362 N 
ATOM     10  H3  UNL     1      18.564   4.642  15.510  1.00  0.00     0.162 HD
BRANCH   9  11
HETATM   11  C6  UNL     1      16.629   4.811  16.285  1.00  0.00     0.083 C 
HETATM   12  C7  UNL     1      15.260   5.064  15.757  1.00  0.00     0.025 C 
HETATM   13  C8  UNL     1      14.323   4.885  16.940  1.00  0.00     0.002 C 
HETATM   14  C9  UNL     1      14.315   3.450  17.318  1.00  0.00     0.000 C 
HETATM   15  C10 UNL     1      15.521   2.668  17.024  1.00  0.00     0.002 C 
HETATM   16  C11 UNL     1      16.783   3.395  16.752  1.00  0.00     0.025 C 
ENDBRANCH   9  11
ENDBRANCH   7   9
ENDBRANCH   6   7
ENDBRANCH   3   4
TORSDOF 4
ENDMDL
MODEL 2
REMARK VINA RESULT: -6.221998242      1.482      1.984
REMARK  4 active torsions:
REMARK  status: ('A' for Active; 'I' for Inactive)
REMARK    1  A    between atoms: C2_3  and  C3_4 
REMARK    2  A    between atoms: N2_6  and  C5_7 
REMARK    3  A    between atoms: C5_7  and  N3_9 
REMARK    4  A    between atoms: N3_9  and  C6_11 
ROOT
HETATM    1  N1  UNL     1      15.546   3.466  10.276  1.00  0.00    -0.197 NA
HETATM    2  C1  UNL     1      16.096   3.796  11.224  1.00  0.00     0.061 C 
HETATM    3  C2  UNL     1      16.798   4.202  12.459  1.00  0.00     0.150 C 
ENDROOT
BRANCH   3   4
HETATM    4  C3  UNL     1      17.259   5.627  12.319  1.00  0.00     0.117 A 
HETATM    5  C4  UNL     1      18.395   6.078  13.038  1.00  0.00     0.152 A 
HETATM    6  N2  UNL     1      17.034   6.504  13.453  1.00  0.00    -0.349 N 
BRANCH   6   7
HETATM    7  C5  UNL     1      16.289   7.261  14.374  1.00  0.00     0.170 C 
HETATM    8  S1  UNL     1      15.945   8.821  14.069  1.00  0.00    -0.041 SA
BRANCH   7   9
HETATM    9  N3  UNL     1      15.841   6.687  15.577  1.00  0.00    -0.362 N 
ATOM     10  H3  UNL     1      15.633   7.334  16.337  1.00  0.00     0.162 HD
BRANCH   9  11
HETATM   11  C6  UNL     1      15.644   5.299  15.854  1.00  0.00     0.083 C 
HETATM   12  C7  UNL     1      16.877   4.538  16.196  1.00  0.00     0.025 C 
HETATM   13  C8  UNL     1      16.478   3.073  16.167  1.00  0.00     0.002 C 
HETATM   14  C9  UNL     1      15.558   2.816  17.303  1.00  0.00     0.000 C 
HETATM   15  C10 UNL     1      14.746   3.940  17.781  1.00  0.00     0.002 C 
HETATM   16  C11 UNL     1      14.581   5.117  16.896  1.00  0.00     0.025 C 
ENDBRANCH   9  11
ENDBRANCH   7   9
ENDBRANCH   6   7
ENDBRANCH   3   4
TORSDOF 4
ENDMDL
MODEL 3
REMARK VINA RESULT: -6.029830490      0.826      1.516
REMARK  4 active torsions:
REMARK  status: ('A' for Active; 'I' for Inactive)
REMARK    1  A    between atoms: C2_3  and  C3_4 
REMARK    2  A    between atoms: N2_6  and  C5_7 
REMARK    3  A    between atoms: C5_7  and  N3_9 
REMARK    4  A    between atoms: N3_9  and  C6_11 
ROOT
HETATM    1  N1  UNL     1      17.166   2.398  13.200  1.00  0.00    -0.197 NA
HETATM    2  C1  UNL     1      16.773   3.232  12.520  1.00  0.00     0.061 C 
HETATM    3  C2  UNL     1      16.251   4.291  11.633  1.00  0.00     0.150 C 
ENDROOT
BRANCH   3   4
HETATM    4  C3  UNL     1      17.129   5.507  11.747  1.00  0.00     0.117 A 
HETATM    5  C4  UNL     1      18.386   5.414  12.397  1.00  0.00     0.152 A 
HETATM    6  N2  UNL     1      17.253   6.106  13.064  1.00  0.00    -0.349 N 
BRANCH   6   7
HETATM    7  C5  UNL     1      16.836   6.798  14.213  1.00  0.00     0.170 C 
HETATM    8  S1  UNL     1      17.631   8.128  14.706  1.00  0.00    -0.041 SA
BRANCH   7   9
HETATM    9  N3  UNL     1      15.735   6.346  14.961  1.00  0.00    -0.362 N 
ATOM     10  H3  UNL     1      14.943   6.985  15.033  1.00  0.00     0.162 HD
BRANCH   9  11
HETATM   11  C6  UNL     1      15.598   5.091  15.631  1.00  0.00     0.083 C 
HETATM   12  C7  UNL     1      16.870   4.488  16.115  1.00  0.00     0.025 C 
HETATM   13  C8  UNL     1      16.523   3.067  16.523  1.00  0.00     0.002 C 
HETATM   14  C9  UNL     1      15.659   3.123  17.729  1.00  0.00     0.000 C 
HETATM   15  C10 UNL     1      14.827   4.319  17.906  1.00  0.00     0.002 C 
HETATM   16  C11 UNL     1      14.585   5.189  16.732  1.00  0.00     0.025 C 
ENDBRANCH   9  11
ENDBRANCH   7   9
ENDBRANCH   6   7
ENDBRANCH   3   4
TORSDOF 4
ENDMDL
MODEL 4
REMARK VINA RESULT: -5.838145308      1.580      1.802
REMARK  4 active torsions:
REMARK  status: ('A' for Active; 'I' for Inactive)
REMARK    1  A    between atoms: C2_3  and  C3_4 
REMARK    2  A    between atoms: N2_6  and  C5_7 
REMARK    3  A    between atoms: C5_7  and  N3_9 
REMARK    4  A    between atoms: N3_9  and  C6_11 
ROOT
HETATM    1  N1  UNL     1      15.456   3.881  10.915  1.00  0.00    -0.197 NA
HETATM    2  C1  UNL     1      16.337   4.193  11.577  1.00  0.00     0.061 C 
HETATM    3  C2  UNL     1      17.477   4.571  12.437  1.00  0.00     0.150 C 
ENDROOT
BRANCH   3   4
HETATM    4  C3  UNL     1      17.554   6.070  12.524  1.00  0.00     0.117 A 
HETATM    5  C4  UNL     1      18.465   6.682  13.421  1.00  0.00     0.152 A 
HETATM    6  N2  UNL     1      17.010   6.687  13.720  1.00  0.00    -0.349 N 
BRANCH   6   7
HETATM    7  C5  UNL     1      16.017   7.089  14.630  1.00  0.00     0.170 C 
HETATM    8  S1  UNL     1      15.831   8.661  15.001  1.00  0.00    -0.041 SA
BRANCH   7   9
HETATM    9  N3  UNL     1      15.179   6.140  15.241  1.00  0.00    -0.362 N 
ATOM     10  H3  UNL     1      14.222   6.090  14.891  1.00  0.00     0.162 HD
BRANCH   9  11
HETATM   11  C6  UNL     1      15.516   5.237  16.296  1.00  0.00     0.083 C 
HETATM   12  C7  UNL     1      14.412   4.929  17.245  1.00  0.00     0.025 C 
HETATM   13  C8  UNL     1      15.061   4.203  18.410  1.00  0.00     0.002 C 
HETATM   14  C9  UNL     1      15.522   2.874  17.936  1.00  0.00     0.000 C 
HETATM   15  C10 UNL     1      15.870   2.749  16.516  1.00  0.00     0.002 C 
HETATM   16  C11 UNL     1      16.128   3.985  15.742  1.00  0.00     0.025 C 
ENDBRANCH   9  11
ENDBRANCH   7   9
ENDBRANCH   6   7
ENDBRANCH   3   4
TORSDOF 4
ENDMDL
MODEL 5
REMARK VINA RESULT: -5.737800025      2.284      3.487
REMARK  4 active torsions:
REMARK  status: ('A' for Active; 'I' for Inactive)
REMARK    1  A    between atoms: C2_3  and  C3_4 
REMARK    2  A    between atoms: N2_6  and  C5_7 
REMARK    3  A    between atoms: C5_7  and  N3_9 
REMARK    4  A    between atoms: N3_9  and  C6_11 
ROOT
HETATM    1  N1  UNL     1      15.206   8.995  12.516  1.00  0.00    -0.197 NA
HETATM    2  C1  UNL     1      15.354   9.108  13.646  1.00  0.00     0.061 C 
HETATM    3  C2  UNL     1      15.524   9.265  15.105  1.00  0.00     0.150 C 
ENDROOT
BRANCH   3   4
HETATM    4  C3  UNL     1      16.913   8.834  15.489  1.00  0.00     0.117 A 
HETATM    5  C4  UNL     1      18.003   9.108  14.625  1.00  0.00     0.152 A 
HETATM    6  N2  UNL     1      17.483   7.722  14.750  1.00  0.00    -0.349 N 
BRANCH   6   7
HETATM    7  C5  UNL     1      17.624   6.390  14.324  1.00  0.00     0.170 C 
HETATM    8  S1  UNL     1      17.656   6.033  12.738  1.00  0.00    -0.041 SA
BRANCH   7   9
HETATM    9  N3  UNL     1      17.726   5.346  15.260  1.00  0.00    -0.362 N 
ATOM     10  H3  UNL     1      18.604   4.827  15.265  1.00  0.00     0.162 HD
BRANCH   9  11
HETATM   11  C6  UNL     1      16.739   4.929  16.206  1.00  0.00     0.083 C 
HETATM   12  C7  UNL     1      15.333   5.251  15.840  1.00  0.00     0.025 C 
HETATM   13  C8  UNL     1      14.510   4.983  17.088  1.00  0.00     0.002 C 
HETATM   14  C9  UNL     1      14.502   3.520  17.338  1.00  0.00     0.000 C 
HETATM   15  C10 UNL     1      15.654   2.748  16.860  1.00  0.00     0.002 C 
HETATM   16  C11 UNL     1      16.902   3.475  16.531  1.00  0.00     0.025 C 
ENDBRANCH   9  11
ENDBRANCH   7   9
ENDBRANCH   6   7
ENDBRANCH   3   4
TORSDOF 4
ENDMDL
