MODEL 1
REMARK VINA RESULT: -5.149240448      0.000      0.000
REMARK  3 active torsions:
REMARK  status: ('A' for Active; 'I' for Inactive)
REMARK    1  A    between atoms: N1_2  and  C2_4 
REMARK    2  A    between atoms: C2_4  and  C3_6 
REMARK    3  A    between atoms: N2_10  and  C7_11 
ROOT
HETATM    1  C3  UNL     1      17.744   5.168  12.450  1.00  0.00     0.284 C 
HETATM    2  C4  UNL     1      17.876   5.872  11.129  1.00  0.00     0.045 C 
HETATM    3  C5  UNL     1      17.223   7.239  11.308  1.00  0.00     0.033 C 
HETATM    4  C6  UNL     1      17.379   7.356  12.811  1.00  0.00     0.274 C 
HETATM    5  N2  UNL     1      16.856   6.030  13.223  1.00  0.00     0.104 N 
ENDROOT
BRANCH   5   6
HETATM    6  C7  UNL     1      16.988   5.934  14.637  1.00  0.00     0.227 C 
HETATM    7  C8  UNL     1      16.818   7.178  15.435  1.00  0.00     0.036 C 
HETATM    8  C9  UNL     1      15.386   7.179  15.952  1.00  0.00     0.002 C 
HETATM    9  C10 UNL     1      14.932   5.747  15.881  1.00  0.00     0.006 C 
HETATM   10  C11 UNL     1      16.123   4.965  15.351  1.00  0.00     0.015 C 
HETATM   11  C12 UNL     1      16.892   4.489  16.577  1.00  0.00     0.012 C 
ENDBRANCH   5   6
BRANCH   1  12
HETATM   12  C2  UNL     1      17.125   3.845  12.214  1.00  0.00     0.106 C 
HETATM   13  S1  UNL     1      16.022   3.689  11.027  1.00  0.00    -0.063 SA
BRANCH  12  14
HETATM   14  N1  UNL     1      17.413   2.656  12.940  1.00  0.00    -0.387 N 
HETATM   15  C1  UNL     1      17.176   1.330  12.345  1.00  0.00     0.147 C 
ATOM     16  H1  UNL     1      17.789   2.723  13.885  1.00  0.00     0.159 HD
ENDBRANCH  12  14
ENDBRANCH   1  12
TORSDOF 3
ENDMDL
MODEL 2
REMARK VINA RESULT: -5.137759738      2.014      3.931
REMARK  3 active torsions:
REMARK  status: ('A' for Active; 'I' for Inactive)
REMARK    1  A    between atoms: N1_2  and  C2_4 
REMARK    2  A    between atoms: C2_4  and  C3_6 
REMARK    3  A    between atoms: N2_10  and  C7_11 
ROOT
HETATM    1  C3  UNL     1      15.400   4.662  15.154  1.00  0.00     0.284 C 
HETATM    2  C4  UNL     1      14.753   4.035  16.357  1.00  0.00     0.045 C 
HETATM    3  C5  UNL     1      14.734   5.110  17.439  1.00  0.00     0.033 C 
HETATM    4  C6  UNL     1      14.785   6.326  16.535  1.00  0.00     0.274 C 
HETATM    5  N2  UNL     1      15.910   5.936  15.650  1.00  0.00     0.104 N 
ENDROOT
BRANCH   5   6
HETATM    6  C7  UNL     1      16.065   6.957  14.671  1.00  0.00     0.227 C 
HETATM    7  C8  UNL     1      15.402   8.265  14.924  1.00  0.00     0.036 C 
HETATM    8  C9  UNL     1      16.462   9.191  15.503  1.00  0.00     0.002 C 
HETATM    9  C10 UNL     1      17.783   8.590  15.105  1.00  0.00     0.006 C 
HETATM   10  C11 UNL     1      17.441   7.353  14.291  1.00  0.00     0.015 C 
HETATM   11  C12 UNL     1      17.396   7.807  12.837  1.00  0.00     0.012 C 
ENDBRANCH   5   6
BRANCH   1  12
HETATM   12  C2  UNL     1      16.505   3.785  14.707  1.00  0.00     0.106 C 
HETATM   13  S1  UNL     1      16.974   2.556  15.665  1.00  0.00    -0.063 SA
BRANCH  12  14
HETATM   14  N1  UNL     1      17.215   3.910  13.481  1.00  0.00    -0.387 N 
HETATM   15  C1  UNL     1      16.498   4.060  12.204  1.00  0.00     0.147 C 
ATOM     16  H1  UNL     1      18.234   3.897  13.487  1.00  0.00     0.159 HD
ENDBRANCH  12  14
ENDBRANCH   1  12
TORSDOF 3
ENDMDL
MODEL 3
REMARK VINA RESULT: -5.016889232      1.328      3.541
REMARK  3 active torsions:
REMARK  status: ('A' for Active; 'I' for Inactive)
REMARK    1  A    between atoms: N1_2  and  C2_4 
REMARK    2  A    between atoms: C2_4  and  C3_6 
REMARK    3  A    between atoms: N2_10  and  C7_11 
ROOT
HETATM    1  C3  UNL     1      16.413   4.602  13.994  1.00  0.00     0.284 C 
HETATM    2  C4  UNL     1      16.252   3.803  15.257  1.00  0.00     0.045 C 
HETATM    3  C5  UNL     1      17.155   4.460  16.295  1.00  0.00     0.033 C 
HETATM    4  C6  UNL     1      17.205   5.848  15.689  1.00  0.00     0.274 C 
HETATM    5  N2  UNL     1      17.526   5.499  14.284  1.00  0.00     0.104 N 
ENDROOT
BRANCH   5   6
HETATM    6  C7  UNL     1      17.550   6.708  13.532  1.00  0.00     0.227 C 
HETATM    7  C8  UNL     1      17.637   7.989  14.284  1.00  0.00     0.036 C 
HETATM    8  C9  UNL     1      19.102   8.405  14.276  1.00  0.00     0.002 C 
HETATM    9  C10 UNL     1      19.726   7.661  13.128  1.00  0.00     0.006 C 
HETATM   10  C11 UNL     1      18.598   6.862  12.496  1.00  0.00     0.015 C 
HETATM   11  C12 UNL     1      18.021   7.745  11.397  1.00  0.00     0.012 C 
ENDBRANCH   5   6
BRANCH   1  12
HETATM   12  C2  UNL     1      16.752   3.673  12.894  1.00  0.00     0.106 C 
HETATM   13  S1  UNL     1      16.175   3.972  11.402  1.00  0.00    -0.063 SA
BRANCH  12  14
HETATM   14  N1  UNL     1      17.565   2.512  13.013  1.00  0.00    -0.387 N 
HETATM   15  C1  UNL     1      17.196   1.257  12.337  1.00  0.00     0.147 C 
ATOM     16  H1  UNL     1      18.415   2.549  13.576  1.00  0.00     0.159 HD
ENDBRANCH  12  14
ENDBRANCH   1  12
TORSDOF 3
ENDMDL
MODEL 4
REMARK VINA RESULT: -5.011461999      1.572      3.572
REMARK  3 active torsions:
REMARK  status: ('A' for Active; 'I' for Inactive)
REMARK    1  A    between atoms: N1_2  and  C2_4 
REMARK    2  A    between atoms: C2_4  and  C3_6 
REMARK    3  A    between atoms: N2_10  and  C7_11 
ROOT
HETATM    1  C3  UNL     1      16.255   4.855  14.042  1.00  0.00     0.284 C 
HETATM    2  C4  UNL     1      16.539   3.726  14.992  1.00  0.00     0.045 C 
HETATM    3  C5  UNL     1      16.959   4.372  16.308  1.00  0.00     0.033 C 
HETATM    4  C6  UNL     1      16.267   5.708  16.122  1.00  0.00     0.274 C 
HETATM    5  N2  UNL     1      16.726   6.040  14.751  1.00  0.00     0.104 N 
ENDROOT
BRANCH   5   6
HETATM    6  C7  UNL     1      16.108   7.265  14.373  1.00  0.00     0.227 C 
HETATM    7  C8  UNL     1      15.559   8.127  15.455  1.00  0.00     0.036 C 
HETATM    8  C9  UNL     1      16.609   9.189  15.748  1.00  0.00     0.002 C 
HETATM    9  C10 UNL     1      17.485   9.238  14.527  1.00  0.00     0.006 C 
HETATM   10  C11 UNL     1      16.898   8.221  13.561  1.00  0.00     0.015 C 
HETATM   11  C12 UNL     1      15.916   8.991  12.687  1.00  0.00     0.012 C 
ENDBRANCH   5   6
BRANCH   1  12
HETATM   12  C2  UNL     1      17.035   4.632  12.804  1.00  0.00     0.106 C 
HETATM   13  S1  UNL     1      16.298   3.967  11.515  1.00  0.00    -0.063 SA
BRANCH  12  14
HETATM   14  N1  UNL     1      18.406   4.960  12.622  1.00  0.00    -0.387 N 
HETATM   15  C1  UNL     1      18.815   5.996  11.658  1.00  0.00     0.147 C 
ATOM     16  H1  UNL     1      19.117   4.471  13.166  1.00  0.00     0.159 HD
ENDBRANCH  12  14
ENDBRANCH   1  12
TORSDOF 3
ENDMDL
MODEL 5
REMARK VINA RESULT: -4.992623083      1.966      3.802
REMARK  3 active torsions:
REMARK  status: ('A' for Active; 'I' for Inactive)
REMARK    1  A    between atoms: N1_2  and  C2_4 
REMARK    2  A    between atoms: C2_4  and  C3_6 
REMARK    3  A    between atoms: N2_10  and  C7_11 
ROOT
HETATM    1  C3  UNL     1      15.746   5.034  14.737  1.00  0.00     0.284 C 
HETATM    2  C4  UNL     1      14.738   5.016  15.851  1.00  0.00     0.045 C 
HETATM    3  C5  UNL     1      14.909   6.333  16.602  1.00  0.00     0.033 C 
HETATM    4  C6  UNL     1      15.518   7.145  15.476  1.00  0.00     0.274 C 
HETATM    5  N2  UNL     1      16.571   6.202  15.026  1.00  0.00     0.104 N 
ENDROOT
BRANCH   5   6
HETATM    6  C7  UNL     1      17.222   6.785  13.902  1.00  0.00     0.227 C 
HETATM    7  C8  UNL     1      17.178   8.266  13.768  1.00  0.00     0.036 C 
HETATM    8  C9  UNL     1      18.492   8.798  14.321  1.00  0.00     0.002 C 
HETATM    9  C10 UNL     1      19.444   7.634  14.287  1.00  0.00     0.006 C 
HETATM   10  C11 UNL     1      18.656   6.478  13.692  1.00  0.00     0.015 C 
HETATM   11  C12 UNL     1      18.914   6.522  12.192  1.00  0.00     0.012 C 
ENDBRANCH   5   6
BRANCH   1  12
HETATM   12  C2  UNL     1      16.544   3.790  14.810  1.00  0.00     0.106 C 
HETATM   13  S1  UNL     1      16.791   3.093  16.260  1.00  0.00    -0.063 SA
BRANCH  12  14
HETATM   14  N1  UNL     1      17.129   3.118  13.702  1.00  0.00    -0.387 N 
HETATM   15  C1  UNL     1      16.707   3.421  12.324  1.00  0.00     0.147 C 
ATOM     16  H1  UNL     1      17.850   2.415  13.863  1.00  0.00     0.159 HD
ENDBRANCH  12  14
ENDBRANCH   1  12
TORSDOF 3
ENDMDL
