MODEL 1
REMARK VINA RESULT: -5.663169418      0.000      0.000
REMARK  3 active torsions:
REMARK  status: ('A' for Active; 'I' for Inactive)
REMARK    1  A    between atoms: C2_2  and  C3_3 
REMARK    2  A    between atoms: C7_7  and  C8_8 
REMARK    3  A    between atoms: C8_8  and  O1_9 
ROOT
HETATM    1  C3  UNL     1      15.220   5.036  17.037  1.00  0.00    -0.013 C 
HETATM    2  C4  UNL     1      16.412   4.207  16.874  1.00  0.00     0.005 C 
HETATM    3  C5  UNL     1      17.154   4.364  15.562  1.00  0.00     0.008 C 
HETATM    4  C6  UNL     1      17.264   5.807  15.308  1.00  0.00     0.021 C 
HETATM    5  C7  UNL     1      18.013   6.266  14.129  1.00  0.00     0.077 C 
HETATM    6  C9  UNL     1      17.391   7.653  13.945  1.00  0.00     0.129 C 
HETATM    7  N1  UNL     1      16.029   7.423  14.254  1.00  0.00    -0.411 N 
HETATM    8  C10 UNL     1      15.258   8.561  14.608  1.00  0.00     0.143 C 
HETATM    9  C11 UNL     1      15.830   6.246  14.957  1.00  0.00     0.084 C 
HETATM   10  C12 UNL     1      15.128   6.296  16.257  1.00  0.00     0.029 C 
ENDROOT
BRANCH   5  11
HETATM   11  C8  UNL     1      17.791   5.519  12.896  1.00  0.00     0.116 C 
HETATM   12  S1  UNL     1      17.497   6.221  11.455  1.00  0.00    -0.057 SA
BRANCH  11  13
HETATM   13  O1  UNL     1      17.826   4.135  12.919  1.00  0.00    -0.354 OA
ATOM     14  H1  UNL     1      17.038   3.643  12.722  1.00  0.00     0.218 HD
ENDBRANCH  11  13
ENDBRANCH   5  11
BRANCH   1  15
HETATM   15  C2  UNL     1      13.975   4.189  16.748  1.00  0.00     0.000 C 
HETATM   16  C1  UNL     1      14.172   2.823  17.367  1.00  0.00     0.005 C 
ENDBRANCH   1  15
TORSDOF 3
ENDMDL
MODEL 2
REMARK VINA RESULT: -5.494811455      1.118      1.118
REMARK  3 active torsions:
REMARK  status: ('A' for Active; 'I' for Inactive)
REMARK    1  A    between atoms: C2_2  and  C3_3 
REMARK    2  A    between atoms: C7_7  and  C8_8 
REMARK    3  A    between atoms: C8_8  and  O1_9 
ROOT
HETATM    1  C3  UNL     1      15.435   4.854  17.051  1.00  0.00    -0.013 C 
HETATM    2  C4  UNL     1      16.407   3.877  16.565  1.00  0.00     0.005 C 
HETATM    3  C5  UNL     1      16.824   4.022  15.116  1.00  0.00     0.008 C 
HETATM    4  C6  UNL     1      17.093   5.450  14.893  1.00  0.00     0.021 C 
HETATM    5  C7  UNL     1      17.597   5.882  13.581  1.00  0.00     0.077 C 
HETATM    6  C9  UNL     1      17.173   7.353  13.608  1.00  0.00     0.129 C 
HETATM    7  N1  UNL     1      15.909   7.298  14.241  1.00  0.00    -0.411 N 
HETATM    8  C10 UNL     1      15.434   8.506  14.816  1.00  0.00     0.143 C 
HETATM    9  C11 UNL     1      15.705   6.114  14.929  1.00  0.00     0.084 C 
HETATM   10  C12 UNL     1      15.355   6.168  16.365  1.00  0.00     0.029 C 
ENDROOT
BRANCH   5  11
HETATM   11  C8  UNL     1      16.968   5.266  12.417  1.00  0.00     0.116 C 
HETATM   12  S1  UNL     1      16.793   3.657  12.232  1.00  0.00    -0.057 SA
BRANCH  11  13
HETATM   13  O1  UNL     1      16.483   6.067  11.397  1.00  0.00    -0.354 OA
ATOM     14  H1  UNL     1      16.143   5.666  10.607  1.00  0.00     0.218 HD
ENDBRANCH  11  13
ENDBRANCH   5  11
BRANCH   1  15
HETATM   15  C2  UNL     1      14.041   4.217  17.054  1.00  0.00     0.000 C 
HETATM   16  C1  UNL     1      14.181   2.763  17.446  1.00  0.00     0.005 C 
ENDBRANCH   1  15
TORSDOF 3
ENDMDL
MODEL 3
REMARK VINA RESULT: -5.430023910      1.921      2.788
REMARK  3 active torsions:
REMARK  status: ('A' for Active; 'I' for Inactive)
REMARK    1  A    between atoms: C2_2  and  C3_3 
REMARK    2  A    between atoms: C7_7  and  C8_8 
REMARK    3  A    between atoms: C8_8  and  O1_9 
ROOT
HETATM    1  C3  UNL     1      14.989   5.231  15.832  1.00  0.00    -0.013 C 
HETATM    2  C4  UNL     1      15.209   6.675  15.887  1.00  0.00     0.005 C 
HETATM    3  C5  UNL     1      16.441   7.186  15.168  1.00  0.00     0.008 C 
HETATM    4  C6  UNL     1      16.473   6.521  13.858  1.00  0.00     0.021 C 
HETATM    5  C7  UNL     1      17.530   6.885  12.902  1.00  0.00     0.077 C 
HETATM    6  C9  UNL     1      17.539   5.627  12.029  1.00  0.00     0.129 C 
HETATM    7  N1  UNL     1      17.341   4.594  12.975  1.00  0.00    -0.411 N 
HETATM    8  C10 UNL     1      16.865   3.355  12.472  1.00  0.00     0.143 C 
HETATM    9  C11 UNL     1      16.831   5.058  14.177  1.00  0.00     0.084 C 
HETATM   10  C12 UNL     1      15.578   4.473  14.699  1.00  0.00     0.029 C 
ENDROOT
BRANCH   5  11
HETATM   11  C8  UNL     1      18.869   7.045  13.456  1.00  0.00     0.116 C 
HETATM   12  S1  UNL     1      19.388   8.406  14.186  1.00  0.00    -0.057 SA
BRANCH  11  13
HETATM   13  O1  UNL     1      19.774   6.000  13.372  1.00  0.00    -0.354 OA
ATOM     14  H1  UNL     1      19.684   5.254  13.953  1.00  0.00     0.218 HD
ENDBRANCH  11  13
ENDBRANCH   5  11
BRANCH   1  15
HETATM   15  C2  UNL     1      15.467   4.599  17.145  1.00  0.00     0.000 C 
HETATM   16  C1  UNL     1      14.702   3.312  17.362  1.00  0.00     0.005 C 
ENDBRANCH   1  15
TORSDOF 3
ENDMDL
MODEL 4
REMARK VINA RESULT: -5.341323816      2.286      3.141
REMARK  3 active torsions:
REMARK  status: ('A' for Active; 'I' for Inactive)
REMARK    1  A    between atoms: C2_2  and  C3_3 
REMARK    2  A    between atoms: C7_7  and  C8_8 
REMARK    3  A    between atoms: C8_8  and  O1_9 
ROOT
HETATM    1  C3  UNL     1      15.550   4.564  15.761  1.00  0.00    -0.013 C 
HETATM    2  C4  UNL     1      14.813   5.739  16.222  1.00  0.00     0.005 C 
HETATM    3  C5  UNL     1      15.446   7.081  15.916  1.00  0.00     0.008 C 
HETATM    4  C6  UNL     1      15.882   7.033  14.513  1.00  0.00     0.021 C 
HETATM    5  C7  UNL     1      16.470   8.239  13.910  1.00  0.00     0.077 C 
HETATM    6  C9  UNL     1      17.264   7.601  12.767  1.00  0.00     0.129 C 
HETATM    7  N1  UNL     1      17.765   6.419  13.362  1.00  0.00    -0.411 N 
HETATM    8  C10 UNL     1      18.171   5.386  12.477  1.00  0.00     0.143 C 
HETATM    9  C11 UNL     1      17.083   6.069  14.516  1.00  0.00     0.084 C 
HETATM   10  C12 UNL     1      16.479   4.723  14.613  1.00  0.00     0.029 C 
ENDROOT
BRANCH   5  11
HETATM   11  C8  UNL     1      17.413   8.978  14.741  1.00  0.00     0.116 C 
HETATM   12  S1  UNL     1      18.945   9.309  14.293  1.00  0.00    -0.057 SA
BRANCH  11  13
HETATM   13  O1  UNL     1      17.016   9.438  15.985  1.00  0.00    -0.354 OA
ATOM     14  H1  UNL     1      17.314  10.286  16.289  1.00  0.00     0.218 HD
ENDBRANCH  11  13
ENDBRANCH   5  11
BRANCH   1  15
HETATM   15  C2  UNL     1      16.325   3.963  16.939  1.00  0.00     0.000 C 
HETATM   16  C1  UNL     1      15.365   3.764  18.091  1.00  0.00     0.005 C 
ENDBRANCH   1  15
TORSDOF 3
ENDMDL
MODEL 5
REMARK VINA RESULT: -5.336303411      1.954      2.758
REMARK  3 active torsions:
REMARK  status: ('A' for Active; 'I' for Inactive)
REMARK    1  A    between atoms: C2_2  and  C3_3 
REMARK    2  A    between atoms: C7_7  and  C8_8 
REMARK    3  A    between atoms: C8_8  and  O1_9 
ROOT
HETATM    1  C3  UNL     1      15.379   5.278  15.596  1.00  0.00    -0.013 C 
HETATM    2  C4  UNL     1      16.037   6.555  15.867  1.00  0.00     0.005 C 
HETATM    3  C5  UNL     1      17.283   6.844  15.056  1.00  0.00     0.008 C 
HETATM    4  C6  UNL     1      16.970   6.498  13.662  1.00  0.00     0.021 C 
HETATM    5  C7  UNL     1      17.981   6.751  12.624  1.00  0.00     0.077 C 
HETATM    6  C9  UNL     1      17.511   5.763  11.553  1.00  0.00     0.129 C 
HETATM    7  N1  UNL     1      17.105   4.646  12.322  1.00  0.00    -0.411 N 
HETATM    8  C10 UNL     1      16.221   3.731  11.694  1.00  0.00     0.143 C 
HETATM    9  C11 UNL     1      16.892   4.961  13.654  1.00  0.00     0.084 C 
HETATM   10  C12 UNL     1      15.582   4.651  14.265  1.00  0.00     0.029 C 
ENDROOT
BRANCH   5  11
HETATM   11  C8  UNL     1      19.356   6.405  12.967  1.00  0.00     0.116 C 
HETATM   12  S1  UNL     1      20.490   6.010  11.866  1.00  0.00    -0.057 SA
BRANCH  11  13
HETATM   13  O1  UNL     1      19.749   6.403  14.295  1.00  0.00    -0.354 OA
ATOM     14  H1  UNL     1      19.427   5.728  14.879  1.00  0.00     0.218 HD
ENDBRANCH  11  13
ENDBRANCH   5  11
BRANCH   1  15
HETATM   15  C2  UNL     1      15.774   4.268  16.679  1.00  0.00     0.000 C 
HETATM   16  C1  UNL     1      14.544   3.479  17.068  1.00  0.00     0.005 C 
ENDBRANCH   1  15
TORSDOF 3
ENDMDL
