MODEL 1
REMARK VINA RESULT: -6.611493117      0.000      0.000
REMARK  2 active torsions:
REMARK  status: ('A' for Active; 'I' for Inactive)
REMARK       I    between atoms: C1_2  and  N1_3 
REMARK    1  A    between atoms: C1_2  and  C7_10 
REMARK    2  A    between atoms: N1_3  and  C2_5 
ROOT
HETATM    1  C7  UNL     1      16.623   5.593  14.219  1.00  0.00     0.206 C 
HETATM    2  C8  UNL     1      18.073   5.770  14.601  1.00  0.00     0.053 C 
HETATM    3  C9  UNL     1      18.449   7.205  14.368  1.00  0.00    -0.009 C 
HETATM    4  C10 UNL     1      17.635   8.118  15.277  1.00  0.00     0.009 C 
HETATM    5  C11 UNL     1      16.177   7.960  14.922  1.00  0.00    -0.009 C 
HETATM    6  C12 UNL     1      15.895   8.268  13.477  1.00  0.00     0.037 C 
HETATM    7  C13 UNL     1      16.754   7.385  12.613  1.00  0.00     0.188 C 
HETATM    8  C14 UNL     1      18.194   7.656  12.959  1.00  0.00     0.037 C 
HETATM    9  N2  UNL     1      16.444   6.008  12.865  1.00  0.00    -0.053 N 
ATOM     10  H21 UNL     1      15.496   5.795  12.553  1.00  0.00     0.279 HD
ATOM     11  H22 UNL     1      16.976   5.405  12.237  1.00  0.00     0.279 HD
HETATM   12  C15 UNL     1      15.825   6.502  15.165  1.00  0.00     0.053 C 
ENDROOT
BRANCH   1  13
HETATM   13  C1  UNL     1      16.123   4.235  14.413  1.00  0.00     0.254 C 
HETATM   14  O1  UNL     1      15.922   3.529  13.372  1.00  0.00    -0.271 OA
HETATM   15  N1  UNL     1      15.856   3.674  15.707  1.00  0.00    -0.354 N 
ATOM     16  H1  UNL     1      16.013   4.226  16.551  1.00  0.00     0.162 HD
BRANCH  15  17
HETATM   17  C2  UNL     1      15.370   2.340  15.799  1.00  0.00     0.084 C 
HETATM   18  C3  UNL     1      16.374   1.430  16.478  1.00  0.00     0.025 C 
HETATM   19  C4  UNL     1      15.846   1.273  17.874  1.00  0.00     0.002 C 
HETATM   20  C5  UNL     1      14.350   1.222  17.646  1.00  0.00     0.002 C 
HETATM   21  C6  UNL     1      14.077   2.213  16.561  1.00  0.00     0.025 C 
ENDBRANCH  15  17
ENDBRANCH   1  13
TORSDOF 2
ENDMDL
MODEL 2
REMARK VINA RESULT: -6.397989750      0.767      1.454
REMARK  2 active torsions:
REMARK  status: ('A' for Active; 'I' for Inactive)
REMARK       I    between atoms: C1_2  and  N1_3 
REMARK    1  A    between atoms: C1_2  and  C7_10 
REMARK    2  A    between atoms: N1_3  and  C2_5 
ROOT
HETATM    1  C7  UNL     1      16.214   5.661  14.060  1.00  0.00     0.206 C 
HETATM    2  C8  UNL     1      16.746   5.908  12.670  1.00  0.00     0.053 C 
HETATM    3  C9  UNL     1      16.975   7.383  12.508  1.00  0.00    -0.009 C 
HETATM    4  C10 UNL     1      18.044   7.861  13.484  1.00  0.00     0.009 C 
HETATM    5  C11 UNL     1      17.543   7.622  14.887  1.00  0.00    -0.009 C 
HETATM    6  C12 UNL     1      16.234   8.311  15.160  1.00  0.00     0.037 C 
HETATM    7  C13 UNL     1      15.220   7.855  14.147  1.00  0.00     0.188 C 
HETATM    8  C14 UNL     1      15.745   8.200  12.778  1.00  0.00     0.037 C 
HETATM    9  N2  UNL     1      15.032   6.437  14.252  1.00  0.00    -0.053 N 
ATOM     10  H21 UNL     1      14.597   6.203  15.145  1.00  0.00     0.279 HD
ATOM     11  H22 UNL     1      14.299   6.129  13.613  1.00  0.00     0.279 HD
HETATM   12  C15 UNL     1      17.318   6.125  15.022  1.00  0.00     0.053 C 
ENDROOT
BRANCH   1  13
HETATM   13  C1  UNL     1      15.961   4.253  14.354  1.00  0.00     0.254 C 
HETATM   14  O1  UNL     1      16.105   3.420  13.402  1.00  0.00    -0.271 OA
HETATM   15  N1  UNL     1      15.563   3.781  15.650  1.00  0.00    -0.354 N 
ATOM     16  H1  UNL     1      15.443   4.436  16.424  1.00  0.00     0.162 HD
BRANCH  15  17
HETATM   17  C2  UNL     1      15.337   2.389  15.843  1.00  0.00     0.084 C 
HETATM   18  C3  UNL     1      16.405   1.772  16.724  1.00  0.00     0.025 C 
HETATM   19  C4  UNL     1      15.746   1.638  18.066  1.00  0.00     0.002 C 
HETATM   20  C5  UNL     1      14.329   1.259  17.689  1.00  0.00     0.002 C 
HETATM   21  C6  UNL     1      14.009   2.068  16.474  1.00  0.00     0.025 C 
ENDBRANCH  15  17
ENDBRANCH   1  13
TORSDOF 2
ENDMDL
MODEL 3
REMARK VINA RESULT: -6.376390390      0.785      1.678
REMARK  2 active torsions:
REMARK  status: ('A' for Active; 'I' for Inactive)
REMARK       I    between atoms: C1_2  and  N1_3 
REMARK    1  A    between atoms: C1_2  and  C7_10 
REMARK    2  A    between atoms: N1_3  and  C2_5 
ROOT
HETATM    1  C7  UNL     1      16.849   5.731  14.337  1.00  0.00     0.206 C 
HETATM    2  C8  UNL     1      16.311   6.737  15.324  1.00  0.00     0.053 C 
HETATM    3  C9  UNL     1      16.960   8.063  15.047  1.00  0.00    -0.009 C 
HETATM    4  C10 UNL     1      16.578   8.557  13.656  1.00  0.00     0.009 C 
HETATM    5  C11 UNL     1      17.099   7.566  12.644  1.00  0.00    -0.009 C 
HETATM    6  C12 UNL     1      18.587   7.365  12.742  1.00  0.00     0.037 C 
HETATM    7  C13 UNL     1      18.931   6.930  14.140  1.00  0.00     0.188 C 
HETATM    8  C14 UNL     1      18.461   8.001  15.088  1.00  0.00     0.037 C 
HETATM    9  N2  UNL     1      18.272   5.691  14.439  1.00  0.00    -0.053 N 
ATOM     10  H21 UNL     1      18.648   4.941  13.858  1.00  0.00     0.279 HD
ATOM     11  H22 UNL     1      18.551   5.356  15.362  1.00  0.00     0.279 HD
HETATM   12  C15 UNL     1      16.429   6.236  12.949  1.00  0.00     0.053 C 
ENDROOT
BRANCH   1  13
HETATM   13  C1  UNL     1      16.283   4.393  14.490  1.00  0.00     0.254 C 
HETATM   14  O1  UNL     1      15.819   3.830  13.447  1.00  0.00    -0.271 OA
HETATM   15  N1  UNL     1      16.232   3.702  15.747  1.00  0.00    -0.354 N 
ATOM     16  H1  UNL     1      16.600   4.139  16.592  1.00  0.00     0.162 HD
BRANCH  15  17
HETATM   17  C2  UNL     1      15.661   2.399  15.800  1.00  0.00     0.084 C 
HETATM   18  C3  UNL     1      16.500   1.461  16.644  1.00  0.00     0.025 C 
HETATM   19  C4  UNL     1      15.766   1.380  17.950  1.00  0.00     0.002 C 
HETATM   20  C5  UNL     1      14.319   1.401  17.503  1.00  0.00     0.002 C 
HETATM   21  C6  UNL     1      14.266   2.367  16.364  1.00  0.00     0.025 C 
ENDBRANCH  15  17
ENDBRANCH   1  13
TORSDOF 2
ENDMDL
MODEL 4
REMARK VINA RESULT: -6.254254504      2.014      2.982
REMARK  2 active torsions:
REMARK  status: ('A' for Active; 'I' for Inactive)
REMARK       I    between atoms: C1_2  and  N1_3 
REMARK    1  A    between atoms: C1_2  and  C7_10 
REMARK    2  A    between atoms: N1_3  and  C2_5 
ROOT
HETATM    1  C7  UNL     1      17.646   4.475  13.493  1.00  0.00     0.206 C 
HETATM    2  C8  UNL     1      17.489   3.493  12.357  1.00  0.00     0.053 C 
HETATM    3  C9  UNL     1      17.723   4.225  11.067  1.00  0.00    -0.009 C 
HETATM    4  C10 UNL     1      19.154   4.746  11.008  1.00  0.00     0.009 C 
HETATM    5  C11 UNL     1      19.345   5.728  12.137  1.00  0.00    -0.009 C 
HETATM    6  C12 UNL     1      18.366   6.869  12.085  1.00  0.00     0.037 C 
HETATM    7  C13 UNL     1      16.968   6.315  12.092  1.00  0.00     0.188 C 
HETATM    8  C14 UNL     1      16.821   5.413  10.895  1.00  0.00     0.037 C 
HETATM    9  N2  UNL     1      16.748   5.566  13.295  1.00  0.00    -0.053 N 
ATOM     10  H21 UNL     1      16.760   6.186  14.105  1.00  0.00     0.279 HD
ATOM     11  H22 UNL     1      15.782   5.241  13.337  1.00  0.00     0.279 HD
HETATM   12  C15 UNL     1      19.100   4.964  13.428  1.00  0.00     0.053 C 
ENDROOT
BRANCH   1  13
HETATM   13  C1  UNL     1      17.457   3.884  14.815  1.00  0.00     0.254 C 
HETATM   14  O1  UNL     1      18.461   3.862  15.597  1.00  0.00    -0.271 OA
HETATM   15  N1  UNL     1      16.205   3.338  15.258  1.00  0.00    -0.354 N 
ATOM     16  H1  UNL     1      15.391   3.348  14.644  1.00  0.00     0.162 HD
BRANCH  15  17
HETATM   17  C2  UNL     1      16.115   2.781  16.565  1.00  0.00     0.084 C 
HETATM   18  C3  UNL     1      14.726   2.956  17.146  1.00  0.00     0.025 C 
HETATM   19  C4  UNL     1      14.084   1.610  16.983  1.00  0.00     0.002 C 
HETATM   20  C5  UNL     1      15.240   0.670  17.256  1.00  0.00     0.002 C 
HETATM   21  C6  UNL     1      16.434   1.311  16.626  1.00  0.00     0.025 C 
ENDBRANCH  15  17
ENDBRANCH   1  13
TORSDOF 2
ENDMDL
MODEL 5
REMARK VINA RESULT: -6.169867632      2.041      2.664
REMARK  2 active torsions:
REMARK  status: ('A' for Active; 'I' for Inactive)
REMARK       I    between atoms: C1_2  and  N1_3 
REMARK    1  A    between atoms: C1_2  and  C7_10 
REMARK    2  A    between atoms: N1_3  and  C2_5 
ROOT
HETATM    1  C7  UNL     1      17.986   4.531  13.774  1.00  0.00     0.206 C 
HETATM    2  C8  UNL     1      19.107   5.538  13.859  1.00  0.00     0.053 C 
HETATM    3  C9  UNL     1      19.266   6.180  12.511  1.00  0.00    -0.009 C 
HETATM    4  C10 UNL     1      18.004   6.951  12.143  1.00  0.00     0.009 C 
HETATM    5  C11 UNL     1      16.860   5.970  12.055  1.00  0.00    -0.009 C 
HETATM    6  C12 UNL     1      17.115   4.870  11.062  1.00  0.00     0.037 C 
HETATM    7  C13 UNL     1      18.394   4.167  11.427  1.00  0.00     0.188 C 
HETATM    8  C14 UNL     1      19.503   5.185  11.412  1.00  0.00     0.037 C 
HETATM    9  N2  UNL     1      18.277   3.595  12.737  1.00  0.00    -0.053 N 
ATOM     10  H21 UNL     1      17.586   2.844  12.735  1.00  0.00     0.279 HD
ATOM     11  H22 UNL     1      19.116   3.062  12.966  1.00  0.00     0.279 HD
HETATM   12  C15 UNL     1      16.724   5.334  13.429  1.00  0.00     0.053 C 
ENDROOT
BRANCH   1  13
HETATM   13  C1  UNL     1      17.717   3.840  15.032  1.00  0.00     0.254 C 
HETATM   14  O1  UNL     1      18.698   3.659  15.824  1.00  0.00    -0.271 OA
HETATM   15  N1  UNL     1      16.414   3.366  15.405  1.00  0.00    -0.354 N 
ATOM     16  H1  UNL     1      15.618   3.503  14.782  1.00  0.00     0.162 HD
BRANCH  15  17
HETATM   17  C2  UNL     1      16.247   2.702  16.653  1.00  0.00     0.084 C 
HETATM   18  C3  UNL     1      14.882   2.980  17.250  1.00  0.00     0.025 C 
HETATM   19  C4  UNL     1      14.091   1.738  16.960  1.00  0.00     0.002 C 
HETATM   20  C5  UNL     1      15.129   0.650  17.140  1.00  0.00     0.002 C 
HETATM   21  C6  UNL     1      16.394   1.206  16.572  1.00  0.00     0.025 C 
ENDBRANCH  15  17
ENDBRANCH   1  13
TORSDOF 2
ENDMDL
