MODEL 1
REMARK VINA RESULT: -6.908476856      0.000      0.000
REMARK  2 active torsions:
REMARK  status: ('A' for Active; 'I' for Inactive)
REMARK    1  A    between atoms: C5_5  and  C6_6 
REMARK    2  A    between atoms: C6_6  and  N1_7 
ROOT
HETATM    1  C1  UNL     1      15.453   2.463  18.822  1.00  0.00     0.010 C 
HETATM    2  C2  UNL     1      15.366   1.805  17.484  1.00  0.00    -0.012 C 
HETATM    3  C3  UNL     1      14.197   2.239  16.646  1.00  0.00     0.006 C 
HETATM    4  C4  UNL     1      14.681   3.265  15.678  1.00  0.00     0.017 C 
HETATM    5  C5  UNL     1      16.206   3.046  15.564  1.00  0.00     0.021 C 
HETATM    6  C14 UNL     1      16.400   2.323  14.240  1.00  0.00     0.247 C 
HETATM    7  N2  UNL     1      17.253   1.192  14.550  1.00  0.00    -0.074 N 
ATOM      8  H21 UNL     1      18.252   1.397  14.550  1.00  0.00     0.277 HD
ATOM      9  H22 UNL     1      17.296   0.477  13.824  1.00  0.00     0.277 HD
HETATM   10  C15 UNL     1      16.734   0.742  15.804  1.00  0.00     0.238 C 
HETATM   11  C16 UNL     1      16.574   2.065  16.595  1.00  0.00     0.030 C 
ENDROOT
BRANCH   5  12
HETATM   12  C6  UNL     1      16.817   4.396  15.573  1.00  0.00     0.070 C 
BRANCH  12  13
HETATM   13  N1  UNL     1      16.474   5.357  14.655  1.00  0.00    -0.388 N 
HETATM   14  C7  UNL     1      17.380   5.718  13.641  1.00  0.00     0.127 C 
HETATM   15  C8  UNL     1      17.360   7.230  13.376  1.00  0.00     0.004 C 
HETATM   16  C9  UNL     1      15.967   7.599  12.850  1.00  0.00     0.008 C 
HETATM   17  C13 UNL     1      17.564   8.029  14.634  1.00  0.00     0.008 C 
HETATM   18  C10 UNL     1      14.986   7.117  13.893  1.00  0.00     0.026 C 
HETATM   19  C11 UNL     1      15.703   6.484  15.083  1.00  0.00     0.083 C 
HETATM   20  C12 UNL     1      16.557   7.590  15.661  1.00  0.00     0.026 C 
ENDBRANCH  12  13
ENDBRANCH   5  12
TORSDOF 2
ENDMDL
MODEL 2
REMARK VINA RESULT: -6.783613301      0.962      1.299
REMARK  2 active torsions:
REMARK  status: ('A' for Active; 'I' for Inactive)
REMARK    1  A    between atoms: C5_5  and  C6_6 
REMARK    2  A    between atoms: C6_6  and  N1_7 
ROOT
HETATM    1  C1  UNL     1      15.396   2.243  18.796  1.00  0.00     0.010 C 
HETATM    2  C2  UNL     1      15.302   1.692  17.410  1.00  0.00    -0.012 C 
HETATM    3  C3  UNL     1      14.235   2.316  16.557  1.00  0.00     0.006 C 
HETATM    4  C4  UNL     1      14.881   3.341  15.688  1.00  0.00     0.017 C 
HETATM    5  C5  UNL     1      16.375   2.953  15.624  1.00  0.00     0.021 C 
HETATM    6  C14 UNL     1      16.553   2.303  14.260  1.00  0.00     0.247 C 
HETATM    7  N2  UNL     1      17.254   1.061  14.523  1.00  0.00    -0.074 N 
ATOM      8  H21 UNL     1      18.269   1.147  14.581  1.00  0.00     0.277 HD
ATOM      9  H22 UNL     1      17.253   0.397  13.749  1.00  0.00     0.277 HD
HETATM   10  C15 UNL     1      16.624   0.592  15.717  1.00  0.00     0.238 C 
HETATM   11  C16 UNL     1      16.576   1.868  16.595  1.00  0.00     0.030 C 
ENDROOT
BRANCH   5  12
HETATM   12  C6  UNL     1      17.135   4.218  15.758  1.00  0.00     0.070 C 
BRANCH  12  13
HETATM   13  N1  UNL     1      17.607   4.903  14.666  1.00  0.00    -0.388 N 
HETATM   14  C7  UNL     1      18.987   5.142  14.527  1.00  0.00     0.127 C 
HETATM   15  C8  UNL     1      19.265   6.544  13.967  1.00  0.00     0.004 C 
HETATM   16  C9  UNL     1      18.679   6.611  12.551  1.00  0.00     0.008 C 
HETATM   17  C13 UNL     1      18.578   7.619  14.763  1.00  0.00     0.008 C 
HETATM   18  C10 UNL     1      17.218   6.253  12.687  1.00  0.00     0.026 C 
HETATM   19  C11 UNL     1      16.840   5.991  14.143  1.00  0.00     0.083 C 
HETATM   20  C12 UNL     1      17.112   7.295  14.859  1.00  0.00     0.026 C 
ENDBRANCH  12  13
ENDBRANCH   5  12
TORSDOF 2
ENDMDL
MODEL 3
REMARK VINA RESULT: -6.091312545      1.483      5.631
REMARK  2 active torsions:
REMARK  status: ('A' for Active; 'I' for Inactive)
REMARK    1  A    between atoms: C5_5  and  C6_6 
REMARK    2  A    between atoms: C6_6  and  N1_7 
ROOT
HETATM    1  C1  UNL     1      14.601   7.255  13.375  1.00  0.00     0.010 C 
HETATM    2  C2  UNL     1      15.802   8.090  13.677  1.00  0.00    -0.012 C 
HETATM    3  C3  UNL     1      16.091   8.270  15.141  1.00  0.00     0.006 C 
HETATM    4  C4  UNL     1      17.154   7.296  15.522  1.00  0.00     0.017 C 
HETATM    5  C5  UNL     1      17.876   6.928  14.206  1.00  0.00     0.021 C 
HETATM    6  C14 UNL     1      19.178   7.713  14.242  1.00  0.00     0.247 C 
HETATM    7  N2  UNL     1      19.258   8.370  12.952  1.00  0.00    -0.074 N 
ATOM      8  H21 UNL     1      19.657   7.800  12.206  1.00  0.00     0.277 HD
ATOM      9  H22 UNL     1      19.953   9.115  12.893  1.00  0.00     0.277 HD
HETATM   10  C15 UNL     1      17.909   8.789  12.730  1.00  0.00     0.238 C 
HETATM   11  C16 UNL     1      17.098   7.525  13.112  1.00  0.00     0.030 C 
ENDROOT
BRANCH   5  12
HETATM   12  C6  UNL     1      18.090   5.462  14.251  1.00  0.00     0.070 C 
BRANCH  12  13
HETATM   13  N1  UNL     1      17.290   4.632  14.996  1.00  0.00    -0.388 N 
HETATM   14  C7  UNL     1      17.869   3.629  15.797  1.00  0.00     0.127 C 
HETATM   15  C8  UNL     1      17.050   2.332  15.757  1.00  0.00     0.004 C 
HETATM   16  C9  UNL     1      15.675   2.621  16.369  1.00  0.00     0.008 C 
HETATM   17  C13 UNL     1      16.800   1.862  14.350  1.00  0.00     0.008 C 
HETATM   18  C10 UNL     1      15.097   3.768  15.573  1.00  0.00     0.026 C 
HETATM   19  C11 UNL     1      16.039   4.200  14.452  1.00  0.00     0.083 C 
HETATM   20  C12 UNL     1      16.177   2.983  13.565  1.00  0.00     0.026 C 
ENDBRANCH  12  13
ENDBRANCH   5  12
TORSDOF 2
ENDMDL
MODEL 4
REMARK VINA RESULT: -6.087147684      1.523      5.241
REMARK  2 active torsions:
REMARK  status: ('A' for Active; 'I' for Inactive)
REMARK    1  A    between atoms: C5_5  and  C6_6 
REMARK    2  A    between atoms: C6_6  and  N1_7 
ROOT
HETATM    1  C1  UNL     1      15.751   6.697  15.413  1.00  0.00     0.010 C 
HETATM    2  C2  UNL     1      16.770   6.301  14.395  1.00  0.00    -0.012 C 
HETATM    3  C3  UNL     1      18.094   5.878  14.963  1.00  0.00     0.006 C 
HETATM    4  C4  UNL     1      18.123   4.388  15.003  1.00  0.00     0.017 C 
HETATM    5  C5  UNL     1      17.070   3.922  13.972  1.00  0.00     0.021 C 
HETATM    6  C14 UNL     1      17.878   3.480  12.761  1.00  0.00     0.247 C 
HETATM    7  N2  UNL     1      17.255   4.141  11.631  1.00  0.00    -0.074 N 
ATOM      8  H21 UNL     1      16.452   3.649  11.237  1.00  0.00     0.277 HD
ATOM      9  H22 UNL     1      17.808   4.134  10.773  1.00  0.00     0.277 HD
HETATM   10  C15 UNL     1      16.966   5.441  12.148  1.00  0.00     0.238 C 
HETATM   11  C16 UNL     1      16.344   5.122  13.532  1.00  0.00     0.030 C 
ENDROOT
BRANCH   5  12
HETATM   12  C6  UNL     1      16.337   2.803  14.610  1.00  0.00     0.070 C 
BRANCH  12  13
HETATM   13  N1  UNL     1      16.075   2.778  15.957  1.00  0.00    -0.388 N 
HETATM   14  C7  UNL     1      16.599   1.745  16.757  1.00  0.00     0.127 C 
HETATM   15  C8  UNL     1      15.588   1.283  17.816  1.00  0.00     0.004 C 
HETATM   16  C9  UNL     1      15.326   2.460  18.763  1.00  0.00     0.008 C 
HETATM   17  C13 UNL     1      14.259   0.919  17.212  1.00  0.00     0.008 C 
HETATM   18  C10 UNL     1      14.863   3.603  17.891  1.00  0.00     0.026 C 
HETATM   19  C11 UNL     1      14.787   3.189  16.423  1.00  0.00     0.083 C 
HETATM   20  C12 UNL     1      13.768   2.073  16.382  1.00  0.00     0.026 C 
ENDBRANCH  12  13
ENDBRANCH   5  12
TORSDOF 2
ENDMDL
MODEL 5
REMARK VINA RESULT: -5.973800075      2.048      3.145
REMARK  2 active torsions:
REMARK  status: ('A' for Active; 'I' for Inactive)
REMARK    1  A    between atoms: C5_5  and  C6_6 
REMARK    2  A    between atoms: C6_6  and  N1_7 
ROOT
HETATM    1  C1  UNL     1      15.281   4.203  15.545  1.00  0.00     0.010 C 
HETATM    2  C2  UNL     1      16.630   3.676  15.181  1.00  0.00    -0.012 C 
HETATM    3  C3  UNL     1      16.625   2.612  14.122  1.00  0.00     0.006 C 
HETATM    4  C4  UNL     1      16.955   3.258  12.819  1.00  0.00     0.017 C 
HETATM    5  C5  UNL     1      17.684   4.573  13.177  1.00  0.00     0.021 C 
HETATM    6  C14 UNL     1      19.156   4.285  12.921  1.00  0.00     0.247 C 
HETATM    7  N2  UNL     1      19.841   4.730  14.120  1.00  0.00    -0.074 N 
ATOM      8  H21 UNL     1      20.069   5.724  14.138  1.00  0.00     0.277 HD
ATOM      9  H22 UNL     1      20.803   4.404  14.208  1.00  0.00     0.277 HD
HETATM   10  C15 UNL     1      18.963   4.297  15.161  1.00  0.00     0.238 C 
HETATM   11  C16 UNL     1      17.574   4.738  14.634  1.00  0.00     0.030 C 
ENDROOT
BRANCH   5  12
HETATM   12  C6  UNL     1      17.137   5.608  12.269  1.00  0.00     0.070 C 
BRANCH  12  13
HETATM   13  N1  UNL     1      17.076   6.932  12.627  1.00  0.00    -0.388 N 
HETATM   14  C7  UNL     1      17.850   7.407  13.702  1.00  0.00     0.127 C 
HETATM   15  C8  UNL     1      17.078   8.430  14.546  1.00  0.00     0.004 C 
HETATM   16  C9  UNL     1      16.787   9.649  13.662  1.00  0.00     0.008 C 
HETATM   17  C13 UNL     1      15.742   7.902  14.995  1.00  0.00     0.008 C 
HETATM   18  C10 UNL     1      16.045   9.122  12.456  1.00  0.00     0.026 C 
HETATM   19  C11 UNL     1      15.822   7.615  12.552  1.00  0.00     0.083 C 
HETATM   20  C12 UNL     1      14.977   7.423  13.792  1.00  0.00     0.026 C 
ENDBRANCH  12  13
ENDBRANCH   5  12
TORSDOF 2
ENDMDL
