MODEL 1
REMARK VINA RESULT: -5.999947945      0.000      0.000
REMARK  4 active torsions:
REMARK  status: ('A' for Active; 'I' for Inactive)
REMARK    1  A    between atoms: C2_2  and  N1_4 
REMARK    2  A    between atoms: N1_4  and  C3_6 
REMARK    3  A    between atoms: C3_6  and  C5_8 
REMARK    4  A    between atoms: C5_8  and  N2_10 
ROOT
HETATM    1  C5  UNL     1      16.989   4.208  14.438  1.00  0.00     0.099 C 
HETATM    2  S2  UNL     1      17.714   5.654  14.800  1.00  0.00    -0.063 SA
ENDROOT
BRANCH   1   3
HETATM    3  C3  UNL     1      17.026   3.804  13.016  1.00  0.00     0.139 C 
HETATM    4  C4  UNL     1      17.817   4.796  12.177  1.00  0.00     0.039 C 
BRANCH   3   5
HETATM    5  N1  UNL     1      17.686   2.521  12.826  1.00  0.00    -0.374 N 
ATOM      6  H1  UNL     1      18.645   2.408  13.153  1.00  0.00     0.161 HD
BRANCH   5   7
HETATM    7  C2  UNL     1      17.043   1.424  12.205  1.00  0.00     0.070 C 
HETATM    8  C1  UNL     1      17.226   0.055  12.720  1.00  0.00     0.081 C 
HETATM    9  S1  UNL     1      16.085   1.656  10.902  1.00  0.00    -0.066 SA
ENDBRANCH   5   7
ENDBRANCH   3   5
ENDBRANCH   1   3
BRANCH   1  10
HETATM   10  N2  UNL     1      16.418   3.511  15.478  1.00  0.00    -0.364 N 
HETATM   11  C6  UNL     1      17.147   2.473  16.191  1.00  0.00     0.124 C 
HETATM   12  C7  UNL     1      16.529   1.141  16.257  1.00  0.00     0.021 C 
HETATM   13  C8  UNL     1      15.572   0.764  17.356  1.00  0.00     0.013 C 
HETATM   14  C9  UNL     1      14.251   1.604  17.330  1.00  0.00     0.081 C 
HETATM   15  C10 UNL     1      14.480   2.783  16.609  1.00  0.00    -0.164 C 
HETATM   16  C11 UNL     1      15.001   3.862  15.839  1.00  0.00     0.203 C 
ENDBRANCH   1  10
TORSDOF 4
ENDMDL
MODEL 2
REMARK VINA RESULT: -5.770394540      2.044      3.464
REMARK  4 active torsions:
REMARK  status: ('A' for Active; 'I' for Inactive)
REMARK    1  A    between atoms: C2_2  and  N1_4 
REMARK    2  A    between atoms: N1_4  and  C3_6 
REMARK    3  A    between atoms: C3_6  and  C5_8 
REMARK    4  A    between atoms: C5_8  and  N2_10 
ROOT
HETATM    1  C5  UNL     1      17.248   4.001  14.423  1.00  0.00     0.099 C 
HETATM    2  S2  UNL     1      17.164   3.291  12.928  1.00  0.00    -0.063 SA
ENDROOT
BRANCH   1   3
HETATM    3  C3  UNL     1      18.044   5.244  14.506  1.00  0.00     0.139 C 
HETATM    4  C4  UNL     1      19.427   5.059  13.900  1.00  0.00     0.039 C 
BRANCH   3   5
HETATM    5  N1  UNL     1      17.437   6.337  13.762  1.00  0.00    -0.374 N 
ATOM      6  H1  UNL     1      17.798   6.562  12.836  1.00  0.00     0.161 HD
BRANCH   5   7
HETATM    7  C2  UNL     1      16.362   7.100  14.279  1.00  0.00     0.070 C 
HETATM    8  C1  UNL     1      16.423   7.657  15.641  1.00  0.00     0.081 C 
HETATM    9  S1  UNL     1      15.033   7.375  13.370  1.00  0.00    -0.066 SA
ENDBRANCH   5   7
ENDBRANCH   3   5
ENDBRANCH   1   3
BRANCH   1  10
HETATM   10  N2  UNL     1      16.577   3.383  15.454  1.00  0.00    -0.364 N 
HETATM   11  C6  UNL     1      17.197   2.331  16.245  1.00  0.00     0.124 C 
HETATM   12  C7  UNL     1      16.491   1.044  16.324  1.00  0.00     0.021 C 
HETATM   13  C8  UNL     1      15.454   0.773  17.380  1.00  0.00     0.013 C 
HETATM   14  C9  UNL     1      14.194   1.692  17.249  1.00  0.00     0.081 C 
HETATM   15  C10 UNL     1      14.538   2.825  16.499  1.00  0.00    -0.164 C 
HETATM   16  C11 UNL     1      15.168   3.837  15.721  1.00  0.00     0.203 C 
ENDBRANCH   1  10
TORSDOF 4
ENDMDL
MODEL 3
REMARK VINA RESULT: -5.620514246      2.029      3.459
REMARK  4 active torsions:
REMARK  status: ('A' for Active; 'I' for Inactive)
REMARK    1  A    between atoms: C2_2  and  N1_4 
REMARK    2  A    between atoms: N1_4  and  C3_6 
REMARK    3  A    between atoms: C3_6  and  C5_8 
REMARK    4  A    between atoms: C5_8  and  N2_10 
ROOT
HETATM    1  C5  UNL     1      17.075   4.103  14.466  1.00  0.00     0.099 C 
HETATM    2  S2  UNL     1      17.210   3.305  13.020  1.00  0.00    -0.063 SA
ENDROOT
BRANCH   1   3
HETATM    3  C3  UNL     1      17.630   5.474  14.502  1.00  0.00     0.139 C 
HETATM    4  C4  UNL     1      19.150   5.459  14.454  1.00  0.00     0.039 C 
BRANCH   3   5
HETATM    5  N1  UNL     1      17.212   6.267  13.357  1.00  0.00    -0.374 N 
ATOM      6  H1  UNL     1      17.782   6.248  12.512  1.00  0.00     0.161 HD
BRANCH   5   7
HETATM    7  C2  UNL     1      16.043   7.064  13.374  1.00  0.00     0.070 C 
HETATM    8  C1  UNL     1      15.390   7.468  12.116  1.00  0.00     0.081 C 
HETATM    9  S1  UNL     1      15.394   7.550  14.792  1.00  0.00    -0.066 SA
ENDBRANCH   5   7
ENDBRANCH   3   5
ENDBRANCH   1   3
BRANCH   1  10
HETATM   10  N2  UNL     1      16.466   3.434  15.502  1.00  0.00    -0.364 N 
HETATM   11  C6  UNL     1      17.149   2.378  16.234  1.00  0.00     0.124 C 
HETATM   12  C7  UNL     1      16.486   1.068  16.300  1.00  0.00     0.021 C 
HETATM   13  C8  UNL     1      15.501   0.732  17.388  1.00  0.00     0.013 C 
HETATM   14  C9  UNL     1      14.210   1.615  17.336  1.00  0.00     0.081 C 
HETATM   15  C10 UNL     1      14.488   2.780  16.609  1.00  0.00    -0.164 C 
HETATM   16  C11 UNL     1      15.056   3.834  15.839  1.00  0.00     0.203 C 
ENDBRANCH   1  10
TORSDOF 4
ENDMDL
MODEL 4
REMARK VINA RESULT: -5.574326694      1.844      3.657
REMARK  4 active torsions:
REMARK  status: ('A' for Active; 'I' for Inactive)
REMARK    1  A    between atoms: C2_2  and  N1_4 
REMARK    2  A    between atoms: N1_4  and  C3_6 
REMARK    3  A    between atoms: C3_6  and  C5_8 
REMARK    4  A    between atoms: C5_8  and  N2_10 
ROOT
HETATM    1  C5  UNL     1      17.304   3.688  14.099  1.00  0.00     0.099 C 
HETATM    2  S2  UNL     1      17.005   2.909  12.667  1.00  0.00    -0.063 SA
ENDROOT
BRANCH   1   3
HETATM    3  C3  UNL     1      18.265   4.810  14.037  1.00  0.00     0.139 C 
HETATM    4  C4  UNL     1      19.274   4.615  12.916  1.00  0.00     0.039 C 
BRANCH   3   5
HETATM    5  N1  UNL     1      17.612   6.079  13.757  1.00  0.00    -0.374 N 
ATOM      6  H1  UNL     1      17.134   6.199  12.864  1.00  0.00     0.161 HD
BRANCH   5   7
HETATM    7  C2  UNL     1      17.617   7.153  14.678  1.00  0.00     0.070 C 
HETATM    8  C1  UNL     1      16.459   7.393  15.559  1.00  0.00     0.081 C 
HETATM    9  S1  UNL     1      18.908   8.147  14.783  1.00  0.00    -0.066 SA
ENDBRANCH   5   7
ENDBRANCH   3   5
ENDBRANCH   1   3
BRANCH   1  10
HETATM   10  N2  UNL     1      16.641   3.232  15.215  1.00  0.00    -0.364 N 
HETATM   11  C6  UNL     1      17.233   2.245  16.104  1.00  0.00     0.124 C 
HETATM   12  C7  UNL     1      16.463   1.018  16.356  1.00  0.00     0.021 C 
HETATM   13  C8  UNL     1      15.453   0.930  17.469  1.00  0.00     0.013 C 
HETATM   14  C9  UNL     1      14.240   1.899  17.270  1.00  0.00     0.081 C 
HETATM   15  C10 UNL     1      14.615   2.916  16.381  1.00  0.00    -0.164 C 
HETATM   16  C11 UNL     1      15.269   3.793  15.471  1.00  0.00     0.203 C 
ENDBRANCH   1  10
TORSDOF 4
ENDMDL
MODEL 5
REMARK VINA RESULT: -5.566589249      1.640      2.380
REMARK  4 active torsions:
REMARK  status: ('A' for Active; 'I' for Inactive)
REMARK    1  A    between atoms: C2_2  and  N1_4 
REMARK    2  A    between atoms: N1_4  and  C3_6 
REMARK    3  A    between atoms: C3_6  and  C5_8 
REMARK    4  A    between atoms: C5_8  and  N2_10 
ROOT
HETATM    1  C5  UNL     1      17.055   4.133  14.418  1.00  0.00     0.099 C 
HETATM    2  S2  UNL     1      17.249   5.770  14.591  1.00  0.00    -0.063 SA
ENDROOT
BRANCH   1   3
HETATM    3  C3  UNL     1      17.546   3.554  13.149  1.00  0.00     0.139 C 
HETATM    4  C4  UNL     1      16.636   2.437  12.660  1.00  0.00     0.039 C 
BRANCH   3   5
HETATM    5  N1  UNL     1      17.575   4.532  12.073  1.00  0.00    -0.374 N 
ATOM      6  H1  UNL     1      16.791   5.177  11.974  1.00  0.00     0.161 HD
BRANCH   5   7
HETATM    7  C2  UNL     1      18.651   4.620  11.158  1.00  0.00     0.070 C 
HETATM    8  C1  UNL     1      18.399   4.777   9.714  1.00  0.00     0.081 C 
HETATM    9  S1  UNL     1      20.194   4.550  11.689  1.00  0.00    -0.066 SA
ENDBRANCH   5   7
ENDBRANCH   3   5
ENDBRANCH   1   3
BRANCH   1  10
HETATM   10  N2  UNL     1      16.458   3.455  15.457  1.00  0.00    -0.364 N 
HETATM   11  C6  UNL     1      17.163   2.420  16.196  1.00  0.00     0.124 C 
HETATM   12  C7  UNL     1      16.531   1.095  16.268  1.00  0.00     0.021 C 
HETATM   13  C8  UNL     1      15.551   0.743  17.355  1.00  0.00     0.013 C 
HETATM   14  C9  UNL     1      14.239   1.595  17.295  1.00  0.00     0.081 C 
HETATM   15  C10 UNL     1      14.493   2.762  16.562  1.00  0.00    -0.164 C 
HETATM   16  C11 UNL     1      15.038   3.825  15.787  1.00  0.00     0.203 C 
ENDBRANCH   1  10
TORSDOF 4
ENDMDL
