MODEL 1
REMARK VINA RESULT: -5.518312644      0.000      0.000
REMARK  3 active torsions:
REMARK  status: ('A' for Active; 'I' for Inactive)
REMARK    1  A    between atoms: C2_2  and  C3_3 
REMARK    2  A    between atoms: C3_3  and  C4_4 
REMARK    3  A    between atoms: C4_4  and  N1_5 
REMARK       I    between atoms: N1_5  and  C5_7 
REMARK       I    between atoms: C5_7  and  N2_9 
ROOT
HETATM    1  N1  UNL     1      17.158   2.631  14.724  1.00  0.00    -0.343 N 
ATOM      2  H1  UNL     1      18.169   2.540  14.627  1.00  0.00     0.164 HD
HETATM    3  C5  UNL     1      16.510   3.784  14.249  1.00  0.00     0.318 C 
HETATM    4  O1  UNL     1      15.248   3.882  14.380  1.00  0.00    -0.247 OA
HETATM    5  N2  UNL     1      17.182   4.839  13.635  1.00  0.00    -0.334 N 
HETATM    6  C6  UNL     1      18.608   4.808  13.437  1.00  0.00     0.131 C 
HETATM    7  C7  UNL     1      19.153   5.937  14.320  1.00  0.00     0.069 C 
HETATM    8  C8  UNL     1      18.658   7.228  13.702  1.00  0.00     0.111 C 
HETATM    9  C9  UNL     1      17.182   7.294  13.623  1.00  0.00     0.069 C 
HETATM   10  C10 UNL     1      16.499   6.039  13.158  1.00  0.00     0.131 C 
HETATM   11  O2  UNL     1      19.335   7.518  12.543  1.00  0.00    -0.368 OA
HETATM   12  C11 UNL     1      19.286   8.857  12.285  1.00  0.00     0.180 C 
HETATM   13  C12 UNL     1      20.002   9.581  13.438  1.00  0.00     0.103 C 
HETATM   14  S1  UNL     1      19.278   8.571  14.800  1.00  0.00    -0.129 SA
ENDROOT
BRANCH   1  15
HETATM   15  C4  UNL     1      16.377   1.550  15.366  1.00  0.00     0.124 C 
BRANCH  15  16
HETATM   16  C3  UNL     1      16.459   1.677  16.871  1.00  0.00     0.019 C 
BRANCH  16  17
HETATM   17  C2  UNL     1      15.297   0.996  17.544  1.00  0.00    -0.003 C 
HETATM   18  C1  UNL     1      13.987   1.544  17.038  1.00  0.00     0.005 C 
ENDBRANCH  16  17
ENDBRANCH  15  16
ENDBRANCH   1  15
TORSDOF 3
ENDMDL
MODEL 2
REMARK VINA RESULT: -5.514051973      1.722      1.979
REMARK  3 active torsions:
REMARK  status: ('A' for Active; 'I' for Inactive)
REMARK    1  A    between atoms: C2_2  and  C3_3 
REMARK    2  A    between atoms: C3_3  and  C4_4 
REMARK    3  A    between atoms: C4_4  and  N1_5 
REMARK       I    between atoms: N1_5  and  C5_7 
REMARK       I    between atoms: C5_7  and  N2_9 
ROOT
HETATM    1  N1  UNL     1      16.945   2.441  15.470  1.00  0.00    -0.343 N 
ATOM      2  H1  UNL     1      17.251   3.028  16.246  1.00  0.00     0.164 HD
HETATM    3  C5  UNL     1      16.937   2.955  14.163  1.00  0.00     0.318 C 
HETATM    4  O1  UNL     1      16.551   2.209  13.208  1.00  0.00    -0.247 OA
HETATM    5  N2  UNL     1      17.332   4.254  13.851  1.00  0.00    -0.334 N 
HETATM    6  C6  UNL     1      17.791   5.164  14.868  1.00  0.00     0.131 C 
HETATM    7  C7  UNL     1      16.736   6.276  14.909  1.00  0.00     0.069 C 
HETATM    8  C8  UNL     1      16.851   7.010  13.588  1.00  0.00     0.111 C 
HETATM    9  C9  UNL     1      16.631   6.124  12.423  1.00  0.00     0.069 C 
HETATM   10  C10 UNL     1      17.305   4.782  12.490  1.00  0.00     0.131 C 
HETATM   11  O2  UNL     1      17.980   7.788  13.546  1.00  0.00    -0.368 OA
HETATM   12  C11 UNL     1      17.826   8.804  12.648  1.00  0.00     0.180 C 
HETATM   13  C12 UNL     1      16.666   9.688  13.139  1.00  0.00     0.103 C 
HETATM   14  S1  UNL     1      15.545   8.308  13.630  1.00  0.00    -0.129 SA
ENDROOT
BRANCH   1  15
HETATM   15  C4  UNL     1      16.511   1.048  15.726  1.00  0.00     0.124 C 
BRANCH  15  16
HETATM   16  C3  UNL     1      15.665   0.992  16.979  1.00  0.00     0.019 C 
BRANCH  16  17
HETATM   17  C2  UNL     1      15.083   2.340  17.309  1.00  0.00    -0.003 C 
HETATM   18  C1  UNL     1      15.079   2.573  18.798  1.00  0.00     0.005 C 
ENDBRANCH  16  17
ENDBRANCH  15  16
ENDBRANCH   1  15
TORSDOF 3
ENDMDL
MODEL 3
REMARK VINA RESULT: -5.488822030      2.157      2.744
REMARK  3 active torsions:
REMARK  status: ('A' for Active; 'I' for Inactive)
REMARK    1  A    between atoms: C2_2  and  C3_3 
REMARK    2  A    between atoms: C3_3  and  C4_4 
REMARK    3  A    between atoms: C4_4  and  N1_5 
REMARK       I    between atoms: N1_5  and  C5_7 
REMARK       I    between atoms: C5_7  and  N2_9 
ROOT
HETATM    1  N1  UNL     1      15.979   2.241  15.645  1.00  0.00    -0.343 N 
ATOM      2  H1  UNL     1      15.232   2.603  15.053  1.00  0.00     0.164 HD
HETATM    3  C5  UNL     1      17.223   2.893  15.680  1.00  0.00     0.318 C 
HETATM    4  O1  UNL     1      18.144   2.427  16.424  1.00  0.00    -0.247 OA
HETATM    5  N2  UNL     1      17.508   4.035  14.936  1.00  0.00    -0.334 N 
HETATM    6  C6  UNL     1      16.522   4.636  14.075  1.00  0.00     0.131 C 
HETATM    7  C7  UNL     1      17.078   4.461  12.656  1.00  0.00     0.069 C 
HETATM    8  C8  UNL     1      18.311   5.338  12.580  1.00  0.00     0.111 C 
HETATM    9  C9  UNL     1      19.332   4.976  13.588  1.00  0.00     0.069 C 
HETATM   10  C10 UNL     1      18.809   4.696  14.970  1.00  0.00     0.131 C 
HETATM   11  O2  UNL     1      17.975   6.667  12.515  1.00  0.00    -0.368 OA
HETATM   12  C11 UNL     1      18.979   7.385  11.935  1.00  0.00     0.180 C 
HETATM   13  C12 UNL     1      19.146   6.874  10.493  1.00  0.00     0.103 C 
HETATM   14  S1  UNL     1      18.996   5.080  10.889  1.00  0.00    -0.129 SA
ENDROOT
BRANCH   1  15
HETATM   15  C4  UNL     1      15.749   1.030  16.465  1.00  0.00     0.124 C 
BRANCH  15  16
HETATM   16  C3  UNL     1      14.436   1.150  17.208  1.00  0.00     0.019 C 
BRANCH  16  17
HETATM   17  C2  UNL     1      14.331   2.467  17.928  1.00  0.00    -0.003 C 
HETATM   18  C1  UNL     1      15.256   2.505  19.117  1.00  0.00     0.005 C 
ENDBRANCH  16  17
ENDBRANCH  15  16
ENDBRANCH   1  15
TORSDOF 3
ENDMDL
MODEL 4
REMARK VINA RESULT: -5.475389974      2.283      2.752
REMARK  3 active torsions:
REMARK  status: ('A' for Active; 'I' for Inactive)
REMARK    1  A    between atoms: C2_2  and  C3_3 
REMARK    2  A    between atoms: C3_3  and  C4_4 
REMARK    3  A    between atoms: C4_4  and  N1_5 
REMARK       I    between atoms: N1_5  and  C5_7 
REMARK       I    between atoms: C5_7  and  N2_9 
ROOT
HETATM    1  N1  UNL     1      16.493   3.430  15.763  1.00  0.00    -0.343 N 
ATOM      2  H1  UNL     1      15.539   3.777  15.864  1.00  0.00     0.164 HD
HETATM    3  C5  UNL     1      17.507   4.292  15.312  1.00  0.00     0.318 C 
HETATM    4  O1  UNL     1      18.691   3.842  15.192  1.00  0.00    -0.247 OA
HETATM    5  N2  UNL     1      17.285   5.628  14.985  1.00  0.00    -0.334 N 
HETATM    6  C6  UNL     1      15.979   6.222  15.100  1.00  0.00     0.131 C 
HETATM    7  C7  UNL     1      15.571   6.562  13.662  1.00  0.00     0.069 C 
HETATM    8  C8  UNL     1      16.509   7.662  13.210  1.00  0.00     0.111 C 
HETATM    9  C9  UNL     1      17.932   7.259  13.268  1.00  0.00     0.069 C 
HETATM   10  C10 UNL     1      18.345   6.509  14.503  1.00  0.00     0.131 C 
HETATM   11  O2  UNL     1      16.199   8.858  13.808  1.00  0.00    -0.368 OA
HETATM   12  C11 UNL     1      16.652   9.900  13.052  1.00  0.00     0.180 C 
HETATM   13  C12 UNL     1      15.919   9.849  11.700  1.00  0.00     0.103 C 
HETATM   14  S1  UNL     1      16.041   8.024  11.466  1.00  0.00    -0.129 SA
ENDROOT
BRANCH   1  15
HETATM   15  C4  UNL     1      16.805   2.021  16.093  1.00  0.00     0.124 C 
BRANCH  15  16
HETATM   16  C3  UNL     1      15.583   1.343  16.672  1.00  0.00     0.019 C 
BRANCH  16  17
HETATM   17  C2  UNL     1      14.693   2.328  17.381  1.00  0.00    -0.003 C 
HETATM   18  C1  UNL     1      15.080   2.454  18.832  1.00  0.00     0.005 C 
ENDBRANCH  16  17
ENDBRANCH  15  16
ENDBRANCH   1  15
TORSDOF 3
ENDMDL
MODEL 5
REMARK VINA RESULT: -5.393508862      2.248      2.853
REMARK  3 active torsions:
REMARK  status: ('A' for Active; 'I' for Inactive)
REMARK    1  A    between atoms: C2_2  and  C3_3 
REMARK    2  A    between atoms: C3_3  and  C4_4 
REMARK    3  A    between atoms: C4_4  and  N1_5 
REMARK       I    between atoms: N1_5  and  C5_7 
REMARK       I    between atoms: C5_7  and  N2_9 
ROOT
HETATM    1  N1  UNL     1      15.315   4.897  15.320  1.00  0.00    -0.343 N 
ATOM      2  H1  UNL     1      14.543   5.559  15.395  1.00  0.00     0.164 HD
HETATM    3  C5  UNL     1      16.616   5.363  15.068  1.00  0.00     0.318 C 
HETATM    4  O1  UNL     1      17.566   4.522  14.977  1.00  0.00    -0.247 OA
HETATM    5  N2  UNL     1      16.927   6.712  14.912  1.00  0.00    -0.334 N 
HETATM    6  C6  UNL     1      15.916   7.732  15.009  1.00  0.00     0.131 C 
HETATM    7  C7  UNL     1      15.833   8.341  13.604  1.00  0.00     0.069 C 
HETATM    8  C8  UNL     1      17.149   9.056  13.379  1.00  0.00     0.111 C 
HETATM    9  C9  UNL     1      18.315   8.152  13.488  1.00  0.00     0.069 C 
HETATM   10  C10 UNL     1      18.282   7.183  14.637  1.00  0.00     0.131 C 
HETATM   11  O2  UNL     1      17.217  10.216  14.111  1.00  0.00    -0.368 OA
HETATM   12  C11 UNL     1      18.100  11.086  13.541  1.00  0.00     0.180 C 
HETATM   13  C12 UNL     1      17.566  11.445  12.144  1.00  0.00     0.103 C 
HETATM   14  S1  UNL     1      17.055   9.738  11.671  1.00  0.00    -0.129 SA
ENDROOT
BRANCH   1  15
HETATM   15  C4  UNL     1      15.060   3.447  15.476  1.00  0.00     0.124 C 
BRANCH  15  16
HETATM   16  C3  UNL     1      14.577   3.155  16.879  1.00  0.00     0.019 C 
BRANCH  16  17
HETATM   17  C2  UNL     1      14.187   1.710  17.036  1.00  0.00    -0.003 C 
HETATM   18  C1  UNL     1      15.316   0.911  17.636  1.00  0.00     0.005 C 
ENDBRANCH  16  17
ENDBRANCH  15  16
ENDBRANCH   1  15
TORSDOF 3
ENDMDL
