MODEL 1
REMARK VINA RESULT: -6.597143808      0.000      0.000
REMARK  3 active torsions:
REMARK  status: ('A' for Active; 'I' for Inactive)
REMARK    1  A    between atoms: C2_2  and  C4_4 
REMARK    2  A    between atoms: C4_4  and  N1_5 
REMARK       I    between atoms: N1_5  and  C5_7 
REMARK    3  A    between atoms: C5_7  and  C6_9 
ROOT
HETATM    1  C6  UNL     1      17.548   4.237  14.793  1.00  0.00     0.214 C 
HETATM    2  C7  UNL     1      19.006   4.594  14.764  1.00  0.00     0.042 C 
HETATM    3  C8  UNL     1      19.278   5.960  14.235  1.00  0.00     0.006 C 
HETATM    4  C9  UNL     1      18.210   6.960  14.472  1.00  0.00     0.041 C 
HETATM    5  C10 UNL     1      16.833   6.426  14.605  1.00  0.00     0.088 C 
HETATM    6  C11 UNL     1      16.033   7.437  15.448  1.00  0.00     0.206 C 
HETATM    7  O2  UNL     1      15.416   8.242  14.503  1.00  0.00    -0.388 OA
HETATM    8  C12 UNL     1      14.822   7.298  13.670  1.00  0.00     0.175 C 
HETATM    9  C13 UNL     1      16.033   6.412  13.343  1.00  0.00     0.042 C 
HETATM   10  C14 UNL     1      16.721   7.066  12.177  1.00  0.00     0.015 C 
HETATM   11  O3  UNL     1      16.755   5.235  15.313  1.00  0.00    -0.363 OA
ENDROOT
BRANCH   1  12
HETATM   12  C5  UNL     1      17.383   3.033  15.664  1.00  0.00     0.246 C 
HETATM   13  N1  UNL     1      16.183   2.277  15.683  1.00  0.00    -0.359 N 
ATOM     14  H1  UNL     1      15.398   2.549  15.090  1.00  0.00     0.162 HD
HETATM   15  O1  UNL     1      18.340   2.675  16.407  1.00  0.00    -0.271 OA
BRANCH  13  16
HETATM   16  C4  UNL     1      16.078   1.137  16.531  1.00  0.00     0.126 C 
BRANCH  16  17
HETATM   17  C2  UNL     1      15.035   1.231  17.586  1.00  0.00    -0.005 C 
HETATM   18  C1  UNL     1      15.270   2.328  18.584  1.00  0.00     0.011 C 
HETATM   19  C3  UNL     1      13.708   1.555  16.887  1.00  0.00     0.011 C 
ENDBRANCH  16  17
ENDBRANCH  13  16
ENDBRANCH   1  12
TORSDOF 3
ENDMDL
MODEL 2
REMARK VINA RESULT: -6.586228617      1.261      1.307
REMARK  3 active torsions:
REMARK  status: ('A' for Active; 'I' for Inactive)
REMARK    1  A    between atoms: C2_2  and  C4_4 
REMARK    2  A    between atoms: C4_4  and  N1_5 
REMARK       I    between atoms: N1_5  and  C5_7 
REMARK    3  A    between atoms: C5_7  and  C6_9 
ROOT
HETATM    1  C6  UNL     1      16.601   4.149  13.835  1.00  0.00     0.214 C 
HETATM    2  C7  UNL     1      17.816   4.172  12.954  1.00  0.00     0.042 C 
HETATM    3  C8  UNL     1      18.148   5.526  12.427  1.00  0.00     0.006 C 
HETATM    4  C9  UNL     1      17.766   6.661  13.298  1.00  0.00     0.041 C 
HETATM    5  C10 UNL     1      16.617   6.430  14.207  1.00  0.00     0.088 C 
HETATM    6  C11 UNL     1      16.783   7.385  15.403  1.00  0.00     0.206 C 
HETATM    7  O2  UNL     1      16.026   8.491  15.051  1.00  0.00    -0.388 OA
HETATM    8  C12 UNL     1      14.812   7.906  14.701  1.00  0.00     0.175 C 
HETATM    9  C13 UNL     1      15.290   6.866  13.676  1.00  0.00     0.042 C 
HETATM   10  C14 UNL     1      15.367   7.589  12.359  1.00  0.00     0.015 C 
HETATM   11  O3  UNL     1      16.588   5.161  14.768  1.00  0.00    -0.363 OA
ENDROOT
BRANCH   1  12
HETATM   12  C5  UNL     1      16.593   2.852  14.579  1.00  0.00     0.246 C 
HETATM   13  N1  UNL     1      16.271   2.778  15.957  1.00  0.00    -0.359 N 
ATOM     14  H1  UNL     1      16.034   3.626  16.474  1.00  0.00     0.162 HD
HETATM   15  O1  UNL     1      16.882   1.787  13.963  1.00  0.00    -0.271 OA
BRANCH  13  16
HETATM   16  C4  UNL     1      16.277   1.516  16.619  1.00  0.00     0.126 C 
BRANCH  16  17
HETATM   17  C2  UNL     1      15.221   1.339  17.649  1.00  0.00    -0.005 C 
HETATM   18  C1  UNL     1      15.243   2.376  18.735  1.00  0.00     0.011 C 
HETATM   19  C3  UNL     1      13.867   1.478  16.941  1.00  0.00     0.011 C 
ENDBRANCH  16  17
ENDBRANCH  13  16
ENDBRANCH   1  12
TORSDOF 3
ENDMDL
MODEL 3
REMARK VINA RESULT: -6.541412481      1.815      2.989
REMARK  3 active torsions:
REMARK  status: ('A' for Active; 'I' for Inactive)
REMARK    1  A    between atoms: C2_2  and  C4_4 
REMARK    2  A    between atoms: C4_4  and  N1_5 
REMARK       I    between atoms: N1_5  and  C5_7 
REMARK    3  A    between atoms: C5_7  and  C6_9 
ROOT
HETATM    1  C6  UNL     1      17.658   4.236  15.087  1.00  0.00     0.214 C 
HETATM    2  C7  UNL     1      16.407   5.062  15.154  1.00  0.00     0.042 C 
HETATM    3  C8  UNL     1      16.384   6.193  14.183  1.00  0.00     0.006 C 
HETATM    4  C9  UNL     1      17.134   5.970  12.926  1.00  0.00     0.041 C 
HETATM    5  C10 UNL     1      18.271   5.021  13.002  1.00  0.00     0.088 C 
HETATM    6  C11 UNL     1      18.480   4.447  11.589  1.00  0.00     0.206 C 
HETATM    7  O2  UNL     1      19.458   5.264  11.041  1.00  0.00    -0.388 OA
HETATM    8  C12 UNL     1      20.436   5.239  12.031  1.00  0.00     0.175 C 
HETATM    9  C13 UNL     1      19.603   5.645  13.257  1.00  0.00     0.042 C 
HETATM   10  C14 UNL     1      19.582   7.149  13.260  1.00  0.00     0.015 C 
HETATM   11  O3  UNL     1      18.027   3.912  13.801  1.00  0.00    -0.363 OA
ENDROOT
BRANCH   1  12
HETATM   12  C5  UNL     1      17.406   2.955  15.817  1.00  0.00     0.246 C 
HETATM   13  N1  UNL     1      16.159   2.284  15.749  1.00  0.00    -0.359 N 
ATOM     14  H1  UNL     1      15.399   2.671  15.189  1.00  0.00     0.162 HD
HETATM   15  O1  UNL     1      18.330   2.453  16.518  1.00  0.00    -0.271 OA
BRANCH  13  16
HETATM   16  C4  UNL     1      15.971   1.065  16.464  1.00  0.00     0.126 C 
BRANCH  16  17
HETATM   17  C2  UNL     1      14.977   1.129  17.567  1.00  0.00    -0.005 C 
HETATM   18  C1  UNL     1      15.300   2.145  18.624  1.00  0.00     0.011 C 
HETATM   19  C3  UNL     1      13.638   1.552  16.950  1.00  0.00     0.011 C 
ENDBRANCH  16  17
ENDBRANCH  13  16
ENDBRANCH   1  12
TORSDOF 3
ENDMDL
MODEL 4
REMARK VINA RESULT: -6.388270908      1.692      2.891
REMARK  3 active torsions:
REMARK  status: ('A' for Active; 'I' for Inactive)
REMARK    1  A    between atoms: C2_2  and  C4_4 
REMARK    2  A    between atoms: C4_4  and  N1_5 
REMARK       I    between atoms: N1_5  and  C5_7 
REMARK    3  A    between atoms: C5_7  and  C6_9 
ROOT
HETATM    1  C6  UNL     1      16.728   5.276  15.074  1.00  0.00     0.214 C 
HETATM    2  C7  UNL     1      15.585   6.219  15.313  1.00  0.00     0.042 C 
HETATM    3  C8  UNL     1      15.877   7.626  14.920  1.00  0.00     0.006 C 
HETATM    4  C9  UNL     1      16.834   7.790  13.801  1.00  0.00     0.041 C 
HETATM    5  C10 UNL     1      17.824   6.701  13.622  1.00  0.00     0.088 C 
HETATM    6  C11 UNL     1      18.248   6.709  12.142  1.00  0.00     0.206 C 
HETATM    7  O2  UNL     1      19.397   7.485  12.131  1.00  0.00    -0.388 OA
HETATM    8  C12 UNL     1      20.150   6.892  13.140  1.00  0.00     0.175 C 
HETATM    9  C13 UNL     1      19.139   6.921  14.297  1.00  0.00     0.042 C 
HETATM   10  C14 UNL     1      19.279   8.276  14.933  1.00  0.00     0.015 C 
HETATM   11  O3  UNL     1      17.309   5.430  13.836  1.00  0.00    -0.363 OA
ENDROOT
BRANCH   1  12
HETATM   12  C5  UNL     1      16.200   3.879  15.152  1.00  0.00     0.246 C 
HETATM   13  N1  UNL     1      16.637   2.964  16.144  1.00  0.00    -0.359 N 
ATOM     14  H1  UNL     1      17.332   3.251  16.833  1.00  0.00     0.162 HD
HETATM   15  O1  UNL     1      15.339   3.498  14.310  1.00  0.00    -0.271 OA
BRANCH  13  16
HETATM   16  C4  UNL     1      16.102   1.644  16.174  1.00  0.00     0.126 C 
BRANCH  16  17
HETATM   17  C2  UNL     1      15.234   1.342  17.343  1.00  0.00    -0.005 C 
HETATM   18  C1  UNL     1      15.401   2.294  18.492  1.00  0.00     0.011 C 
HETATM   19  C3  UNL     1      13.779   1.474  16.875  1.00  0.00     0.011 C 
ENDBRANCH  16  17
ENDBRANCH  13  16
ENDBRANCH   1  12
TORSDOF 3
ENDMDL
MODEL 5
REMARK VINA RESULT: -6.370828654      2.038      2.785
REMARK  3 active torsions:
REMARK  status: ('A' for Active; 'I' for Inactive)
REMARK    1  A    between atoms: C2_2  and  C4_4 
REMARK    2  A    between atoms: C4_4  and  N1_5 
REMARK       I    between atoms: N1_5  and  C5_7 
REMARK    3  A    between atoms: C5_7  and  C6_9 
ROOT
HETATM    1  C6  UNL     1      16.798   3.332  13.533  1.00  0.00     0.214 C 
HETATM    2  C7  UNL     1      16.675   2.852  12.116  1.00  0.00     0.042 C 
HETATM    3  C8  UNL     1      17.151   3.839  11.106  1.00  0.00     0.006 C 
HETATM    4  C9  UNL     1      18.235   4.741  11.558  1.00  0.00     0.041 C 
HETATM    5  C10 UNL     1      18.295   5.014  13.014  1.00  0.00     0.088 C 
HETATM    6  C11 UNL     1      19.752   5.381  13.349  1.00  0.00     0.206 C 
HETATM    7  O2  UNL     1      19.766   6.766  13.291  1.00  0.00    -0.388 OA
HETATM    8  C12 UNL     1      18.686   7.096  14.105  1.00  0.00     0.175 C 
HETATM    9  C13 UNL     1      17.580   6.248  13.458  1.00  0.00     0.042 C 
HETATM   10  C14 UNL     1      17.032   7.077  12.329  1.00  0.00     0.015 C 
HETATM   11  O3  UNL     1      18.017   3.909  13.807  1.00  0.00    -0.363 OA
ENDROOT
BRANCH   1  12
HETATM   12  C5  UNL     1      16.647   2.150  14.437  1.00  0.00     0.246 C 
HETATM   13  N1  UNL     1      16.292   2.289  15.803  1.00  0.00    -0.359 N 
ATOM     14  H1  UNL     1      16.131   3.216  16.198  1.00  0.00     0.162 HD
HETATM   15  O1  UNL     1      16.842   0.991  13.973  1.00  0.00    -0.271 OA
BRANCH  13  16
HETATM   16  C4  UNL     1      16.162   1.130  16.622  1.00  0.00     0.126 C 
BRANCH  16  17
HETATM   17  C2  UNL     1      15.090   1.201  17.648  1.00  0.00    -0.005 C 
HETATM   18  C1  UNL     1      15.278   2.298  18.656  1.00  0.00     0.011 C 
HETATM   19  C3  UNL     1      13.776   1.503  16.915  1.00  0.00     0.011 C 
ENDBRANCH  16  17
ENDBRANCH  13  16
ENDBRANCH   1  12
TORSDOF 3
ENDMDL
