MODEL 1
REMARK VINA RESULT: -6.026864295      0.000      0.000
REMARK  3 active torsions:
REMARK  status: ('A' for Active; 'I' for Inactive)
REMARK    1  A    between atoms: N2_5  and  C4_6 
REMARK    2  A    between atoms: C4_6  and  C5_7 
REMARK    3  A    between atoms: C5_7  and  C6_8 
ROOT
HETATM    1  C6  UNL     1      15.702   4.200  15.860  1.00  0.00     0.025 C 
HETATM    2  C7  UNL     1      14.582   3.674  16.772  1.00  0.00     0.045 C 
HETATM    3  C8  UNL     1      15.119   2.448  17.438  1.00  0.00     0.120 C 
HETATM    4  C9  UNL     1      14.253   1.233  17.093  1.00  0.00     0.046 C 
HETATM    5  C10 UNL     1      15.071   2.567  18.955  1.00  0.00     0.046 C 
HETATM    6  N3  UNL     1      16.472   2.293  17.025  1.00  0.00    -0.059 N 
ATOM      7  H31 UNL     1      16.749   1.315  16.939  1.00  0.00     0.279 HD
ATOM      8  H32 UNL     1      17.139   2.560  17.750  1.00  0.00     0.279 HD
HETATM    9  C11 UNL     1      16.653   3.040  15.792  1.00  0.00     0.123 C 
HETATM   10  C12 UNL     1      16.379   2.080  14.660  1.00  0.00     0.046 C 
HETATM   11  C13 UNL     1      18.065   3.533  15.644  1.00  0.00     0.046 C 
ENDROOT
BRANCH   1  12
HETATM   12  C5  UNL     1      15.174   4.704  14.574  1.00  0.00     0.037 C 
BRANCH  12  13
HETATM   13  C4  UNL     1      15.314   6.195  14.415  1.00  0.00     0.273 C 
BRANCH  13  14
HETATM   14  N2  UNL     1      16.645   6.639  14.786  1.00  0.00     0.091 N 
HETATM   15  C3  UNL     1      16.653   7.986  15.280  1.00  0.00     0.302 C 
HETATM   16  C2  UNL     1      16.974   8.995  14.191  1.00  0.00     0.302 C 
HETATM   17  N1  UNL     1      18.319   8.881  13.713  1.00  0.00     0.087 N 
HETATM   18  C1  UNL     1      19.243   9.739  14.430  1.00  0.00     0.310 C 
HETATM   19  C15 UNL     1      18.745   7.495  13.930  1.00  0.00     0.302 C 
HETATM   20  C14 UNL     1      17.559   6.583  13.656  1.00  0.00     0.302 C 
ENDBRANCH  13  14
ENDBRANCH  12  13
ENDBRANCH   1  12
TORSDOF 3
ENDMDL
MODEL 2
REMARK VINA RESULT: -5.937830750      1.840      2.167
REMARK  3 active torsions:
REMARK  status: ('A' for Active; 'I' for Inactive)
REMARK    1  A    between atoms: N2_5  and  C4_6 
REMARK    2  A    between atoms: C4_6  and  C5_7 
REMARK    3  A    between atoms: C5_7  and  C6_8 
ROOT
HETATM    1  C6  UNL     1      15.702   4.434  15.856  1.00  0.00     0.025 C 
HETATM    2  C7  UNL     1      14.610   3.816  16.744  1.00  0.00     0.045 C 
HETATM    3  C8  UNL     1      15.176   2.544  17.288  1.00  0.00     0.120 C 
HETATM    4  C9  UNL     1      14.315   1.353  16.859  1.00  0.00     0.046 C 
HETATM    5  C10 UNL     1      15.162   2.532  18.811  1.00  0.00     0.046 C 
HETATM    6  N3  UNL     1      16.520   2.444  16.834  1.00  0.00    -0.059 N 
ATOM      7  H31 UNL     1      16.806   1.481  16.657  1.00  0.00     0.279 HD
ATOM      8  H32 UNL     1      17.201   2.655  17.564  1.00  0.00     0.279 HD
HETATM    9  C11 UNL     1      16.664   3.297  15.666  1.00  0.00     0.123 C 
HETATM   10  C12 UNL     1      16.374   2.435  14.461  1.00  0.00     0.046 C 
HETATM   11  C13 UNL     1      18.066   3.819  15.529  1.00  0.00     0.046 C 
ENDROOT
BRANCH   1  12
HETATM   12  C5  UNL     1      15.138   5.040  14.631  1.00  0.00     0.037 C 
BRANCH  12  13
HETATM   13  C4  UNL     1      15.338   6.531  14.556  1.00  0.00     0.273 C 
BRANCH  13  14
HETATM   14  N2  UNL     1      16.347   6.875  13.570  1.00  0.00     0.091 N 
HETATM   15  C3  UNL     1      15.961   7.998  12.764  1.00  0.00     0.302 C 
HETATM   16  C2  UNL     1      15.302   7.572  11.464  1.00  0.00     0.302 C 
HETATM   17  N1  UNL     1      16.209   6.909  10.577  1.00  0.00     0.087 N 
HETATM   18  C1  UNL     1      16.859   7.822   9.655  1.00  0.00     0.310 C 
HETATM   19  C15 UNL     1      17.256   6.295  11.400  1.00  0.00     0.302 C 
HETATM   20  C14 UNL     1      16.612   5.763  12.672  1.00  0.00     0.302 C 
ENDBRANCH  13  14
ENDBRANCH  12  13
ENDBRANCH   1  12
TORSDOF 3
ENDMDL
MODEL 3
REMARK VINA RESULT: -5.896947294      1.334      1.845
REMARK  3 active torsions:
REMARK  status: ('A' for Active; 'I' for Inactive)
REMARK    1  A    between atoms: N2_5  and  C4_6 
REMARK    2  A    between atoms: C4_6  and  C5_7 
REMARK    3  A    between atoms: C5_7  and  C6_8 
ROOT
HETATM    1  C6  UNL     1      15.627   4.480  15.872  1.00  0.00     0.025 C 
HETATM    2  C7  UNL     1      14.574   3.818  16.775  1.00  0.00     0.045 C 
HETATM    3  C8  UNL     1      15.186   2.551  17.280  1.00  0.00     0.120 C 
HETATM    4  C9  UNL     1      14.343   1.346  16.850  1.00  0.00     0.046 C 
HETATM    5  C10 UNL     1      15.213   2.509  18.802  1.00  0.00     0.046 C 
HETATM    6  N3  UNL     1      16.520   2.492  16.789  1.00  0.00    -0.059 N 
ATOM      7  H31 UNL     1      16.824   1.540  16.585  1.00  0.00     0.279 HD
ATOM      8  H32 UNL     1      17.214   2.707  17.505  1.00  0.00     0.279 HD
HETATM    9  C11 UNL     1      16.611   3.371  15.634  1.00  0.00     0.123 C 
HETATM   10  C12 UNL     1      16.311   2.525  14.421  1.00  0.00     0.046 C 
HETATM   11  C13 UNL     1      17.996   3.931  15.472  1.00  0.00     0.046 C 
ENDROOT
BRANCH   1  12
HETATM   12  C5  UNL     1      15.016   5.095  14.674  1.00  0.00     0.037 C 
BRANCH  12  13
HETATM   13  C4  UNL     1      15.340   6.558  14.523  1.00  0.00     0.273 C 
BRANCH  13  14
HETATM   14  N2  UNL     1      15.670   6.882  13.148  1.00  0.00     0.091 N 
HETATM   15  C3  UNL     1      16.757   6.090  12.646  1.00  0.00     0.302 C 
HETATM   16  C2  UNL     1      18.095   6.793  12.792  1.00  0.00     0.302 C 
HETATM   17  N1  UNL     1      18.205   7.950  11.956  1.00  0.00     0.087 N 
HETATM   18  C1  UNL     1      18.787   7.652  10.661  1.00  0.00     0.310 C 
HETATM   19  C15 UNL     1      16.846   8.452  11.723  1.00  0.00     0.302 C 
HETATM   20  C14 UNL     1      16.048   8.280  13.007  1.00  0.00     0.302 C 
ENDBRANCH  13  14
ENDBRANCH  12  13
ENDBRANCH   1  12
TORSDOF 3
ENDMDL
MODEL 4
REMARK VINA RESULT: -5.736210595      1.572      6.314
REMARK  3 active torsions:
REMARK  status: ('A' for Active; 'I' for Inactive)
REMARK    1  A    between atoms: N2_5  and  C4_6 
REMARK    2  A    between atoms: C4_6  and  C5_7 
REMARK    3  A    between atoms: C5_7  and  C6_8 
ROOT
HETATM    1  C6  UNL     1      17.911   6.606  13.614  1.00  0.00     0.025 C 
HETATM    2  C7  UNL     1      16.657   6.331  12.769  1.00  0.00     0.045 C 
HETATM    3  C8  UNL     1      15.835   7.578  12.812  1.00  0.00     0.120 C 
HETATM    4  C9  UNL     1      14.458   7.288  13.417  1.00  0.00     0.046 C 
HETATM    5  C10 UNL     1      15.561   8.119  11.415  1.00  0.00     0.046 C 
HETATM    6  N3  UNL     1      16.566   8.549  13.552  1.00  0.00    -0.059 N 
ATOM      7  H31 UNL     1      15.964   9.168  14.096  1.00  0.00     0.279 HD
ATOM      8  H32 UNL     1      16.991   9.261  12.957  1.00  0.00     0.279 HD
HETATM    9  C11 UNL     1      17.540   7.848  14.373  1.00  0.00     0.123 C 
HETATM   10  C12 UNL     1      16.876   7.585  15.703  1.00  0.00     0.046 C 
HETATM   11  C13 UNL     1      18.760   8.687  14.626  1.00  0.00     0.046 C 
ENDROOT
BRANCH   1  12
HETATM   12  C5  UNL     1      18.303   5.428  14.417  1.00  0.00     0.037 C 
BRANCH  12  13
HETATM   13  C4  UNL     1      17.358   4.264  14.271  1.00  0.00     0.273 C 
BRANCH  13  14
HETATM   14  N2  UNL     1      16.739   3.930  15.540  1.00  0.00     0.091 N 
HETATM   15  C3  UNL     1      17.311   2.755  16.134  1.00  0.00     0.302 C 
HETATM   16  C2  UNL     1      16.529   1.500  15.791  1.00  0.00     0.302 C 
HETATM   17  N1  UNL     1      15.224   1.484  16.381  1.00  0.00     0.087 N 
HETATM   18  C1  UNL     1      15.204   0.839  17.680  1.00  0.00     0.310 C 
HETATM   19  C15 UNL     1      14.815   2.880  16.575  1.00  0.00     0.302 C 
HETATM   20  C14 UNL     1      15.312   3.692  15.388  1.00  0.00     0.302 C 
ENDBRANCH  13  14
ENDBRANCH  12  13
ENDBRANCH   1  12
TORSDOF 3
ENDMDL
MODEL 5
REMARK VINA RESULT: -5.611297473      1.401      6.587
REMARK  3 active torsions:
REMARK  status: ('A' for Active; 'I' for Inactive)
REMARK    1  A    between atoms: N2_5  and  C4_6 
REMARK    2  A    between atoms: C4_6  and  C5_7 
REMARK    3  A    between atoms: C5_7  and  C6_8 
ROOT
HETATM    1  C6  UNL     1      17.275   6.832  14.816  1.00  0.00     0.025 C 
HETATM    2  C7  UNL     1      18.764   7.121  14.567  1.00  0.00     0.045 C 
HETATM    3  C8  UNL     1      18.850   8.543  14.116  1.00  0.00     0.120 C 
HETATM    4  C9  UNL     1      19.471   8.621  12.718  1.00  0.00     0.046 C 
HETATM    5  C10 UNL     1      19.764   9.363  15.016  1.00  0.00     0.046 C 
HETATM    6  N3  UNL     1      17.537   9.089  14.164  1.00  0.00    -0.059 N 
ATOM      7  H31 UNL     1      17.365   9.772  13.427  1.00  0.00     0.279 HD
ATOM      8  H32 UNL     1      17.397   9.711  14.961  1.00  0.00     0.279 HD
HETATM    9  C11 UNL     1      16.591   7.986  14.140  1.00  0.00     0.123 C 
HETATM   10  C12 UNL     1      16.248   7.740  12.691  1.00  0.00     0.046 C 
HETATM   11  C13 UNL     1      15.318   8.330  14.860  1.00  0.00     0.046 C 
ENDROOT
BRANCH   1  12
HETATM   12  C5  UNL     1      16.894   5.476  14.364  1.00  0.00     0.037 C 
BRANCH  12  13
HETATM   13  C4  UNL     1      17.652   4.379  15.065  1.00  0.00     0.273 C 
BRANCH  13  14
HETATM   14  N2  UNL     1      16.867   3.159  15.129  1.00  0.00     0.091 N 
HETATM   15  C3  UNL     1      15.457   3.420  15.193  1.00  0.00     0.302 C 
HETATM   16  C2  UNL     1      14.942   3.440  16.622  1.00  0.00     0.302 C 
HETATM   17  N1  UNL     1      15.002   2.154  17.248  1.00  0.00     0.087 N 
HETATM   18  C1  UNL     1      13.778   1.393  17.084  1.00  0.00     0.310 C 
HETATM   19  C15 UNL     1      16.079   1.400  16.598  1.00  0.00     0.302 C 
HETATM   20  C14 UNL     1      17.218   2.362  16.294  1.00  0.00     0.302 C 
ENDBRANCH  13  14
ENDBRANCH  12  13
ENDBRANCH   1  12
TORSDOF 3
ENDMDL
