MODEL 1
REMARK VINA RESULT: -6.449996255      0.000      0.000
REMARK  3 active torsions:
REMARK  status: ('A' for Active; 'I' for Inactive)
REMARK    1  A    between atoms: C2_2  and  N1_3 
REMARK    2  A    between atoms: C5_6  and  C6_7 
REMARK       I    between atoms: C6_7  and  N2_9 
REMARK    3  A    between atoms: N2_9  and  C7_11 
ROOT
HETATM    1  C6  UNL     1      15.609   5.809  14.953  1.00  0.00     0.224 C 
HETATM    2  O1  UNL     1      14.835   5.488  14.026  1.00  0.00    -0.273 OA
HETATM    3  N2  UNL     1      16.075   4.834  15.875  1.00  0.00    -0.356 N 
ATOM      4  H2  UNL     1      16.706   5.099  16.631  1.00  0.00     0.162 HD
ENDROOT
BRANCH   1   5
HETATM    5  C5  UNL     1      16.085   7.199  15.151  1.00  0.00     0.115 C 
HETATM    6  C4  UNL     1      15.451   8.166  14.170  1.00  0.00     0.063 C 
HETATM    7  C3  UNL     1      16.635   8.742  13.480  1.00  0.00     0.285 C 
HETATM    8  N1  UNL     1      17.685   8.701  14.506  1.00  0.00     0.108 N 
HETATM    9  S1  UNL     1      17.316   7.423  12.393  1.00  0.00    -0.131 SA
HETATM   10  C13 UNL     1      17.586   7.328  14.956  1.00  0.00     0.246 C 
HETATM   11  C14 UNL     1      18.059   6.462  13.779  1.00  0.00     0.112 C 
BRANCH   8  12
HETATM   12  C2  UNL     1      18.984   9.004  13.937  1.00  0.00     0.270 C 
HETATM   13  C1  UNL     1      19.900   9.367  15.071  1.00  0.00     0.037 C 
ENDBRANCH   8  12
ENDBRANCH   1   5
BRANCH   3  14
HETATM   14  C7  UNL     1      15.645   3.465  15.729  1.00  0.00     0.084 C 
HETATM   15  C8  UNL     1      14.508   3.118  16.660  1.00  0.00     0.025 C 
HETATM   16  C9  UNL     1      14.968   2.316  17.859  1.00  0.00     0.002 C 
HETATM   17  C10 UNL     1      15.586   0.999  17.445  1.00  0.00     0.000 C 
HETATM   18  C11 UNL     1      16.327   1.154  16.116  1.00  0.00     0.002 C 
HETATM   19  C12 UNL     1      16.833   2.588  16.089  1.00  0.00     0.025 C 
ENDBRANCH   3  14
TORSDOF 3
ENDMDL
MODEL 2
REMARK VINA RESULT: -6.151108050      1.595      2.078
REMARK  3 active torsions:
REMARK  status: ('A' for Active; 'I' for Inactive)
REMARK    1  A    between atoms: C2_2  and  N1_3 
REMARK    2  A    between atoms: C5_6  and  C6_7 
REMARK       I    between atoms: C6_7  and  N2_9 
REMARK    3  A    between atoms: N2_9  and  C7_11 
ROOT
HETATM    1  C6  UNL     1      16.702   4.971  13.928  1.00  0.00     0.224 C 
HETATM    2  O1  UNL     1      16.424   4.227  12.963  1.00  0.00    -0.273 OA
HETATM    3  N2  UNL     1      16.383   4.580  15.256  1.00  0.00    -0.356 N 
ATOM      4  H2  UNL     1      16.610   5.189  16.042  1.00  0.00     0.162 HD
ENDROOT
BRANCH   1   5
HETATM    5  C5  UNL     1      17.369   6.284  13.759  1.00  0.00     0.115 C 
HETATM    6  C4  UNL     1      17.450   7.057  15.060  1.00  0.00     0.063 C 
HETATM    7  C3  UNL     1      16.729   8.314  14.730  1.00  0.00     0.285 C 
HETATM    8  N1  UNL     1      16.985   8.491  13.294  1.00  0.00     0.108 N 
HETATM    9  S1  UNL     1      14.944   7.891  14.600  1.00  0.00    -0.131 SA
HETATM   10  C13 UNL     1      16.631   7.183  12.781  1.00  0.00     0.246 C 
HETATM   11  C14 UNL     1      15.111   7.056  12.966  1.00  0.00     0.112 C 
BRANCH   8  12
HETATM   12  C2  UNL     1      16.158   9.545  12.741  1.00  0.00     0.270 C 
HETATM   13  C1  UNL     1      17.076  10.571  12.140  1.00  0.00     0.037 C 
ENDBRANCH   8  12
ENDBRANCH   1   5
BRANCH   3  14
HETATM   14  C7  UNL     1      15.734   3.312  15.481  1.00  0.00     0.084 C 
HETATM   15  C8  UNL     1      14.630   3.406  16.507  1.00  0.00     0.025 C 
HETATM   16  C9  UNL     1      15.048   2.858  17.855  1.00  0.00     0.002 C 
HETATM   17  C10 UNL     1      15.418   1.393  17.772  1.00  0.00     0.000 C 
HETATM   18  C11 UNL     1      16.072   1.086  16.425  1.00  0.00     0.002 C 
HETATM   19  C12 UNL     1      16.793   2.361  16.014  1.00  0.00     0.025 C 
ENDBRANCH   3  14
TORSDOF 3
ENDMDL
MODEL 3
REMARK VINA RESULT: -6.120360640      1.106      1.168
REMARK  3 active torsions:
REMARK  status: ('A' for Active; 'I' for Inactive)
REMARK    1  A    between atoms: C2_2  and  N1_3 
REMARK    2  A    between atoms: C5_6  and  C6_7 
REMARK       I    between atoms: C6_7  and  N2_9 
REMARK    3  A    between atoms: N2_9  and  C7_11 
ROOT
HETATM    1  C6  UNL     1      16.187   5.236  14.185  1.00  0.00     0.224 C 
HETATM    2  O1  UNL     1      16.034   4.540  13.158  1.00  0.00    -0.273 OA
HETATM    3  N2  UNL     1      15.965   4.679  15.473  1.00  0.00    -0.356 N 
ATOM      4  H2  UNL     1      16.090   5.249  16.309  1.00  0.00     0.162 HD
ENDROOT
BRANCH   1   5
HETATM    5  C5  UNL     1      16.603   6.658  14.132  1.00  0.00     0.115 C 
HETATM    6  C4  UNL     1      16.651   7.187  12.712  1.00  0.00     0.063 C 
HETATM    7  C3  UNL     1      18.063   7.632  12.585  1.00  0.00     0.285 C 
HETATM    8  N1  UNL     1      18.422   8.033  13.953  1.00  0.00     0.108 N 
HETATM    9  S1  UNL     1      19.099   6.114  12.506  1.00  0.00    -0.131 SA
HETATM   10  C13 UNL     1      17.992   6.874  14.708  1.00  0.00     0.246 C 
HETATM   11  C14 UNL     1      18.934   5.731  14.301  1.00  0.00     0.112 C 
BRANCH   8  12
HETATM   12  C2  UNL     1      19.847   8.272  14.071  1.00  0.00     0.270 C 
HETATM   13  C1  UNL     1      20.050   9.241  15.201  1.00  0.00     0.037 C 
ENDBRANCH   8  12
ENDBRANCH   1   5
BRANCH   3  14
HETATM   14  C7  UNL     1      15.560   3.299  15.584  1.00  0.00     0.084 C 
HETATM   15  C8  UNL     1      14.478   3.101  16.619  1.00  0.00     0.025 C 
HETATM   16  C9  UNL     1      15.015   2.520  17.910  1.00  0.00     0.002 C 
HETATM   17  C10 UNL     1      15.642   1.161  17.693  1.00  0.00     0.000 C 
HETATM   18  C11 UNL     1      16.313   1.098  16.321  1.00  0.00     0.002 C 
HETATM   19  C12 UNL     1      16.783   2.513  16.025  1.00  0.00     0.025 C 
ENDBRANCH   3  14
TORSDOF 3
ENDMDL
MODEL 4
REMARK VINA RESULT: -6.105810800      1.870      2.526
REMARK  3 active torsions:
REMARK  status: ('A' for Active; 'I' for Inactive)
REMARK    1  A    between atoms: C2_2  and  N1_3 
REMARK    2  A    between atoms: C5_6  and  C6_7 
REMARK       I    between atoms: C6_7  and  N2_9 
REMARK    3  A    between atoms: N2_9  and  C7_11 
ROOT
HETATM    1  C6  UNL     1      17.274   3.777  13.467  1.00  0.00     0.224 C 
HETATM    2  O1  UNL     1      16.400   3.376  12.668  1.00  0.00    -0.273 OA
HETATM    3  N2  UNL     1      17.241   3.379  14.830  1.00  0.00    -0.356 N 
ATOM      4  H2  UNL     1      17.955   3.708  15.480  1.00  0.00     0.162 HD
ENDROOT
BRANCH   1   5
HETATM    5  C5  UNL     1      18.379   4.675  13.057  1.00  0.00     0.115 C 
HETATM    6  C4  UNL     1      19.246   5.087  14.230  1.00  0.00     0.063 C 
HETATM    7  C3  UNL     1      19.140   6.569  14.201  1.00  0.00     0.285 C 
HETATM    8  N1  UNL     1      18.950   6.872  12.776  1.00  0.00     0.108 N 
HETATM    9  S1  UNL     1      17.441   6.996  14.761  1.00  0.00    -0.131 SA
HETATM   10  C13 UNL     1      17.872   5.966  12.436  1.00  0.00     0.246 C 
HETATM   11  C14 UNL     1      16.635   6.481  13.186  1.00  0.00     0.112 C 
BRANCH   8  12
HETATM   12  C2  UNL     1      18.586   8.262  12.581  1.00  0.00     0.270 C 
HETATM   13  C1  UNL     1      19.854   9.069  12.610  1.00  0.00     0.037 C 
ENDBRANCH   8  12
ENDBRANCH   1   5
BRANCH   3  14
HETATM   14  C7  UNL     1      16.188   2.504  15.284  1.00  0.00     0.084 C 
HETATM   15  C8  UNL     1      14.981   3.267  15.774  1.00  0.00     0.025 C 
HETATM   16  C9  UNL     1      14.902   3.316  17.285  1.00  0.00     0.002 C 
HETATM   17  C10 UNL     1      14.793   1.930  17.883  1.00  0.00     0.000 C 
HETATM   18  C11 UNL     1      15.586   0.926  17.046  1.00  0.00     0.002 C 
HETATM   19  C12 UNL     1      16.747   1.708  16.452  1.00  0.00     0.025 C 
ENDBRANCH   3  14
TORSDOF 3
ENDMDL
MODEL 5
REMARK VINA RESULT: -5.895118394      2.935      4.067
REMARK  3 active torsions:
REMARK  status: ('A' for Active; 'I' for Inactive)
REMARK    1  A    between atoms: C2_2  and  N1_3 
REMARK    2  A    between atoms: C5_6  and  C6_7 
REMARK       I    between atoms: C6_7  and  N2_9 
REMARK    3  A    between atoms: N2_9  and  C7_11 
ROOT
HETATM    1  C6  UNL     1      18.228   4.372  13.957  1.00  0.00     0.224 C 
HETATM    2  O1  UNL     1      18.469   5.347  14.701  1.00  0.00    -0.273 OA
HETATM    3  N2  UNL     1      17.330   3.352  14.373  1.00  0.00    -0.356 N 
ATOM      4  H2  UNL     1      17.135   2.557  13.765  1.00  0.00     0.162 HD
ENDROOT
BRANCH   1   5
HETATM    5  C5  UNL     1      18.847   4.214  12.620  1.00  0.00     0.115 C 
HETATM    6  C4  UNL     1      19.973   5.203  12.391  1.00  0.00     0.063 C 
HETATM    7  C3  UNL     1      19.517   5.930  11.177  1.00  0.00     0.285 C 
HETATM    8  N1  UNL     1      18.732   4.924  10.449  1.00  0.00     0.108 N 
HETATM    9  S1  UNL     1      18.111   7.000  11.689  1.00  0.00    -0.131 SA
HETATM   10  C13 UNL     1      17.853   4.441  11.494  1.00  0.00     0.246 C 
HETATM   11  C14 UNL     1      16.911   5.608  11.827  1.00  0.00     0.112 C 
BRANCH   8  12
HETATM   12  C2  UNL     1      18.004   5.525   9.348  1.00  0.00     0.270 C 
HETATM   13  C1  UNL     1      18.500   4.891   8.079  1.00  0.00     0.037 C 
ENDBRANCH   8  12
ENDBRANCH   1   5
BRANCH   3  14
HETATM   14  C7  UNL     1      16.697   3.455  15.665  1.00  0.00     0.084 C 
HETATM   15  C8  UNL     1      16.889   2.210  16.498  1.00  0.00     0.025 C 
HETATM   16  C9  UNL     1      15.653   1.336  16.525  1.00  0.00     0.002 C 
HETATM   17  C10 UNL     1      14.469   2.062  17.124  1.00  0.00     0.000 C 
HETATM   18  C11 UNL     1      14.524   3.549  16.772  1.00  0.00     0.002 C 
HETATM   19  C12 UNL     1      15.208   3.629  15.416  1.00  0.00     0.025 C 
ENDBRANCH   3  14
TORSDOF 3
ENDMDL
