MODEL 1
REMARK VINA RESULT: -7.492768340      0.000      0.000
REMARK  2 active torsions:
REMARK  status: ('A' for Active; 'I' for Inactive)
REMARK    1  A    between atoms: N1_6  and  C5_7 
REMARK    2  A    between atoms: C5_7  and  C6_8 
ROOT
HETATM    1  C6  UNL     1      -0.249   5.170  85.243  1.00  0.00     0.218 C 
HETATM    2  N2  UNL     1      -0.387   3.889  84.597  1.00  0.00    -0.069 N 
ATOM      3  H21 UNL     1       0.275   3.732  83.838  1.00  0.00     0.277 HD
ATOM      4  H22 UNL     1      -1.231   3.796  84.033  1.00  0.00     0.277 HD
HETATM    5  C7  UNL     1      -0.289   2.933  85.669  1.00  0.00     0.237 C 
HETATM    6  C8  UNL     1      -0.495   3.612  86.972  1.00  0.00     0.017 C 
HETATM    7  C9  UNL     1      -1.502   2.989  87.876  1.00  0.00     0.007 C 
HETATM    8  C10 UNL     1      -2.842   3.032  87.220  1.00  0.00     0.000 C 
HETATM    9  C11 UNL     1      -3.279   4.386  86.817  1.00  0.00     0.000 C 
HETATM   10  C12 UNL     1      -2.239   5.437  86.787  1.00  0.00     0.007 C 
HETATM   11  C13 UNL     1      -0.836   5.026  86.578  1.00  0.00     0.024 C 
ENDROOT
BRANCH   1  12
HETATM   12  C5  UNL     1      -0.769   6.287  84.380  1.00  0.00     0.305 C 
BRANCH  12  13
HETATM   13  N1  UNL     1      -0.126   7.561  84.744  1.00  0.00     0.093 N 
HETATM   14  C4  UNL     1       0.502   8.041  83.526  1.00  0.00     0.304 C 
HETATM   15  C3  UNL     1       0.155   9.406  83.091  1.00  0.00     0.153 C 
HETATM   16  O1  UNL     1      -1.054   9.512  82.423  1.00  0.00    -0.384 OA
HETATM   17  C16 UNL     1       0.169  10.367  84.231  1.00  0.00     0.018 C 
HETATM   18  C2  UNL     1      -0.987  10.698  81.695  1.00  0.00     0.168 C 
HETATM   19  C1  UNL     1      -0.972  11.911  82.581  1.00  0.00     0.027 C 
HETATM   20  C17 UNL     1      -0.109  11.771  83.803  1.00  0.00     0.009 C 
HETATM   21  C15 UNL     1      -0.704   9.864  85.343  1.00  0.00     0.037 C 
HETATM   22  C14 UNL     1      -1.191   8.478  85.162  1.00  0.00     0.273 C 
ENDBRANCH  12  13
ENDBRANCH   1  12
TORSDOF 2
ENDMDL
MODEL 2
REMARK VINA RESULT: -6.966092430      2.210      3.200
REMARK  2 active torsions:
REMARK  status: ('A' for Active; 'I' for Inactive)
REMARK    1  A    between atoms: N1_6  and  C5_7 
REMARK    2  A    between atoms: C5_7  and  C6_8 
ROOT
HETATM    1  C6  UNL     1      -0.344   5.241  85.158  1.00  0.00     0.218 C 
HETATM    2  N2  UNL     1      -0.425   3.931  84.562  1.00  0.00    -0.069 N 
ATOM      3  H21 UNL     1       0.226   3.783  83.792  1.00  0.00     0.277 HD
ATOM      4  H22 UNL     1      -1.276   3.771  84.024  1.00  0.00     0.277 HD
HETATM    5  C7  UNL     1      -0.249   3.023  85.664  1.00  0.00     0.237 C 
HETATM    6  C8  UNL     1      -0.463   3.738  86.948  1.00  0.00     0.017 C 
HETATM    7  C9  UNL     1      -1.412   3.094  87.899  1.00  0.00     0.007 C 
HETATM    8  C10 UNL     1      -2.767   3.040  87.275  1.00  0.00     0.000 C 
HETATM    9  C11 UNL     1      -3.288   4.352  86.835  1.00  0.00     0.000 C 
HETATM   10  C12 UNL     1      -2.309   5.456  86.742  1.00  0.00     0.007 C 
HETATM   11  C13 UNL     1      -0.891   5.115  86.512  1.00  0.00     0.024 C 
ENDROOT
BRANCH   1  12
HETATM   12  C5  UNL     1      -0.946   6.295  84.269  1.00  0.00     0.305 C 
BRANCH  12  13
HETATM   13  N1  UNL     1       0.029   7.368  84.010  1.00  0.00     0.093 N 
HETATM   14  C4  UNL     1       1.315   6.832  84.421  1.00  0.00     0.304 C 
HETATM   15  C3  UNL     1       2.402   6.868  83.426  1.00  0.00     0.153 C 
HETATM   16  O1  UNL     1       2.361   5.851  82.486  1.00  0.00    -0.384 OA
HETATM   17  C16 UNL     1       2.460   8.182  82.723  1.00  0.00     0.018 C 
HETATM   18  C2  UNL     1       3.651   5.755  81.970  1.00  0.00     0.168 C 
HETATM   19  C1  UNL     1       4.034   6.961  81.161  1.00  0.00     0.027 C 
HETATM   20  C17 UNL     1       3.599   8.268  81.760  1.00  0.00     0.009 C 
HETATM   21  C15 UNL     1       1.118   8.518  82.141  1.00  0.00     0.037 C 
HETATM   22  C14 UNL     1       0.022   7.617  82.565  1.00  0.00     0.273 C 
ENDBRANCH  12  13
ENDBRANCH   1  12
TORSDOF 2
ENDMDL
MODEL 3
REMARK VINA RESULT: -6.950950432      1.553      2.189
REMARK  2 active torsions:
REMARK  status: ('A' for Active; 'I' for Inactive)
REMARK    1  A    between atoms: N1_6  and  C5_7 
REMARK    2  A    between atoms: C5_7  and  C6_8 
ROOT
HETATM    1  C6  UNL     1      -0.231   5.160  85.161  1.00  0.00     0.218 C 
HETATM    2  N2  UNL     1      -0.378   3.847  84.584  1.00  0.00    -0.069 N 
ATOM      3  H21 UNL     1       0.285   3.644  83.836  1.00  0.00     0.277 HD
ATOM      4  H22 UNL     1      -1.221   3.732  84.022  1.00  0.00     0.277 HD
HETATM    5  C7  UNL     1      -0.292   2.949  85.705  1.00  0.00     0.237 C 
HETATM    6  C8  UNL     1      -0.498   3.698  86.970  1.00  0.00     0.017 C 
HETATM    7  C9  UNL     1      -1.513   3.133  87.902  1.00  0.00     0.007 C 
HETATM    8  C10 UNL     1      -2.850   3.153  87.238  1.00  0.00     0.000 C 
HETATM    9  C11 UNL     1      -3.274   4.488  86.762  1.00  0.00     0.000 C 
HETATM   10  C12 UNL     1      -2.224   5.526  86.681  1.00  0.00     0.007 C 
HETATM   11  C13 UNL     1      -0.824   5.092  86.499  1.00  0.00     0.024 C 
ENDROOT
BRANCH   1  12
HETATM   12  C5  UNL     1      -0.738   6.234  84.238  1.00  0.00     0.305 C 
BRANCH  12  13
HETATM   13  N1  UNL     1       0.375   6.825  83.476  1.00  0.00     0.093 N 
HETATM   14  C4  UNL     1      -0.064   8.162  83.120  1.00  0.00     0.304 C 
HETATM   15  C3  UNL     1       0.823   9.278  83.499  1.00  0.00     0.153 C 
HETATM   16  O1  UNL     1       0.722   9.675  84.822  1.00  0.00    -0.384 OA
HETATM   17  C16 UNL     1       2.249   8.976  83.187  1.00  0.00     0.018 C 
HETATM   18  C2  UNL     1       1.225  10.973  84.872  1.00  0.00     0.168 C 
HETATM   19  C1  UNL     1       2.702  11.022  84.605  1.00  0.00     0.027 C 
HETATM   20  C17 UNL     1       3.159  10.120  83.495  1.00  0.00     0.009 C 
HETATM   21  C15 UNL     1       2.650   7.669  83.806  1.00  0.00     0.037 C 
HETATM   22  C14 UNL     1       1.528   6.892  84.379  1.00  0.00     0.273 C 
ENDBRANCH  12  13
ENDBRANCH   1  12
TORSDOF 2
ENDMDL
MODEL 4
REMARK VINA RESULT: -6.748916682      2.204      2.815
REMARK  2 active torsions:
REMARK  status: ('A' for Active; 'I' for Inactive)
REMARK    1  A    between atoms: N1_6  and  C5_7 
REMARK    2  A    between atoms: C5_7  and  C6_8 
ROOT
HETATM    1  C6  UNL     1      -0.097   4.870  84.880  1.00  0.00     0.218 C 
HETATM    2  N2  UNL     1      -0.295   3.486  84.529  1.00  0.00    -0.069 N 
ATOM      3  H21 UNL     1       0.353   3.139  83.822  1.00  0.00     0.277 HD
ATOM      4  H22 UNL     1      -1.147   3.310  83.997  1.00  0.00     0.277 HD
HETATM    5  C7  UNL     1      -0.229   2.783  85.782  1.00  0.00     0.237 C 
HETATM    6  C8  UNL     1      -0.395   3.738  86.907  1.00  0.00     0.017 C 
HETATM    7  C9  UNL     1      -1.420   3.370  87.924  1.00  0.00     0.007 C 
HETATM    8  C10 UNL     1      -2.762   3.328  87.272  1.00  0.00     0.000 C 
HETATM    9  C11 UNL     1      -3.145   4.580  86.584  1.00  0.00     0.000 C 
HETATM   10  C12 UNL     1      -2.061   5.553  86.327  1.00  0.00     0.007 C 
HETATM   11  C13 UNL     1      -0.679   5.046  86.214  1.00  0.00     0.024 C 
ENDROOT
BRANCH   1  12
HETATM   12  C5  UNL     1      -0.577   5.795  83.794  1.00  0.00     0.305 C 
BRANCH  12  13
HETATM   13  N1  UNL     1       0.476   6.761  83.439  1.00  0.00     0.093 N 
HETATM   14  C4  UNL     1       1.315   6.082  82.468  1.00  0.00     0.304 C 
HETATM   15  C3  UNL     1       1.539   6.769  81.183  1.00  0.00     0.153 C 
HETATM   16  O1  UNL     1       0.505   6.642  80.270  1.00  0.00    -0.384 OA
HETATM   17  C16 UNL     1       1.843   8.216  81.380  1.00  0.00     0.018 C 
HETATM   18  C2  UNL     1       1.062   6.910  79.022  1.00  0.00     0.168 C 
HETATM   19  C1  UNL     1       1.479   8.346  78.879  1.00  0.00     0.027 C 
HETATM   20  C17 UNL     1       2.145   8.919  80.097  1.00  0.00     0.009 C 
HETATM   21  C15 UNL     1       0.776   8.861  82.215  1.00  0.00     0.037 C 
HETATM   22  C14 UNL     1      -0.187   7.913  82.820  1.00  0.00     0.273 C 
ENDBRANCH  12  13
ENDBRANCH   1  12
TORSDOF 2
ENDMDL
MODEL 5
REMARK VINA RESULT: -6.459032197      2.177      7.057
REMARK  2 active torsions:
REMARK  status: ('A' for Active; 'I' for Inactive)
REMARK    1  A    between atoms: N1_6  and  C5_7 
REMARK    2  A    between atoms: C5_7  and  C6_8 
ROOT
HETATM    1  C6  UNL     1       0.582   9.822  83.182  1.00  0.00     0.218 C 
HETATM    2  N2  UNL     1       1.430  10.254  82.099  1.00  0.00    -0.069 N 
ATOM      3  H21 UNL     1       1.167   9.875  81.189  1.00  0.00     0.277 HD
ATOM      4  H22 UNL     1       2.368   9.856  82.120  1.00  0.00     0.277 HD
HETATM    5  C7  UNL     1       1.399  11.691  82.168  1.00  0.00     0.237 C 
HETATM    6  C8  UNL     1       0.886  12.122  83.493  1.00  0.00     0.017 C 
HETATM    7  C9  UNL     1       1.717  13.125  84.216  1.00  0.00     0.007 C 
HETATM    8  C10 UNL     1       3.053  12.529  84.512  1.00  0.00     0.000 C 
HETATM    9  C11 UNL     1       3.000  11.260  85.270  1.00  0.00     0.000 C 
HETATM   10  C12 UNL     1       1.688  10.579  85.331  1.00  0.00     0.007 C 
HETATM   11  C13 UNL     1       0.722  10.825  84.242  1.00  0.00     0.024 C 
ENDROOT
BRANCH   1  12
HETATM   12  C5  UNL     1       0.842   8.388  83.554  1.00  0.00     0.305 C 
BRANCH  12  13
HETATM   13  N1  UNL     1      -0.427   7.678  83.783  1.00  0.00     0.093 N 
HETATM   14  C4  UNL     1      -0.120   6.269  83.617  1.00  0.00     0.304 C 
HETATM   15  C3  UNL     1      -0.486   5.371  84.728  1.00  0.00     0.153 C 
HETATM   16  O1  UNL     1       0.406   5.365  85.787  1.00  0.00    -0.384 OA
HETATM   17  C16 UNL     1      -1.855   5.663  85.242  1.00  0.00     0.018 C 
HETATM   18  C2  UNL     1       0.181   4.173  86.471  1.00  0.00     0.168 C 
HETATM   19  C1  UNL     1      -1.161   4.146  87.146  1.00  0.00     0.027 C 
HETATM   20  C17 UNL     1      -2.277   4.719  86.321  1.00  0.00     0.009 C 
HETATM   21  C15 UNL     1      -1.976   7.116  85.596  1.00  0.00     0.037 C 
HETATM   22  C14 UNL     1      -0.830   7.950  85.167  1.00  0.00     0.273 C 
ENDBRANCH  12  13
ENDBRANCH   1  12
TORSDOF 2
ENDMDL
