MODEL 1
REMARK VINA RESULT: -7.233315282      0.000      0.000
REMARK  2 active torsions:
REMARK  status: ('A' for Active; 'I' for Inactive)
REMARK    1  A    between atoms: N1_4  and  C4_5 
REMARK    2  A    between atoms: C4_5  and  C5_6 
ROOT
HETATM    1  C5  UNL     1      -0.352   7.821  84.507  1.00  0.00    -0.035 C 
HETATM    2  C6  UNL     1      -0.097   9.003  85.410  1.00  0.00     0.038 C 
HETATM    3  C7  UNL     1      -1.179  10.032  85.151  1.00  0.00     0.009 C 
HETATM    4  C8  UNL     1      -2.022   9.764  83.948  1.00  0.00     0.038 C 
HETATM    5  C9  UNL     1      -1.208   9.214  82.810  1.00  0.00    -0.028 C 
HETATM    6  C10 UNL     1      -0.374   8.232  83.132  1.00  0.00     0.038 C 
HETATM    7  N2  UNL     1       0.496   7.555  82.239  1.00  0.00    -0.374 N 
HETATM    8  C11 UNL     1       1.777   7.036  82.647  1.00  0.00     0.123 C 
HETATM    9  C12 UNL     1       2.571   7.135  81.354  1.00  0.00     0.022 C 
HETATM   10  C13 UNL     1       1.564   7.027  80.240  1.00  0.00     0.028 C 
HETATM   11  C14 UNL     1       0.224   7.302  80.844  1.00  0.00     0.110 C 
HETATM   12  C15 UNL     1      -0.355   8.480  80.116  1.00  0.00     0.257 C 
HETATM   13  N3  UNL     1      -1.666   8.866  80.523  1.00  0.00    -0.070 N 
ATOM     14  H31 UNL     1      -2.237   8.080  80.834  1.00  0.00     0.277 HD
ATOM     15  H32 UNL     1      -2.258   9.157  79.744  1.00  0.00     0.277 HD
HETATM   16  C16 UNL     1      -1.513   9.894  81.537  1.00  0.00     0.269 C 
ENDROOT
BRANCH   1  17
HETATM   17  C4  UNL     1       0.201   6.542  84.957  1.00  0.00     0.163 C 
BRANCH  17  18
HETATM   18  N1  UNL     1      -0.849   5.608  85.324  1.00  0.00    -0.370 N 
HETATM   19  C3  UNL     1      -0.499   4.272  85.493  1.00  0.00     0.063 C 
HETATM   20  C2  UNL     1      -0.909   3.659  86.814  1.00  0.00     0.045 C 
HETATM   21  C1  UNL     1      -2.408   3.883  86.949  1.00  0.00     0.010 C 
HETATM   22  C18 UNL     1      -2.652   5.358  86.985  1.00  0.00     0.045 C 
HETATM   23  C17 UNL     1      -2.024   6.125  85.857  1.00  0.00     0.063 C 
ENDBRANCH  17  18
ENDBRANCH   1  17
TORSDOF 2
ENDMDL
MODEL 2
REMARK VINA RESULT: -7.015852195      1.877      4.104
REMARK  2 active torsions:
REMARK  status: ('A' for Active; 'I' for Inactive)
REMARK    1  A    between atoms: N1_4  and  C4_5 
REMARK    2  A    between atoms: C4_5  and  C5_6 
ROOT
HETATM    1  C5  UNL     1      -0.345   6.362  83.969  1.00  0.00    -0.035 C 
HETATM    2  C6  UNL     1      -0.093   5.792  82.595  1.00  0.00     0.038 C 
HETATM    3  C7  UNL     1       1.404   5.776  82.361  1.00  0.00     0.009 C 
HETATM    4  C8  UNL     1       2.203   6.533  83.371  1.00  0.00     0.038 C 
HETATM    5  C9  UNL     1       1.512   7.801  83.789  1.00  0.00    -0.028 C 
HETATM    6  C10 UNL     1       0.223   7.674  84.083  1.00  0.00     0.038 C 
HETATM    7  N2  UNL     1      -0.640   8.720  84.500  1.00  0.00    -0.374 N 
HETATM    8  C11 UNL     1      -2.043   8.744  84.174  1.00  0.00     0.123 C 
HETATM    9  C12 UNL     1      -2.317  10.240  84.122  1.00  0.00     0.022 C 
HETATM   10  C13 UNL     1      -1.319  10.877  85.052  1.00  0.00     0.028 C 
HETATM   11  C14 UNL     1      -0.242   9.867  85.283  1.00  0.00     0.110 C 
HETATM   12  C15 UNL     1       1.049  10.487  84.835  1.00  0.00     0.257 C 
HETATM   13  N3  UNL     1       2.213   9.684  85.023  1.00  0.00    -0.070 N 
ATOM     14  H31 UNL     1       2.152   9.077  85.841  1.00  0.00     0.277 HD
ATOM     15  H32 UNL     1       3.027  10.222  85.321  1.00  0.00     0.277 HD
HETATM   16  C16 UNL     1       2.433   8.954  83.788  1.00  0.00     0.269 C 
ENDROOT
BRANCH   1  17
HETATM   17  C4  UNL     1      -1.607   5.971  84.601  1.00  0.00     0.163 C 
BRANCH  17  18
HETATM   18  N1  UNL     1      -1.381   5.192  85.805  1.00  0.00    -0.370 N 
HETATM   19  C3  UNL     1      -2.386   5.178  86.768  1.00  0.00     0.063 C 
HETATM   20  C2  UNL     1      -2.848   3.804  87.200  1.00  0.00     0.045 C 
HETATM   21  C1  UNL     1      -1.605   3.052  87.653  1.00  0.00     0.010 C 
HETATM   22  C18 UNL     1      -0.689   2.925  86.478  1.00  0.00     0.045 C 
HETATM   23  C17 UNL     1      -0.391   4.217  85.773  1.00  0.00     0.063 C 
ENDBRANCH  17  18
ENDBRANCH   1  17
TORSDOF 2
ENDMDL
MODEL 3
REMARK VINA RESULT: -6.517504571      0.681      1.228
REMARK  2 active torsions:
REMARK  status: ('A' for Active; 'I' for Inactive)
REMARK    1  A    between atoms: N1_4  and  C4_5 
REMARK    2  A    between atoms: C4_5  and  C5_6 
ROOT
HETATM    1  C5  UNL     1      -0.861   7.298  84.264  1.00  0.00    -0.035 C 
HETATM    2  C6  UNL     1      -0.447   8.142  85.444  1.00  0.00     0.038 C 
HETATM    3  C7  UNL     1      -1.216   9.446  85.379  1.00  0.00     0.009 C 
HETATM    4  C8  UNL     1      -1.946   9.679  84.098  1.00  0.00     0.038 C 
HETATM    5  C9  UNL     1      -1.152   9.206  82.912  1.00  0.00    -0.028 C 
HETATM    6  C10 UNL     1      -0.618   7.996  83.034  1.00  0.00     0.038 C 
HETATM    7  N2  UNL     1       0.170   7.333  82.058  1.00  0.00    -0.374 N 
HETATM    8  C11 UNL     1       1.233   6.425  82.404  1.00  0.00     0.123 C 
HETATM    9  C12 UNL     1       2.179   6.601  81.226  1.00  0.00     0.022 C 
HETATM   10  C13 UNL     1       1.319   7.007  80.060  1.00  0.00     0.028 C 
HETATM   11  C14 UNL     1       0.018   7.476  80.628  1.00  0.00     0.110 C 
HETATM   12  C15 UNL     1      -0.175   8.895  80.179  1.00  0.00     0.257 C 
HETATM   13  N3  UNL     1      -1.398   9.505  80.586  1.00  0.00    -0.070 N 
ATOM     14  H31 UNL     1      -2.171   8.844  80.658  1.00  0.00     0.277 HD
ATOM     15  H32 UNL     1      -1.805  10.104  79.868  1.00  0.00     0.277 HD
HETATM   16  C16 UNL     1      -1.131  10.207  81.829  1.00  0.00     0.269 C 
ENDROOT
BRANCH   1  17
HETATM   17  C4  UNL     1      -0.683   5.852  84.420  1.00  0.00     0.163 C 
BRANCH  17  18
HETATM   18  N1  UNL     1      -0.967   5.425  85.779  1.00  0.00    -0.370 N 
HETATM   19  C3  UNL     1      -2.252   5.634  86.269  1.00  0.00     0.063 C 
HETATM   20  C2  UNL     1      -2.934   4.408  86.836  1.00  0.00     0.045 C 
HETATM   21  C1  UNL     1      -1.999   3.841  87.894  1.00  0.00     0.010 C 
HETATM   22  C18 UNL     1      -0.728   3.438  87.216  1.00  0.00     0.045 C 
HETATM   23  C17 UNL     1      -0.104   4.508  86.366  1.00  0.00     0.063 C 
ENDBRANCH  17  18
ENDBRANCH   1  17
TORSDOF 2
ENDMDL
MODEL 4
REMARK VINA RESULT: -6.437189223      1.733      3.538
REMARK  2 active torsions:
REMARK  status: ('A' for Active; 'I' for Inactive)
REMARK    1  A    between atoms: N1_4  and  C4_5 
REMARK    2  A    between atoms: C4_5  and  C5_6 
ROOT
HETATM    1  C5  UNL     1       0.341   6.212  84.186  1.00  0.00    -0.035 C 
HETATM    2  C6  UNL     1      -0.433   5.302  83.264  1.00  0.00     0.038 C 
HETATM    3  C7  UNL     1       0.340   5.182  81.966  1.00  0.00     0.009 C 
HETATM    4  C8  UNL     1       1.470   6.147  81.820  1.00  0.00     0.038 C 
HETATM    5  C9  UNL     1       1.120   7.501  82.374  1.00  0.00    -0.028 C 
HETATM    6  C10 UNL     1       0.550   7.492  83.573  1.00  0.00     0.038 C 
HETATM    7  N2  UNL     1       0.130   8.635  84.301  1.00  0.00    -0.374 N 
HETATM    8  C11 UNL     1      -1.007   8.618  85.186  1.00  0.00     0.123 C 
HETATM    9  C12 UNL     1      -1.488  10.058  85.090  1.00  0.00     0.022 C 
HETATM   10  C13 UNL     1      -0.270  10.881  84.764  1.00  0.00     0.028 C 
HETATM   11  C14 UNL     1       0.766   9.931  84.256  1.00  0.00     0.110 C 
HETATM   12  C15 UNL     1       1.133  10.377  82.871  1.00  0.00     0.257 C 
HETATM   13  N3  UNL     1       2.156   9.615  82.232  1.00  0.00    -0.070 N 
ATOM     14  H31 UNL     1       2.842   9.239  82.886  1.00  0.00     0.277 HD
ATOM     15  H32 UNL     1       2.798  10.186  81.683  1.00  0.00     0.277 HD
HETATM   16  C16 UNL     1       1.495   8.587  81.448  1.00  0.00     0.269 C 
ENDROOT
BRANCH   1  17
HETATM   17  C4  UNL     1       0.089   6.034  85.617  1.00  0.00     0.163 C 
BRANCH  17  18
HETATM   18  N1  UNL     1      -0.942   5.039  85.857  1.00  0.00    -0.370 N 
HETATM   19  C3  UNL     1      -0.536   3.750  86.186  1.00  0.00     0.063 C 
HETATM   20  C2  UNL     1      -1.141   3.186  87.453  1.00  0.00     0.045 C 
HETATM   21  C1  UNL     1      -2.651   3.293  87.297  1.00  0.00     0.010 C 
HETATM   22  C18 UNL     1      -3.001   4.742  87.177  1.00  0.00     0.045 C 
HETATM   23  C17 UNL     1      -2.229   5.488  86.128  1.00  0.00     0.063 C 
ENDBRANCH  17  18
ENDBRANCH   1  17
TORSDOF 2
ENDMDL
MODEL 5
REMARK VINA RESULT: -6.341366959      0.930      1.122
REMARK  2 active torsions:
REMARK  status: ('A' for Active; 'I' for Inactive)
REMARK    1  A    between atoms: N1_4  and  C4_5 
REMARK    2  A    between atoms: C4_5  and  C5_6 
ROOT
HETATM    1  C5  UNL     1      -0.214   7.240  83.765  1.00  0.00    -0.035 C 
HETATM    2  C6  UNL     1       0.579   7.788  84.927  1.00  0.00     0.038 C 
HETATM    3  C7  UNL     1      -0.031   9.117  85.324  1.00  0.00     0.009 C 
HETATM    4  C8  UNL     1      -1.032   9.660  84.359  1.00  0.00     0.038 C 
HETATM    5  C9  UNL     1      -0.625   9.406  82.934  1.00  0.00    -0.028 C 
HETATM    6  C10 UNL     1      -0.216   8.170  82.673  1.00  0.00     0.038 C 
HETATM    7  N2  UNL     1       0.218   7.688  81.411  1.00  0.00    -0.374 N 
HETATM    8  C11 UNL     1       1.225   6.668  81.274  1.00  0.00     0.123 C 
HETATM    9  C12 UNL     1       1.854   7.038  79.939  1.00  0.00     0.022 C 
HETATM   10  C13 UNL     1       0.775   7.732  79.151  1.00  0.00     0.028 C 
HETATM   11  C14 UNL     1      -0.277   8.142  80.132  1.00  0.00     0.110 C 
HETATM   12  C15 UNL     1      -0.418   9.632  80.031  1.00  0.00     0.257 C 
HETATM   13  N3  UNL     1      -1.420  10.210  80.865  1.00  0.00    -0.070 N 
ATOM     14  H31 UNL     1      -2.219   9.594  81.018  1.00  0.00     0.277 HD
ATOM     15  H32 UNL     1      -1.928  10.971  80.413  1.00  0.00     0.277 HD
HETATM   16  C16 UNL     1      -0.769  10.614  82.098  1.00  0.00     0.269 C 
ENDROOT
BRANCH   1  17
HETATM   17  C4  UNL     1      -0.165   5.787  83.588  1.00  0.00     0.163 C 
BRANCH  17  18
HETATM   18  N1  UNL     1      -0.988   5.103  84.571  1.00  0.00    -0.370 N 
HETATM   19  C3  UNL     1      -0.465   3.963  85.173  1.00  0.00     0.063 C 
HETATM   20  C2  UNL     1      -0.473   3.971  86.685  1.00  0.00     0.045 C 
HETATM   21  C1  UNL     1      -1.908   4.241  87.111  1.00  0.00     0.010 C 
HETATM   22  C18 UNL     1      -2.293   5.593  86.602  1.00  0.00     0.045 C 
HETATM   23  C17 UNL     1      -2.045   5.805  85.136  1.00  0.00     0.063 C 
ENDBRANCH  17  18
ENDBRANCH   1  17
TORSDOF 2
ENDMDL
