MODEL 1
REMARK VINA RESULT: -6.027029913      0.000      0.000
REMARK  4 active torsions:
REMARK  status: ('A' for Active; 'I' for Inactive)
REMARK    1  A    between atoms: C2_2  and  N1_4 
REMARK    2  A    between atoms: N1_4  and  N2_5 
REMARK       I    between atoms: N2_5  and  C4_7 
REMARK    3  A    between atoms: C4_7  and  C5_9 
REMARK       I    between atoms: N3_13  and  C8_14 
REMARK    4  A    between atoms: C8_14  and  C9_16 
ROOT
HETATM    1  C5  UNL     1      -5.320  68.191   1.903  1.00  0.00     0.190 C 
HETATM    2  C6  UNL     1      -5.317  68.291   0.384  1.00  0.00     0.110 C 
HETATM    3  S1  UNL     1      -4.229  69.772   0.268  1.00  0.00    -0.147 SA
HETATM    4  C7  UNL     1      -4.800  70.541   1.843  1.00  0.00     0.200 C 
HETATM    5  N3  UNL     1      -5.600  69.520   2.418  1.00  0.00    -0.328 N 
HETATM    6  C8  UNL     1      -6.590  69.749   3.443  1.00  0.00     0.230 C 
HETATM    7  O2  UNL     1      -7.191  68.694   3.858  1.00  0.00    -0.272 OA
ENDROOT
BRANCH   1   8
HETATM    8  C4  UNL     1      -3.971  67.690   2.302  1.00  0.00     0.257 C 
HETATM    9  N2  UNL     1      -3.521  66.496   1.694  1.00  0.00    -0.272 N 
ATOM     10  H2  UNL     1      -4.115  66.024   1.013  1.00  0.00     0.185 HD
HETATM   11  O1  UNL     1      -3.253  68.268   3.130  1.00  0.00    -0.270 OA
BRANCH   9  12
HETATM   12  N1  UNL     1      -2.297  65.965   2.006  1.00  0.00    -0.135 NA
BRANCH  12  13
HETATM   13  C2  UNL     1      -2.118  64.630   1.566  1.00  0.00     0.091 C 
HETATM   14  C1  UNL     1      -0.639  64.439   1.206  1.00  0.00     0.029 C 
HETATM   15  C3  UNL     1      -2.452  63.694   2.743  1.00  0.00     0.029 C 
ENDBRANCH  12  13
ENDBRANCH   9  12
ENDBRANCH   1   8
BRANCH   6  16
HETATM   16  C9  UNL     1      -6.941  71.047   4.022  1.00  0.00     0.041 C 
HETATM   17  C10 UNL     1      -8.298  70.870   4.710  1.00  0.00     0.020 C 
HETATM   18  C11 UNL     1      -8.914  72.240   4.879  1.00  0.00     0.006 C 
HETATM   19  C12 UNL     1      -7.743  73.196   5.135  1.00  0.00    -0.014 C 
HETATM   20  C13 UNL     1      -6.767  72.443   6.019  1.00  0.00     0.006 C 
HETATM   21  C15 UNL     1      -7.111  73.476   3.806  1.00  0.00     0.006 C 
HETATM   22  C14 UNL     1      -5.976  71.517   5.085  1.00  0.00     0.020 C 
HETATM   23  C16 UNL     1      -7.140  72.157   3.019  1.00  0.00     0.020 C 
ENDBRANCH   6  16
TORSDOF 4
ENDMDL
MODEL 2
REMARK VINA RESULT: -5.907319389      0.888      1.043
REMARK  4 active torsions:
REMARK  status: ('A' for Active; 'I' for Inactive)
REMARK    1  A    between atoms: C2_2  and  N1_4 
REMARK    2  A    between atoms: N1_4  and  N2_5 
REMARK       I    between atoms: N2_5  and  C4_7 
REMARK    3  A    between atoms: C4_7  and  C5_9 
REMARK       I    between atoms: N3_13  and  C8_14 
REMARK    4  A    between atoms: C8_14  and  C9_16 
ROOT
HETATM    1  C5  UNL     1      -5.585  68.638   1.673  1.00  0.00     0.190 C 
HETATM    2  C6  UNL     1      -5.235  69.005   0.239  1.00  0.00     0.110 C 
HETATM    3  S1  UNL     1      -3.929  70.238   0.645  1.00  0.00    -0.147 SA
HETATM    4  C7  UNL     1      -4.702  70.810   2.218  1.00  0.00     0.200 C 
HETATM    5  N3  UNL     1      -5.759  69.882   2.404  1.00  0.00    -0.328 N 
HETATM    6  C8  UNL     1      -6.900  70.114   3.256  1.00  0.00     0.230 C 
HETATM    7  O2  UNL     1      -7.734  69.141   3.316  1.00  0.00    -0.272 OA
ENDROOT
BRANCH   1   8
HETATM    8  C4  UNL     1      -4.451  67.816   2.195  1.00  0.00     0.257 C 
HETATM    9  N2  UNL     1      -3.874  66.878   1.308  1.00  0.00    -0.272 N 
ATOM     10  H2  UNL     1      -4.238  66.793   0.359  1.00  0.00     0.185 HD
HETATM   11  O1  UNL     1      -4.013  67.924   3.349  1.00  0.00    -0.270 OA
BRANCH   9  12
HETATM   12  N1  UNL     1      -2.832  66.082   1.707  1.00  0.00    -0.135 NA
BRANCH  12  13
HETATM   13  C2  UNL     1      -1.872  65.840   0.694  1.00  0.00     0.091 C 
HETATM   14  C1  UNL     1      -1.342  67.194   0.205  1.00  0.00     0.029 C 
HETATM   15  C3  UNL     1      -0.701  65.064   1.326  1.00  0.00     0.029 C 
ENDBRANCH  12  13
ENDBRANCH   9  12
ENDBRANCH   1   8
BRANCH   6  16
HETATM   16  C9  UNL     1      -7.160  71.331   4.027  1.00  0.00     0.041 C 
HETATM   17  C10 UNL     1      -8.520  71.138   4.708  1.00  0.00     0.020 C 
HETATM   18  C11 UNL     1      -9.044  72.502   5.091  1.00  0.00     0.006 C 
HETATM   19  C12 UNL     1      -7.811  73.335   5.461  1.00  0.00    -0.014 C 
HETATM   20  C13 UNL     1      -6.876  72.399   6.206  1.00  0.00     0.006 C 
HETATM   21  C15 UNL     1      -7.176  73.770   4.177  1.00  0.00     0.006 C 
HETATM   22  C14 UNL     1      -6.156  71.576   5.129  1.00  0.00     0.020 C 
HETATM   23  C16 UNL     1      -7.298  72.587   3.204  1.00  0.00     0.020 C 
ENDBRANCH   6  16
TORSDOF 4
ENDMDL
MODEL 3
REMARK VINA RESULT: -5.870630742      2.046      7.368
REMARK  4 active torsions:
REMARK  status: ('A' for Active; 'I' for Inactive)
REMARK    1  A    between atoms: C2_2  and  N1_4 
REMARK    2  A    between atoms: N1_4  and  N2_5 
REMARK       I    between atoms: N2_5  and  C4_7 
REMARK    3  A    between atoms: C4_7  and  C5_9 
REMARK       I    between atoms: N3_13  and  C8_14 
REMARK    4  A    between atoms: C8_14  and  C9_16 
ROOT
HETATM    1  C5  UNL     1      -5.553  70.065   3.702  1.00  0.00     0.190 C 
HETATM    2  C6  UNL     1      -5.197  71.544   3.706  1.00  0.00     0.110 C 
HETATM    3  S1  UNL     1      -5.754  71.904   1.988  1.00  0.00    -0.147 SA
HETATM    4  C7  UNL     1      -5.340  70.240   1.311  1.00  0.00     0.200 C 
HETATM    5  N3  UNL     1      -5.017  69.499   2.476  1.00  0.00    -0.328 N 
HETATM    6  C8  UNL     1      -4.251  68.276   2.472  1.00  0.00     0.230 C 
HETATM    7  O2  UNL     1      -4.089  67.736   3.624  1.00  0.00    -0.272 OA
ENDROOT
BRANCH   1   8
HETATM    8  C4  UNL     1      -7.043  69.982   3.773  1.00  0.00     0.257 C 
HETATM    9  N2  UNL     1      -7.706  70.949   4.563  1.00  0.00    -0.272 N 
ATOM     10  H2  UNL     1      -7.160  71.661   5.048  1.00  0.00     0.185 HD
HETATM   11  O1  UNL     1      -7.700  69.115   3.180  1.00  0.00    -0.270 OA
BRANCH   9  12
HETATM   12  N1  UNL     1      -9.071  70.943   4.684  1.00  0.00    -0.135 NA
BRANCH  12  13
HETATM   13  C2  UNL     1      -9.623  72.197   5.045  1.00  0.00     0.091 C 
HETATM   14  C1  UNL     1      -8.635  72.901   5.985  1.00  0.00     0.029 C 
HETATM   15  C3  UNL     1      -9.756  73.042   3.765  1.00  0.00     0.029 C 
ENDBRANCH  12  13
ENDBRANCH   9  12
ENDBRANCH   1   8
BRANCH   6  16
HETATM   16  C9  UNL     1      -3.671  67.632   1.291  1.00  0.00     0.041 C 
HETATM   17  C10 UNL     1      -2.885  66.417   1.794  1.00  0.00     0.020 C 
HETATM   18  C11 UNL     1      -1.896  66.028   0.719  1.00  0.00     0.006 C 
HETATM   19  C12 UNL     1      -2.590  66.330  -0.615  1.00  0.00    -0.014 C 
HETATM   20  C13 UNL     1      -4.045  65.943  -0.434  1.00  0.00     0.006 C 
HETATM   21  C15 UNL     1      -2.482  67.808  -0.838  1.00  0.00     0.006 C 
HETATM   22  C14 UNL     1      -4.703  67.107   0.320  1.00  0.00     0.020 C 
HETATM   23  C16 UNL     1      -2.673  68.472   0.535  1.00  0.00     0.020 C 
ENDBRANCH   6  16
TORSDOF 4
ENDMDL
MODEL 4
REMARK VINA RESULT: -5.838259175      1.180      1.341
REMARK  4 active torsions:
REMARK  status: ('A' for Active; 'I' for Inactive)
REMARK    1  A    between atoms: C2_2  and  N1_4 
REMARK    2  A    between atoms: N1_4  and  N2_5 
REMARK       I    between atoms: N2_5  and  C4_7 
REMARK    3  A    between atoms: C4_7  and  C5_9 
REMARK       I    between atoms: N3_13  and  C8_14 
REMARK    4  A    between atoms: C8_14  and  C9_16 
ROOT
HETATM    1  C5  UNL     1      -5.972  69.233   2.269  1.00  0.00     0.190 C 
HETATM    2  C6  UNL     1      -5.641  69.577   0.824  1.00  0.00     0.110 C 
HETATM    3  S1  UNL     1      -4.292  70.775   1.193  1.00  0.00    -0.147 SA
HETATM    4  C7  UNL     1      -5.016  71.383   2.776  1.00  0.00     0.200 C 
HETATM    5  N3  UNL     1      -6.094  70.487   2.990  1.00  0.00    -0.328 N 
HETATM    6  C8  UNL     1      -7.211  70.760   3.863  1.00  0.00     0.230 C 
HETATM    7  O2  UNL     1      -8.072  69.812   3.949  1.00  0.00    -0.272 OA
ENDROOT
BRANCH   1   8
HETATM    8  C4  UNL     1      -4.852  68.383   2.775  1.00  0.00     0.257 C 
HETATM    9  N2  UNL     1      -4.232  67.515   1.847  1.00  0.00    -0.272 N 
ATOM     10  H2  UNL     1      -4.557  67.496   0.881  1.00  0.00     0.185 HD
HETATM   11  O1  UNL     1      -4.461  68.410   3.950  1.00  0.00    -0.270 OA
BRANCH   9  12
HETATM   12  N1  UNL     1      -3.199  66.698   2.229  1.00  0.00    -0.135 NA
BRANCH  12  13
HETATM   13  C2  UNL     1      -2.824  65.746   1.249  1.00  0.00     0.091 C 
HETATM   14  C1  UNL     1      -1.578  66.273   0.525  1.00  0.00     0.029 C 
HETATM   15  C3  UNL     1      -2.445  64.443   1.974  1.00  0.00     0.029 C 
ENDBRANCH  12  13
ENDBRANCH   9  12
ENDBRANCH   1   8
BRANCH   6  16
HETATM   16  C9  UNL     1      -7.420  71.990   4.628  1.00  0.00     0.041 C 
HETATM   17  C10 UNL     1      -8.883  71.981   5.085  1.00  0.00     0.020 C 
HETATM   18  C11 UNL     1      -9.270  73.401   5.430  1.00  0.00     0.006 C 
HETATM   19  C12 UNL     1      -8.008  74.046   6.016  1.00  0.00    -0.014 C 
HETATM   20  C13 UNL     1      -7.339  72.978   6.861  1.00  0.00     0.006 C 
HETATM   21  C15 UNL     1      -7.125  74.406   4.861  1.00  0.00     0.006 C 
HETATM   22  C14 UNL     1      -6.578  72.076   5.879  1.00  0.00     0.020 C 
HETATM   23  C16 UNL     1      -7.254  73.265   3.839  1.00  0.00     0.020 C 
ENDBRANCH   6  16
TORSDOF 4
ENDMDL
MODEL 5
REMARK VINA RESULT: -5.684129375      1.884      7.656
REMARK  4 active torsions:
REMARK  status: ('A' for Active; 'I' for Inactive)
REMARK    1  A    between atoms: C2_2  and  N1_4 
REMARK    2  A    between atoms: N1_4  and  N2_5 
REMARK       I    between atoms: N2_5  and  C4_7 
REMARK    3  A    between atoms: C4_7  and  C5_9 
REMARK       I    between atoms: N3_13  and  C8_14 
REMARK    4  A    between atoms: C8_14  and  C9_16 
ROOT
HETATM    1  C5  UNL     1      -5.089  69.460   1.290  1.00  0.00     0.190 C 
HETATM    2  C6  UNL     1      -6.129  69.760   0.221  1.00  0.00     0.110 C 
HETATM    3  S1  UNL     1      -6.939  68.106   0.239  1.00  0.00    -0.147 SA
HETATM    4  C7  UNL     1      -5.412  67.160   0.655  1.00  0.00     0.200 C 
HETATM    5  N3  UNL     1      -4.478  68.187   0.948  1.00  0.00    -0.328 N 
HETATM    6  C8  UNL     1      -3.046  68.005   0.941  1.00  0.00     0.230 C 
HETATM    7  O2  UNL     1      -2.369  69.046   1.262  1.00  0.00    -0.272 OA
ENDROOT
BRANCH   1   8
HETATM    8  C4  UNL     1      -5.815  69.420   2.595  1.00  0.00     0.257 C 
HETATM    9  N2  UNL     1      -6.831  70.380   2.797  1.00  0.00    -0.272 N 
ATOM     10  H2  UNL     1      -7.038  71.057   2.062  1.00  0.00     0.185 HD
HETATM   11  O1  UNL     1      -5.560  68.595   3.485  1.00  0.00    -0.270 OA
BRANCH   9  12
HETATM   12  N1  UNL     1      -7.544  70.416   3.968  1.00  0.00    -0.135 NA
BRANCH  12  13
HETATM   13  C2  UNL     1      -7.800  71.724   4.447  1.00  0.00     0.091 C 
HETATM   14  C1  UNL     1      -9.301  71.839   4.742  1.00  0.00     0.029 C 
HETATM   15  C3  UNL     1      -7.034  71.902   5.770  1.00  0.00     0.029 C 
ENDBRANCH  12  13
ENDBRANCH   9  12
ENDBRANCH   1   8
BRANCH   6  16
HETATM   16  C9  UNL     1      -2.342  66.765   0.610  1.00  0.00     0.041 C 
HETATM   17  C10 UNL     1      -0.886  67.149   0.325  1.00  0.00     0.020 C 
HETATM   18  C11 UNL     1      -0.260  66.031  -0.477  1.00  0.00     0.006 C 
HETATM   19  C12 UNL     1      -0.907  64.738   0.034  1.00  0.00    -0.014 C 
HETATM   20  C13 UNL     1      -1.057  64.904   1.535  1.00  0.00     0.006 C 
HETATM   21  C15 UNL     1      -2.260  64.645  -0.604  1.00  0.00     0.006 C 
HETATM   22  C14 UNL     1      -2.311  65.765   1.742  1.00  0.00     0.020 C 
HETATM   23  C16 UNL     1      -2.827  66.072  -0.639  1.00  0.00     0.020 C 
ENDBRANCH   6  16
TORSDOF 4
ENDMDL
