MODEL 1
REMARK VINA RESULT: -8.922149675      0.000      0.000
REMARK  4 active torsions:
REMARK  status: ('A' for Active; 'I' for Inactive)
REMARK       I    between atoms: C1_2  and  N2_4 
REMARK       I    between atoms: N2_4  and  C2_6 
REMARK    1  A    between atoms: C2_6  and  C3_8 
REMARK    2  A    between atoms: C7_12  and  C8_13 
REMARK    3  A    between atoms: C8_13  and  O4_15 
REMARK    4  A    between atoms: O4_15  and  C9_16 
ROOT
HETATM    1  C8  UNL     1      -1.273  63.159   2.068  1.00  0.00     0.264 C 
HETATM    2  O3  UNL     1      -2.053  63.473   3.003  1.00  0.00    -0.265 OA
ENDROOT
BRANCH   1   3
HETATM    3  C7  UNL     1      -1.128  61.721   1.714  1.00  0.00     0.098 C 
HETATM    4  C3  UNL     1      -0.239  61.019   2.686  1.00  0.00     0.092 C 
HETATM    5  C4  UNL     1       0.478  59.968   1.871  1.00  0.00     0.015 C 
HETATM    6  C5  UNL     1       0.207  60.247   0.430  1.00  0.00     0.002 C 
HETATM    7  C6  UNL     1      -0.314  61.665   0.427  1.00  0.00     0.015 C 
BRANCH   4   8
HETATM    8  C2  UNL     1      -0.959  60.353   3.773  1.00  0.00     0.230 C 
HETATM    9  N2  UNL     1      -2.346  60.146   3.675  1.00  0.00    -0.281 N 
HETATM   10  C1  UNL     1      -3.028  59.499   4.736  1.00  0.00     0.335 C 
ATOM     11  H2  UNL     1      -2.856  60.457   2.849  1.00  0.00     0.173 HD
HETATM   12  N1  UNL     1      -4.443  59.265   4.682  1.00  0.00    -0.040 NA
HETATM   13  O1  UNL     1      -2.413  59.113   5.756  1.00  0.00    -0.251 OA
HETATM   14  O2  UNL     1      -0.340  59.969   4.790  1.00  0.00    -0.273 OA
ENDBRANCH   4   8
ENDBRANCH   1   3
BRANCH   1  15
HETATM   15  O4  UNL     1      -0.600  64.175   1.431  1.00  0.00    -0.315 OA
BRANCH  15  16
HETATM   16  C9  UNL     1      -1.217  65.377   1.011  1.00  0.00     0.140 C 
HETATM   17  C10 UNL     1      -0.260  66.132   0.146  1.00  0.00     0.016 C 
HETATM   18  C11 UNL     1      -0.841  67.533  -0.053  1.00  0.00     0.012 C 
HETATM   19  C15 UNL     1      -0.106  65.523  -1.227  1.00  0.00     0.012 C 
HETATM   20  C12 UNL     1      -2.186  67.418  -0.699  1.00  0.00    -0.013 C 
HETATM   21  C13 UNL     1      -1.974  66.831  -2.089  1.00  0.00     0.009 C 
HETATM   22  C18 UNL     1      -3.134  66.548   0.104  1.00  0.00     0.012 C 
HETATM   23  C14 UNL     1      -1.438  65.438  -1.918  1.00  0.00    -0.013 C 
HETATM   24  C16 UNL     1      -2.345  64.571  -1.081  1.00  0.00     0.012 C 
HETATM   25  C17 UNL     1      -2.512  65.157   0.291  1.00  0.00     0.016 C 
ENDBRANCH  15  16
ENDBRANCH   1  15
TORSDOF 4
ENDMDL
MODEL 2
REMARK VINA RESULT: -8.517636044      0.591      1.724
REMARK  4 active torsions:
REMARK  status: ('A' for Active; 'I' for Inactive)
REMARK       I    between atoms: C1_2  and  N2_4 
REMARK       I    between atoms: N2_4  and  C2_6 
REMARK    1  A    between atoms: C2_6  and  C3_8 
REMARK    2  A    between atoms: C7_12  and  C8_13 
REMARK    3  A    between atoms: C8_13  and  O4_15 
REMARK    4  A    between atoms: O4_15  and  C9_16 
ROOT
HETATM    1  C8  UNL     1      -1.086  62.925   1.870  1.00  0.00     0.264 C 
HETATM    2  O3  UNL     1      -1.754  63.316   2.862  1.00  0.00    -0.265 OA
ENDROOT
BRANCH   1   3
HETATM    3  C7  UNL     1      -0.987  61.464   1.609  1.00  0.00     0.098 C 
HETATM    4  C3  UNL     1      -0.141  60.794   2.641  1.00  0.00     0.092 C 
HETATM    5  C4  UNL     1       0.551  59.669   1.907  1.00  0.00     0.015 C 
HETATM    6  C5  UNL     1       0.317  59.866   0.447  1.00  0.00     0.002 C 
HETATM    7  C6  UNL     1      -0.152  61.299   0.345  1.00  0.00     0.015 C 
BRANCH   4   8
HETATM    8  C2  UNL     1      -0.906  60.223   3.752  1.00  0.00     0.230 C 
HETATM    9  N2  UNL     1      -2.293  60.039   3.630  1.00  0.00    -0.281 N 
HETATM   10  C1  UNL     1      -3.018  59.484   4.716  1.00  0.00     0.335 C 
ATOM     11  H2  UNL     1      -2.775  60.301   2.770  1.00  0.00     0.173 HD
HETATM   12  N1  UNL     1      -4.437  59.277   4.639  1.00  0.00    -0.040 NA
HETATM   13  O1  UNL     1      -2.439  59.159   5.777  1.00  0.00    -0.251 OA
HETATM   14  O2  UNL     1      -0.322  59.899   4.811  1.00  0.00    -0.273 OA
ENDBRANCH   4   8
ENDBRANCH   1   3
BRANCH   1  15
HETATM   15  O4  UNL     1      -0.487  63.884   1.088  1.00  0.00    -0.315 OA
BRANCH  15  16
HETATM   16  C9  UNL     1      -1.073  64.412  -0.087  1.00  0.00     0.140 C 
HETATM   17  C10 UNL     1      -2.423  64.957   0.253  1.00  0.00     0.016 C 
HETATM   18  C11 UNL     1      -3.134  65.256  -1.069  1.00  0.00     0.012 C 
HETATM   19  C15 UNL     1      -2.355  66.258   1.017  1.00  0.00     0.012 C 
HETATM   20  C12 UNL     1      -2.325  66.247  -1.846  1.00  0.00    -0.013 C 
HETATM   21  C13 UNL     1      -2.314  67.547  -1.052  1.00  0.00     0.009 C 
HETATM   22  C18 UNL     1      -0.908  65.764  -2.091  1.00  0.00     0.012 C 
HETATM   23  C14 UNL     1      -1.586  67.287   0.237  1.00  0.00    -0.013 C 
HETATM   24  C16 UNL     1      -0.191  66.760   0.013  1.00  0.00     0.012 C 
HETATM   25  C17 UNL     1      -0.234  65.465  -0.744  1.00  0.00     0.016 C 
ENDBRANCH  15  16
ENDBRANCH   1  15
TORSDOF 4
ENDMDL
MODEL 3
REMARK VINA RESULT: -8.476275976      0.663      1.251
REMARK  4 active torsions:
REMARK  status: ('A' for Active; 'I' for Inactive)
REMARK       I    between atoms: C1_2  and  N2_4 
REMARK       I    between atoms: N2_4  and  C2_6 
REMARK    1  A    between atoms: C2_6  and  C3_8 
REMARK    2  A    between atoms: C7_12  and  C8_13 
REMARK    3  A    between atoms: C8_13  and  O4_15 
REMARK    4  A    between atoms: O4_15  and  C9_16 
ROOT
HETATM    1  C8  UNL     1      -1.110  62.823   1.741  1.00  0.00     0.264 C 
HETATM    2  O3  UNL     1      -1.667  63.239   2.789  1.00  0.00    -0.265 OA
ENDROOT
BRANCH   1   3
HETATM    3  C7  UNL     1      -0.975  61.355   1.540  1.00  0.00     0.098 C 
HETATM    4  C3  UNL     1      -0.125  60.747   2.607  1.00  0.00     0.092 C 
HETATM    5  C4  UNL     1       0.601  59.610   1.926  1.00  0.00     0.015 C 
HETATM    6  C5  UNL     1       0.378  59.743   0.456  1.00  0.00     0.002 C 
HETATM    7  C6  UNL     1      -0.123  61.159   0.292  1.00  0.00     0.015 C 
BRANCH   4   8
HETATM    8  C2  UNL     1      -0.887  60.204   3.733  1.00  0.00     0.230 C 
HETATM    9  N2  UNL     1      -2.272  59.999   3.611  1.00  0.00    -0.281 N 
HETATM   10  C1  UNL     1      -2.995  59.471   4.711  1.00  0.00     0.335 C 
ATOM     11  H2  UNL     1      -2.753  60.227   2.741  1.00  0.00     0.173 HD
HETATM   12  N1  UNL     1      -4.411  59.245   4.635  1.00  0.00    -0.040 NA
HETATM   13  O1  UNL     1      -2.417  59.189   5.785  1.00  0.00    -0.251 OA
HETATM   14  O2  UNL     1      -0.305  59.922   4.804  1.00  0.00    -0.273 OA
ENDBRANCH   4   8
ENDBRANCH   1   3
BRANCH   1  15
HETATM   15  O4  UNL     1      -0.661  63.762   0.843  1.00  0.00    -0.315 OA
BRANCH  15  16
HETATM   16  C9  UNL     1      -1.520  64.540   0.030  1.00  0.00     0.140 C 
HETATM   17  C10 UNL     1      -1.423  65.968   0.459  1.00  0.00     0.016 C 
HETATM   18  C11 UNL     1      -2.556  66.725  -0.238  1.00  0.00     0.012 C 
HETATM   19  C15 UNL     1      -0.132  66.623   0.030  1.00  0.00     0.012 C 
HETATM   20  C12 UNL     1      -2.398  66.587  -1.719  1.00  0.00    -0.013 C 
HETATM   21  C13 UNL     1      -1.102  67.290  -2.105  1.00  0.00     0.009 C 
HETATM   22  C18 UNL     1      -2.366  65.137  -2.160  1.00  0.00     0.012 C 
HETATM   23  C14 UNL     1       0.030  66.541  -1.463  1.00  0.00    -0.013 C 
HETATM   24  C16 UNL     1       0.050  65.084  -1.851  1.00  0.00     0.012 C 
HETATM   25  C17 UNL     1      -1.225  64.411  -1.433  1.00  0.00     0.016 C 
ENDBRANCH  15  16
ENDBRANCH   1  15
TORSDOF 4
ENDMDL
MODEL 4
REMARK VINA RESULT: -8.391454329      2.799      4.730
REMARK  4 active torsions:
REMARK  status: ('A' for Active; 'I' for Inactive)
REMARK       I    between atoms: C1_2  and  N2_4 
REMARK       I    between atoms: N2_4  and  C2_6 
REMARK    1  A    between atoms: C2_6  and  C3_8 
REMARK    2  A    between atoms: C7_12  and  C8_13 
REMARK    3  A    between atoms: C8_13  and  O4_15 
REMARK    4  A    between atoms: O4_15  and  C9_16 
ROOT
HETATM    1  C8  UNL     1       0.079  60.826   0.918  1.00  0.00     0.264 C 
HETATM    2  O3  UNL     1       0.918  59.939   1.218  1.00  0.00    -0.265 OA
ENDROOT
BRANCH   1   3
HETATM    3  C7  UNL     1      -0.264  61.856   1.934  1.00  0.00     0.098 C 
HETATM    4  C3  UNL     1      -1.683  61.717   2.378  1.00  0.00     0.092 C 
HETATM    5  C4  UNL     1      -2.142  63.127   2.666  1.00  0.00     0.015 C 
HETATM    6  C5  UNL     1      -1.103  64.060   2.140  1.00  0.00     0.002 C 
HETATM    7  C6  UNL     1      -0.277  63.198   1.213  1.00  0.00     0.015 C 
BRANCH   4   8
HETATM    8  C2  UNL     1      -1.847  60.917   3.594  1.00  0.00     0.230 C 
HETATM    9  N2  UNL     1      -2.983  60.106   3.755  1.00  0.00    -0.281 N 
HETATM   10  C1  UNL     1      -3.125  59.338   4.938  1.00  0.00     0.335 C 
ATOM     11  H2  UNL     1      -3.698  60.070   3.028  1.00  0.00     0.173 HD
HETATM   12  N1  UNL     1      -4.268  58.495   5.148  1.00  0.00    -0.040 NA
HETATM   13  O1  UNL     1      -2.256  59.374   5.838  1.00  0.00    -0.251 OA
HETATM   14  O2  UNL     1      -0.974  60.956   4.490  1.00  0.00    -0.273 OA
ENDBRANCH   4   8
ENDBRANCH   1   3
BRANCH   1  15
HETATM   15  O4  UNL     1      -0.470  60.782  -0.342  1.00  0.00    -0.315 OA
BRANCH  15  16
HETATM   16  C9  UNL     1       0.245  60.372  -1.493  1.00  0.00     0.140 C 
HETATM   17  C10 UNL     1      -0.726  59.848  -2.500  1.00  0.00     0.016 C 
HETATM   18  C11 UNL     1       0.089  59.161  -3.598  1.00  0.00     0.012 C 
HETATM   19  C15 UNL     1      -1.525  60.942  -3.169  1.00  0.00     0.012 C 
HETATM   20  C12 UNL     1       1.025  60.157  -4.207  1.00  0.00    -0.013 C 
HETATM   21  C13 UNL     1       0.174  61.218  -4.895  1.00  0.00     0.009 C 
HETATM   22  C18 UNL     1       1.935  60.796  -3.175  1.00  0.00     0.012 C 
HETATM   23  C14 UNL     1      -0.609  61.933  -3.831  1.00  0.00    -0.013 C 
HETATM   24  C16 UNL     1       0.277  62.533  -2.768  1.00  0.00     0.012 C 
HETATM   25  C17 UNL     1       1.081  61.463  -2.089  1.00  0.00     0.016 C 
ENDBRANCH  15  16
ENDBRANCH   1  15
TORSDOF 4
ENDMDL
MODEL 5
REMARK VINA RESULT: -8.338270607      0.968      1.617
REMARK  4 active torsions:
REMARK  status: ('A' for Active; 'I' for Inactive)
REMARK       I    between atoms: C1_2  and  N2_4 
REMARK       I    between atoms: N2_4  and  C2_6 
REMARK    1  A    between atoms: C2_6  and  C3_8 
REMARK    2  A    between atoms: C7_12  and  C8_13 
REMARK    3  A    between atoms: C8_13  and  O4_15 
REMARK    4  A    between atoms: O4_15  and  C9_16 
ROOT
HETATM    1  C8  UNL     1      -0.590  62.486   1.435  1.00  0.00     0.264 C 
HETATM    2  O3  UNL     1       0.168  62.946   2.327  1.00  0.00    -0.265 OA
ENDROOT
BRANCH   1   3
HETATM    3  C7  UNL     1      -0.745  61.011   1.323  1.00  0.00     0.098 C 
HETATM    4  C3  UNL     1       0.020  60.311   2.397  1.00  0.00     0.092 C 
HETATM    5  C4  UNL     1       0.485  59.019   1.766  1.00  0.00     0.015 C 
HETATM    6  C5  UNL     1       0.227  59.111   0.299  1.00  0.00     0.002 C 
HETATM    7  C6  UNL     1      -0.002  60.586   0.062  1.00  0.00     0.015 C 
BRANCH   4   8
HETATM    8  C2  UNL     1      -0.782  59.988   3.579  1.00  0.00     0.230 C 
HETATM    9  N2  UNL     1      -2.162  59.759   3.452  1.00  0.00    -0.281 N 
HETATM   10  C1  UNL     1      -2.923  59.447   4.607  1.00  0.00     0.335 C 
ATOM     11  H2  UNL     1      -2.613  59.817   2.539  1.00  0.00     0.173 HD
HETATM   12  N1  UNL     1      -4.337  59.205   4.528  1.00  0.00    -0.040 NA
HETATM   13  O1  UNL     1      -2.383  59.374   5.734  1.00  0.00    -0.251 OA
HETATM   14  O2  UNL     1      -0.236  59.915   4.703  1.00  0.00    -0.273 OA
ENDBRANCH   4   8
ENDBRANCH   1   3
BRANCH   1  15
HETATM   15  O4  UNL     1      -1.229  63.387   0.616  1.00  0.00    -0.315 OA
BRANCH  15  16
HETATM   16  C9  UNL     1      -0.568  64.453  -0.039  1.00  0.00     0.140 C 
HETATM   17  C10 UNL     1      -0.768  64.308  -1.513  1.00  0.00     0.016 C 
HETATM   18  C11 UNL     1       0.180  65.296  -2.196  1.00  0.00     0.012 C 
HETATM   19  C15 UNL     1      -2.167  64.670  -1.953  1.00  0.00     0.012 C 
HETATM   20  C12 UNL     1      -0.142  66.683  -1.734  1.00  0.00    -0.013 C 
HETATM   21  C13 UNL     1      -1.545  67.011  -2.229  1.00  0.00     0.009 C 
HETATM   22  C18 UNL     1      -0.068  66.816  -0.225  1.00  0.00     0.012 C 
HETATM   23  C14 UNL     1      -2.500  66.078  -1.542  1.00  0.00    -0.013 C 
HETATM   24  C16 UNL     1      -2.406  66.161  -0.039  1.00  0.00     0.012 C 
HETATM   25  C17 UNL     1      -1.024  65.804   0.421  1.00  0.00     0.016 C 
ENDBRANCH  15  16
ENDBRANCH   1  15
TORSDOF 4
ENDMDL
