MODEL 1
REMARK VINA RESULT: -7.420210112      0.000      0.000
REMARK  4 active torsions:
REMARK  status: ('A' for Active; 'I' for Inactive)
REMARK    1  A    between atoms: C1_2  and  O2_3 
REMARK       I    between atoms: C1_2  and  N2_13 
REMARK    2  A    between atoms: O2_3  and  C2_4 
REMARK    3  A    between atoms: C10_16  and  C11_17 
REMARK    4  A    between atoms: C11_17  and  C12_18 
ROOT
HETATM    1  O1  UNL     1      -0.547  61.283   0.247  1.00  0.00    -0.238 OA
HETATM    2  C1  UNL     1      -0.488  62.326   0.917  1.00  0.00     0.363 C 
HETATM    3  N2  UNL     1      -0.269  63.576   0.291  1.00  0.00    -0.323 N 
HETATM    4  C8  UNL     1      -0.112  63.619  -1.127  1.00  0.00     0.129 C 
HETATM    5  C9  UNL     1      -0.664  64.854  -1.784  1.00  0.00     0.025 C 
HETATM    6  C10 UNL     1      -0.377  66.110  -1.051  1.00  0.00    -0.001 C 
HETATM    7  C15 UNL     1      -0.498  66.042   0.421  1.00  0.00     0.013 C 
HETATM    8  C16 UNL     1      -1.901  66.047   0.982  1.00  0.00     0.009 C 
HETATM    9  C17 UNL     1      -1.468  64.928   1.937  1.00  0.00     0.026 C 
HETATM   10  C18 UNL     1      -0.207  64.753   1.081  1.00  0.00     0.093 C 
ENDROOT
BRANCH   2  11
HETATM   11  O2  UNL     1      -0.644  62.250   2.314  1.00  0.00    -0.296 OA
BRANCH  11  12
HETATM   12  C2  UNL     1      -1.657  61.445   2.823  1.00  0.00     0.166 C 
HETATM   13  C3  UNL     1      -2.289  62.031   4.086  1.00  0.00     0.067 C 
HETATM   14  C4  UNL     1      -2.162  60.895   5.052  1.00  0.00     0.189 C 
HETATM   15  C5  UNL     1      -3.058  59.733   4.651  1.00  0.00     0.035 C 
HETATM   16  N1  UNL     1      -0.848  60.346   4.669  1.00  0.00    -0.064 N 
HETATM   17  C6  UNL     1      -2.368  59.192   3.392  1.00  0.00     0.038 C 
HETATM   18  C7  UNL     1      -1.174  60.082   3.257  1.00  0.00     0.215 C 
ATOM     19  H12 UNL     1      -0.030  60.925   4.858  1.00  0.00     0.278 HD
ATOM     20  H11 UNL     1      -0.493  59.564   5.218  1.00  0.00     0.278 HD
ENDBRANCH  11  12
ENDBRANCH   2  11
BRANCH   6  21
HETATM   21  C11 UNL     1      -1.336  67.191  -1.555  1.00  0.00     0.063 C 
BRANCH  21  22
HETATM   22  C12 UNL     1      -0.671  68.024  -2.619  1.00  0.00     0.025 A 
HETATM   23  C13 UNL     1       0.594  68.560  -2.547  1.00  0.00     0.114 A 
HETATM   24  N3  UNL     1       0.823  69.234  -3.688  1.00  0.00    -0.360 N 
HETATM   25  C14 UNL     1      -0.266  69.129  -4.458  1.00  0.00     0.180 A 
ATOM     26  H3  UNL     1       1.678  69.738  -3.924  1.00  0.00     0.166 HD
HETATM   27  N4  UNL     1      -1.173  68.389  -3.800  1.00  0.00    -0.355 N 
ATOM     28  H4  UNL     1      -2.101  68.144  -4.149  1.00  0.00     0.166 HD
ENDBRANCH  21  22
ENDBRANCH   6  21
TORSDOF 4
ENDMDL
MODEL 2
REMARK VINA RESULT: -7.339628268      1.350      1.855
REMARK  4 active torsions:
REMARK  status: ('A' for Active; 'I' for Inactive)
REMARK    1  A    between atoms: C1_2  and  O2_3 
REMARK       I    between atoms: C1_2  and  N2_13 
REMARK    2  A    between atoms: O2_3  and  C2_4 
REMARK    3  A    between atoms: C10_16  and  C11_17 
REMARK    4  A    between atoms: C11_17  and  C12_18 
ROOT
HETATM    1  O1  UNL     1      -0.102  59.842   0.968  1.00  0.00    -0.238 OA
HETATM    2  C1  UNL     1      -0.166  60.973   1.472  1.00  0.00     0.363 C 
HETATM    3  N2  UNL     1      -0.120  62.132   0.661  1.00  0.00    -0.323 N 
HETATM    4  C8  UNL     1       0.005  61.978  -0.753  1.00  0.00     0.129 C 
HETATM    5  C9  UNL     1      -0.712  63.022  -1.565  1.00  0.00     0.025 C 
HETATM    6  C10 UNL     1      -0.575  64.400  -1.038  1.00  0.00    -0.001 C 
HETATM    7  C15 UNL     1      -0.659  64.541   0.431  1.00  0.00     0.013 C 
HETATM    8  C16 UNL     1      -2.042  64.458   1.037  1.00  0.00     0.009 C 
HETATM    9  C17 UNL     1      -1.452  63.559   2.131  1.00  0.00     0.026 C 
HETATM   10  C18 UNL     1      -0.195  63.414   1.265  1.00  0.00     0.093 C 
ENDROOT
BRANCH   2  11
HETATM   11  O2  UNL     1      -0.286  61.092   2.870  1.00  0.00    -0.296 OA
BRANCH  11  12
HETATM   12  C2  UNL     1      -1.122  60.206   3.539  1.00  0.00     0.166 C 
HETATM   13  C3  UNL     1      -2.391  59.889   2.746  1.00  0.00     0.067 C 
HETATM   14  C4  UNL     1      -3.464  60.208   3.739  1.00  0.00     0.189 C 
HETATM   15  C5  UNL     1      -3.452  59.221   4.895  1.00  0.00     0.035 C 
HETATM   16  N1  UNL     1      -2.887  61.389   4.407  1.00  0.00    -0.064 N 
HETATM   17  C6  UNL     1      -2.167  59.595   5.647  1.00  0.00     0.038 C 
HETATM   18  C7  UNL     1      -1.639  60.746   4.851  1.00  0.00     0.215 C 
ATOM     19  H12 UNL     1      -2.801  62.241   3.852  1.00  0.00     0.278 HD
ATOM     20  H11 UNL     1      -3.455  61.844   5.121  1.00  0.00     0.278 HD
ENDBRANCH  11  12
ENDBRANCH   2  11
BRANCH   6  21
HETATM   21  C11 UNL     1      -1.673  65.265  -1.661  1.00  0.00     0.063 C 
BRANCH  21  22
HETATM   22  C12 UNL     1      -1.126  66.619  -2.026  1.00  0.00     0.025 A 
HETATM   23  C13 UNL     1      -1.860  67.776  -2.152  1.00  0.00     0.114 A 
HETATM   24  N3  UNL     1      -1.016  68.767  -2.488  1.00  0.00    -0.360 N 
HETATM   25  C14 UNL     1       0.216  68.251  -2.574  1.00  0.00     0.180 A 
ATOM     26  H3  UNL     1      -1.270  69.742  -2.649  1.00  0.00     0.166 HD
HETATM   27  N4  UNL     1       0.142  66.941  -2.291  1.00  0.00    -0.355 N 
ATOM     28  H4  UNL     1       0.931  66.293  -2.280  1.00  0.00     0.166 HD
ENDBRANCH  21  22
ENDBRANCH   6  21
TORSDOF 4
ENDMDL
MODEL 3
REMARK VINA RESULT: -7.254586228      2.022      8.484
REMARK  4 active torsions:
REMARK  status: ('A' for Active; 'I' for Inactive)
REMARK    1  A    between atoms: C1_2  and  O2_3 
REMARK       I    between atoms: C1_2  and  N2_13 
REMARK    2  A    between atoms: O2_3  and  C2_4 
REMARK    3  A    between atoms: C10_16  and  C11_17 
REMARK    4  A    between atoms: C11_17  and  C12_18 
ROOT
HETATM    1  O1  UNL     1      -3.071  66.623   0.959  1.00  0.00    -0.238 OA
HETATM    2  C1  UNL     1      -2.013  66.056   0.643  1.00  0.00     0.363 C 
HETATM    3  N2  UNL     1      -1.552  64.931   1.366  1.00  0.00    -0.323 N 
HETATM    4  C8  UNL     1      -2.323  64.458   2.471  1.00  0.00     0.129 C 
HETATM    5  C9  UNL     1      -2.292  62.967   2.668  1.00  0.00     0.025 C 
HETATM    6  C10 UNL     1      -0.951  62.361   2.493  1.00  0.00    -0.001 C 
HETATM    7  C15 UNL     1      -0.143  62.890   1.374  1.00  0.00     0.013 C 
HETATM    8  C16 UNL     1      -0.525  62.422  -0.012  1.00  0.00     0.009 C 
HETATM    9  C17 UNL     1      -0.365  63.871  -0.489  1.00  0.00     0.026 C 
HETATM   10  C18 UNL     1      -0.340  64.300   0.983  1.00  0.00     0.093 C 
ENDROOT
BRANCH   2  11
HETATM   11  O2  UNL     1      -1.274  66.547  -0.450  1.00  0.00    -0.296 OA
BRANCH  11  12
HETATM   12  C2  UNL     1      -1.968  67.059  -1.540  1.00  0.00     0.166 C 
HETATM   13  C3  UNL     1      -1.459  66.502  -2.870  1.00  0.00     0.067 C 
HETATM   14  C4  UNL     1      -1.170  67.753  -3.640  1.00  0.00     0.189 C 
HETATM   15  C5  UNL     1      -2.452  68.497  -3.977  1.00  0.00     0.035 C 
HETATM   16  N1  UNL     1      -0.643  68.623  -2.573  1.00  0.00    -0.064 N 
HETATM   17  C6  UNL     1      -2.903  69.031  -2.610  1.00  0.00     0.038 C 
HETATM   18  C7  UNL     1      -1.822  68.554  -1.693  1.00  0.00     0.215 C 
ATOM     19  H12 UNL     1       0.257  68.368  -2.167  1.00  0.00     0.278 HD
ATOM     20  H11 UNL     1      -0.321  69.552  -2.846  1.00  0.00     0.278 HD
ENDBRANCH  11  12
ENDBRANCH   2  11
BRANCH   6  21
HETATM   21  C11 UNL     1      -1.129  60.856   2.278  1.00  0.00     0.063 C 
BRANCH  21  22
HETATM   22  C12 UNL     1      -1.846  60.242   3.452  1.00  0.00     0.025 A 
HETATM   23  C13 UNL     1      -1.387  60.211   4.749  1.00  0.00     0.114 A 
HETATM   24  N3  UNL     1      -2.307  59.581   5.499  1.00  0.00    -0.360 N 
HETATM   25  C14 UNL     1      -3.319  59.222   4.699  1.00  0.00     0.180 A 
ATOM     26  H3  UNL     1      -2.245  59.407   6.502  1.00  0.00     0.166 HD
HETATM   27  N4  UNL     1      -3.031  59.629   3.452  1.00  0.00    -0.355 N 
ATOM     28  H4  UNL     1      -3.625  59.491   2.634  1.00  0.00     0.166 HD
ENDBRANCH  21  22
ENDBRANCH   6  21
TORSDOF 4
ENDMDL
MODEL 4
REMARK VINA RESULT: -7.061722391      2.112      8.437
REMARK  4 active torsions:
REMARK  status: ('A' for Active; 'I' for Inactive)
REMARK    1  A    between atoms: C1_2  and  O2_3 
REMARK       I    between atoms: C1_2  and  N2_13 
REMARK    2  A    between atoms: O2_3  and  C2_4 
REMARK    3  A    between atoms: C10_16  and  C11_17 
REMARK    4  A    between atoms: C11_17  and  C12_18 
ROOT
HETATM    1  O1  UNL     1       1.062  64.227  -3.497  1.00  0.00    -0.238 OA
HETATM    2  C1  UNL     1       0.338  64.718  -2.617  1.00  0.00     0.363 C 
HETATM    3  N2  UNL     1      -0.232  63.902  -1.610  1.00  0.00    -0.323 N 
HETATM    4  C8  UNL     1       0.037  62.501  -1.625  1.00  0.00     0.129 C 
HETATM    5  C9  UNL     1       0.130  61.863  -0.265  1.00  0.00     0.025 C 
HETATM    6  C10 UNL     1      -0.901  62.326   0.693  1.00  0.00    -0.001 C 
HETATM    7  C15 UNL     1      -1.205  63.772   0.667  1.00  0.00     0.013 C 
HETATM    8  C16 UNL     1      -0.196  64.684   1.329  1.00  0.00     0.009 C 
HETATM    9  C17 UNL     1      -0.332  65.622   0.123  1.00  0.00     0.026 C 
HETATM   10  C18 UNL     1      -1.055  64.490  -0.615  1.00  0.00     0.093 C 
ENDROOT
BRANCH   2  11
HETATM   11  O2  UNL     1       0.089  66.103  -2.630  1.00  0.00    -0.296 OA
BRANCH  11  12
HETATM   12  C2  UNL     1       1.033  66.938  -3.218  1.00  0.00     0.166 C 
HETATM   13  C3  UNL     1       1.843  67.722  -2.185  1.00  0.00     0.067 C 
HETATM   14  C4  UNL     1       1.659  69.132  -2.652  1.00  0.00     0.189 C 
HETATM   15  C5  UNL     1       2.363  69.365  -3.979  1.00  0.00     0.035 C 
HETATM   16  N1  UNL     1       0.258  69.096  -3.109  1.00  0.00    -0.064 N 
HETATM   17  C6  UNL     1       1.502  68.562  -4.964  1.00  0.00     0.038 C 
HETATM   18  C7  UNL     1       0.422  68.009  -4.089  1.00  0.00     0.215 C 
ATOM     19  H12 UNL     1      -0.461  68.976  -2.396  1.00  0.00     0.278 HD
ATOM     20  H11 UNL     1      -0.144  69.971  -3.448  1.00  0.00     0.278 HD
ENDBRANCH  11  12
ENDBRANCH   2  11
BRANCH   6  21
HETATM   21  C11 UNL     1      -0.441  61.964   2.107  1.00  0.00     0.063 C 
BRANCH  21  22
HETATM   22  C12 UNL     1      -1.529  61.220   2.835  1.00  0.00     0.025 A 
HETATM   23  C13 UNL     1      -2.545  61.793   3.565  1.00  0.00     0.114 A 
HETATM   24  N3  UNL     1      -3.310  60.803   4.058  1.00  0.00    -0.360 N 
HETATM   25  C14 UNL     1      -2.791  59.637   3.653  1.00  0.00     0.180 A 
ATOM     26  H3  UNL     1      -4.140  60.920   4.639  1.00  0.00     0.166 HD
HETATM   27  N4  UNL     1      -1.705  59.899   2.907  1.00  0.00    -0.355 N 
ATOM     28  H4  UNL     1      -1.109  59.198   2.465  1.00  0.00     0.166 HD
ENDBRANCH  21  22
ENDBRANCH   6  21
TORSDOF 4
ENDMDL
MODEL 5
REMARK VINA RESULT: -7.049551695      1.959      8.362
REMARK  4 active torsions:
REMARK  status: ('A' for Active; 'I' for Inactive)
REMARK    1  A    between atoms: C1_2  and  O2_3 
REMARK       I    between atoms: C1_2  and  N2_13 
REMARK    2  A    between atoms: O2_3  and  C2_4 
REMARK    3  A    between atoms: C10_16  and  C11_17 
REMARK    4  A    between atoms: C11_17  and  C12_18 
ROOT
HETATM    1  O1  UNL     1       0.412  63.914  -3.329  1.00  0.00    -0.238 OA
HETATM    2  C1  UNL     1      -0.204  64.331  -2.335  1.00  0.00     0.363 C 
HETATM    3  N2  UNL     1      -0.538  63.459  -1.272  1.00  0.00    -0.323 N 
HETATM    4  C8  UNL     1      -0.158  62.086  -1.361  1.00  0.00     0.129 C 
HETATM    5  C9  UNL     1       0.200  61.446  -0.048  1.00  0.00     0.025 C 
HETATM    6  C10 UNL     1      -0.704  61.807   1.069  1.00  0.00    -0.001 C 
HETATM    7  C15 UNL     1      -1.129  63.222   1.125  1.00  0.00     0.013 C 
HETATM    8  C16 UNL     1      -0.109  64.211   1.643  1.00  0.00     0.009 C 
HETATM    9  C17 UNL     1      -0.510  65.146   0.495  1.00  0.00     0.026 C 
HETATM   10  C18 UNL     1      -1.242  63.963  -0.148  1.00  0.00     0.093 C 
ENDROOT
BRANCH   2  11
HETATM   11  O2  UNL     1      -0.567  65.690  -2.278  1.00  0.00    -0.296 OA
BRANCH  11  12
HETATM   12  C2  UNL     1       0.227  66.615  -2.946  1.00  0.00     0.166 C 
HETATM   13  C3  UNL     1       1.365  67.145  -2.073  1.00  0.00     0.067 C 
HETATM   14  C4  UNL     1       1.167  68.626  -2.172  1.00  0.00     0.189 C 
HETATM   15  C5  UNL     1       1.467  69.125  -3.576  1.00  0.00     0.035 C 
HETATM   16  N1  UNL     1      -0.305  68.713  -2.180  1.00  0.00    -0.064 N 
HETATM   17  C6  UNL     1       0.293  68.566  -4.392  1.00  0.00     0.038 C 
HETATM   18  C7  UNL     1      -0.524  67.858  -3.359  1.00  0.00     0.215 C 
ATOM     19  H12 UNL     1      -0.791  68.454  -1.321  1.00  0.00     0.278 HD
ATOM     20  H11 UNL     1      -0.716  69.646  -2.199  1.00  0.00     0.278 HD
ENDBRANCH  11  12
ENDBRANCH   2  11
BRANCH   6  21
HETATM   21  C11 UNL     1       0.001  61.472   2.385  1.00  0.00     0.063 C 
BRANCH  21  22
HETATM   22  C12 UNL     1      -0.923  60.698   3.289  1.00  0.00     0.025 A 
HETATM   23  C13 UNL     1      -1.775  59.692   2.898  1.00  0.00     0.114 A 
HETATM   24  N3  UNL     1      -2.427  59.254   3.989  1.00  0.00    -0.360 N 
HETATM   25  C14 UNL     1      -2.000  59.963   5.040  1.00  0.00     0.180 A 
ATOM     26  H3  UNL     1      -3.125  58.510   4.011  1.00  0.00     0.166 HD
HETATM   27  N4  UNL     1      -1.082  60.842   4.607  1.00  0.00    -0.355 N 
ATOM     28  H4  UNL     1      -0.585  61.514   5.192  1.00  0.00     0.166 HD
ENDBRANCH  21  22
ENDBRANCH   6  21
TORSDOF 4
ENDMDL
