MODEL 1
REMARK VINA RESULT: -6.326618065      0.000      0.000
REMARK  5 active torsions:
REMARK  status: ('A' for Active; 'I' for Inactive)
REMARK    1  A    between atoms: N1_4  and  C4_5 
REMARK    2  A    between atoms: C4_5  and  S2_7 
REMARK    3  A    between atoms: S2_7  and  C5_8 
REMARK    4  A    between atoms: C5_8  and  C6_9 
REMARK       I    between atoms: C6_9  and  N2_11 
REMARK    5  A    between atoms: N2_11  and  C7_13 
ROOT
HETATM    1  C4  UNL     1      -1.361  66.233   0.554  1.00  0.00     0.137 C 
HETATM    2  S1  UNL     1      -0.637  67.324  -0.436  1.00  0.00    -0.053 SA
ENDROOT
BRANCH   1   3
HETATM    3  N1  UNL     1      -2.747  66.258   0.806  1.00  0.00    -0.363 N 
HETATM    4  C3  UNL     1      -3.256  66.831   2.028  1.00  0.00     0.157 C 
HETATM    5  C2  UNL     1      -4.329  67.828   1.592  1.00  0.00     0.200 C 
HETATM    6  C1  UNL     1      -4.702  68.712   2.735  1.00  0.00     0.041 C 
HETATM    7  N3  UNL     1      -5.400  67.044   1.046  1.00  0.00    -0.064 N 
HETATM    8  C14 UNL     1      -4.960  66.507  -0.227  1.00  0.00     0.200 C 
ATOM      9  H32 UNL     1      -5.726  66.321   1.687  1.00  0.00     0.278 HD
ATOM     10  H31 UNL     1      -6.272  67.567   0.972  1.00  0.00     0.278 HD
HETATM   11  C13 UNL     1      -3.676  65.719  -0.139  1.00  0.00     0.157 C 
HETATM   12  C15 UNL     1      -6.007  65.568  -0.813  1.00  0.00     0.041 C 
ENDBRANCH   1   3
BRANCH   1  13
HETATM   13  S2  UNL     1      -0.357  64.983   1.312  1.00  0.00    -0.091 SA
BRANCH  13  14
HETATM   14  C5  UNL     1      -0.258  63.542   0.232  1.00  0.00     0.184 C 
BRANCH  14  15
HETATM   15  C6  UNL     1      -0.683  62.346   0.999  1.00  0.00     0.227 C 
HETATM   16  O1  UNL     1      -0.348  61.229   0.504  1.00  0.00    -0.273 OA
HETATM   17  N2  UNL     1      -1.410  62.403   2.200  1.00  0.00    -0.356 N 
ATOM     18  H2  UNL     1      -1.685  63.297   2.606  1.00  0.00     0.162 HD
BRANCH  17  19
HETATM   19  C7  UNL     1      -1.762  61.139   2.851  1.00  0.00     0.084 C 
HETATM   20  C8  UNL     1      -3.081  61.363   3.606  1.00  0.00     0.025 C 
HETATM   21  C9  UNL     1      -3.471  59.974   4.082  1.00  0.00     0.002 C 
HETATM   22  C10 UNL     1      -2.512  59.614   5.182  1.00  0.00     0.000 C 
HETATM   23  C11 UNL     1      -1.084  59.877   4.929  1.00  0.00     0.002 C 
HETATM   24  C12 UNL     1      -0.729  60.861   3.883  1.00  0.00     0.025 C 
ENDBRANCH  17  19
ENDBRANCH  14  15
ENDBRANCH  13  14
ENDBRANCH   1  13
TORSDOF 5
ENDMDL
MODEL 2
REMARK VINA RESULT: -6.192038190      2.330      3.436
REMARK  5 active torsions:
REMARK  status: ('A' for Active; 'I' for Inactive)
REMARK    1  A    between atoms: N1_4  and  C4_5 
REMARK    2  A    between atoms: C4_5  and  S2_7 
REMARK    3  A    between atoms: S2_7  and  C5_8 
REMARK    4  A    between atoms: C5_8  and  C6_9 
REMARK       I    between atoms: C6_9  and  N2_11 
REMARK    5  A    between atoms: N2_11  and  C7_13 
ROOT
HETATM    1  C4  UNL     1      -1.604  66.062   0.423  1.00  0.00     0.137 C 
HETATM    2  S1  UNL     1      -3.115  66.284   1.026  1.00  0.00    -0.053 SA
ENDROOT
BRANCH   1   3
HETATM    3  N1  UNL     1      -1.164  66.715  -0.745  1.00  0.00    -0.363 N 
HETATM    4  C3  UNL     1      -2.098  67.047  -1.792  1.00  0.00     0.157 C 
HETATM    5  C2  UNL     1      -1.875  68.532  -2.078  1.00  0.00     0.200 C 
HETATM    6  C1  UNL     1      -2.994  69.067  -2.909  1.00  0.00     0.041 C 
HETATM    7  N3  UNL     1      -0.571  68.631  -2.666  1.00  0.00    -0.064 N 
HETATM    8  C14 UNL     1       0.410  68.378  -1.629  1.00  0.00     0.200 C 
ATOM      9  H32 UNL     1      -0.455  68.019  -3.474  1.00  0.00     0.278 HD
ATOM     10  H31 UNL     1      -0.420  69.519  -3.143  1.00  0.00     0.278 HD
HETATM   11  C13 UNL     1       0.213  67.062  -0.918  1.00  0.00     0.157 C 
HETATM   12  C15 UNL     1       1.820  68.354  -2.206  1.00  0.00     0.041 C 
ENDBRANCH   1   3
BRANCH   1  13
HETATM   13  S2  UNL     1      -0.502  64.973   1.286  1.00  0.00    -0.091 SA
BRANCH  13  14
HETATM   14  C5  UNL     1      -0.196  63.501   0.291  1.00  0.00     0.184 C 
BRANCH  14  15
HETATM   15  C6  UNL     1      -0.657  62.313   1.049  1.00  0.00     0.227 C 
HETATM   16  O1  UNL     1      -0.339  61.189   0.556  1.00  0.00    -0.273 OA
HETATM   17  N2  UNL     1      -1.401  62.383   2.238  1.00  0.00    -0.356 N 
ATOM     18  H2  UNL     1      -1.664  63.282   2.642  1.00  0.00     0.162 HD
BRANCH  17  19
HETATM   19  C7  UNL     1      -1.790  61.126   2.881  1.00  0.00     0.084 C 
HETATM   20  C8  UNL     1      -3.115  61.377   3.617  1.00  0.00     0.025 C 
HETATM   21  C9  UNL     1      -3.542  59.995   4.084  1.00  0.00     0.002 C 
HETATM   22  C10 UNL     1      -2.608  59.613   5.198  1.00  0.00     0.000 C 
HETATM   23  C11 UNL     1      -1.170  59.845   4.966  1.00  0.00     0.002 C 
HETATM   24  C12 UNL     1      -0.779  60.823   3.928  1.00  0.00     0.025 C 
ENDBRANCH  17  19
ENDBRANCH  14  15
ENDBRANCH  13  14
ENDBRANCH   1  13
TORSDOF 5
ENDMDL
MODEL 3
REMARK VINA RESULT: -6.158778277      1.032      2.139
REMARK  5 active torsions:
REMARK  status: ('A' for Active; 'I' for Inactive)
REMARK    1  A    between atoms: N1_4  and  C4_5 
REMARK    2  A    between atoms: C4_5  and  S2_7 
REMARK    3  A    between atoms: S2_7  and  C5_8 
REMARK    4  A    between atoms: C5_8  and  C6_9 
REMARK       I    between atoms: C6_9  and  N2_11 
REMARK    5  A    between atoms: N2_11  and  C7_13 
ROOT
HETATM    1  C4  UNL     1      -0.952  65.864  -0.937  1.00  0.00     0.137 C 
HETATM    2  S1  UNL     1       0.100  66.766  -1.817  1.00  0.00    -0.053 SA
ENDROOT
BRANCH   1   3
HETATM    3  N1  UNL     1      -2.179  66.384  -0.478  1.00  0.00    -0.363 N 
HETATM    4  C3  UNL     1      -3.389  66.173  -1.234  1.00  0.00     0.157 C 
HETATM    5  C2  UNL     1      -4.397  65.609  -0.233  1.00  0.00     0.200 C 
HETATM    6  C1  UNL     1      -5.578  65.051  -0.955  1.00  0.00     0.041 C 
HETATM    7  N3  UNL     1      -4.684  66.674   0.684  1.00  0.00    -0.064 N 
HETATM    8  C14 UNL     1      -3.517  66.874   1.520  1.00  0.00     0.200 C 
ATOM      9  H32 UNL     1      -4.983  67.529   0.214  1.00  0.00     0.278 HD
ATOM     10  H31 UNL     1      -5.533  66.511   1.225  1.00  0.00     0.278 HD
HETATM   11  C13 UNL     1      -2.251  67.130   0.740  1.00  0.00     0.157 C 
HETATM   12  C15 UNL     1      -3.707  68.070   2.445  1.00  0.00     0.041 C 
ENDBRANCH   1   3
BRANCH   1  13
HETATM   13  S2  UNL     1      -0.523  64.183  -0.571  1.00  0.00    -0.091 SA
BRANCH  13  14
HETATM   14  C5  UNL     1      -0.156  64.014   1.186  1.00  0.00     0.184 C 
BRANCH  14  15
HETATM   15  C6  UNL     1      -0.698  62.720   1.661  1.00  0.00     0.227 C 
HETATM   16  O1  UNL     1      -0.335  61.698   1.005  1.00  0.00    -0.273 OA
HETATM   17  N2  UNL     1      -1.562  62.588   2.761  1.00  0.00    -0.356 N 
ATOM     18  H2  UNL     1      -1.861  63.404   3.295  1.00  0.00     0.162 HD
BRANCH  17  19
HETATM   19  C7  UNL     1      -2.020  61.244   3.119  1.00  0.00     0.084 C 
HETATM   20  C8  UNL     1      -3.453  61.375   3.658  1.00  0.00     0.025 C 
HETATM   21  C9  UNL     1      -3.917  59.937   3.818  1.00  0.00     0.002 C 
HETATM   22  C10 UNL     1      -3.168  59.375   4.993  1.00  0.00     0.000 C 
HETATM   23  C11 UNL     1      -1.718  59.637   5.042  1.00  0.00     0.002 C 
HETATM   24  C12 UNL     1      -1.186  60.771   4.256  1.00  0.00     0.025 C 
ENDBRANCH  17  19
ENDBRANCH  14  15
ENDBRANCH  13  14
ENDBRANCH   1  13
TORSDOF 5
ENDMDL
MODEL 4
REMARK VINA RESULT: -6.115708457      3.193      5.773
REMARK  5 active torsions:
REMARK  status: ('A' for Active; 'I' for Inactive)
REMARK    1  A    between atoms: N1_4  and  C4_5 
REMARK    2  A    between atoms: C4_5  and  S2_7 
REMARK    3  A    between atoms: S2_7  and  C5_8 
REMARK    4  A    between atoms: C5_8  and  C6_9 
REMARK       I    between atoms: C6_9  and  N2_11 
REMARK    5  A    between atoms: N2_11  and  C7_13 
ROOT
HETATM    1  C4  UNL     1      -1.028  62.777  -1.571  1.00  0.00     0.137 C 
HETATM    2  S1  UNL     1      -2.129  63.490  -2.558  1.00  0.00    -0.053 SA
ENDROOT
BRANCH   1   3
HETATM    3  N1  UNL     1      -0.593  61.452  -1.772  1.00  0.00    -0.363 N 
HETATM    4  C3  UNL     1       0.372  60.857  -0.879  1.00  0.00     0.157 C 
HETATM    5  C2  UNL     1      -0.247  59.530  -0.442  1.00  0.00     0.200 C 
HETATM    6  C1  UNL     1       0.503  58.975   0.723  1.00  0.00     0.041 C 
HETATM    7  N3  UNL     1      -0.269  58.699  -1.611  1.00  0.00    -0.064 N 
HETATM    8  C14 UNL     1      -1.282  59.214  -2.510  1.00  0.00     0.200 C 
ATOM      9  H32 UNL     1       0.646  58.617  -2.054  1.00  0.00     0.278 HD
ATOM     10  H31 UNL     1      -0.404  57.712  -1.390  1.00  0.00     0.278 HD
HETATM   11  C13 UNL     1      -1.095  60.670  -2.860  1.00  0.00     0.157 C 
HETATM   12  C15 UNL     1      -1.285  58.448  -3.826  1.00  0.00     0.041 C 
ENDBRANCH   1   3
BRANCH   1  13
HETATM   13  S2  UNL     1      -0.366  63.721  -0.224  1.00  0.00    -0.091 SA
BRANCH  13  14
HETATM   14  C5  UNL     1      -1.708  64.513   0.684  1.00  0.00     0.184 C 
BRANCH  14  15
HETATM   15  C6  UNL     1      -1.928  63.771   1.947  1.00  0.00     0.227 C 
HETATM   16  O1  UNL     1      -2.491  64.424   2.877  1.00  0.00    -0.273 OA
HETATM   17  N2  UNL     1      -1.553  62.432   2.146  1.00  0.00    -0.356 N 
ATOM     18  H2  UNL     1      -1.098  61.899   1.404  1.00  0.00     0.162 HD
BRANCH  17  19
HETATM   19  C7  UNL     1      -1.834  61.824   3.448  1.00  0.00     0.084 C 
HETATM   20  C8  UNL     1      -0.830  60.678   3.645  1.00  0.00     0.025 C 
HETATM   21  C9  UNL     1      -1.058  60.235   5.082  1.00  0.00     0.002 C 
HETATM   22  C10 UNL     1      -2.384  59.528   5.106  1.00  0.00     0.000 C 
HETATM   23  C11 UNL     1      -3.501  60.190   4.407  1.00  0.00     0.002 C 
HETATM   24  C12 UNL     1      -3.179  61.197   3.373  1.00  0.00     0.025 C 
ENDBRANCH  17  19
ENDBRANCH  14  15
ENDBRANCH  13  14
ENDBRANCH   1  13
TORSDOF 5
ENDMDL
MODEL 5
REMARK VINA RESULT: -6.099732491      2.435      3.295
REMARK  5 active torsions:
REMARK  status: ('A' for Active; 'I' for Inactive)
REMARK    1  A    between atoms: N1_4  and  C4_5 
REMARK    2  A    between atoms: C4_5  and  S2_7 
REMARK    3  A    between atoms: S2_7  and  C5_8 
REMARK    4  A    between atoms: C5_8  and  C6_9 
REMARK       I    between atoms: C6_9  and  N2_11 
REMARK    5  A    between atoms: N2_11  and  C7_13 
ROOT
HETATM    1  C4  UNL     1      -2.033  66.201   0.190  1.00  0.00     0.137 C 
HETATM    2  S1  UNL     1      -2.848  66.402   1.601  1.00  0.00    -0.053 SA
ENDROOT
BRANCH   1   3
HETATM    3  N1  UNL     1      -1.682  67.291  -0.631  1.00  0.00    -0.363 N 
HETATM    4  C3  UNL     1      -0.400  67.934  -0.482  1.00  0.00     0.157 C 
HETATM    5  C2  UNL     1       0.201  67.969  -1.886  1.00  0.00     0.200 C 
HETATM    6  C1  UNL     1       1.651  68.316  -1.814  1.00  0.00     0.041 C 
HETATM    7  N3  UNL     1      -0.612  68.878  -2.643  1.00  0.00    -0.064 N 
HETATM    8  C14 UNL     1      -1.891  68.242  -2.884  1.00  0.00     0.200 C 
ATOM      9  H32 UNL     1      -0.703  69.790  -2.195  1.00  0.00     0.278 HD
ATOM     10  H31 UNL     1      -0.159  69.190  -3.501  1.00  0.00     0.278 HD
HETATM   11  C13 UNL     1      -2.585  67.783  -1.626  1.00  0.00     0.157 C 
HETATM   12  C15 UNL     1      -2.850  69.196  -3.586  1.00  0.00     0.041 C 
ENDBRANCH   1   3
BRANCH   1  13
HETATM   13  S2  UNL     1      -1.577  64.558  -0.295  1.00  0.00    -0.091 SA
BRANCH  13  14
HETATM   14  C5  UNL     1      -0.270  63.943   0.785  1.00  0.00     0.184 C 
BRANCH  14  15
HETATM   15  C6  UNL     1      -0.720  62.669   1.395  1.00  0.00     0.227 C 
HETATM   16  O1  UNL     1      -0.268  61.613   0.858  1.00  0.00    -0.273 OA
HETATM   17  N2  UNL     1      -1.589  62.591   2.495  1.00  0.00    -0.356 N 
ATOM     18  H2  UNL     1      -1.959  63.434   2.934  1.00  0.00     0.162 HD
BRANCH  17  19
HETATM   19  C7  UNL     1      -1.948  61.262   2.995  1.00  0.00     0.084 C 
HETATM   20  C8  UNL     1      -3.318  61.384   3.680  1.00  0.00     0.025 C 
HETATM   21  C9  UNL     1      -3.702  59.947   3.990  1.00  0.00     0.002 C 
HETATM   22  C10 UNL     1      -2.806  59.498   5.111  1.00  0.00     0.000 C 
HETATM   23  C11 UNL     1      -1.371  59.811   4.978  1.00  0.00     0.002 C 
HETATM   24  C12 UNL     1      -0.977  60.902   4.060  1.00  0.00     0.025 C 
ENDBRANCH  17  19
ENDBRANCH  14  15
ENDBRANCH  13  14
ENDBRANCH   1  13
TORSDOF 5
ENDMDL
