MODEL 1
REMARK VINA RESULT: -6.163962265      0.000      0.000
REMARK  7 active torsions:
REMARK  status: ('A' for Active; 'I' for Inactive)
REMARK    1  A    between atoms: C2_2  and  C3_3 
REMARK    2  A    between atoms: N1_5  and  N2_7 
REMARK    3  A    between atoms: N2_7  and  C5_9 
REMARK    4  A    between atoms: C6_12  and  C7_13 
REMARK    5  A    between atoms: C13_19  and  C14_20 
REMARK    6  A    between atoms: C14_20  and  O1_22 
REMARK    7  A    between atoms: O1_22  and  O2_23 
ROOT
HETATM    1  C5  UNL     1      53.056 136.290  14.416  1.00  0.00     0.164 A 
HETATM    2  N3  UNL     1      51.858 135.715  14.522  1.00  0.00    -0.337 N 
ATOM      3  H3  UNL     1      51.149 135.856  13.803  1.00  0.00     0.168 HD
HETATM    4  C6  UNL     1      51.610 134.965  15.568  1.00  0.00     0.036 A 
HETATM    5  C13 UNL     1      52.621 134.824  16.494  1.00  0.00     0.079 A 
HETATM    6  S2  UNL     1      53.864 135.772  15.816  1.00  0.00    -0.047 SA
ENDROOT
BRANCH   1   7
HETATM    7  N2  UNL     1      53.497 137.072  13.454  1.00  0.00    -0.280 N 
ATOM      8  H2  UNL     1      53.924 136.661  12.625  1.00  0.00     0.189 HD
BRANCH   7   9
HETATM    9  N1  UNL     1      53.385 138.456  13.563  1.00  0.00    -0.307 N 
HETATM   10  C3  UNL     1      52.762 139.201  12.745  1.00  0.00    -0.001 C 
HETATM   11  C4  UNL     1      52.070 138.637  11.552  1.00  0.00     0.065 C 
ATOM     12  H1  UNL     1      53.837 138.905  14.359  1.00  0.00     0.186 HD
BRANCH  10  13
HETATM   13  C2  UNL     1      52.709 140.665  12.962  1.00  0.00     0.049 C 
HETATM   14  C1  UNL     1      51.988 141.013  14.254  1.00  0.00     0.011 C 
ENDBRANCH  10  13
ENDBRANCH   7   9
ENDBRANCH   1   7
BRANCH   4  15
HETATM   15  C7  UNL     1      50.272 134.269  15.780  1.00  0.00     0.037 C 
HETATM   16  C8  UNL     1      49.638 134.002  14.450  1.00  0.00     0.011 C 
HETATM   17  C9  UNL     1      48.237 133.455  14.578  1.00  0.00     0.001 C 
HETATM   18  C10 UNL     1      47.426 134.624  15.158  1.00  0.00     0.000 C 
HETATM   19  C11 UNL     1      47.927 134.833  16.540  1.00  0.00     0.001 C 
HETATM   20  C12 UNL     1      49.389 135.064  16.700  1.00  0.00     0.011 C 
ENDBRANCH   4  15
BRANCH   5  21
HETATM   21  C14 UNL     1      52.618 134.039  17.748  1.00  0.00     0.192 C 
HETATM   22  S1  UNL     1      52.592 134.731  19.223  1.00  0.00    -0.048 SA
BRANCH  21  23
HETATM   23  O1  UNL     1      52.637 132.657  17.682  1.00  0.00    -0.187 OA
BRANCH  23  24
HETATM   24  O2  UNL     1      53.825 132.035  17.716  1.00  0.00    -0.244 OA
ATOM     25  H2  UNL     1      53.871 131.134  17.418  1.00  0.00     0.254 HD
ENDBRANCH  23  24
ENDBRANCH  21  23
ENDBRANCH   5  21
TORSDOF 7
ENDMDL
MODEL 2
REMARK VINA RESULT: -6.150908277      2.244      3.152
REMARK  7 active torsions:
REMARK  status: ('A' for Active; 'I' for Inactive)
REMARK    1  A    between atoms: C2_2  and  C3_3 
REMARK    2  A    between atoms: N1_5  and  N2_7 
REMARK    3  A    between atoms: N2_7  and  C5_9 
REMARK    4  A    between atoms: C6_12  and  C7_13 
REMARK    5  A    between atoms: C13_19  and  C14_20 
REMARK    6  A    between atoms: C14_20  and  O1_22 
REMARK    7  A    between atoms: O1_22  and  O2_23 
ROOT
HETATM    1  C5  UNL     1      52.823 136.255  13.669  1.00  0.00     0.164 A 
HETATM    2  N3  UNL     1      52.574 135.957  14.944  1.00  0.00    -0.337 N 
ATOM      3  H3  UNL     1      53.019 136.483  15.697  1.00  0.00     0.168 HD
HETATM    4  C6  UNL     1      51.747 134.977  15.212  1.00  0.00     0.036 A 
HETATM    5  C13 UNL     1      51.187 134.316  14.140  1.00  0.00     0.079 A 
HETATM    6  S2  UNL     1      51.876 135.135  12.814  1.00  0.00    -0.047 SA
ENDROOT
BRANCH   1   7
HETATM    7  N2  UNL     1      53.614 137.193  13.195  1.00  0.00    -0.280 N 
ATOM      8  H2  UNL     1      54.196 137.001  12.380  1.00  0.00     0.189 HD
BRANCH   7   9
HETATM    9  N1  UNL     1      53.662 138.447  13.801  1.00  0.00    -0.307 N 
HETATM   10  C3  UNL     1      53.178 139.512  13.307  1.00  0.00    -0.001 C 
HETATM   11  C4  UNL     1      52.490 139.512  11.986  1.00  0.00     0.065 C 
ATOM     12  H1  UNL     1      54.121 138.515  14.709  1.00  0.00     0.186 HD
BRANCH  10  13
HETATM   13  C2  UNL     1      53.290 140.792  14.043  1.00  0.00     0.049 C 
HETATM   14  C1  UNL     1      51.936 141.270  14.540  1.00  0.00     0.011 C 
ENDBRANCH  10  13
ENDBRANCH   7   9
ENDBRANCH   1   7
BRANCH   4  15
HETATM   15  C7  UNL     1      51.403 134.559  16.636  1.00  0.00     0.037 C 
HETATM   16  C8  UNL     1      50.053 135.098  16.996  1.00  0.00     0.011 C 
HETATM   17  C9  UNL     1      49.704 134.861  18.445  1.00  0.00     0.001 C 
HETATM   18  C10 UNL     1      50.690 135.749  19.221  1.00  0.00     0.000 C 
HETATM   19  C11 UNL     1      52.036 135.162  19.009  1.00  0.00     0.001 C 
HETATM   20  C12 UNL     1      52.477 134.980  17.598  1.00  0.00     0.011 C 
ENDBRANCH   4  15
BRANCH   5  21
HETATM   21  C14 UNL     1      50.227 133.191  14.151  1.00  0.00     0.192 C 
HETATM   22  S1  UNL     1      48.614 133.404  14.078  1.00  0.00    -0.048 SA
BRANCH  21  23
HETATM   23  O1  UNL     1      50.704 131.894  14.227  1.00  0.00    -0.187 OA
BRANCH  23  24
HETATM   24  O2  UNL     1      51.506 131.569  15.253  1.00  0.00    -0.244 OA
ATOM     25  H2  UNL     1      51.122 131.495  16.119  1.00  0.00     0.254 HD
ENDBRANCH  23  24
ENDBRANCH  21  23
ENDBRANCH   5  21
TORSDOF 7
ENDMDL
MODEL 3
REMARK VINA RESULT: -6.111409954      3.674      6.629
REMARK  7 active torsions:
REMARK  status: ('A' for Active; 'I' for Inactive)
REMARK    1  A    between atoms: C2_2  and  C3_3 
REMARK    2  A    between atoms: N1_5  and  N2_7 
REMARK    3  A    between atoms: N2_7  and  C5_9 
REMARK    4  A    between atoms: C6_12  and  C7_13 
REMARK    5  A    between atoms: C13_19  and  C14_20 
REMARK    6  A    between atoms: C14_20  and  O1_22 
REMARK    7  A    between atoms: O1_22  and  O2_23 
ROOT
HETATM    1  C5  UNL     1      53.562 133.690  18.090  1.00  0.00     0.164 A 
HETATM    2  N3  UNL     1      53.193 134.118  16.883  1.00  0.00    -0.337 N 
ATOM      3  H3  UNL     1      53.861 134.139  16.112  1.00  0.00     0.168 HD
HETATM    4  C6  UNL     1      51.955 134.512  16.706  1.00  0.00     0.036 A 
HETATM    5  C13 UNL     1      51.115 134.453  17.797  1.00  0.00     0.079 A 
HETATM    6  S2  UNL     1      52.143 133.839  19.009  1.00  0.00    -0.047 SA
ENDROOT
BRANCH   1   7
HETATM    7  N2  UNL     1      54.745 133.256  18.469  1.00  0.00    -0.280 N 
ATOM      8  H2  UNL     1      55.583 133.594  17.996  1.00  0.00     0.189 HD
BRANCH   7   9
HETATM    9  N1  UNL     1      54.860 132.339  19.512  1.00  0.00    -0.307 N 
HETATM   10  C3  UNL     1      55.186 132.631  20.704  1.00  0.00    -0.001 C 
HETATM   11  C4  UNL     1      55.487 134.034  21.105  1.00  0.00     0.065 C 
ATOM     12  H1  UNL     1      54.667 131.360  19.302  1.00  0.00     0.186 HD
BRANCH  10  13
HETATM   13  C2  UNL     1      55.277 131.569  21.732  1.00  0.00     0.049 C 
HETATM   14  C1  UNL     1      55.972 132.066  22.988  1.00  0.00     0.011 C 
ENDBRANCH  10  13
ENDBRANCH   7   9
ENDBRANCH   1   7
BRANCH   4  15
HETATM   15  C7  UNL     1      51.440 135.023  15.367  1.00  0.00     0.037 C 
HETATM   16  C8  UNL     1      51.180 133.858  14.462  1.00  0.00     0.011 C 
HETATM   17  C9  UNL     1      50.814 134.286  13.061  1.00  0.00     0.001 C 
HETATM   18  C10 UNL     1      52.103 134.916  12.511  1.00  0.00     0.000 C 
HETATM   19  C11 UNL     1      52.324 136.161  13.289  1.00  0.00     0.001 C 
HETATM   20  C12 UNL     1      52.384 136.027  14.770  1.00  0.00     0.011 C 
ENDBRANCH   4  15
BRANCH   5  21
HETATM   21  C14 UNL     1      49.685 134.823  17.879  1.00  0.00     0.192 C 
HETATM   22  S1  UNL     1      48.523 134.052  17.037  1.00  0.00    -0.048 SA
BRANCH  21  23
HETATM   23  O1  UNL     1      49.302 135.867  18.702  1.00  0.00    -0.187 OA
BRANCH  23  24
HETATM   24  O2  UNL     1      49.699 135.846  19.983  1.00  0.00    -0.244 OA
ATOM     25  H2  UNL     1      49.051 135.660  20.653  1.00  0.00     0.254 HD
ENDBRANCH  23  24
ENDBRANCH  21  23
ENDBRANCH   5  21
TORSDOF 7
ENDMDL
MODEL 4
REMARK VINA RESULT: -6.064278039      3.304      4.151
REMARK  7 active torsions:
REMARK  status: ('A' for Active; 'I' for Inactive)
REMARK    1  A    between atoms: C2_2  and  C3_3 
REMARK    2  A    between atoms: N1_5  and  N2_7 
REMARK    3  A    between atoms: N2_7  and  C5_9 
REMARK    4  A    between atoms: C6_12  and  C7_13 
REMARK    5  A    between atoms: C13_19  and  C14_20 
REMARK    6  A    between atoms: C14_20  and  O1_22 
REMARK    7  A    between atoms: O1_22  and  O2_23 
ROOT
HETATM    1  C5  UNL     1      55.366 136.708  18.699  1.00  0.00     0.164 A 
HETATM    2  N3  UNL     1      54.086 136.342  18.641  1.00  0.00    -0.337 N 
ATOM      3  H3  UNL     1      53.372 136.998  18.322  1.00  0.00     0.168 HD
HETATM    4  C6  UNL     1      53.762 135.125  19.002  1.00  0.00     0.036 A 
HETATM    5  C13 UNL     1      54.783 134.300  19.421  1.00  0.00     0.079 A 
HETATM    6  S2  UNL     1      56.145 135.314  19.274  1.00  0.00    -0.047 SA
ENDROOT
BRANCH   1   7
HETATM    7  N2  UNL     1      55.891 137.872  18.385  1.00  0.00    -0.280 N 
ATOM      8  H2  UNL     1      56.596 138.290  18.991  1.00  0.00     0.189 HD
BRANCH   7   9
HETATM    9  N1  UNL     1      55.489 138.538  17.228  1.00  0.00    -0.307 N 
HETATM   10  C3  UNL     1      55.274 139.787  17.146  1.00  0.00    -0.001 C 
HETATM   11  C4  UNL     1      55.437 140.682  18.325  1.00  0.00     0.065 C 
ATOM     12  H1  UNL     1      55.359 137.981  16.384  1.00  0.00     0.186 HD
BRANCH  10  13
HETATM   13  C2  UNL     1      54.849 140.386  15.860  1.00  0.00     0.049 C 
HETATM   14  C1  UNL     1      54.211 141.750  16.063  1.00  0.00     0.011 C 
ENDBRANCH  10  13
ENDBRANCH   7   9
ENDBRANCH   1   7
BRANCH   4  15
HETATM   15  C7  UNL     1      52.327 134.615  18.975  1.00  0.00     0.037 C 
HETATM   16  C8  UNL     1      51.985 134.175  17.585  1.00  0.00     0.011 C 
HETATM   17  C9  UNL     1      50.530 133.802  17.438  1.00  0.00     0.001 C 
HETATM   18  C10 UNL     1      49.779 135.131  17.614  1.00  0.00     0.000 C 
HETATM   19  C11 UNL     1      49.972 135.536  19.029  1.00  0.00     0.001 C 
HETATM   20  C12 UNL     1      51.376 135.645  19.513  1.00  0.00     0.011 C 
ENDBRANCH   4  15
BRANCH   5  21
HETATM   21  C14 UNL     1      54.706 132.894  19.871  1.00  0.00     0.192 C 
HETATM   22  S1  UNL     1      55.212 132.406  21.341  1.00  0.00    -0.048 SA
BRANCH  21  23
HETATM   23  O1  UNL     1      54.184 131.937  19.018  1.00  0.00    -0.187 OA
BRANCH  23  24
HETATM   24  O2  UNL     1      54.597 131.929  17.741  1.00  0.00    -0.244 OA
ATOM     25  H2  UNL     1      55.389 131.450  17.527  1.00  0.00     0.254 HD
ENDBRANCH  23  24
ENDBRANCH  21  23
ENDBRANCH   5  21
TORSDOF 7
ENDMDL
MODEL 5
REMARK VINA RESULT: -6.040335453      1.085      1.759
REMARK  7 active torsions:
REMARK  status: ('A' for Active; 'I' for Inactive)
REMARK    1  A    between atoms: C2_2  and  C3_3 
REMARK    2  A    between atoms: N1_5  and  N2_7 
REMARK    3  A    between atoms: N2_7  and  C5_9 
REMARK    4  A    between atoms: C6_12  and  C7_13 
REMARK    5  A    between atoms: C13_19  and  C14_20 
REMARK    6  A    between atoms: C14_20  and  O1_22 
REMARK    7  A    between atoms: O1_22  and  O2_23 
ROOT
HETATM    1  C5  UNL     1      53.042 135.770  14.133  1.00  0.00     0.164 A 
HETATM    2  N3  UNL     1      51.833 135.208  14.163  1.00  0.00    -0.337 N 
ATOM      3  H3  UNL     1      51.272 135.139  13.314  1.00  0.00     0.168 HD
HETATM    4  C6  UNL     1      51.382 134.746  15.303  1.00  0.00     0.036 A 
HETATM    5  C13 UNL     1      52.201 134.876  16.403  1.00  0.00     0.079 A 
HETATM    6  S2  UNL     1      53.568 135.652  15.743  1.00  0.00    -0.047 SA
ENDROOT
BRANCH   1   7
HETATM    7  N2  UNL     1      53.668 136.289  13.100  1.00  0.00    -0.280 N 
ATOM      8  H2  UNL     1      54.688 136.288  13.073  1.00  0.00     0.189 HD
BRANCH   7   9
HETATM    9  N1  UNL     1      52.948 136.840  12.042  1.00  0.00    -0.307 N 
HETATM   10  C3  UNL     1      52.540 138.041  11.988  1.00  0.00    -0.001 C 
HETATM   11  C4  UNL     1      52.805 139.002  13.095  1.00  0.00     0.065 C 
ATOM     12  H1  UNL     1      52.733 136.233  11.251  1.00  0.00     0.186 HD
BRANCH  10  13
HETATM   13  C2  UNL     1      51.780 138.517  10.809  1.00  0.00     0.049 C 
HETATM   14  C1  UNL     1      51.464 137.380   9.852  1.00  0.00     0.011 C 
ENDBRANCH  10  13
ENDBRANCH   7   9
ENDBRANCH   1   7
BRANCH   4  15
HETATM   15  C7  UNL     1      50.013 134.091  15.440  1.00  0.00     0.037 C 
HETATM   16  C8  UNL     1      49.721 133.296  14.204  1.00  0.00     0.011 C 
HETATM   17  C9  UNL     1      48.317 132.743  14.193  1.00  0.00     0.001 C 
HETATM   18  C10 UNL     1      47.421 133.986  14.068  1.00  0.00     0.000 C 
HETATM   19  C11 UNL     1      47.570 134.736  15.340  1.00  0.00     0.001 C 
HETATM   20  C12 UNL     1      48.953 135.111  15.743  1.00  0.00     0.011 C 
ENDBRANCH   4  15
BRANCH   5  21
HETATM   21  C14 UNL     1      51.952 134.441  17.794  1.00  0.00     0.192 C 
HETATM   22  S1  UNL     1      51.346 135.434  18.936  1.00  0.00    -0.048 SA
BRANCH  21  23
HETATM   23  O1  UNL     1      52.240 133.138  18.159  1.00  0.00    -0.187 OA
BRANCH  23  24
HETATM   24  O2  UNL     1      53.075 132.430  17.383  1.00  0.00    -0.244 OA
ATOM     25  H2  UNL     1      53.093 132.617  16.452  1.00  0.00     0.254 HD
ENDBRANCH  23  24
ENDBRANCH  21  23
ENDBRANCH   5  21
TORSDOF 7
ENDMDL
