MODEL 1
REMARK VINA RESULT: -6.333273061      0.000      0.000
REMARK  11 active torsions:
REMARK  status: ('A' for Active; 'I' for Inactive)
REMARK    1  A    between atoms: C4_8  and  O2_9 
REMARK    2  A    between atoms: C5_11  and  C6_12 
REMARK    3  A    between atoms: C6_12  and  C7_13 
REMARK    4  A    between atoms: C7_13  and  O3_14 
REMARK    5  A    between atoms: C7_13  and  C8_16 
REMARK    6  A    between atoms: C8_16  and  O4_17 
REMARK    7  A    between atoms: C8_16  and  C9_19 
REMARK    8  A    between atoms: C9_19  and  O5_20 
REMARK    9  A    between atoms: C9_19  and  O6_22 
REMARK   10  A    between atoms: C11_27  and  O8_28 
REMARK   11  A    between atoms: C12_30  and  O9_31 
ROOT
HETATM    1  O1  UNL     1     -14.802   5.271   2.999  1.00  0.00    -0.270 OA
HETATM    2  C1  UNL     1     -15.152   4.121   2.627  1.00  0.00     0.259 C 
HETATM    3  N1  UNL     1     -16.468   3.745   2.227  1.00  0.00    -0.356 N 
ATOM      4  H1  UNL     1     -17.222   4.368   1.936  1.00  0.00     0.162 HD
HETATM    5  C2  UNL     1     -16.517   2.293   2.317  1.00  0.00     0.153 C 
HETATM    6  C3  UNL     1     -15.115   1.916   1.872  1.00  0.00     0.177 C 
HETATM    7  N2  UNL     1     -14.666   0.691   2.459  1.00  0.00    -0.253 N 
HETATM    8  C4  UNL     1     -14.698  -0.650   2.228  1.00  0.00     0.170 A 
HETATM    9  C5  UNL     1     -14.035  -1.245   3.254  1.00  0.00     0.066 A 
HETATM   10  C10 UNL     1     -13.604  -0.257   4.102  1.00  0.00     0.275 A 
HETATM   11  O7  UNL     1     -12.948  -0.450   5.169  1.00  0.00    -0.266 OA
HETATM   12  N3  UNL     1     -14.009   0.922   3.584  1.00  0.00    -0.219 N 
HETATM   13  C11 UNL     1     -13.953   2.333   3.864  1.00  0.00     0.290 C 
HETATM   14  C12 UNL     1     -14.269   2.956   2.540  1.00  0.00     0.208 C 
ENDROOT
BRANCH   9  15
HETATM   15  C6  UNL     1     -13.832  -2.736   3.392  1.00  0.00     0.083 C 
BRANCH  15  16
HETATM   16  C7  UNL     1     -12.798  -3.089   2.356  1.00  0.00     0.156 C 
BRANCH  16  17
HETATM   17  O3  UNL     1     -13.438  -3.707   1.289  1.00  0.00    -0.393 OA
ATOM     18  H3  UNL     1     -12.866  -4.384   0.947  1.00  0.00     0.210 HD
ENDBRANCH  16  17
BRANCH  16  19
HETATM   19  C8  UNL     1     -11.590  -3.797   2.865  1.00  0.00     0.202 C 
BRANCH  19  20
HETATM   20  O4  UNL     1     -11.835  -5.191   2.823  1.00  0.00    -0.388 OA
ATOM     21  H4  UNL     1     -11.144  -5.633   3.301  1.00  0.00     0.210 HD
ENDBRANCH  19  20
BRANCH  19  22
HETATM   22  C9  UNL     1     -11.231  -3.437   4.268  1.00  0.00     0.285 C 
BRANCH  22  23
HETATM   23  O5  UNL     1     -10.505  -2.277   4.311  1.00  0.00    -0.369 OA
ATOM     24  H5  UNL     1     -10.932  -1.586   3.818  1.00  0.00     0.212 HD
ENDBRANCH  22  23
BRANCH  22  25
HETATM   25  O6  UNL     1     -10.522  -4.515   4.846  1.00  0.00    -0.369 OA
ATOM     26  H6  UNL     1     -11.116  -5.248   4.955  1.00  0.00     0.212 HD
ENDBRANCH  22  25
ENDBRANCH  19  22
ENDBRANCH  16  19
ENDBRANCH  15  16
ENDBRANCH   9  15
BRANCH   8  27
HETATM   27  O2  UNL     1     -15.294  -1.302   1.149  1.00  0.00    -0.344 OA
ATOM     28  H2  UNL     1     -14.867  -1.864   0.513  1.00  0.00     0.219 HD
ENDBRANCH   8  27
BRANCH  13  29
HETATM   29  O8  UNL     1     -12.718   2.728   4.367  1.00  0.00    -0.371 OA
ATOM     30  H8  UNL     1     -12.586   3.668   4.312  1.00  0.00     0.212 HD
ENDBRANCH  13  29
BRANCH  14  31
HETATM   31  O9  UNL     1     -13.132   3.188   1.770  1.00  0.00    -0.374 OA
ATOM     32  H9  UNL     1     -12.367   2.720   2.083  1.00  0.00     0.211 HD
ENDBRANCH  14  31
TORSDOF 11
ENDMDL
MODEL 2
REMARK VINA RESULT: -6.144090793      9.759     12.574
REMARK  11 active torsions:
REMARK  status: ('A' for Active; 'I' for Inactive)
REMARK    1  A    between atoms: C4_8  and  O2_9 
REMARK    2  A    between atoms: C5_11  and  C6_12 
REMARK    3  A    between atoms: C6_12  and  C7_13 
REMARK    4  A    between atoms: C7_13  and  O3_14 
REMARK    5  A    between atoms: C7_13  and  C8_16 
REMARK    6  A    between atoms: C8_16  and  O4_17 
REMARK    7  A    between atoms: C8_16  and  C9_19 
REMARK    8  A    between atoms: C9_19  and  O5_20 
REMARK    9  A    between atoms: C9_19  and  O6_22 
REMARK   10  A    between atoms: C11_27  and  O8_28 
REMARK   11  A    between atoms: C12_30  and  O9_31 
ROOT
HETATM    1  O1  UNL     1      -3.589  -8.333   3.302  1.00  0.00    -0.270 OA
HETATM    2  C1  UNL     1      -2.938  -7.331   3.697  1.00  0.00     0.259 C 
HETATM    3  N1  UNL     1      -1.600  -7.355   4.190  1.00  0.00    -0.356 N 
ATOM      4  H1  UNL     1      -0.910  -8.093   4.054  1.00  0.00     0.162 HD
HETATM    5  C2  UNL     1      -1.419  -6.111   4.925  1.00  0.00     0.153 C 
HETATM    6  C3  UNL     1      -2.232  -5.143   4.084  1.00  0.00     0.177 C 
HETATM    7  N2  UNL     1      -2.771  -4.066   4.857  1.00  0.00    -0.253 N 
HETATM    8  C4  UNL     1      -2.432  -2.822   5.291  1.00  0.00     0.170 A 
HETATM    9  C5  UNL     1      -3.483  -2.354   6.015  1.00  0.00     0.066 A 
HETATM   10  C10 UNL     1      -4.455  -3.322   6.014  1.00  0.00     0.275 A 
HETATM   11  O7  UNL     1      -5.576  -3.225   6.594  1.00  0.00    -0.266 OA
HETATM   12  N3  UNL     1      -3.985  -4.362   5.293  1.00  0.00    -0.219 N 
HETATM   13  C11 UNL     1      -4.382  -5.674   4.853  1.00  0.00     0.290 C 
HETATM   14  C12 UNL     1      -3.439  -5.955   3.724  1.00  0.00     0.208 C 
ENDROOT
BRANCH   9  15
HETATM   15  C6  UNL     1      -3.526  -1.000   6.684  1.00  0.00     0.083 C 
BRANCH  15  16
HETATM   16  C7  UNL     1      -4.348  -0.135   5.764  1.00  0.00     0.156 C 
BRANCH  16  17
HETATM   17  O3  UNL     1      -3.799  -0.202   4.490  1.00  0.00    -0.393 OA
ATOM     18  H3  UNL     1      -4.456  -0.547   3.897  1.00  0.00     0.210 HD
ENDBRANCH  16  17
BRANCH  16  19
HETATM   19  C8  UNL     1      -4.633   1.242   6.258  1.00  0.00     0.202 C 
BRANCH  19  20
HETATM   20  O4  UNL     1      -6.007   1.324   6.589  1.00  0.00    -0.388 OA
ATOM     21  H4  UNL     1      -6.401   2.015   6.070  1.00  0.00     0.210 HD
ENDBRANCH  19  20
BRANCH  19  22
HETATM   22  C9  UNL     1      -4.337   2.310   5.259  1.00  0.00     0.285 C 
BRANCH  22  23
HETATM   23  O5  UNL     1      -4.401   3.554   5.830  1.00  0.00    -0.369 OA
ATOM     24  H5  UNL     1      -4.918   4.148   5.299  1.00  0.00     0.212 HD
ENDBRANCH  22  23
BRANCH  22  25
HETATM   25  O6  UNL     1      -5.245   2.187   4.181  1.00  0.00    -0.369 OA
ATOM     26  H6  UNL     1      -4.752   2.118   3.373  1.00  0.00     0.212 HD
ENDBRANCH  22  25
ENDBRANCH  19  22
ENDBRANCH  16  19
ENDBRANCH  15  16
ENDBRANCH   9  15
BRANCH   8  27
HETATM   27  O2  UNL     1      -1.238  -2.144   5.047  1.00  0.00    -0.344 OA
ATOM     28  H2  UNL     1      -1.003  -1.273   5.345  1.00  0.00     0.219 HD
ENDBRANCH   8  27
BRANCH  13  29
HETATM   29  O8  UNL     1      -5.717  -5.726   4.467  1.00  0.00    -0.371 OA
ATOM     30  H8  UNL     1      -6.285  -5.239   5.053  1.00  0.00     0.212 HD
ENDBRANCH  13  29
BRANCH  14  31
HETATM   31  O9  UNL     1      -3.931  -5.528   2.494  1.00  0.00    -0.374 OA
ATOM     32  H9  UNL     1      -3.540  -5.983   1.757  1.00  0.00     0.211 HD
ENDBRANCH  14  31
TORSDOF 11
ENDMDL
MODEL 3
REMARK VINA RESULT: -5.981321362      2.240      6.759
REMARK  11 active torsions:
REMARK  status: ('A' for Active; 'I' for Inactive)
REMARK    1  A    between atoms: C4_8  and  O2_9 
REMARK    2  A    between atoms: C5_11  and  C6_12 
REMARK    3  A    between atoms: C6_12  and  C7_13 
REMARK    4  A    between atoms: C7_13  and  O3_14 
REMARK    5  A    between atoms: C7_13  and  C8_16 
REMARK    6  A    between atoms: C8_16  and  O4_17 
REMARK    7  A    between atoms: C8_16  and  C9_19 
REMARK    8  A    between atoms: C9_19  and  O5_20 
REMARK    9  A    between atoms: C9_19  and  O6_22 
REMARK   10  A    between atoms: C11_27  and  O8_28 
REMARK   11  A    between atoms: C12_30  and  O9_31 
ROOT
HETATM    1  O1  UNL     1     -11.229  -5.028   5.373  1.00  0.00    -0.270 OA
HETATM    2  C1  UNL     1     -11.793  -4.467   4.399  1.00  0.00     0.259 C 
HETATM    3  N1  UNL     1     -11.505  -4.710   3.023  1.00  0.00    -0.356 N 
ATOM      4  H1  UNL     1     -11.023  -5.519   2.632  1.00  0.00     0.162 HD
HETATM    5  C2  UNL     1     -12.039  -3.570   2.292  1.00  0.00     0.153 C 
HETATM    6  C3  UNL     1     -13.299  -3.268   3.083  1.00  0.00     0.177 C 
HETATM    7  N2  UNL     1     -13.661  -1.884   3.029  1.00  0.00    -0.253 N 
HETATM    8  C4  UNL     1     -14.384  -1.025   2.261  1.00  0.00     0.170 A 
HETATM    9  C5  UNL     1     -14.281   0.203   2.837  1.00  0.00     0.066 A 
HETATM   10  C10 UNL     1     -13.495   0.077   3.953  1.00  0.00     0.275 A 
HETATM   11  O7  UNL     1     -13.187   1.025   4.735  1.00  0.00    -0.266 OA
HETATM   12  N3  UNL     1     -13.129  -1.220   4.042  1.00  0.00    -0.219 N 
HETATM   13  C11 UNL     1     -12.354  -2.097   4.881  1.00  0.00     0.290 C 
HETATM   14  C12 UNL     1     -12.849  -3.458   4.500  1.00  0.00     0.208 C 
ENDROOT
BRANCH   9  15
HETATM   15  C6  UNL     1     -14.938   1.455   2.304  1.00  0.00     0.083 C 
BRANCH  15  16
HETATM   16  C7  UNL     1     -13.806   2.303   1.788  1.00  0.00     0.156 C 
BRANCH  16  17
HETATM   17  O3  UNL     1     -13.611   3.359   2.668  1.00  0.00    -0.393 OA
ATOM     18  H3  UNL     1     -12.860   3.862   2.373  1.00  0.00     0.210 HD
ENDBRANCH  16  17
BRANCH  16  19
HETATM   19  C8  UNL     1     -13.890   2.685   0.349  1.00  0.00     0.202 C 
BRANCH  19  20
HETATM   20  O4  UNL     1     -12.581   2.689  -0.191  1.00  0.00    -0.388 OA
ATOM     21  H4  UNL     1     -12.538   3.351  -0.871  1.00  0.00     0.210 HD
ENDBRANCH  19  20
BRANCH  19  22
HETATM   22  C9  UNL     1     -14.484   4.034   0.122  1.00  0.00     0.285 C 
BRANCH  22  23
HETATM   23  O5  UNL     1     -15.830   4.031   0.376  1.00  0.00    -0.369 OA
ATOM     24  H5  UNL     1     -16.079   4.773   0.914  1.00  0.00     0.212 HD
ENDBRANCH  22  23
BRANCH  22  25
HETATM   25  O6  UNL     1     -14.209   4.432  -1.207  1.00  0.00    -0.369 OA
ATOM     26  H6  UNL     1     -14.393   5.360  -1.292  1.00  0.00     0.212 HD
ENDBRANCH  22  25
ENDBRANCH  19  22
ENDBRANCH  16  19
ENDBRANCH  15  16
ENDBRANCH   9  15
BRANCH   8  27
HETATM   27  O2  UNL     1     -15.097  -1.331   1.103  1.00  0.00    -0.344 OA
ATOM     28  H2  UNL     1     -15.221  -0.774   0.344  1.00  0.00     0.219 HD
ENDBRANCH   8  27
BRANCH  13  29
HETATM   29  O8  UNL     1     -12.517  -1.822   6.235  1.00  0.00    -0.371 OA
ATOM     30  H8  UNL     1     -11.940  -1.130   6.538  1.00  0.00     0.212 HD
ENDBRANCH  13  29
BRANCH  14  31
HETATM   31  O9  UNL     1     -13.930  -3.872   5.274  1.00  0.00    -0.374 OA
ATOM     32  H9  UNL     1     -13.887  -3.564   6.171  1.00  0.00     0.211 HD
ENDBRANCH  14  31
TORSDOF 11
ENDMDL
MODEL 4
REMARK VINA RESULT: -5.916969033      2.136      6.955
REMARK  11 active torsions:
REMARK  status: ('A' for Active; 'I' for Inactive)
REMARK    1  A    between atoms: C4_8  and  O2_9 
REMARK    2  A    between atoms: C5_11  and  C6_12 
REMARK    3  A    between atoms: C6_12  and  C7_13 
REMARK    4  A    between atoms: C7_13  and  O3_14 
REMARK    5  A    between atoms: C7_13  and  C8_16 
REMARK    6  A    between atoms: C8_16  and  O4_17 
REMARK    7  A    between atoms: C8_16  and  C9_19 
REMARK    8  A    between atoms: C9_19  and  O5_20 
REMARK    9  A    between atoms: C9_19  and  O6_22 
REMARK   10  A    between atoms: C11_27  and  O8_28 
REMARK   11  A    between atoms: C12_30  and  O9_31 
ROOT
HETATM    1  O1  UNL     1     -11.491  -5.505   4.794  1.00  0.00    -0.270 OA
HETATM    2  C1  UNL     1     -11.913  -4.346   5.042  1.00  0.00     0.259 C 
HETATM    3  N1  UNL     1     -12.426  -3.902   6.296  1.00  0.00    -0.356 N 
ATOM      4  H1  UNL     1     -12.289  -4.343   7.205  1.00  0.00     0.162 HD
HETATM    5  C2  UNL     1     -13.185  -2.691   6.015  1.00  0.00     0.153 C 
HETATM    6  C3  UNL     1     -12.347  -2.058   4.918  1.00  0.00     0.177 C 
HETATM    7  N2  UNL     1     -13.129  -1.261   4.024  1.00  0.00    -0.253 N 
HETATM    8  C4  UNL     1     -13.590   0.013   3.894  1.00  0.00     0.170 A 
HETATM    9  C5  UNL     1     -14.305   0.060   2.739  1.00  0.00     0.066 A 
HETATM   10  C10 UNL     1     -14.272  -1.191   2.176  1.00  0.00     0.275 A 
HETATM   11  O7  UNL     1     -14.837  -1.512   1.088  1.00  0.00    -0.266 OA
HETATM   12  N3  UNL     1     -13.541  -1.979   2.992  1.00  0.00    -0.219 N 
HETATM   13  C11 UNL     1     -13.074  -3.337   3.092  1.00  0.00     0.290 C 
HETATM   14  C12 UNL     1     -11.955  -3.239   4.083  1.00  0.00     0.208 C 
ENDROOT
BRANCH   9  15
HETATM   15  C6  UNL     1     -14.995   1.295   2.210  1.00  0.00     0.083 C 
BRANCH  15  16
HETATM   16  C7  UNL     1     -13.882   2.203   1.757  1.00  0.00     0.156 C 
BRANCH  16  17
HETATM   17  O3  UNL     1     -13.752   3.233   2.679  1.00  0.00    -0.393 OA
ATOM     18  H3  UNL     1     -13.551   4.034   2.209  1.00  0.00     0.210 HD
ENDBRANCH  16  17
BRANCH  16  19
HETATM   19  C8  UNL     1     -13.941   2.634   0.331  1.00  0.00     0.202 C 
BRANCH  19  20
HETATM   20  O4  UNL     1     -12.624   2.644  -0.189  1.00  0.00    -0.388 OA
ATOM     21  H4  UNL     1     -12.674   2.604  -1.137  1.00  0.00     0.210 HD
ENDBRANCH  19  20
BRANCH  19  22
HETATM   22  C9  UNL     1     -14.520   3.995   0.140  1.00  0.00     0.285 C 
BRANCH  22  23
HETATM   23  O5  UNL     1     -15.870   3.996   0.374  1.00  0.00    -0.369 OA
ATOM     24  H5  UNL     1     -16.213   4.881   0.396  1.00  0.00     0.212 HD
ENDBRANCH  22  23
BRANCH  22  25
HETATM   25  O6  UNL     1     -14.221   4.435  -1.170  1.00  0.00    -0.369 OA
ATOM     26  H6  UNL     1     -14.984   4.874  -1.527  1.00  0.00     0.212 HD
ENDBRANCH  22  25
ENDBRANCH  19  22
ENDBRANCH  16  19
ENDBRANCH  15  16
ENDBRANCH   9  15
BRANCH   8  27
HETATM   27  O2  UNL     1     -13.376   1.076   4.770  1.00  0.00    -0.344 OA
ATOM     28  H2  UNL     1     -13.267   1.992   4.542  1.00  0.00     0.219 HD
ENDBRANCH   8  27
BRANCH  13  29
HETATM   29  O8  UNL     1     -12.666  -3.853   1.867  1.00  0.00    -0.371 OA
ATOM     30  H8  UNL     1     -12.850  -4.782   1.783  1.00  0.00     0.212 HD
ENDBRANCH  13  29
BRANCH  14  31
HETATM   31  O9  UNL     1     -10.724  -2.989   3.482  1.00  0.00    -0.374 OA
ATOM     32  H9  UNL     1     -10.099  -2.579   4.068  1.00  0.00     0.211 HD
ENDBRANCH  14  31
TORSDOF 11
ENDMDL
MODEL 5
REMARK VINA RESULT: -5.899501901      0.843      1.048
REMARK  11 active torsions:
REMARK  status: ('A' for Active; 'I' for Inactive)
REMARK    1  A    between atoms: C4_8  and  O2_9 
REMARK    2  A    between atoms: C5_11  and  C6_12 
REMARK    3  A    between atoms: C6_12  and  C7_13 
REMARK    4  A    between atoms: C7_13  and  O3_14 
REMARK    5  A    between atoms: C7_13  and  C8_16 
REMARK    6  A    between atoms: C8_16  and  O4_17 
REMARK    7  A    between atoms: C8_16  and  C9_19 
REMARK    8  A    between atoms: C9_19  and  O5_20 
REMARK    9  A    between atoms: C9_19  and  O6_22 
REMARK   10  A    between atoms: C11_27  and  O8_28 
REMARK   11  A    between atoms: C12_30  and  O9_31 
ROOT
HETATM    1  O1  UNL     1     -14.737   4.869   2.824  1.00  0.00    -0.270 OA
HETATM    2  C1  UNL     1     -15.036   3.697   2.478  1.00  0.00     0.259 C 
HETATM    3  N1  UNL     1     -16.327   3.262   2.055  1.00  0.00    -0.356 N 
ATOM      4  H1  UNL     1     -17.094   3.848   1.726  1.00  0.00     0.162 HD
HETATM    5  C2  UNL     1     -16.327   1.812   2.188  1.00  0.00     0.153 C 
HETATM    6  C3  UNL     1     -14.901   1.473   1.790  1.00  0.00     0.177 C 
HETATM    7  N2  UNL     1     -14.425   0.283   2.426  1.00  0.00    -0.253 N 
HETATM    8  C4  UNL     1     -14.404  -1.064   2.235  1.00  0.00     0.170 A 
HETATM    9  C5  UNL     1     -13.748  -1.605   3.295  1.00  0.00     0.066 A 
HETATM   10  C10 UNL     1     -13.375  -0.577   4.124  1.00  0.00     0.275 A 
HETATM   11  O7  UNL     1     -12.742  -0.716   5.212  1.00  0.00    -0.266 OA
HETATM   12  N3  UNL     1     -13.807   0.571   3.560  1.00  0.00    -0.219 N 
HETATM   13  C11 UNL     1     -13.808   1.990   3.799  1.00  0.00     0.290 C 
HETATM   14  C12 UNL     1     -14.110   2.563   2.448  1.00  0.00     0.208 C 
ENDROOT
BRANCH   9  15
HETATM   15  C6  UNL     1     -13.497  -3.083   3.483  1.00  0.00     0.083 C 
BRANCH  15  16
HETATM   16  C7  UNL     1     -12.027  -3.269   3.211  1.00  0.00     0.156 C 
BRANCH  16  17
HETATM   17  O3  UNL     1     -11.869  -3.635   1.880  1.00  0.00    -0.393 OA
ATOM     18  H3  UNL     1     -11.217  -4.323   1.832  1.00  0.00     0.210 HD
ENDBRANCH  16  17
BRANCH  16  19
HETATM   19  C8  UNL     1     -11.292  -4.117   4.191  1.00  0.00     0.202 C 
BRANCH  19  20
HETATM   20  O4  UNL     1     -12.235  -4.877   4.924  1.00  0.00    -0.388 OA
ATOM     21  H4  UNL     1     -11.816  -5.196   5.715  1.00  0.00     0.210 HD
ENDBRANCH  19  20
BRANCH  19  22
HETATM   22  C9  UNL     1     -10.476  -3.336   5.166  1.00  0.00     0.285 C 
BRANCH  22  23
HETATM   23  O5  UNL     1     -11.215  -2.989   6.265  1.00  0.00    -0.369 OA
ATOM     24  H5  UNL     1     -11.689  -3.737   6.609  1.00  0.00     0.212 HD
ENDBRANCH  22  23
BRANCH  22  25
HETATM   25  O6  UNL     1      -9.955  -2.196   4.510  1.00  0.00    -0.369 OA
ATOM     26  H6  UNL     1     -10.575  -1.915   3.848  1.00  0.00     0.212 HD
ENDBRANCH  22  25
ENDBRANCH  19  22
ENDBRANCH  16  19
ENDBRANCH  15  16
ENDBRANCH   9  15
BRANCH   8  27
HETATM   27  O2  UNL     1     -14.947  -1.769   1.161  1.00  0.00    -0.344 OA
ATOM     28  H2  UNL     1     -15.825  -2.126   1.096  1.00  0.00     0.219 HD
ENDBRANCH   8  27
BRANCH  13  29
HETATM   29  O8  UNL     1     -12.602   2.444   4.321  1.00  0.00    -0.371 OA
ATOM     30  H8  UNL     1     -12.722   3.051   5.042  1.00  0.00     0.212 HD
ENDBRANCH  13  29
BRANCH  14  31
HETATM   31  O9  UNL     1     -12.962   2.813   1.701  1.00  0.00    -0.374 OA
ATOM     32  H9  UNL     1     -12.994   3.639   1.233  1.00  0.00     0.211 HD
ENDBRANCH  14  31
TORSDOF 11
ENDMDL
