MODEL 1
REMARK VINA RESULT: -6.615527738      0.000      0.000
REMARK  10 active torsions:
REMARK  status: ('A' for Active; 'I' for Inactive)
REMARK    1  A    between atoms: N1_1  and  C1_4 
REMARK    2  A    between atoms: N4_12  and  C4_13 
REMARK    3  A    between atoms: C6_15  and  O2_16 
REMARK    4  A    between atoms: C7_18  and  C8_19 
REMARK    5  A    between atoms: C8_19  and  O3_20 
REMARK    6  A    between atoms: C8_19  and  C9_22 
REMARK    7  A    between atoms: C9_22  and  O4_23 
REMARK    8  A    between atoms: C9_22  and  C10_25 
REMARK    9  A    between atoms: C10_25  and  O5_26 
REMARK   10  A    between atoms: C10_25  and  O6_28 
ROOT
HETATM    1  C4  UNL     1      -4.946   1.209   6.712  1.00  0.00     0.265 C 
HETATM    2  C5  UNL     1      -4.402   1.717   5.393  1.00  0.00     0.091 C 
HETATM    3  C6  UNL     1      -4.102   0.415   4.683  1.00  0.00     0.154 C 
HETATM    4  C7  UNL     1      -4.074  -0.564   5.830  1.00  0.00     0.184 C 
HETATM    5  O7  UNL     1      -4.052   0.181   6.998  1.00  0.00    -0.353 OA
ENDROOT
BRANCH   1   6
HETATM    6  N4  UNL     1      -4.892   2.276   7.675  1.00  0.00    -0.202 N 
HETATM    7  N3  UNL     1      -4.812   2.095   8.985  1.00  0.00    -0.273 N 
HETATM    8  C3  UNL     1      -4.777   3.259   9.635  1.00  0.00     0.164 A 
ATOM      9  H3  UNL     1      -4.781   1.182   9.438  1.00  0.00     0.189 HD
HETATM   10  C2  UNL     1      -4.697   3.637  10.972  1.00  0.00     0.291 A 
HETATM   11  C11 UNL     1      -4.840   4.239   8.660  1.00  0.00     0.171 A 
HETATM   12  N2  UNL     1      -4.684   4.935  11.284  1.00  0.00    -0.154 N 
HETATM   13  O1  UNL     1      -4.642   2.715  11.822  1.00  0.00    -0.265 OA
HETATM   14  C1  UNL     1      -4.746   5.873  10.324  1.00  0.00     0.680 A 
ATOM     15  H2  UNL     1      -4.626   5.218  12.262  1.00  0.00     0.187 HD
HETATM   16  N6  UNL     1      -4.824   5.549   9.019  1.00  0.00    -0.173 N 
ATOM     17  H6  UNL     1      -4.871   6.279   8.308  1.00  0.00     0.186 HD
HETATM   18  N5  UNL     1      -4.909   3.590   7.484  1.00  0.00    -0.264 N 
ATOM     19  H5  UNL     1      -4.966   4.045   6.573  1.00  0.00     0.190 HD
BRANCH  14  20
HETATM   20  N1  UNL     1      -4.728   7.113  10.692  1.00  0.00    -0.234 N 
ATOM     21  H12 UNL     1      -5.216   7.408  11.537  1.00  0.00     0.174 HD
ATOM     22  H11 UNL     1      -4.213   7.773  10.110  1.00  0.00     0.174 HD
ENDBRANCH  14  20
ENDBRANCH   1   6
BRANCH   3  23
HETATM   23  O2  UNL     1      -5.214   0.132   3.873  1.00  0.00    -0.393 OA
ATOM     24  H2  UNL     1      -5.701  -0.557   4.309  1.00  0.00     0.210 HD
ENDBRANCH   3  23
BRANCH   4  25
HETATM   25  C8  UNL     1      -2.869  -1.446   5.672  1.00  0.00     0.183 C 
BRANCH  25  26
HETATM   26  O3  UNL     1      -2.526  -1.436   4.311  1.00  0.00    -0.390 OA
ATOM     27  H3  UNL     1      -1.625  -1.143   4.252  1.00  0.00     0.210 HD
ENDBRANCH  25  26
BRANCH  25  28
HETATM   28  C9  UNL     1      -3.221  -2.895   6.003  1.00  0.00     0.204 C 
BRANCH  28  29
HETATM   29  O4  UNL     1      -4.473  -3.155   5.489  1.00  0.00    -0.388 OA
ATOM     30  H4  UNL     1      -4.360  -3.572   4.644  1.00  0.00     0.210 HD
ENDBRANCH  28  29
BRANCH  28  31
HETATM   31  C10 UNL     1      -2.165  -3.799   5.391  1.00  0.00     0.285 C 
BRANCH  31  32
HETATM   32  O5  UNL     1      -0.944  -3.135   5.380  1.00  0.00    -0.369 OA
ATOM     33  H5  UNL     1      -0.672  -2.994   4.480  1.00  0.00     0.212 HD
ENDBRANCH  31  32
BRANCH  31  34
HETATM   34  O6  UNL     1      -2.507  -4.040   4.059  1.00  0.00    -0.369 OA
ATOM     35  H6  UNL     1      -2.844  -4.926   3.991  1.00  0.00     0.212 HD
ENDBRANCH  31  34
ENDBRANCH  28  31
ENDBRANCH  25  28
ENDBRANCH   4  25
TORSDOF 10
ENDMDL
MODEL 2
REMARK VINA RESULT: -6.535055024      1.178      1.690
REMARK  10 active torsions:
REMARK  status: ('A' for Active; 'I' for Inactive)
REMARK    1  A    between atoms: N1_1  and  C1_4 
REMARK    2  A    between atoms: N4_12  and  C4_13 
REMARK    3  A    between atoms: C6_15  and  O2_16 
REMARK    4  A    between atoms: C7_18  and  C8_19 
REMARK    5  A    between atoms: C8_19  and  O3_20 
REMARK    6  A    between atoms: C8_19  and  C9_22 
REMARK    7  A    between atoms: C9_22  and  O4_23 
REMARK    8  A    between atoms: C9_22  and  C10_25 
REMARK    9  A    between atoms: C10_25  and  O5_26 
REMARK   10  A    between atoms: C10_25  and  O6_28 
ROOT
HETATM    1  C4  UNL     1      -4.918   0.851   6.912  1.00  0.00     0.265 C 
HETATM    2  C5  UNL     1      -4.365   1.539   5.681  1.00  0.00     0.091 C 
HETATM    3  C6  UNL     1      -4.045   0.348   4.803  1.00  0.00     0.154 C 
HETATM    4  C7  UNL     1      -4.019  -0.778   5.806  1.00  0.00     0.184 C 
HETATM    5  O7  UNL     1      -4.017  -0.199   7.065  1.00  0.00    -0.353 OA
ENDROOT
BRANCH   1   6
HETATM    6  N4  UNL     1      -4.885   1.776   8.012  1.00  0.00    -0.202 N 
HETATM    7  N3  UNL     1      -5.015   3.088   7.887  1.00  0.00    -0.273 N 
HETATM    8  C3  UNL     1      -4.945   3.699   9.071  1.00  0.00     0.164 A 
ATOM      9  H3  UNL     1      -5.151   3.571   7.000  1.00  0.00     0.189 HD
HETATM   10  C2  UNL     1      -5.017   5.019   9.504  1.00  0.00     0.291 A 
HETATM   11  C11 UNL     1      -4.757   2.694  10.005  1.00  0.00     0.171 A 
HETATM   12  N2  UNL     1      -4.903   5.287  10.806  1.00  0.00    -0.154 N 
HETATM   13  O1  UNL     1      -5.188   5.898   8.623  1.00  0.00    -0.265 OA
HETATM   14  C1  UNL     1      -4.722   4.299  11.698  1.00  0.00     0.680 A 
ATOM     15  H2  UNL     1      -4.955   6.254  11.129  1.00  0.00     0.187 HD
HETATM   16  N6  UNL     1      -4.646   3.008  11.321  1.00  0.00    -0.173 N 
ATOM     17  H6  UNL     1      -4.507   2.275  12.017  1.00  0.00     0.186 HD
HETATM   18  N5  UNL     1      -4.728   1.542   9.310  1.00  0.00    -0.264 N 
ATOM     19  H5  UNL     1      -4.602   0.618   9.723  1.00  0.00     0.190 HD
BRANCH  14  20
HETATM   20  N1  UNL     1      -4.620   4.625  12.946  1.00  0.00    -0.234 N 
ATOM     21  H12 UNL     1      -3.703   4.738  13.377  1.00  0.00     0.174 HD
ATOM     22  H11 UNL     1      -5.482   4.763  13.472  1.00  0.00     0.174 HD
ENDBRANCH  14  20
ENDBRANCH   1   6
BRANCH   3  23
HETATM   23  O2  UNL     1      -5.145   0.170   3.949  1.00  0.00    -0.393 OA
ATOM     24  H2  UNL     1      -5.646  -0.558   4.297  1.00  0.00     0.210 HD
ENDBRANCH   3  23
BRANCH   4  25
HETATM   25  C8  UNL     1      -2.804  -1.620   5.542  1.00  0.00     0.183 C 
BRANCH  25  26
HETATM   26  O3  UNL     1      -2.553  -1.562   4.163  1.00  0.00    -0.390 OA
ATOM     27  H3  UNL     1      -1.623  -1.712   4.042  1.00  0.00     0.210 HD
ENDBRANCH  25  26
BRANCH  25  28
HETATM   28  C9  UNL     1      -3.095  -3.088   5.852  1.00  0.00     0.204 C 
BRANCH  28  29
HETATM   29  O4  UNL     1      -4.352  -3.381   5.372  1.00  0.00    -0.388 OA
ATOM     30  H4  UNL     1      -4.253  -3.990   4.651  1.00  0.00     0.210 HD
ENDBRANCH  28  29
BRANCH  28  31
HETATM   31  C10 UNL     1      -2.027  -3.940   5.189  1.00  0.00     0.285 C 
BRANCH  31  32
HETATM   32  O5  UNL     1      -0.841  -3.219   5.120  1.00  0.00    -0.369 OA
ATOM     33  H5  UNL     1      -0.399  -3.262   5.960  1.00  0.00     0.212 HD
ENDBRANCH  31  32
BRANCH  31  34
HETATM   34  O6  UNL     1      -2.421  -4.197   3.874  1.00  0.00    -0.369 OA
ATOM     35  H6  UNL     1      -2.155  -5.080   3.647  1.00  0.00     0.212 HD
ENDBRANCH  31  34
ENDBRANCH  28  31
ENDBRANCH  25  28
ENDBRANCH   4  25
TORSDOF 10
ENDMDL
MODEL 3
REMARK VINA RESULT: -6.516495036      5.796      9.587
REMARK  10 active torsions:
REMARK  status: ('A' for Active; 'I' for Inactive)
REMARK    1  A    between atoms: N1_1  and  C1_4 
REMARK    2  A    between atoms: N4_12  and  C4_13 
REMARK    3  A    between atoms: C6_15  and  O2_16 
REMARK    4  A    between atoms: C7_18  and  C8_19 
REMARK    5  A    between atoms: C8_19  and  O3_20 
REMARK    6  A    between atoms: C8_19  and  C9_22 
REMARK    7  A    between atoms: C9_22  and  O4_23 
REMARK    8  A    between atoms: C9_22  and  C10_25 
REMARK    9  A    between atoms: C10_25  and  O5_26 
REMARK   10  A    between atoms: C10_25  and  O6_28 
ROOT
HETATM    1  C4  UNL     1      -3.727  -3.684   5.886  1.00  0.00     0.265 C 
HETATM    2  C5  UNL     1      -2.508  -2.859   5.531  1.00  0.00     0.091 C 
HETATM    3  C6  UNL     1      -2.737  -1.625   6.377  1.00  0.00     0.154 C 
HETATM    4  C7  UNL     1      -4.208  -1.733   6.690  1.00  0.00     0.184 C 
HETATM    5  O7  UNL     1      -4.727  -2.715   5.863  1.00  0.00    -0.353 OA
ENDROOT
BRANCH   1   6
HETATM    6  N4  UNL     1      -3.910  -4.694   4.880  1.00  0.00    -0.202 N 
HETATM    7  N3  UNL     1      -2.968  -5.084   4.034  1.00  0.00    -0.273 N 
HETATM    8  C3  UNL     1      -3.415  -6.035   3.213  1.00  0.00     0.164 A 
ATOM      9  H3  UNL     1      -2.022  -4.704   4.013  1.00  0.00     0.189 HD
HETATM   10  C2  UNL     1      -2.864  -6.772   2.169  1.00  0.00     0.291 A 
HETATM   11  C11 UNL     1      -4.733  -6.257   3.572  1.00  0.00     0.171 A 
HETATM   12  N2  UNL     1      -3.618  -7.675   1.538  1.00  0.00    -0.154 N 
HETATM   13  O1  UNL     1      -1.665  -6.538   1.877  1.00  0.00    -0.265 OA
HETATM   14  C1  UNL     1      -4.896  -7.877   1.900  1.00  0.00     0.680 A 
ATOM     15  H2  UNL     1      -3.220  -8.218   0.771  1.00  0.00     0.187 HD
HETATM   16  N6  UNL     1      -5.467  -7.184   2.905  1.00  0.00    -0.173 N 
ATOM     17  H6  UNL     1      -6.439  -7.355   3.161  1.00  0.00     0.186 HD
HETATM   18  N5  UNL     1      -4.987  -5.417   4.591  1.00  0.00    -0.264 N 
ATOM     19  H5  UNL     1      -5.882  -5.345   5.075  1.00  0.00     0.190 HD
BRANCH  14  20
HETATM   20  N1  UNL     1      -5.573  -8.766   1.249  1.00  0.00    -0.234 N 
ATOM     21  H12 UNL     1      -6.541  -8.588   0.986  1.00  0.00     0.174 HD
ATOM     22  H11 UNL     1      -5.104  -9.641   1.014  1.00  0.00     0.174 HD
ENDBRANCH  14  20
ENDBRANCH   1   6
BRANCH   3  23
HETATM   23  O2  UNL     1      -2.006  -1.807   7.562  1.00  0.00    -0.393 OA
ATOM     24  H2  UNL     1      -2.121  -1.018   8.078  1.00  0.00     0.210 HD
ENDBRANCH   3  23
BRANCH   4  25
HETATM   25  C8  UNL     1      -4.839  -0.387   6.475  1.00  0.00     0.183 C 
BRANCH  25  26
HETATM   26  O3  UNL     1      -6.198  -0.607   6.203  1.00  0.00    -0.390 OA
ATOM     27  H3  UNL     1      -6.398  -0.153   5.392  1.00  0.00     0.210 HD
ENDBRANCH  25  26
BRANCH  25  28
HETATM   28  C9  UNL     1      -4.265   0.279   5.226  1.00  0.00     0.204 C 
BRANCH  28  29
HETATM   29  O4  UNL     1      -5.011  -0.135   4.145  1.00  0.00    -0.388 OA
ATOM     30  H4  UNL     1      -4.439  -0.157   3.387  1.00  0.00     0.210 HD
ENDBRANCH  28  29
BRANCH  28  31
HETATM   31  C10 UNL     1      -4.331   1.785   5.410  1.00  0.00     0.285 C 
BRANCH  31  32
HETATM   32  O5  UNL     1      -5.033   2.075   6.573  1.00  0.00    -0.369 OA
ATOM     33  H5  UNL     1      -5.833   2.538   6.350  1.00  0.00     0.212 HD
ENDBRANCH  31  32
BRANCH  31  34
HETATM   34  O6  UNL     1      -5.060   2.328   4.350  1.00  0.00    -0.369 OA
ATOM     35  H6  UNL     1      -5.475   3.129   4.650  1.00  0.00     0.212 HD
ENDBRANCH  31  34
ENDBRANCH  28  31
ENDBRANCH  25  28
ENDBRANCH   4  25
TORSDOF 10
ENDMDL
MODEL 4
REMARK VINA RESULT: -6.474911971      5.620      9.162
REMARK  10 active torsions:
REMARK  status: ('A' for Active; 'I' for Inactive)
REMARK    1  A    between atoms: N1_1  and  C1_4 
REMARK    2  A    between atoms: N4_12  and  C4_13 
REMARK    3  A    between atoms: C6_15  and  O2_16 
REMARK    4  A    between atoms: C7_18  and  C8_19 
REMARK    5  A    between atoms: C8_19  and  O3_20 
REMARK    6  A    between atoms: C8_19  and  C9_22 
REMARK    7  A    between atoms: C9_22  and  O4_23 
REMARK    8  A    between atoms: C9_22  and  C10_25 
REMARK    9  A    between atoms: C10_25  and  O5_26 
REMARK   10  A    between atoms: C10_25  and  O6_28 
ROOT
HETATM    1  C4  UNL     1      -3.750  -3.446   5.712  1.00  0.00     0.265 C 
HETATM    2  C5  UNL     1      -3.314  -3.266   7.152  1.00  0.00     0.091 C 
HETATM    3  C6  UNL     1      -4.308  -2.228   7.627  1.00  0.00     0.154 C 
HETATM    4  C7  UNL     1      -4.812  -1.662   6.324  1.00  0.00     0.184 C 
HETATM    5  O7  UNL     1      -3.969  -2.126   5.328  1.00  0.00    -0.353 OA
ENDROOT
BRANCH   1   6
HETATM    6  N4  UNL     1      -2.680  -4.067   4.980  1.00  0.00    -0.202 N 
HETATM    7  N3  UNL     1      -2.856  -4.940   3.999  1.00  0.00    -0.273 N 
HETATM    8  C3  UNL     1      -1.689  -5.352   3.500  1.00  0.00     0.164 A 
ATOM      9  H3  UNL     1      -3.766  -5.257   3.667  1.00  0.00     0.189 HD
HETATM   10  C2  UNL     1      -1.306  -6.233   2.494  1.00  0.00     0.291 A 
HETATM   11  C11 UNL     1      -0.713  -4.688   4.222  1.00  0.00     0.171 A 
HETATM   12  N2  UNL     1      -0.007  -6.419   2.248  1.00  0.00    -0.154 N 
HETATM   13  O1  UNL     1      -2.225  -6.813   1.864  1.00  0.00    -0.265 OA
HETATM   14  C1  UNL     1       0.927  -5.765   2.959  1.00  0.00     0.680 A 
ATOM     15  H2  UNL     1       0.280  -7.064   1.512  1.00  0.00     0.187 HD
HETATM   16  N6  UNL     1       0.598  -4.904   3.941  1.00  0.00    -0.173 N 
ATOM     17  H6  UNL     1       1.325  -4.420   4.468  1.00  0.00     0.186 HD
HETATM   18  N5  UNL     1      -1.367  -3.918   5.111  1.00  0.00    -0.264 N 
ATOM     19  H5  UNL     1      -0.916  -3.305   5.790  1.00  0.00     0.190 HD
BRANCH  14  20
HETATM   20  N1  UNL     1       2.168  -5.989   2.672  1.00  0.00    -0.234 N 
ATOM     21  H12 UNL     1       2.552  -6.931   2.735  1.00  0.00     0.174 HD
ATOM     22  H11 UNL     1       2.738  -5.194   2.382  1.00  0.00     0.174 HD
ENDBRANCH  14  20
ENDBRANCH   1   6
BRANCH   3  23
HETATM   23  O2  UNL     1      -5.353  -2.928   8.253  1.00  0.00    -0.393 OA
ATOM     24  H2  UNL     1      -5.378  -2.630   9.155  1.00  0.00     0.210 HD
ENDBRANCH   3  23
BRANCH   4  25
HETATM   25  C8  UNL     1      -4.830  -0.165   6.432  1.00  0.00     0.183 C 
BRANCH  25  26
HETATM   26  O3  UNL     1      -6.176   0.227   6.504  1.00  0.00    -0.390 OA
ATOM     27  H3  UNL     1      -6.285   0.703   7.320  1.00  0.00     0.210 HD
ENDBRANCH  25  26
BRANCH  25  28
HETATM   28  C9  UNL     1      -4.278   0.470   5.157  1.00  0.00     0.204 C 
BRANCH  28  29
HETATM   29  O4  UNL     1      -5.074   0.070   4.107  1.00  0.00    -0.388 OA
ATOM     30  H4  UNL     1      -4.560  -0.505   3.554  1.00  0.00     0.210 HD
ENDBRANCH  28  29
BRANCH  28  31
HETATM   31  C10 UNL     1      -4.287   1.978   5.328  1.00  0.00     0.285 C 
BRANCH  31  32
HETATM   32  O5  UNL     1      -4.403   2.288   6.677  1.00  0.00    -0.369 OA
ATOM     33  H5  UNL     1      -4.197   3.206   6.808  1.00  0.00     0.212 HD
ENDBRANCH  31  32
BRANCH  31  34
HETATM   34  O6  UNL     1      -5.425   2.487   4.697  1.00  0.00    -0.369 OA
ATOM     35  H6  UNL     1      -5.148   3.066   3.997  1.00  0.00     0.212 HD
ENDBRANCH  31  34
ENDBRANCH  28  31
ENDBRANCH  25  28
ENDBRANCH   4  25
TORSDOF 10
ENDMDL
MODEL 5
REMARK VINA RESULT: -6.331852574      5.339      8.953
REMARK  10 active torsions:
REMARK  status: ('A' for Active; 'I' for Inactive)
REMARK    1  A    between atoms: N1_1  and  C1_4 
REMARK    2  A    between atoms: N4_12  and  C4_13 
REMARK    3  A    between atoms: C6_15  and  O2_16 
REMARK    4  A    between atoms: C7_18  and  C8_19 
REMARK    5  A    between atoms: C8_19  and  O3_20 
REMARK    6  A    between atoms: C8_19  and  C9_22 
REMARK    7  A    between atoms: C9_22  and  O4_23 
REMARK    8  A    between atoms: C9_22  and  C10_25 
REMARK    9  A    between atoms: C10_25  and  O5_26 
REMARK   10  A    between atoms: C10_25  and  O6_28 
ROOT
HETATM    1  C4  UNL     1      -4.169  -3.055   6.553  1.00  0.00     0.265 C 
HETATM    2  C5  UNL     1      -3.037  -2.479   7.378  1.00  0.00     0.091 C 
HETATM    3  C6  UNL     1      -3.728  -1.303   8.035  1.00  0.00     0.154 C 
HETATM    4  C7  UNL     1      -4.939  -1.124   7.155  1.00  0.00     0.184 C 
HETATM    5  O7  UNL     1      -4.737  -1.898   6.025  1.00  0.00    -0.353 OA
ENDROOT
BRANCH   1   6
HETATM    6  N4  UNL     1      -3.613  -3.912   5.542  1.00  0.00    -0.202 N 
HETATM    7  N3  UNL     1      -2.374  -3.817   5.082  1.00  0.00    -0.273 N 
HETATM    8  C3  UNL     1      -2.129  -4.740   4.150  1.00  0.00     0.164 A 
ATOM      9  H3  UNL     1      -1.694  -3.127   5.399  1.00  0.00     0.189 HD
HETATM   10  C2  UNL     1      -1.032  -5.078   3.364  1.00  0.00     0.291 A 
HETATM   11  C11 UNL     1      -3.301  -5.464   4.017  1.00  0.00     0.171 A 
HETATM   12  N2  UNL     1      -1.133  -6.091   2.502  1.00  0.00    -0.154 N 
HETATM   13  O1  UNL     1       0.010  -4.394   3.517  1.00  0.00    -0.265 OA
HETATM   14  C1  UNL     1      -2.279  -6.784   2.387  1.00  0.00     0.680 A 
ATOM     15  H2  UNL     1      -0.332  -6.344   1.923  1.00  0.00     0.187 HD
HETATM   16  N6  UNL     1      -3.364  -6.489   3.128  1.00  0.00    -0.173 N 
ATOM     17  H6  UNL     1      -4.223  -7.029   3.023  1.00  0.00     0.186 HD
HETATM   18  N5  UNL     1      -4.174  -4.922   4.886  1.00  0.00    -0.264 N 
ATOM     19  H5  UNL     1      -5.133  -5.242   5.021  1.00  0.00     0.190 HD
BRANCH  14  20
HETATM   20  N1  UNL     1      -2.312  -7.755   1.533  1.00  0.00    -0.234 N 
ATOM     21  H12 UNL     1      -2.165  -8.717   1.839  1.00  0.00     0.174 HD
ATOM     22  H11 UNL     1      -2.490  -7.523   0.557  1.00  0.00     0.174 HD
ENDBRANCH  14  20
ENDBRANCH   1   6
BRANCH   3  23
HETATM   23  O2  UNL     1      -4.147  -1.739   9.303  1.00  0.00    -0.393 OA
ATOM     24  H2  UNL     1      -4.930  -1.245   9.516  1.00  0.00     0.210 HD
ENDBRANCH   3  23
BRANCH   4  25
HETATM   25  C8  UNL     1      -5.092   0.338   6.849  1.00  0.00     0.183 C 
BRANCH  25  26
HETATM   26  O3  UNL     1      -6.455   0.568   6.606  1.00  0.00    -0.390 OA
ATOM     27  H3  UNL     1      -6.885   0.621   7.452  1.00  0.00     0.210 HD
ENDBRANCH  25  26
BRANCH  25  28
HETATM   28  C9  UNL     1      -4.370   0.690   5.550  1.00  0.00     0.204 C 
BRANCH  28  29
HETATM   29  O4  UNL     1      -5.054   0.097   4.512  1.00  0.00    -0.388 OA
ATOM     30  H4  UNL     1      -4.638  -0.736   4.328  1.00  0.00     0.210 HD
ENDBRANCH  28  29
BRANCH  28  31
HETATM   31  C10 UNL     1      -4.340   2.202   5.412  1.00  0.00     0.285 C 
BRANCH  31  32
HETATM   32  O5  UNL     1      -4.574   2.782   6.652  1.00  0.00    -0.369 OA
ATOM     33  H5  UNL     1      -3.831   3.324   6.891  1.00  0.00     0.212 HD
ENDBRANCH  31  32
BRANCH  31  34
HETATM   34  O6  UNL     1      -5.391   2.591   4.578  1.00  0.00    -0.369 OA
ATOM     35  H6  UNL     1      -5.844   3.320   4.985  1.00  0.00     0.212 HD
ENDBRANCH  31  34
ENDBRANCH  28  31
ENDBRANCH  25  28
ENDBRANCH   4  25
TORSDOF 10
ENDMDL
