MODEL 1
REMARK VINA RESULT: -5.805660426      0.000      0.000
REMARK  8 active torsions:
REMARK  status: ('A' for Active; 'I' for Inactive)
REMARK    1  A    between atoms: N1_1  and  C1_4 
REMARK    2  A    between atoms: N5_15  and  C5_16 
REMARK    3  A    between atoms: C5_16  and  C6_17 
REMARK    4  A    between atoms: C6_17  and  O1_18 
REMARK    5  A    between atoms: C6_17  and  C7_20 
REMARK    6  A    between atoms: C10_27  and  C11_28 
REMARK    7  A    between atoms: C11_28  and  O4_29 
REMARK    8  A    between atoms: N7_31  and  O5_32 
ROOT
HETATM    1  C1  UNL     1      -0.832  -5.932   2.955  1.00  0.00     0.679 A 
HETATM    2  N2  UNL     1      -1.688  -6.213   1.971  1.00  0.00    -0.175 N 
ATOM      3  H2  UNL     1      -1.343  -6.384   1.027  1.00  0.00     0.186 HD
HETATM    4  C2  UNL     1      -3.012  -6.269   2.229  1.00  0.00     0.145 A 
HETATM    5  N3  UNL     1      -3.856  -6.543   1.280  1.00  0.00    -0.383 N 
ATOM      6  H31 UNL     1      -4.856  -6.586   1.475  1.00  0.00     0.157 HD
ATOM      7  H32 UNL     1      -3.491  -6.712   0.342  1.00  0.00     0.157 HD
HETATM    8  C3  UNL     1      -3.507  -6.041   3.499  1.00  0.00     0.123 A 
HETATM    9  N4  UNL     1      -4.752  -6.045   3.978  1.00  0.00    -0.346 N 
ATOM     10  H4  UNL     1      -5.614  -6.228   3.464  1.00  0.00     0.167 HD
HETATM   11  C4  UNL     1      -4.624  -5.750   5.308  1.00  0.00     0.185 A 
HETATM   12  N5  UNL     1      -3.323  -5.576   5.615  1.00  0.00    -0.324 N 
HETATM   13  C12 UNL     1      -2.608  -5.754   4.492  1.00  0.00     0.155 A 
HETATM   14  N8  UNL     1      -1.303  -5.705   4.208  1.00  0.00    -0.174 N 
ATOM     15  H8  UNL     1      -0.642  -5.490   4.954  1.00  0.00     0.186 HD
ENDROOT
BRANCH  12  16
HETATM   16  C5  UNL     1      -2.796  -5.248   6.924  1.00  0.00     0.165 C 
BRANCH  16  17
HETATM   17  C6  UNL     1      -2.274  -3.861   7.050  1.00  0.00     0.165 C 
BRANCH  17  18
HETATM   18  O1  UNL     1      -0.900  -3.863   6.823  1.00  0.00    -0.392 OA
ATOM     19  H1  UNL     1      -0.627  -3.000   6.534  1.00  0.00     0.210 HD
ENDBRANCH  17  18
BRANCH  17  20
HETATM   20  C7  UNL     1      -2.988  -2.811   6.280  1.00  0.00     0.209 C 
HETATM   21  C8  UNL     1      -2.155  -2.190   5.217  1.00  0.00     0.247 C 
HETATM   22  O2  UNL     1      -0.992  -2.526   4.921  1.00  0.00    -0.271 OA
HETATM   23  N6  UNL     1      -2.792  -1.125   4.509  1.00  0.00    -0.295 N 
HETATM   24  C9  UNL     1      -3.956  -0.578   5.120  1.00  0.00     0.246 C 
ATOM     25  H6  UNL     1      -2.435  -0.778   3.618  1.00  0.00     0.171 HD
HETATM   26  O3  UNL     1      -4.837  -0.050   4.395  1.00  0.00    -0.271 OA
HETATM   27  C10 UNL     1      -4.060  -0.664   6.595  1.00  0.00     0.202 C 
HETATM   28  N7  UNL     1      -3.432  -1.785   7.195  1.00  0.00    -0.168 NA
BRANCH  27  29
HETATM   29  C11 UNL     1      -5.502  -0.506   7.044  1.00  0.00     0.195 C 
BRANCH  29  30
HETATM   30  O4  UNL     1      -6.360  -1.268   6.257  1.00  0.00    -0.399 OA
ATOM     31  H4  UNL     1      -5.917  -2.033   5.909  1.00  0.00     0.209 HD
ENDBRANCH  29  30
ENDBRANCH  27  29
BRANCH  28  32
HETATM   32  O5  UNL     1      -2.480  -1.439   8.093  1.00  0.00    -0.311 OA
ATOM     33  H5  UNL     1      -2.665  -1.764   8.967  1.00  0.00     0.237 HD
ENDBRANCH  28  32
ENDBRANCH  17  20
ENDBRANCH  16  17
ENDBRANCH  12  16
BRANCH   1  34
HETATM   34  N1  UNL     1       0.447  -5.870   2.735  1.00  0.00    -0.234 N 
ATOM     35  H12 UNL     1       0.896  -6.605   2.189  1.00  0.00     0.174 HD
ATOM     36  H11 UNL     1       1.008  -5.101   3.101  1.00  0.00     0.174 HD
ENDBRANCH   1  34
TORSDOF 8
ENDMDL
MODEL 2
REMARK VINA RESULT: -5.689438528      9.687     11.857
REMARK  8 active torsions:
REMARK  status: ('A' for Active; 'I' for Inactive)
REMARK    1  A    between atoms: N1_1  and  C1_4 
REMARK    2  A    between atoms: N5_15  and  C5_16 
REMARK    3  A    between atoms: C5_16  and  C6_17 
REMARK    4  A    between atoms: C6_17  and  O1_18 
REMARK    5  A    between atoms: C6_17  and  C7_20 
REMARK    6  A    between atoms: C10_27  and  C11_28 
REMARK    7  A    between atoms: C11_28  and  O4_29 
REMARK    8  A    between atoms: N7_31  and  O5_32 
ROOT
HETATM    1  C1  UNL     1     -11.371  -4.069   6.386  1.00  0.00     0.679 A 
HETATM    2  N2  UNL     1     -10.827  -5.090   5.722  1.00  0.00    -0.175 N 
ATOM      3  H2  UNL     1     -10.218  -5.749   6.207  1.00  0.00     0.186 HD
HETATM    4  C2  UNL     1     -11.087  -5.251   4.407  1.00  0.00     0.145 A 
HETATM    5  N3  UNL     1     -10.566  -6.242   3.749  1.00  0.00    -0.383 N 
ATOM      6  H31 UNL     1     -10.762  -6.363   2.756  1.00  0.00     0.157 HD
ATOM      7  H32 UNL     1      -9.959  -6.890   4.252  1.00  0.00     0.157 HD
HETATM    8  C3  UNL     1     -11.909  -4.373   3.725  1.00  0.00     0.123 A 
HETATM    9  N4  UNL     1     -12.300  -4.335   2.450  1.00  0.00    -0.346 N 
ATOM     10  H4  UNL     1     -12.049  -4.985   1.705  1.00  0.00     0.167 HD
HETATM   11  C4  UNL     1     -13.111  -3.238   2.358  1.00  0.00     0.185 A 
HETATM   12  N5  UNL     1     -13.203  -2.633   3.559  1.00  0.00    -0.324 N 
HETATM   13  C12 UNL     1     -12.455  -3.332   4.428  1.00  0.00     0.155 A 
HETATM   14  N8  UNL     1     -12.181  -3.198   5.729  1.00  0.00    -0.174 N 
ATOM     15  H8  UNL     1     -12.591  -2.419   6.244  1.00  0.00     0.186 HD
ENDROOT
BRANCH  12  16
HETATM   16  C5  UNL     1     -13.968  -1.438   3.853  1.00  0.00     0.165 C 
BRANCH  16  17
HETATM   17  C6  UNL     1     -14.631  -0.824   2.671  1.00  0.00     0.165 C 
BRANCH  17  18
HETATM   18  O1  UNL     1     -15.926  -1.322   2.559  1.00  0.00    -0.392 OA
ATOM     19  H1  UNL     1     -16.406  -1.133   3.356  1.00  0.00     0.210 HD
ENDBRANCH  17  18
BRANCH  17  20
HETATM   20  C7  UNL     1     -14.567   0.656   2.569  1.00  0.00     0.209 C 
HETATM   21  C8  UNL     1     -15.667   1.346   3.293  1.00  0.00     0.247 C 
HETATM   22  O2  UNL     1     -16.541   0.785   3.982  1.00  0.00    -0.271 OA
HETATM   23  N6  UNL     1     -15.673   2.767   3.150  1.00  0.00    -0.295 N 
HETATM   24  C9  UNL     1     -14.878   3.291   2.092  1.00  0.00     0.246 C 
ATOM     25  H6  UNL     1     -16.214   3.370   3.770  1.00  0.00     0.171 HD
HETATM   26  O3  UNL     1     -14.413   4.455   2.195  1.00  0.00    -0.271 OA
HETATM   27  C10 UNL     1     -14.642   2.422   0.916  1.00  0.00     0.202 C 
HETATM   28  N7  UNL     1     -14.610   1.028   1.174  1.00  0.00    -0.168 NA
BRANCH  27  29
HETATM   29  C11 UNL     1     -13.428   2.890   0.133  1.00  0.00     0.195 C 
BRANCH  29  30
HETATM   30  O4  UNL     1     -13.719   4.030  -0.611  1.00  0.00    -0.399 OA
ATOM     31  H4  UNL     1     -12.973   4.296  -1.135  1.00  0.00     0.209 HD
ENDBRANCH  29  30
ENDBRANCH  27  29
BRANCH  28  32
HETATM   32  O5  UNL     1     -15.545   0.340   0.479  1.00  0.00    -0.311 OA
ATOM     33  H5  UNL     1     -15.405   0.378  -0.460  1.00  0.00     0.237 HD
ENDBRANCH  28  32
ENDBRANCH  17  20
ENDBRANCH  16  17
ENDBRANCH  12  16
BRANCH   1  34
HETATM   34  N1  UNL     1     -11.138  -3.889   7.651  1.00  0.00    -0.234 N 
ATOM     35  H12 UNL     1     -10.173  -3.837   7.979  1.00  0.00     0.174 HD
ATOM     36  H11 UNL     1     -11.902  -3.801   8.321  1.00  0.00     0.174 HD
ENDBRANCH   1  34
TORSDOF 8
ENDMDL
MODEL 3
REMARK VINA RESULT: -5.638805560     10.079     12.467
REMARK  8 active torsions:
REMARK  status: ('A' for Active; 'I' for Inactive)
REMARK    1  A    between atoms: N1_1  and  C1_4 
REMARK    2  A    between atoms: N5_15  and  C5_16 
REMARK    3  A    between atoms: C5_16  and  C6_17 
REMARK    4  A    between atoms: C6_17  and  O1_18 
REMARK    5  A    between atoms: C6_17  and  C7_20 
REMARK    6  A    between atoms: C10_27  and  C11_28 
REMARK    7  A    between atoms: C11_28  and  O4_29 
REMARK    8  A    between atoms: N7_31  and  O5_32 
ROOT
HETATM    1  C1  UNL     1     -12.191  -3.758   3.191  1.00  0.00     0.679 A 
HETATM    2  N2  UNL     1     -11.073  -3.539   3.885  1.00  0.00    -0.175 N 
ATOM      3  H2  UNL     1     -10.227  -4.068   3.672  1.00  0.00     0.186 HD
HETATM    4  C2  UNL     1     -11.064  -2.614   4.869  1.00  0.00     0.145 A 
HETATM    5  N3  UNL     1      -9.981  -2.391   5.551  1.00  0.00    -0.383 N 
ATOM      6  H31 UNL     1      -9.975  -1.692   6.295  1.00  0.00     0.157 HD
ATOM      7  H32 UNL     1      -9.146  -2.931   5.323  1.00  0.00     0.157 HD
HETATM    8  C3  UNL     1     -12.195  -1.883   5.178  1.00  0.00     0.123 A 
HETATM    9  N4  UNL     1     -12.415  -0.936   6.091  1.00  0.00    -0.346 N 
ATOM     10  H4  UNL     1     -11.749  -0.557   6.765  1.00  0.00     0.167 HD
HETATM   11  C4  UNL     1     -13.726  -0.580   5.928  1.00  0.00     0.185 A 
HETATM   12  N5  UNL     1     -14.276  -1.304   4.933  1.00  0.00    -0.324 N 
HETATM   13  C12 UNL     1     -13.331  -2.126   4.451  1.00  0.00     0.155 A 
HETATM   14  N8  UNL     1     -13.311  -3.047   3.483  1.00  0.00    -0.174 N 
ATOM     15  H8  UNL     1     -14.161  -3.221   2.948  1.00  0.00     0.186 HD
ENDROOT
BRANCH  12  16
HETATM   16  C5  UNL     1     -15.648  -1.211   4.474  1.00  0.00     0.165 C 
BRANCH  16  17
HETATM   17  C6  UNL     1     -15.807  -0.618   3.119  1.00  0.00     0.165 C 
BRANCH  17  18
HETATM   18  O1  UNL     1     -17.103  -0.848   2.665  1.00  0.00    -0.392 OA
ATOM     19  H1  UNL     1     -17.615  -0.054   2.760  1.00  0.00     0.210 HD
ENDBRANCH  17  18
BRANCH  17  20
HETATM   20  C7  UNL     1     -15.377   0.794   2.959  1.00  0.00     0.209 C 
HETATM   21  C8  UNL     1     -16.390   1.776   3.425  1.00  0.00     0.247 C 
HETATM   22  O2  UNL     1     -17.478   1.492   3.963  1.00  0.00    -0.271 OA
HETATM   23  N6  UNL     1     -16.034   3.143   3.215  1.00  0.00    -0.295 N 
HETATM   24  C9  UNL     1     -14.967   3.376   2.302  1.00  0.00     0.246 C 
ATOM     25  H6  UNL     1     -16.516   3.907   3.690  1.00  0.00     0.171 HD
HETATM   26  O3  UNL     1     -14.264   4.411   2.434  1.00  0.00    -0.271 OA
HETATM   27  C10 UNL     1     -14.745   2.372   1.236  1.00  0.00     0.202 C 
HETATM   28  N7  UNL     1     -15.089   1.036   1.564  1.00  0.00    -0.168 NA
BRANCH  27  29
HETATM   29  C11 UNL     1     -13.337   2.482   0.676  1.00  0.00     0.195 C 
BRANCH  29  30
HETATM   30  O4  UNL     1     -13.250   3.504  -0.265  1.00  0.00    -0.399 OA
ATOM     31  H4  UNL     1     -12.635   4.173   0.011  1.00  0.00     0.209 HD
ENDBRANCH  29  30
ENDBRANCH  27  29
BRANCH  28  32
HETATM   32  O5  UNL     1     -16.026   0.515   0.739  1.00  0.00    -0.311 OA
ATOM     33  H5  UNL     1     -15.796  -0.352   0.425  1.00  0.00     0.237 HD
ENDBRANCH  28  32
ENDBRANCH  17  20
ENDBRANCH  16  17
ENDBRANCH  12  16
BRANCH   1  34
HETATM   34  N1  UNL     1     -12.229  -4.641   2.239  1.00  0.00    -0.234 N 
ATOM     35  H12 UNL     1     -12.554  -4.364   1.313  1.00  0.00     0.174 HD
ATOM     36  H11 UNL     1     -11.940  -5.606   2.403  1.00  0.00     0.174 HD
ENDBRANCH   1  34
TORSDOF 8
ENDMDL
MODEL 4
REMARK VINA RESULT: -5.592819317      4.300      8.886
REMARK  8 active torsions:
REMARK  status: ('A' for Active; 'I' for Inactive)
REMARK    1  A    between atoms: N1_1  and  C1_4 
REMARK    2  A    between atoms: N5_15  and  C5_16 
REMARK    3  A    between atoms: C5_16  and  C6_17 
REMARK    4  A    between atoms: C6_17  and  O1_18 
REMARK    5  A    between atoms: C6_17  and  C7_20 
REMARK    6  A    between atoms: C10_27  and  C11_28 
REMARK    7  A    between atoms: C11_28  and  O4_29 
REMARK    8  A    between atoms: N7_31  and  O5_32 
ROOT
HETATM    1  C1  UNL     1      -5.236   5.590   9.384  1.00  0.00     0.679 A 
HETATM    2  N2  UNL     1      -4.955   5.548  10.687  1.00  0.00    -0.175 N 
ATOM      3  H2  UNL     1      -4.943   6.407  11.235  1.00  0.00     0.186 HD
HETATM    4  C2  UNL     1      -4.687   4.364  11.278  1.00  0.00     0.145 A 
HETATM    5  N3  UNL     1      -4.413   4.309  12.546  1.00  0.00    -0.383 N 
ATOM      6  H31 UNL     1      -4.210   3.414  12.992  1.00  0.00     0.157 HD
ATOM      7  H32 UNL     1      -4.406   5.180  13.077  1.00  0.00     0.157 HD
HETATM    8  C3  UNL     1      -4.696   3.184  10.558  1.00  0.00     0.123 A 
HETATM    9  N4  UNL     1      -4.467   1.921  10.924  1.00  0.00    -0.346 N 
ATOM     10  H4  UNL     1      -4.230   1.579  11.855  1.00  0.00     0.167 HD
HETATM   11  C4  UNL     1      -4.619   1.185   9.781  1.00  0.00     0.185 A 
HETATM   12  N5  UNL     1      -4.936   1.996   8.752  1.00  0.00    -0.324 N 
HETATM   13  C12 UNL     1      -4.988   3.253   9.221  1.00  0.00     0.155 A 
HETATM   14  N8  UNL     1      -5.249   4.439   8.663  1.00  0.00    -0.174 N 
ATOM     15  H8  UNL     1      -5.465   4.481   7.667  1.00  0.00     0.186 HD
ENDROOT
BRANCH  12  16
HETATM   16  C5  UNL     1      -5.169   1.580   7.384  1.00  0.00     0.165 C 
BRANCH  16  17
HETATM   17  C6  UNL     1      -5.233   0.108   7.188  1.00  0.00     0.165 C 
BRANCH  17  18
HETATM   18  O1  UNL     1      -6.403  -0.217   6.507  1.00  0.00    -0.392 OA
ATOM     19  H1  UNL     1      -6.183  -0.680   5.707  1.00  0.00     0.210 HD
ENDBRANCH  17  18
BRANCH  17  20
HETATM   20  C7  UNL     1      -4.026  -0.538   6.612  1.00  0.00     0.209 C 
HETATM   21  C8  UNL     1      -4.023  -0.563   5.125  1.00  0.00     0.247 C 
HETATM   22  O2  UNL     1      -4.891  -0.050   4.393  1.00  0.00    -0.271 OA
HETATM   23  N6  UNL     1      -2.910  -1.243   4.544  1.00  0.00    -0.295 N 
HETATM   24  C9  UNL     1      -2.167  -2.085   5.420  1.00  0.00     0.246 C 
ATOM     25  H6  UNL     1      -2.662  -1.133   3.561  1.00  0.00     0.171 HD
HETATM   26  O3  UNL     1      -0.951  -2.295   5.180  1.00  0.00    -0.271 OA
HETATM   27  C10 UNL     1      -2.881  -2.670   6.578  1.00  0.00     0.202 C 
HETATM   28  N7  UNL     1      -3.941  -1.892   7.109  1.00  0.00    -0.168 NA
BRANCH  27  29
HETATM   29  C11 UNL     1      -1.900  -3.112   7.650  1.00  0.00     0.195 C 
BRANCH  29  30
HETATM   30  O4  UNL     1      -0.960  -2.118   7.910  1.00  0.00    -0.399 OA
ATOM     31  H4  UNL     1      -1.245  -1.554   8.620  1.00  0.00     0.209 HD
ENDBRANCH  29  30
ENDBRANCH  27  29
BRANCH  28  32
HETATM   32  O5  UNL     1      -5.132  -2.533   7.082  1.00  0.00    -0.311 OA
ATOM     33  H5  UNL     1      -5.804  -2.080   7.578  1.00  0.00     0.237 HD
ENDBRANCH  28  32
ENDBRANCH  17  20
ENDBRANCH  16  17
ENDBRANCH  12  16
BRANCH   1  34
HETATM   34  N1  UNL     1      -5.497   6.716   8.789  1.00  0.00    -0.234 N 
ATOM     35  H12 UNL     1      -4.735   7.361   8.584  1.00  0.00     0.174 HD
ATOM     36  H11 UNL     1      -6.451   6.964   8.524  1.00  0.00     0.174 HD
ENDBRANCH   1  34
TORSDOF 8
ENDMDL
MODEL 5
REMARK VINA RESULT: -5.561238891      5.378      9.649
REMARK  8 active torsions:
REMARK  status: ('A' for Active; 'I' for Inactive)
REMARK    1  A    between atoms: N1_1  and  C1_4 
REMARK    2  A    between atoms: N5_15  and  C5_16 
REMARK    3  A    between atoms: C5_16  and  C6_17 
REMARK    4  A    between atoms: C6_17  and  O1_18 
REMARK    5  A    between atoms: C6_17  and  C7_20 
REMARK    6  A    between atoms: C10_27  and  C11_28 
REMARK    7  A    between atoms: C11_28  and  O4_29 
REMARK    8  A    between atoms: N7_31  and  O5_32 
ROOT
HETATM    1  C1  UNL     1      -3.417   6.036  11.341  1.00  0.00     0.679 A 
HETATM    2  N2  UNL     1      -2.386   5.622  12.079  1.00  0.00    -0.175 N 
ATOM      3  H2  UNL     1      -1.784   6.302  12.543  1.00  0.00     0.186 HD
HETATM    4  C2  UNL     1      -2.142   4.300  12.210  1.00  0.00     0.145 A 
HETATM    5  N3  UNL     1      -1.141   3.884  12.926  1.00  0.00    -0.383 N 
ATOM      6  H31 UNL     1      -0.957   2.886  13.025  1.00  0.00     0.157 HD
ATOM      7  H32 UNL     1      -0.551   4.580  13.382  1.00  0.00     0.157 HD
HETATM    8  C3  UNL     1      -2.941   3.357  11.592  1.00  0.00     0.123 A 
HETATM    9  N4  UNL     1      -2.892   2.024  11.582  1.00  0.00    -0.346 N 
ATOM     10  H4  UNL     1      -2.215   1.425  12.055  1.00  0.00     0.167 HD
HETATM   11  C4  UNL     1      -3.943   1.634  10.799  1.00  0.00     0.185 A 
HETATM   12  N5  UNL     1      -4.609   2.718  10.353  1.00  0.00    -0.324 N 
HETATM   13  C12 UNL     1      -3.994   3.807  10.840  1.00  0.00     0.155 A 
HETATM   14  N8  UNL     1      -4.212   5.121  10.728  1.00  0.00    -0.174 N 
ATOM     15  H8  UNL     1      -4.998   5.446  10.165  1.00  0.00     0.186 HD
ENDROOT
BRANCH  12  16
HETATM   16  C5  UNL     1      -5.776   2.703   9.493  1.00  0.00     0.165 C 
BRANCH  16  17
HETATM   17  C6  UNL     1      -5.491   2.981   8.060  1.00  0.00     0.165 C 
BRANCH  17  18
HETATM   18  O1  UNL     1      -4.762   4.162   7.955  1.00  0.00    -0.392 OA
ATOM     19  H1  UNL     1      -4.536   4.313   7.045  1.00  0.00     0.210 HD
ENDBRANCH  17  18
BRANCH  17  20
HETATM   20  C7  UNL     1      -4.907   1.866   7.272  1.00  0.00     0.209 C 
HETATM   21  C8  UNL     1      -4.473   2.271   5.909  1.00  0.00     0.247 C 
HETATM   22  O2  UNL     1      -4.516   3.430   5.452  1.00  0.00    -0.271 OA
HETATM   23  N6  UNL     1      -3.975   1.203   5.102  1.00  0.00    -0.295 N 
HETATM   24  C9  UNL     1      -4.278  -0.113   5.552  1.00  0.00     0.246 C 
ATOM     25  H6  UNL     1      -3.435   1.374   4.253  1.00  0.00     0.171 HD
HETATM   26  O3  UNL     1      -3.502  -1.055   5.251  1.00  0.00    -0.271 OA
HETATM   27  C10 UNL     1      -5.504  -0.295   6.362  1.00  0.00     0.202 C 
HETATM   28  N7  UNL     1      -5.887   0.810   7.164  1.00  0.00    -0.168 NA
BRANCH  27  29
HETATM   29  C11 UNL     1      -5.439  -1.587   7.158  1.00  0.00     0.195 C 
BRANCH  29  30
HETATM   30  O4  UNL     1      -5.611  -2.695   6.332  1.00  0.00    -0.399 OA
ATOM     31  H4  UNL     1      -6.513  -2.993   6.344  1.00  0.00     0.209 HD
ENDBRANCH  29  30
ENDBRANCH  27  29
BRANCH  28  32
HETATM   32  O5  UNL     1      -7.123   1.273   6.869  1.00  0.00    -0.311 OA
ATOM     33  H5  UNL     1      -7.737   1.161   7.586  1.00  0.00     0.237 HD
ENDBRANCH  28  32
ENDBRANCH  17  20
ENDBRANCH  16  17
ENDBRANCH  12  16
BRANCH   1  34
HETATM   34  N1  UNL     1      -3.676   7.301  11.197  1.00  0.00    -0.234 N 
ATOM     35  H12 UNL     1      -4.606   7.589  10.894  1.00  0.00     0.174 HD
ATOM     36  H11 UNL     1      -2.965   8.009  11.380  1.00  0.00     0.174 HD
ENDBRANCH   1  34
TORSDOF 8
ENDMDL
