MODEL 1
REMARK VINA RESULT: -6.824064308      0.000      0.000
REMARK  1 active torsions:
REMARK  status: ('A' for Active; 'I' for Inactive)
REMARK    1  A    between atoms: O1_2  and  C2_3 
ROOT
HETATM    1  C2  UNL     1      41.526  15.772  -7.197  1.00  0.00     0.087 C 
HETATM    2  C3  UNL     1      42.457  14.745  -7.801  1.00  0.00     0.041 C 
HETATM    3  C4  UNL     1      43.875  14.785  -7.367  1.00  0.00     0.030 C 
HETATM    4  C5  UNL     1      44.233  13.792  -6.276  1.00  0.00     0.232 C 
HETATM    5  N1  UNL     1      45.350  14.235  -5.471  1.00  0.00    -0.075 N 
ATOM      6  H11 UNL     1      45.834  15.024  -5.899  1.00  0.00     0.277 HD
ATOM      7  H12 UNL     1      46.115  13.559  -5.483  1.00  0.00     0.277 HD
HETATM    8  C6  UNL     1      44.916  14.543  -4.095  1.00  0.00     0.237 C 
HETATM    9  C7  UNL     1      44.448  15.973  -3.960  1.00  0.00     0.099 C 
HETATM   10  C8  UNL     1      43.035  16.131  -3.510  1.00  0.00     0.264 C 
HETATM   11  N2  UNL     1      42.394  14.970  -3.055  1.00  0.00    -0.038 N 
ATOM     12  H21 UNL     1      42.608  14.168  -3.647  1.00  0.00     0.281 HD
ATOM     13  H22 UNL     1      41.387  15.013  -3.209  1.00  0.00     0.281 HD
HETATM   14  C9  UNL     1      42.704  14.713  -1.696  1.00  0.00     0.262 C 
HETATM   15  C10 UNL     1      43.133  16.100  -1.257  1.00  0.00     0.198 C 
HETATM   16  O2  UNL     1      43.107  16.919  -2.336  1.00  0.00    -0.351 OA
HETATM   17  C11 UNL     1      42.140  16.894  -4.503  1.00  0.00     0.217 C 
HETATM   18  C12 UNL     1      41.721  18.241  -3.939  1.00  0.00     0.049 C 
HETATM   19  C13 UNL     1      42.117  19.289  -4.946  1.00  0.00     0.033 C 
HETATM   20  C14 UNL     1      43.290  18.618  -5.601  1.00  0.00     0.274 C 
HETATM   21  N3  UNL     1      42.847  17.246  -5.685  1.00  0.00     0.106 N 
HETATM   22  C15 UNL     1      42.206  17.087  -6.922  1.00  0.00     0.311 C 
HETATM   23  C16 UNL     1      40.860  16.146  -4.778  1.00  0.00     0.050 C 
HETATM   24  C17 UNL     1      40.811  15.286  -5.995  1.00  0.00     0.042 C 
ENDROOT
BRANCH   1  25
HETATM   25  O1  UNL     1      40.616  16.082  -8.203  1.00  0.00    -0.383 OA
HETATM   26  C1  UNL     1      39.443  15.394  -8.205  1.00  0.00     0.202 C 
ENDBRANCH   1  25
TORSDOF 1
ENDMDL
MODEL 2
REMARK VINA RESULT: -5.769536558      1.436      4.650
REMARK  1 active torsions:
REMARK  status: ('A' for Active; 'I' for Inactive)
REMARK    1  A    between atoms: O1_2  and  C2_3 
ROOT
HETATM    1  C2  UNL     1      42.166  17.612  -4.224  1.00  0.00     0.087 C 
HETATM    2  C3  UNL     1      43.249  17.104  -3.300  1.00  0.00     0.041 C 
HETATM    3  C4  UNL     1      43.520  15.646  -3.318  1.00  0.00     0.030 C 
HETATM    4  C5  UNL     1      44.700  15.231  -4.178  1.00  0.00     0.232 C 
HETATM    5  N1  UNL     1      44.576  13.876  -4.671  1.00  0.00    -0.075 N 
ATOM      6  H11 UNL     1      43.834  13.367  -4.191  1.00  0.00     0.277 HD
ATOM      7  H12 UNL     1      45.368  13.298  -4.388  1.00  0.00     0.277 HD
HETATM    8  C6  UNL     1      44.387  13.865  -6.133  1.00  0.00     0.237 C 
HETATM    9  C7  UNL     1      42.929  13.974  -6.513  1.00  0.00     0.099 C 
HETATM   10  C8  UNL     1      42.586  15.157  -7.354  1.00  0.00     0.264 C 
HETATM   11  N2  UNL     1      43.667  15.885  -7.873  1.00  0.00    -0.038 N 
ATOM     12  H21 UNL     1      44.406  16.003  -7.180  1.00  0.00     0.281 HD
ATOM     13  H22 UNL     1      43.426  16.866  -8.013  1.00  0.00     0.281 HD
HETATM   14  C9  UNL     1      44.158  15.293  -9.064  1.00  0.00     0.262 C 
HETATM   15  C10 UNL     1      42.942  14.487  -9.478  1.00  0.00     0.198 C 
HETATM   16  O2  UNL     1      41.991  14.621  -8.521  1.00  0.00    -0.351 OA
HETATM   17  C11 UNL     1      41.549  16.101  -6.720  1.00  0.00     0.217 C 
HETATM   18  C12 UNL     1      40.239  16.071  -7.489  1.00  0.00     0.049 C 
HETATM   19  C13 UNL     1      39.150  15.741  -6.501  1.00  0.00     0.033 C 
HETATM   20  C14 UNL     1      39.921  14.944  -5.489  1.00  0.00     0.274 C 
HETATM   21  N3  UNL     1      41.170  15.668  -5.420  1.00  0.00     0.106 N 
HETATM   22  C15 UNL     1      41.042  16.627  -4.404  1.00  0.00     0.311 C 
HETATM   23  C16 UNL     1      42.014  17.535  -6.756  1.00  0.00     0.050 C 
HETATM   24  C17 UNL     1      42.677  18.075  -5.535  1.00  0.00     0.042 C 
ENDROOT
BRANCH   1  25
HETATM   25  O1  UNL     1      41.565  18.667  -3.544  1.00  0.00    -0.383 OA
HETATM   26  C1  UNL     1      41.926  19.925  -3.917  1.00  0.00     0.202 C 
ENDBRANCH   1  25
TORSDOF 1
ENDMDL
MODEL 3
REMARK VINA RESULT: -5.523107589      1.717      5.404
REMARK  1 active torsions:
REMARK  status: ('A' for Active; 'I' for Inactive)
REMARK    1  A    between atoms: O1_2  and  C2_3 
ROOT
HETATM    1  C2  UNL     1      43.359  15.540  -1.535  1.00  0.00     0.087 C 
HETATM    2  C3  UNL     1      42.999  16.927  -1.054  1.00  0.00     0.041 C 
HETATM    3  C4  UNL     1      43.193  18.044  -2.011  1.00  0.00     0.030 C 
HETATM    4  C5  UNL     1      41.938  18.474  -2.748  1.00  0.00     0.232 C 
HETATM    5  N1  UNL     1      42.228  19.067  -4.034  1.00  0.00    -0.075 N 
ATOM      6  H11 UNL     1      43.219  19.286  -4.134  1.00  0.00     0.277 HD
ATOM      7  H12 UNL     1      41.852  20.013  -4.107  1.00  0.00     0.277 HD
HETATM    8  C6  UNL     1      41.747  18.205  -5.131  1.00  0.00     0.237 C 
HETATM    9  C7  UNL     1      42.783  17.184  -5.538  1.00  0.00     0.099 C 
HETATM   10  C8  UNL     1      42.353  15.763  -5.401  1.00  0.00     0.264 C 
HETATM   11  N2  UNL     1      40.993  15.548  -5.134  1.00  0.00    -0.038 N 
ATOM     12  H21 UNL     1      40.637  16.212  -4.447  1.00  0.00     0.281 HD
ATOM     13  H22 UNL     1      40.845  14.686  -4.609  1.00  0.00     0.281 HD
HETATM   14  C9  UNL     1      40.228  15.571  -6.328  1.00  0.00     0.262 C 
HETATM   15  C10 UNL     1      41.316  15.276  -7.343  1.00  0.00     0.198 C 
HETATM   16  O2  UNL     1      42.503  15.204  -6.692  1.00  0.00    -0.351 OA
HETATM   17  C11 UNL     1      43.232  14.928  -4.452  1.00  0.00     0.217 C 
HETATM   18  C12 UNL     1      44.012  13.872  -5.215  1.00  0.00     0.049 C 
HETATM   19  C13 UNL     1      45.468  14.060  -4.874  1.00  0.00     0.033 C 
HETATM   20  C14 UNL     1      45.496  15.529  -4.567  1.00  0.00     0.274 C 
HETATM   21  N3  UNL     1      44.253  15.714  -3.853  1.00  0.00     0.106 N 
HETATM   22  C15 UNL     1      44.525  15.537  -2.489  1.00  0.00     0.311 C 
HETATM   23  C16 UNL     1      42.397  14.176  -3.446  1.00  0.00     0.050 C 
HETATM   24  C17 UNL     1      42.212  14.795  -2.103  1.00  0.00     0.042 C 
ENDROOT
BRANCH   1  25
HETATM   25  O1  UNL     1      43.855  14.878  -0.417  1.00  0.00    -0.383 OA
HETATM   26  C1  UNL     1      44.975  14.126  -0.592  1.00  0.00     0.202 C 
ENDBRANCH   1  25
TORSDOF 1
ENDMDL
MODEL 4
REMARK VINA RESULT: -5.109308363      1.893      4.304
REMARK  1 active torsions:
REMARK  status: ('A' for Active; 'I' for Inactive)
REMARK    1  A    between atoms: O1_2  and  C2_3 
ROOT
HETATM    1  C2  UNL     1      42.425  18.526  -4.707  1.00  0.00     0.087 C 
HETATM    2  C3  UNL     1      42.393  18.874  -3.236  1.00  0.00     0.041 C 
HETATM    3  C4  UNL     1      41.985  17.799  -2.299  1.00  0.00     0.030 C 
HETATM    4  C5  UNL     1      43.135  17.069  -1.630  1.00  0.00     0.232 C 
HETATM    5  N1  UNL     1      42.786  15.717  -1.251  1.00  0.00    -0.075 N 
ATOM      6  H11 UNL     1      41.780  15.558  -1.304  1.00  0.00     0.277 HD
ATOM      7  H12 UNL     1      42.915  15.561  -0.251  1.00  0.00     0.277 HD
HETATM    8  C6  UNL     1      43.536  14.736  -2.057  1.00  0.00     0.237 C 
HETATM    9  C7  UNL     1      42.819  14.398  -3.343  1.00  0.00     0.099 C 
HETATM   10  C8  UNL     1      43.584  14.699  -4.587  1.00  0.00     0.264 C 
HETATM   11  N2  UNL     1      44.934  15.038  -4.419  1.00  0.00    -0.038 N 
ATOM     12  H21 UNL     1      45.068  15.664  -3.626  1.00  0.00     0.281 HD
ATOM     13  H22 UNL     1      45.262  15.655  -5.162  1.00  0.00     0.281 HD
HETATM   14  C9  UNL     1      45.743  13.878  -4.310  1.00  0.00     0.262 C 
HETATM   15  C10 UNL     1      44.830  12.859  -4.966  1.00  0.00     0.198 C 
HETATM   16  O2  UNL     1      43.662  13.468  -5.281  1.00  0.00    -0.351 OA
HETATM   17  C11 UNL     1      42.886  15.697  -5.529  1.00  0.00     0.217 C 
HETATM   18  C12 UNL     1      42.447  15.019  -6.816  1.00  0.00     0.049 C 
HETATM   19  C13 UNL     1      40.972  15.284  -6.977  1.00  0.00     0.033 C 
HETATM   20  C14 UNL     1      40.556  15.434  -5.543  1.00  0.00     0.274 C 
HETATM   21  N3  UNL     1      41.664  16.171  -4.980  1.00  0.00     0.106 N 
HETATM   22  C15 UNL     1      41.361  17.535  -5.096  1.00  0.00     0.311 C 
HETATM   23  C16 UNL     1      43.819  16.806  -5.946  1.00  0.00     0.050 C 
HETATM   24  C17 UNL     1      43.757  18.083  -5.180  1.00  0.00     0.042 C 
ENDROOT
BRANCH   1  25
HETATM   25  O1  UNL     1      42.043  19.689  -5.369  1.00  0.00    -0.383 OA
HETATM   26  C1  UNL     1      42.029  20.837  -4.640  1.00  0.00     0.202 C 
ENDBRANCH   1  25
TORSDOF 1
ENDMDL
MODEL 5
REMARK VINA RESULT: -4.743613931      1.549      2.232
REMARK  1 active torsions:
REMARK  status: ('A' for Active; 'I' for Inactive)
REMARK    1  A    between atoms: O1_2  and  C2_3 
ROOT
HETATM    1  C2  UNL     1      40.201  15.886  -6.113  1.00  0.00     0.087 C 
HETATM    2  C3  UNL     1      40.434  15.566  -7.573  1.00  0.00     0.041 C 
HETATM    3  C4  UNL     1      41.756  15.927  -8.139  1.00  0.00     0.030 C 
HETATM    4  C5  UNL     1      42.752  14.783  -8.205  1.00  0.00     0.232 C 
HETATM    5  N1  UNL     1      44.123  15.240  -8.155  1.00  0.00    -0.075 N 
ATOM      6  H11 UNL     1      44.190  16.248  -8.296  1.00  0.00     0.277 HD
ATOM      7  H12 UNL     1      44.653  14.935  -8.972  1.00  0.00     0.277 HD
HETATM    8  C6  UNL     1      44.771  14.822  -6.897  1.00  0.00     0.237 C 
HETATM    9  C7  UNL     1      44.555  15.829  -5.792  1.00  0.00     0.099 C 
HETATM   10  C8  UNL     1      43.853  15.298  -4.588  1.00  0.00     0.264 C 
HETATM   11  N2  UNL     1      43.684  13.908  -4.529  1.00  0.00    -0.038 N 
ATOM     12  H21 UNL     1      43.412  13.524  -5.434  1.00  0.00     0.281 HD
ATOM     13  H22 UNL     1      42.853  13.652  -3.996  1.00  0.00     0.281 HD
HETATM   14  C9  UNL     1      44.845  13.272  -4.021  1.00  0.00     0.262 C 
HETATM   15  C10 UNL     1      45.485  14.438  -3.291  1.00  0.00     0.198 C 
HETATM   16  O2  UNL     1      44.733  15.544  -3.507  1.00  0.00    -0.351 OA
HETATM   17  C11 UNL     1      42.533  16.020  -4.259  1.00  0.00     0.217 C 
HETATM   18  C12 UNL     1      42.648  16.808  -2.965  1.00  0.00     0.049 C 
HETATM   19  C13 UNL     1      42.254  18.229  -3.272  1.00  0.00     0.033 C 
HETATM   20  C14 UNL     1      42.632  18.318  -4.722  1.00  0.00     0.274 C 
HETATM   21  N3  UNL     1      42.229  17.023  -5.220  1.00  0.00     0.106 N 
HETATM   22  C15 UNL     1      40.906  17.141  -5.671  1.00  0.00     0.311 C 
HETATM   23  C16 UNL     1      41.407  15.041  -4.047  1.00  0.00     0.050 C 
HETATM   24  C17 UNL     1      40.512  14.758  -5.205  1.00  0.00     0.042 C 
ENDROOT
BRANCH   1  25
HETATM   25  O1  UNL     1      38.854  16.221  -6.019  1.00  0.00    -0.383 OA
HETATM   26  C1  UNL     1      38.303  16.861  -7.085  1.00  0.00     0.202 C 
ENDBRANCH   1  25
TORSDOF 1
ENDMDL
