MODEL 1
REMARK VINA RESULT: -5.029948787      0.000      0.000
REMARK  3 active torsions:
REMARK  status: ('A' for Active; 'I' for Inactive)
REMARK    1  A    between atoms: O1_2  and  C2_3 
REMARK    2  A    between atoms: C5_6  and  O2_8 
REMARK    3  A    between atoms: C8_11  and  O3_12 
ROOT
HETATM    1  C2  UNL     1      44.605  14.418  -4.533  1.00  0.00     0.156 C 
HETATM    2  C3  UNL     1      45.428  15.026  -3.454  1.00  0.00     0.038 C 
HETATM    3  C4  UNL     1      44.742  16.087  -2.671  1.00  0.00     0.041 C 
HETATM    4  C5  UNL     1      43.277  16.228  -2.947  1.00  0.00     0.070 C 
HETATM    5  C6  UNL     1      42.810  17.421  -2.132  1.00  0.00     0.047 C 
HETATM    6  C7  UNL     1      42.850  16.224  -4.355  1.00  0.00     0.084 C 
HETATM    7  C8  UNL     1      41.422  15.652  -4.419  1.00  0.00     0.143 C 
HETATM    8  C9  UNL     1      41.015  16.769  -5.372  1.00  0.00     0.053 C 
HETATM    9  C10 UNL     1      40.796  16.302  -6.749  1.00  0.00     0.013 C 
HETATM   10  C11 UNL     1      41.948  16.291  -7.675  1.00  0.00     0.032 C 
HETATM   11  C12 UNL     1      42.830  15.082  -7.454  1.00  0.00     0.118 C 
HETATM   12  C13 UNL     1      43.933  15.048  -8.493  1.00  0.00     0.039 C 
HETATM   13  O4  UNL     1      43.158  14.774  -6.220  1.00  0.00    -0.372 OA
HETATM   14  C14 UNL     1      43.783  15.486  -5.299  1.00  0.00     0.099 C 
HETATM   15  C15 UNL     1      44.885  16.374  -5.836  1.00  0.00     0.050 C 
HETATM   16  C16 UNL     1      42.292  17.438  -4.991  1.00  0.00     0.104 A 
HETATM   17  C17 UNL     1      42.852  18.600  -5.462  1.00  0.00     0.208 A 
HETATM   18  O5  UNL     1      42.113  18.640  -4.322  1.00  0.00    -0.373 OA
ENDROOT
BRANCH   4  19
HETATM   19  O2  UNL     1      42.669  15.131  -2.274  1.00  0.00    -0.389 OA
ATOM     20  H2  UNL     1      42.152  14.691  -2.939  1.00  0.00     0.210 HD
ENDBRANCH   4  19
BRANCH   7  21
HETATM   21  O3  UNL     1      41.264  14.383  -4.865  1.00  0.00    -0.394 OA
ATOM     22  H3  UNL     1      41.279  13.680  -4.227  1.00  0.00     0.210 HD
ENDBRANCH   7  21
BRANCH   1  23
HETATM   23  O1  UNL     1      43.860  13.334  -4.179  1.00  0.00    -0.388 OA
HETATM   24  C1  UNL     1      44.591  12.416  -3.431  1.00  0.00     0.202 C 
ENDBRANCH   1  23
TORSDOF 3
ENDMDL
MODEL 2
REMARK VINA RESULT: -4.334465133      1.451      4.644
REMARK  3 active torsions:
REMARK  status: ('A' for Active; 'I' for Inactive)
REMARK    1  A    between atoms: O1_2  and  C2_3 
REMARK    2  A    between atoms: C5_6  and  O2_8 
REMARK    3  A    between atoms: C8_11  and  O3_12 
ROOT
HETATM    1  C2  UNL     1      40.926  17.019  -6.569  1.00  0.00     0.156 C 
HETATM    2  C3  UNL     1      41.365  16.865  -7.982  1.00  0.00     0.038 C 
HETATM    3  C4  UNL     1      42.453  15.875  -8.191  1.00  0.00     0.041 C 
HETATM    4  C5  UNL     1      42.786  15.041  -6.992  1.00  0.00     0.070 C 
HETATM    5  C6  UNL     1      43.977  14.189  -7.394  1.00  0.00     0.047 C 
HETATM    6  C7  UNL     1      42.918  15.734  -5.701  1.00  0.00     0.084 C 
HETATM    7  C8  UNL     1      42.529  14.745  -4.587  1.00  0.00     0.143 C 
HETATM    8  C9  UNL     1      43.742  15.180  -3.774  1.00  0.00     0.053 C 
HETATM    9  C10 UNL     1      43.387  15.978  -2.591  1.00  0.00     0.013 C 
HETATM   10  C11 UNL     1      43.290  17.445  -2.739  1.00  0.00     0.032 C 
HETATM   11  C12 UNL     1      41.973  17.859  -3.355  1.00  0.00     0.118 C 
HETATM   12  C13 UNL     1      41.867  19.370  -3.388  1.00  0.00     0.039 C 
HETATM   13  O4  UNL     1      41.554  17.205  -4.415  1.00  0.00    -0.372 OA
HETATM   14  C14 UNL     1      42.130  17.027  -5.591  1.00  0.00     0.099 C 
HETATM   15  C15 UNL     1      42.908  18.224  -6.094  1.00  0.00     0.050 C 
HETATM   16  C16 UNL     1      44.226  15.843  -5.018  1.00  0.00     0.104 A 
HETATM   17  C17 UNL     1      45.338  16.622  -5.225  1.00  0.00     0.208 A 
HETATM   18  O5  UNL     1      45.400  15.297  -5.518  1.00  0.00    -0.373 OA
ENDROOT
BRANCH   4  19
HETATM   19  O2  UNL     1      41.734  14.087  -6.903  1.00  0.00    -0.389 OA
ATOM     20  H2  UNL     1      42.160  13.275  -6.656  1.00  0.00     0.210 HD
ENDBRANCH   4  19
BRANCH   7  21
HETATM   21  O3  UNL     1      41.317  14.892  -4.000  1.00  0.00    -0.394 OA
ATOM     22  H3  UNL     1      41.004  15.774  -3.838  1.00  0.00     0.210 HD
ENDBRANCH   7  21
BRANCH   1  23
HETATM   23  O1  UNL     1      39.922  16.195  -6.160  1.00  0.00    -0.388 OA
HETATM   24  C1  UNL     1      39.000  15.950  -7.173  1.00  0.00     0.202 C 
ENDBRANCH   1  23
TORSDOF 3
ENDMDL
MODEL 3
REMARK VINA RESULT: -4.072031318      1.737      4.013
REMARK  3 active torsions:
REMARK  status: ('A' for Active; 'I' for Inactive)
REMARK    1  A    between atoms: O1_2  and  C2_3 
REMARK    2  A    between atoms: C5_6  and  O2_8 
REMARK    3  A    between atoms: C8_11  and  O3_12 
ROOT
HETATM    1  C2  UNL     1      44.481  14.956  -4.683  1.00  0.00     0.156 C 
HETATM    2  C3  UNL     1      44.269  13.721  -5.486  1.00  0.00     0.038 C 
HETATM    3  C4  UNL     1      43.497  13.918  -6.740  1.00  0.00     0.041 C 
HETATM    4  C5  UNL     1      43.238  15.348  -7.103  1.00  0.00     0.070 C 
HETATM    5  C6  UNL     1      42.356  15.313  -8.339  1.00  0.00     0.047 C 
HETATM    6  C7  UNL     1      42.782  16.248  -6.032  1.00  0.00     0.084 C 
HETATM    7  C8  UNL     1      43.267  17.670  -6.365  1.00  0.00     0.143 C 
HETATM    8  C9  UNL     1      41.895  18.225  -6.004  1.00  0.00     0.053 C 
HETATM    9  C10 UNL     1      41.893  18.989  -4.748  1.00  0.00     0.013 C 
HETATM   10  C11 UNL     1      41.638  18.260  -3.487  1.00  0.00     0.032 C 
HETATM   11  C12 UNL     1      42.875  17.544  -2.995  1.00  0.00     0.118 C 
HETATM   12  C13 UNL     1      42.604  16.904  -1.649  1.00  0.00     0.039 C 
HETATM   13  O4  UNL     1      43.569  16.843  -3.864  1.00  0.00    -0.372 OA
HETATM   14  C14 UNL     1      43.203  15.833  -4.634  1.00  0.00     0.099 C 
HETATM   15  C15 UNL     1      42.218  14.881  -3.990  1.00  0.00     0.050 C 
HETATM   16  C16 UNL     1      41.415  16.814  -6.036  1.00  0.00     0.104 A 
HETATM   17  C17 UNL     1      40.178  16.298  -5.738  1.00  0.00     0.208 A 
HETATM   18  O5  UNL     1      40.485  16.565  -7.034  1.00  0.00    -0.373 OA
ENDROOT
BRANCH   4  19
HETATM   19  O2  UNL     1      44.476  15.827  -7.616  1.00  0.00    -0.389 OA
ATOM     20  H2  UNL     1      44.893  16.264  -6.883  1.00  0.00     0.210 HD
ENDBRANCH   4  19
BRANCH   7  21
HETATM   21  O3  UNL     1      44.324  18.160  -5.672  1.00  0.00    -0.394 OA
ATOM     22  H3  UNL     1      44.853  18.833  -6.083  1.00  0.00     0.210 HD
ENDBRANCH   7  21
BRANCH   1  23
HETATM   23  O1  UNL     1      45.601  15.673  -4.973  1.00  0.00    -0.388 OA
HETATM   24  C1  UNL     1      46.452  15.783  -3.877  1.00  0.00     0.202 C 
ENDBRANCH   1  23
TORSDOF 3
ENDMDL
MODEL 4
REMARK VINA RESULT: -3.834613614      1.925      4.280
REMARK  3 active torsions:
REMARK  status: ('A' for Active; 'I' for Inactive)
REMARK    1  A    between atoms: O1_2  and  C2_3 
REMARK    2  A    between atoms: C5_6  and  O2_8 
REMARK    3  A    between atoms: C8_11  and  O3_12 
ROOT
HETATM    1  C2  UNL     1      44.278  15.490  -6.101  1.00  0.00     0.156 C 
HETATM    2  C3  UNL     1      43.998  14.350  -7.014  1.00  0.00     0.038 C 
HETATM    3  C4  UNL     1      42.725  14.457  -7.773  1.00  0.00     0.041 C 
HETATM    4  C5  UNL     1      42.034  15.781  -7.661  1.00  0.00     0.070 C 
HETATM    5  C6  UNL     1      40.723  15.633  -8.413  1.00  0.00     0.047 C 
HETATM    6  C7  UNL     1      41.924  16.377  -6.321  1.00  0.00     0.084 C 
HETATM    7  C8  UNL     1      41.894  17.908  -6.481  1.00  0.00     0.143 C 
HETATM    8  C9  UNL     1      40.745  17.992  -5.484  1.00  0.00     0.053 C 
HETATM    9  C10 UNL     1      41.142  18.571  -4.193  1.00  0.00     0.013 C 
HETATM   10  C11 UNL     1      41.637  17.658  -3.140  1.00  0.00     0.032 C 
HETATM   11  C12 UNL     1      43.085  17.282  -3.364  1.00  0.00     0.118 C 
HETATM   12  C13 UNL     1      43.587  16.439  -2.209  1.00  0.00     0.039 C 
HETATM   13  O4  UNL     1      43.450  16.921  -4.573  1.00  0.00    -0.372 OA
HETATM   14  C14 UNL     1      43.003  15.945  -5.344  1.00  0.00     0.099 C 
HETATM   15  C15 UNL     1      42.637  14.678  -4.600  1.00  0.00     0.050 C 
HETATM   16  C16 UNL     1      40.614  16.516  -5.647  1.00  0.00     0.104 A 
HETATM   17  C17 UNL     1      39.781  15.630  -5.009  1.00  0.00     0.208 A 
HETATM   18  O5  UNL     1      39.413  16.123  -6.219  1.00  0.00    -0.373 OA
ENDROOT
BRANCH   4  19
HETATM   19  O2  UNL     1      42.779  16.656  -8.500  1.00  0.00    -0.389 OA
ATOM     20  H2  UNL     1      42.171  16.922  -9.179  1.00  0.00     0.210 HD
ENDBRANCH   4  19
BRANCH   7  21
HETATM   21  O3  UNL     1      43.017  18.601  -6.175  1.00  0.00    -0.394 OA
ATOM     22  H3  UNL     1      43.398  18.477  -5.313  1.00  0.00     0.210 HD
ENDBRANCH   7  21
BRANCH   1  23
HETATM   23  O1  UNL     1      44.970  16.532  -6.639  1.00  0.00    -0.388 OA
HETATM   24  C1  UNL     1      45.986  16.977  -5.800  1.00  0.00     0.202 C 
ENDBRANCH   1  23
TORSDOF 3
ENDMDL
MODEL 5
REMARK VINA RESULT: -3.627770407      1.970      3.957
REMARK  3 active torsions:
REMARK  status: ('A' for Active; 'I' for Inactive)
REMARK    1  A    between atoms: O1_2  and  C2_3 
REMARK    2  A    between atoms: C5_6  and  O2_8 
REMARK    3  A    between atoms: C8_11  and  O3_12 
ROOT
HETATM    1  C2  UNL     1      41.905  16.818  -3.887  1.00  0.00     0.156 C 
HETATM    2  C3  UNL     1      43.235  16.608  -3.255  1.00  0.00     0.038 C 
HETATM    3  C4  UNL     1      44.382  16.623  -4.199  1.00  0.00     0.041 C 
HETATM    4  C5  UNL     1      44.046  17.055  -5.593  1.00  0.00     0.070 C 
HETATM    5  C6  UNL     1      45.323  16.893  -6.400  1.00  0.00     0.047 C 
HETATM    6  C7  UNL     1      42.840  16.480  -6.208  1.00  0.00     0.084 C 
HETATM    7  C8  UNL     1      42.282  17.505  -7.212  1.00  0.00     0.143 C 
HETATM    8  C9  UNL     1      42.079  16.394  -8.236  1.00  0.00     0.053 C 
HETATM    9  C10 UNL     1      40.663  16.062  -8.453  1.00  0.00     0.013 C 
HETATM   10  C11 UNL     1      40.050  15.024  -7.598  1.00  0.00     0.032 C 
HETATM   11  C12 UNL     1      39.664  15.573  -6.243  1.00  0.00     0.118 C 
HETATM   12  C13 UNL     1      38.939  14.511  -5.440  1.00  0.00     0.039 C 
HETATM   13  O4  UNL     1      40.540  16.314  -5.605  1.00  0.00    -0.372 OA
HETATM   14  C14 UNL     1      41.774  16.037  -5.221  1.00  0.00     0.099 C 
HETATM   15  C15 UNL     1      41.977  14.614  -4.748  1.00  0.00     0.050 C 
HETATM   16  C16 UNL     1      42.931  15.548  -7.353  1.00  0.00     0.104 A 
HETATM   17  C17 UNL     1      43.273  14.222  -7.468  1.00  0.00     0.208 A 
HETATM   18  O5  UNL     1      44.130  15.166  -7.937  1.00  0.00    -0.373 OA
ENDROOT
BRANCH   4  19
HETATM   19  O2  UNL     1      43.901  18.468  -5.516  1.00  0.00    -0.389 OA
ATOM     20  H2  UNL     1      43.167  18.671  -6.084  1.00  0.00     0.210 HD
ENDBRANCH   4  19
BRANCH   7  21
HETATM   21  O3  UNL     1      41.183  18.212  -6.855  1.00  0.00    -0.394 OA
ATOM     22  H3  UNL     1      41.308  19.008  -6.352  1.00  0.00     0.210 HD
ENDBRANCH   7  21
BRANCH   1  23
HETATM   23  O1  UNL     1      41.488  18.110  -3.990  1.00  0.00    -0.388 OA
HETATM   24  C1  UNL     1      41.888  18.879  -2.902  1.00  0.00     0.202 C 
ENDBRANCH   1  23
TORSDOF 3
ENDMDL
