MODEL 1
REMARK VINA RESULT: -7.269258572      0.000      0.000
REMARK  2 active torsions:
REMARK  status: ('A' for Active; 'I' for Inactive)
REMARK    1  A    between atoms: C2_2  and  C3_3 
REMARK    2  A    between atoms: C11_13  and  O3_14 
ROOT
HETATM    1  C3  UNL     1      43.667  15.425  -1.476  1.00  0.00     0.058 C 
HETATM    2  C4  UNL     1      42.890  15.062  -0.205  1.00  0.00     0.046 C 
HETATM    3  C5  UNL     1      42.899  14.907  -2.632  1.00  0.00     0.054 C 
HETATM    4  C6  UNL     1      42.832  16.088  -3.565  1.00  0.00     0.039 C 
HETATM    5  C7  UNL     1      43.151  17.239  -2.679  1.00  0.00     0.183 C 
HETATM    6  O1  UNL     1      43.732  16.788  -1.535  1.00  0.00    -0.380 OA
HETATM    7  C8  UNL     1      41.438  16.298  -4.132  1.00  0.00     0.136 C 
HETATM    8  C9  UNL     1      41.465  17.570  -4.915  1.00  0.00     0.065 C 
HETATM    9  C10 UNL     1      42.472  17.604  -6.014  1.00  0.00     0.136 C 
HETATM   10  O2  UNL     1      41.879  17.158  -7.177  1.00  0.00    -0.347 OA
HETATM   11  C11 UNL     1      42.453  15.983  -7.559  1.00  0.00     0.191 C 
HETATM   12  C12 UNL     1      41.401  14.896  -7.511  1.00  0.00     0.073 C 
HETATM   13  C13 UNL     1      40.055  15.466  -7.045  1.00  0.00     0.032 C 
HETATM   14  C14 UNL     1      39.901  15.320  -5.547  1.00  0.00     0.168 C 
HETATM   15  O4  UNL     1      41.102  15.206  -4.894  1.00  0.00    -0.385 OA
HETATM   16  C15 UNL     1      43.645  15.701  -6.724  1.00  0.00     0.256 C 
HETATM   17  N1  UNL     1      43.465  14.847  -5.584  1.00  0.00    -0.059 N 
ATOM     18  H11 UNL     1      43.987  13.973  -5.528  1.00  0.00     0.278 HD
ATOM     19  H12 UNL     1      42.585  14.346  -5.470  1.00  0.00     0.278 HD
HETATM   20  C16 UNL     1      43.787  15.918  -4.680  1.00  0.00     0.208 C 
HETATM   21  C17 UNL     1      43.725  16.879  -5.778  1.00  0.00     0.082 C 
ENDROOT
BRANCH   1  22
HETATM   22  C2  UNL     1      45.050  14.871  -1.337  1.00  0.00     0.033 C 
HETATM   23  C1  UNL     1      45.255  13.578  -2.088  1.00  0.00     0.008 C 
ENDBRANCH   1  22
BRANCH  11  24
HETATM   24  O3  UNL     1      42.900  16.156  -8.890  1.00  0.00    -0.364 OA
ATOM     25  H3  UNL     1      43.579  16.820  -8.871  1.00  0.00     0.213 HD
ENDBRANCH  11  24
TORSDOF 2
ENDMDL
MODEL 2
REMARK VINA RESULT: -6.137460963      0.994      1.155
REMARK  2 active torsions:
REMARK  status: ('A' for Active; 'I' for Inactive)
REMARK    1  A    between atoms: C2_2  and  C3_3 
REMARK    2  A    between atoms: C11_13  and  O3_14 
ROOT
HETATM    1  C3  UNL     1      43.597  15.094  -0.870  1.00  0.00     0.058 C 
HETATM    2  C4  UNL     1      42.577  14.947   0.265  1.00  0.00     0.046 C 
HETATM    3  C5  UNL     1      42.933  14.672  -2.126  1.00  0.00     0.054 C 
HETATM    4  C6  UNL     1      43.242  15.798  -3.079  1.00  0.00     0.039 C 
HETATM    5  C7  UNL     1      43.635  16.910  -2.175  1.00  0.00     0.183 C 
HETATM    6  O1  UNL     1      43.933  16.416  -0.944  1.00  0.00    -0.380 OA
HETATM    7  C8  UNL     1      42.020  16.237  -3.868  1.00  0.00     0.136 C 
HETATM    8  C9  UNL     1      42.413  17.440  -4.661  1.00  0.00     0.065 C 
HETATM    9  C10 UNL     1      43.566  17.230  -5.583  1.00  0.00     0.136 C 
HETATM   10  O2  UNL     1      43.086  16.847  -6.817  1.00  0.00    -0.347 OA
HETATM   11  C11 UNL     1      43.475  15.568  -7.079  1.00  0.00     0.191 C 
HETATM   12  C12 UNL     1      42.239  14.701  -7.182  1.00  0.00     0.073 C 
HETATM   13  C13 UNL     1      40.972  15.535  -6.952  1.00  0.00     0.032 C 
HETATM   14  C14 UNL     1      40.562  15.496  -5.495  1.00  0.00     0.168 C 
HETATM   15  O4  UNL     1      41.602  15.190  -4.654  1.00  0.00    -0.385 OA
HETATM   16  C15 UNL     1      44.446  15.108  -6.057  1.00  0.00     0.256 C 
HETATM   17  N1  UNL     1      43.929  14.361  -4.945  1.00  0.00    -0.059 N 
ATOM     18  H11 UNL     1      44.257  13.408  -4.788  1.00  0.00     0.278 HD
ATOM     19  H12 UNL     1      42.962  14.040  -4.966  1.00  0.00     0.278 HD
HETATM   20  C16 UNL     1      44.307  15.396  -4.021  1.00  0.00     0.208 C 
HETATM   21  C17 UNL     1      44.603  16.296  -5.133  1.00  0.00     0.082 C 
ENDROOT
BRANCH   1  22
HETATM   22  C2  UNL     1      44.809  14.298  -0.498  1.00  0.00     0.033 C 
HETATM   23  C1  UNL     1      45.184  14.424   0.958  1.00  0.00     0.008 C 
ENDBRANCH   1  22
BRANCH  11  24
HETATM   24  O3  UNL     1      44.148  15.587  -8.323  1.00  0.00    -0.364 OA
ATOM     25  H3  UNL     1      43.514  15.854  -8.978  1.00  0.00     0.213 HD
ENDBRANCH  11  24
TORSDOF 2
ENDMDL
MODEL 3
REMARK VINA RESULT: -5.865634952      1.660      2.595
REMARK  2 active torsions:
REMARK  status: ('A' for Active; 'I' for Inactive)
REMARK    1  A    between atoms: C2_2  and  C3_3 
REMARK    2  A    between atoms: C11_13  and  O3_14 
ROOT
HETATM    1  C3  UNL     1      44.683  13.730  -2.666  1.00  0.00     0.058 C 
HETATM    2  C4  UNL     1      45.056  12.255  -2.846  1.00  0.00     0.046 C 
HETATM    3  C5  UNL     1      44.492  14.312  -4.015  1.00  0.00     0.054 C 
HETATM    4  C6  UNL     1      43.168  15.022  -3.906  1.00  0.00     0.039 C 
HETATM    5  C7  UNL     1      42.551  14.407  -2.701  1.00  0.00     0.183 C 
HETATM    6  O1  UNL     1      43.507  13.769  -1.973  1.00  0.00    -0.380 OA
HETATM    7  C8  UNL     1      42.264  14.745  -5.095  1.00  0.00     0.136 C 
HETATM    8  C9  UNL     1      40.942  15.376  -4.804  1.00  0.00     0.065 C 
HETATM    9  C10 UNL     1      40.997  16.842  -4.536  1.00  0.00     0.136 C 
HETATM   10  O2  UNL     1      40.811  17.520  -5.723  1.00  0.00    -0.347 OA
HETATM   11  C11 UNL     1      41.951  18.190  -6.048  1.00  0.00     0.191 C 
HETATM   12  C12 UNL     1      42.491  17.623  -7.343  1.00  0.00     0.073 C 
HETATM   13  C13 UNL     1      41.592  16.489  -7.853  1.00  0.00     0.032 C 
HETATM   14  C14 UNL     1      42.091  15.147  -7.360  1.00  0.00     0.168 C 
HETATM   15  O4  UNL     1      42.859  15.245  -6.228  1.00  0.00    -0.385 OA
HETATM   16  C15 UNL     1      42.915  18.135  -4.922  1.00  0.00     0.256 C 
HETATM   17  N1  UNL     1      43.916  17.107  -4.960  1.00  0.00    -0.059 N 
ATOM     18  H11 UNL     1      44.901  17.369  -4.977  1.00  0.00     0.278 HD
ATOM     19  H12 UNL     1      44.033  16.556  -5.810  1.00  0.00     0.278 HD
HETATM   20  C16 UNL     1      43.375  16.480  -3.784  1.00  0.00     0.208 C 
HETATM   21  C17 UNL     1      42.196  17.340  -3.855  1.00  0.00     0.082 C 
ENDROOT
BRANCH   1  22
HETATM   22  C2  UNL     1      45.758  14.374  -1.847  1.00  0.00     0.033 C 
HETATM   23  C1  UNL     1      45.223  15.254  -0.743  1.00  0.00     0.008 C 
ENDBRANCH   1  22
BRANCH  11  24
HETATM   24  O3  UNL     1      41.595  19.547  -6.233  1.00  0.00    -0.364 OA
ATOM     25  H3  UNL     1      40.712  19.650  -5.897  1.00  0.00     0.213 HD
ENDBRANCH  11  24
TORSDOF 2
ENDMDL
MODEL 4
REMARK VINA RESULT: -5.703655284      1.018      1.119
REMARK  2 active torsions:
REMARK  status: ('A' for Active; 'I' for Inactive)
REMARK    1  A    between atoms: C2_2  and  C3_3 
REMARK    2  A    between atoms: C11_13  and  O3_14 
ROOT
HETATM    1  C3  UNL     1      43.162  16.659  -1.251  1.00  0.00     0.058 C 
HETATM    2  C4  UNL     1      42.251  16.710  -0.019  1.00  0.00     0.046 C 
HETATM    3  C5  UNL     1      42.418  15.967  -2.330  1.00  0.00     0.054 C 
HETATM    4  C6  UNL     1      42.585  16.885  -3.513  1.00  0.00     0.039 C 
HETATM    5  C7  UNL     1      42.993  18.171  -2.890  1.00  0.00     0.183 C 
HETATM    6  O1  UNL     1      43.420  17.949  -1.618  1.00  0.00    -0.380 OA
HETATM    7  C8  UNL     1      41.279  17.112  -4.256  1.00  0.00     0.136 C 
HETATM    8  C9  UNL     1      41.540  18.141  -5.306  1.00  0.00     0.065 C 
HETATM    9  C10 UNL     1      42.621  17.789  -6.271  1.00  0.00     0.136 C 
HETATM   10  O2  UNL     1      42.059  17.145  -7.354  1.00  0.00    -0.347 OA
HETATM   11  C11 UNL     1      42.492  15.854  -7.390  1.00  0.00     0.191 C 
HETATM   12  C12 UNL     1      41.299  14.942  -7.202  1.00  0.00     0.073 C 
HETATM   13  C13 UNL     1      40.014  15.761  -7.026  1.00  0.00     0.032 C 
HETATM   14  C14 UNL     1      39.731  16.004  -5.559  1.00  0.00     0.168 C 
HETATM   15  O4  UNL     1      40.853  15.913  -4.775  1.00  0.00    -0.385 OA
HETATM   16  C15 UNL     1      43.568  15.647  -6.392  1.00  0.00     0.256 C 
HETATM   17  N1  UNL     1      43.188  15.124  -5.110  1.00  0.00    -0.059 N 
ATOM     18  H11 UNL     1      43.578  14.235  -4.798  1.00  0.00     0.278 HD
ATOM     19  H12 UNL     1      42.241  14.772  -4.977  1.00  0.00     0.278 HD
HETATM   20  C16 UNL     1      43.587  16.338  -4.451  1.00  0.00     0.208 C 
HETATM   21  C17 UNL     1      43.740  17.002  -5.742  1.00  0.00     0.082 C 
ENDROOT
BRANCH   1  22
HETATM   22  C2  UNL     1      44.442  15.998  -0.842  1.00  0.00     0.033 C 
HETATM   23  C1  UNL     1      44.502  15.670   0.630  1.00  0.00     0.008 C 
ENDBRANCH   1  22
BRANCH  11  24
HETATM   24  O3  UNL     1      43.056  15.643  -8.670  1.00  0.00    -0.364 OA
ATOM     25  H3  UNL     1      43.612  16.392  -8.856  1.00  0.00     0.213 HD
ENDBRANCH  11  24
TORSDOF 2
ENDMDL
MODEL 5
REMARK VINA RESULT: -5.606500110      1.979      3.360
REMARK  2 active torsions:
REMARK  status: ('A' for Active; 'I' for Inactive)
REMARK    1  A    between atoms: C2_2  and  C3_3 
REMARK    2  A    between atoms: C11_13  and  O3_14 
ROOT
HETATM    1  C3  UNL     1      43.843  15.402   0.133  1.00  0.00     0.058 C 
HETATM    2  C4  UNL     1      44.873  14.502   0.825  1.00  0.00     0.046 C 
HETATM    3  C5  UNL     1      44.447  15.884  -1.131  1.00  0.00     0.054 C 
HETATM    4  C6  UNL     1      43.378  15.608  -2.156  1.00  0.00     0.039 C 
HETATM    5  C7  UNL     1      42.504  14.617  -1.477  1.00  0.00     0.183 C 
HETATM    6  O1  UNL     1      42.750  14.630  -0.139  1.00  0.00    -0.380 OA
HETATM    7  C8  UNL     1      43.938  14.964  -3.414  1.00  0.00     0.136 C 
HETATM    8  C9  UNL     1      42.777  14.608  -4.284  1.00  0.00     0.065 C 
HETATM    9  C10 UNL     1      41.896  15.755  -4.647  1.00  0.00     0.136 C 
HETATM   10  O2  UNL     1      42.337  16.297  -5.836  1.00  0.00    -0.347 OA
HETATM   11  C11 UNL     1      42.800  17.559  -5.616  1.00  0.00     0.191 C 
HETATM   12  C12 UNL     1      44.279  17.591  -5.937  1.00  0.00     0.073 C 
HETATM   13  C13 UNL     1      44.765  16.209  -6.391  1.00  0.00     0.032 C 
HETATM   14  C14 UNL     1      45.302  15.418  -5.218  1.00  0.00     0.168 C 
HETATM   15  O4  UNL     1      44.806  15.845  -4.012  1.00  0.00    -0.385 OA
HETATM   16  C15 UNL     1      42.478  17.989  -4.234  1.00  0.00     0.256 C 
HETATM   17  N1  UNL     1      43.493  17.809  -3.233  1.00  0.00    -0.059 N 
ATOM     18  H11 UNL     1      43.856  18.624  -2.739  1.00  0.00     0.278 HD
ATOM     19  H12 UNL     1      44.435  17.545  -3.520  1.00  0.00     0.278 HD
HETATM   20  C16 UNL     1      42.681  16.859  -2.522  1.00  0.00     0.208 C 
HETATM   21  C17 UNL     1      41.742  16.808  -3.639  1.00  0.00     0.082 C 
ENDROOT
BRANCH   1  22
HETATM   22  C2  UNL     1      43.457  16.478   1.100  1.00  0.00     0.033 C 
HETATM   23  C1  UNL     1      42.579  15.985   2.225  1.00  0.00     0.008 C 
ENDBRANCH   1  22
BRANCH  11  24
HETATM   24  O3  UNL     1      42.102  18.416  -6.498  1.00  0.00    -0.364 OA
ATOM     25  H3  UNL     1      42.026  19.258  -6.065  1.00  0.00     0.213 HD
ENDBRANCH  11  24
TORSDOF 2
ENDMDL
