MODEL 1
REMARK VINA RESULT: -7.726109841      0.000      0.000
REMARK  2 active torsions:
REMARK  status: ('A' for Active; 'I' for Inactive)
REMARK    1  A    between atoms: O1_3  and  C2_4 
REMARK    2  A    between atoms: C16_22  and  O4_23 
ROOT
HETATM    1  N1  UNL     1      40.569  15.093  -8.894  1.00  0.00    -0.164 NA
HETATM    2  C1  UNL     1      41.028  15.775  -8.077  1.00  0.00     0.229 C 
HETATM    3  O1  UNL     1      41.561  16.588  -7.126  1.00  0.00    -0.268 OA
ENDROOT
BRANCH   3   4
HETATM    4  C2  UNL     1      42.876  16.384  -6.646  1.00  0.00     0.239 C 
HETATM    5  C3  UNL     1      42.981  15.146  -5.827  1.00  0.00     0.159 C 
HETATM    6  O2  UNL     1      42.254  15.035  -4.863  1.00  0.00    -0.295 OA
HETATM    7  C4  UNL     1      43.912  14.028  -6.099  1.00  0.00     0.083 C 
HETATM    8  C5  UNL     1      45.009  13.855  -5.131  1.00  0.00     0.027 C 
HETATM    9  C6  UNL     1      44.633  13.196  -3.832  1.00  0.00     0.123 C 
HETATM   10  N2  UNL     1      45.570  13.562  -2.785  1.00  0.00    -0.361 N 
HETATM   11  C7  UNL     1      45.333  13.610  -1.413  1.00  0.00     0.217 C 
ATOM     12  H2  UNL     1      46.510  13.812  -3.090  1.00  0.00     0.162 HD
HETATM   13  O3  UNL     1      46.156  13.005  -0.635  1.00  0.00    -0.274 OA
HETATM   14  C8  UNL     1      44.229  14.283  -0.697  1.00  0.00     0.103 C 
HETATM   15  C9  UNL     1      43.556  15.366  -1.471  1.00  0.00     0.009 C 
HETATM   16  C10 UNL     1      43.255  16.494  -0.533  1.00  0.00     0.000 C 
HETATM   17  C11 UNL     1      43.128  17.829  -1.190  1.00  0.00     0.000 C 
HETATM   18  C12 UNL     1      42.027  17.916  -2.199  1.00  0.00     0.000 C 
HETATM   19  C13 UNL     1      42.246  19.004  -3.224  1.00  0.00     0.000 C 
HETATM   20  C14 UNL     1      41.561  18.608  -4.489  1.00  0.00     0.002 C 
HETATM   21  C15 UNL     1      42.388  18.675  -5.719  1.00  0.00     0.035 C 
HETATM   22  C16 UNL     1      43.394  17.598  -5.908  1.00  0.00     0.156 C 
BRANCH  22  23
HETATM   23  O4  UNL     1      43.965  17.286  -4.699  1.00  0.00    -0.393 OA
ATOM     24  H4  UNL     1      43.327  17.025  -4.045  1.00  0.00     0.210 HD
ENDBRANCH  22  23
ENDBRANCH   3   4
TORSDOF 2
ENDMDL
MODEL 2
REMARK VINA RESULT: -7.713153433      1.142      1.335
REMARK  2 active torsions:
REMARK  status: ('A' for Active; 'I' for Inactive)
REMARK    1  A    between atoms: O1_3  and  C2_4 
REMARK    2  A    between atoms: C16_22  and  O4_23 
ROOT
HETATM    1  N1  UNL     1      42.357  14.712  -9.316  1.00  0.00    -0.164 NA
HETATM    2  C1  UNL     1      42.363  15.072  -8.215  1.00  0.00     0.229 C 
HETATM    3  O1  UNL     1      42.363  15.507  -6.926  1.00  0.00    -0.268 OA
ENDROOT
BRANCH   3   4
HETATM    4  C2  UNL     1      43.549  15.509  -6.156  1.00  0.00     0.239 C 
HETATM    5  C3  UNL     1      43.457  14.584  -4.994  1.00  0.00     0.159 C 
HETATM    6  O2  UNL     1      42.549  14.745  -4.206  1.00  0.00    -0.295 OA
HETATM    7  C4  UNL     1      44.395  13.472  -4.721  1.00  0.00     0.083 C 
HETATM    8  C5  UNL     1      45.272  13.644  -3.549  1.00  0.00     0.027 C 
HETATM    9  C6  UNL     1      44.627  13.399  -2.212  1.00  0.00     0.123 C 
HETATM   10  N2  UNL     1      45.344  14.101  -1.164  1.00  0.00    -0.361 N 
HETATM   11  C7  UNL     1      44.839  14.556   0.052  1.00  0.00     0.217 C 
ATOM     12  H2  UNL     1      46.333  14.281  -1.338  1.00  0.00     0.162 HD
HETATM   13  O3  UNL     1      45.475  14.248   1.124  1.00  0.00    -0.274 OA
HETATM   14  C8  UNL     1      43.632  15.373   0.294  1.00  0.00     0.103 C 
HETATM   15  C9  UNL     1      43.155  16.143  -0.891  1.00  0.00     0.009 C 
HETATM   16  C10 UNL     1      42.701  17.490  -0.422  1.00  0.00     0.000 C 
HETATM   17  C11 UNL     1      42.742  18.556  -1.468  1.00  0.00     0.000 C 
HETATM   18  C12 UNL     1      41.868  18.290  -2.652  1.00  0.00     0.000 C 
HETATM   19  C13 UNL     1      42.315  19.022  -3.896  1.00  0.00     0.000 C 
HETATM   20  C14 UNL     1      41.886  18.234  -5.088  1.00  0.00     0.002 C 
HETATM   21  C15 UNL     1      42.944  17.954  -6.090  1.00  0.00     0.035 C 
HETATM   22  C16 UNL     1      43.940  16.909  -5.738  1.00  0.00     0.156 C 
BRANCH  22  23
HETATM   23  O4  UNL     1      44.249  17.002  -4.403  1.00  0.00    -0.393 OA
ATOM     24  H4  UNL     1      43.535  17.347  -3.880  1.00  0.00     0.210 HD
ENDBRANCH  22  23
ENDBRANCH   3   4
TORSDOF 2
ENDMDL
MODEL 3
REMARK VINA RESULT: -7.409586250      0.963      1.011
REMARK  2 active torsions:
REMARK  status: ('A' for Active; 'I' for Inactive)
REMARK    1  A    between atoms: O1_3  and  C2_4 
REMARK    2  A    between atoms: C16_22  and  O4_23 
ROOT
HETATM    1  N1  UNL     1      39.376  15.107  -6.865  1.00  0.00    -0.164 NA
HETATM    2  C1  UNL     1      40.129  15.956  -6.634  1.00  0.00     0.229 C 
HETATM    3  O1  UNL     1      41.008  16.961  -6.375  1.00  0.00    -0.268 OA
ENDROOT
BRANCH   3   4
HETATM    4  C2  UNL     1      42.387  16.696  -6.195  1.00  0.00     0.239 C 
HETATM    5  C3  UNL     1      42.622  15.334  -5.645  1.00  0.00     0.159 C 
HETATM    6  O2  UNL     1      42.088  15.040  -4.597  1.00  0.00    -0.295 OA
HETATM    7  C4  UNL     1      43.466  14.298  -6.283  1.00  0.00     0.083 C 
HETATM    8  C5  UNL     1      44.723  13.974  -5.585  1.00  0.00     0.027 C 
HETATM    9  C6  UNL     1      44.586  13.087  -4.377  1.00  0.00     0.123 C 
HETATM   10  N2  UNL     1      45.709  13.275  -3.478  1.00  0.00    -0.361 N 
HETATM   11  C7  UNL     1      45.736  13.073  -2.099  1.00  0.00     0.217 C 
ATOM     12  H2  UNL     1      46.580  13.592  -3.905  1.00  0.00     0.162 HD
HETATM   13  O3  UNL     1      46.680  12.353  -1.612  1.00  0.00    -0.274 OA
HETATM   14  C8  UNL     1      44.798  13.590  -1.080  1.00  0.00     0.103 C 
HETATM   15  C9  UNL     1      44.011  14.782  -1.507  1.00  0.00     0.009 C 
HETATM   16  C10 UNL     1      43.911  15.719  -0.343  1.00  0.00     0.000 C 
HETATM   17  C11 UNL     1      43.687  17.148  -0.715  1.00  0.00     0.000 C 
HETATM   18  C12 UNL     1      42.417  17.395  -1.467  1.00  0.00     0.000 C 
HETATM   19  C13 UNL     1      42.458  18.652  -2.303  1.00  0.00     0.000 C 
HETATM   20  C14 UNL     1      41.540  18.477  -3.467  1.00  0.00     0.002 C 
HETATM   21  C15 UNL     1      42.122  18.777  -4.798  1.00  0.00     0.035 C 
HETATM   22  C16 UNL     1      43.056  17.768  -5.363  1.00  0.00     0.156 C 
BRANCH  22  23
HETATM   23  O4  UNL     1      43.838  17.254  -4.358  1.00  0.00    -0.393 OA
ATOM     24  H4  UNL     1      44.726  17.592  -4.370  1.00  0.00     0.210 HD
ENDBRANCH  22  23
ENDBRANCH   3   4
TORSDOF 2
ENDMDL
MODEL 4
REMARK VINA RESULT: -7.006997141      2.118      6.075
REMARK  2 active torsions:
REMARK  status: ('A' for Active; 'I' for Inactive)
REMARK    1  A    between atoms: O1_3  and  C2_4 
REMARK    2  A    between atoms: C16_22  and  O4_23 
ROOT
HETATM    1  N1  UNL     1      45.957  13.153   2.845  1.00  0.00    -0.164 NA
HETATM    2  C1  UNL     1      45.670  13.776   1.911  1.00  0.00     0.229 C 
HETATM    3  O1  UNL     1      45.329  14.520   0.825  1.00  0.00    -0.268 OA
ENDROOT
BRANCH   3   4
HETATM    4  C2  UNL     1      44.527  13.979  -0.207  1.00  0.00     0.239 C 
HETATM    5  C3  UNL     1      45.184  14.091  -1.537  1.00  0.00     0.159 C 
HETATM    6  O2  UNL     1      45.518  15.192  -1.919  1.00  0.00    -0.295 OA
HETATM    7  C4  UNL     1      45.465  12.953  -2.440  1.00  0.00     0.083 C 
HETATM    8  C5  UNL     1      44.671  12.905  -3.681  1.00  0.00     0.027 C 
HETATM    9  C6  UNL     1      45.107  13.847  -4.769  1.00  0.00     0.123 C 
HETATM   10  N2  UNL     1      44.004  14.131  -5.668  1.00  0.00    -0.361 N 
HETATM   11  C7  UNL     1      43.815  15.271  -6.447  1.00  0.00     0.217 C 
ATOM     12  H2  UNL     1      43.283  13.412  -5.739  1.00  0.00     0.162 HD
HETATM   13  O3  UNL     1      43.556  15.115  -7.695  1.00  0.00    -0.274 OA
HETATM   14  C8  UNL     1      43.872  16.687  -6.027  1.00  0.00     0.103 C 
HETATM   15  C9  UNL     1      43.683  16.909  -4.564  1.00  0.00     0.009 C 
HETATM   16  C10 UNL     1      42.842  18.134  -4.381  1.00  0.00     0.000 C 
HETATM   17  C11 UNL     1      42.090  18.183  -3.091  1.00  0.00     0.000 C 
HETATM   18  C12 UNL     1      42.959  18.176  -1.874  1.00  0.00     0.000 C 
HETATM   19  C13 UNL     1      42.249  17.667  -0.641  1.00  0.00     0.000 C 
HETATM   20  C14 UNL     1      43.262  17.061   0.273  1.00  0.00     0.002 C 
HETATM   21  C15 UNL     1      42.954  15.694   0.760  1.00  0.00     0.035 C 
HETATM   22  C16 UNL     1      43.139  14.581  -0.207  1.00  0.00     0.156 C 
BRANCH  22  23
HETATM   23  O4  UNL     1      42.732  14.986  -1.454  1.00  0.00    -0.393 OA
ATOM     24  H4  UNL     1      42.577  15.922  -1.508  1.00  0.00     0.210 HD
ENDBRANCH  22  23
ENDBRANCH   3   4
TORSDOF 2
ENDMDL
MODEL 5
REMARK VINA RESULT: -6.954815296      2.389      7.000
REMARK  2 active torsions:
REMARK  status: ('A' for Active; 'I' for Inactive)
REMARK    1  A    between atoms: O1_3  and  C2_4 
REMARK    2  A    between atoms: C16_22  and  O4_23 
ROOT
HETATM    1  N1  UNL     1      45.652  13.218   2.628  1.00  0.00    -0.164 NA
HETATM    2  C1  UNL     1      44.995  13.602   1.755  1.00  0.00     0.229 C 
HETATM    3  O1  UNL     1      44.223  14.037   0.723  1.00  0.00    -0.268 OA
ENDROOT
BRANCH   3   4
HETATM    4  C2  UNL     1      44.570  15.198  -0.008  1.00  0.00     0.239 C 
HETATM    5  C3  UNL     1      43.380  15.836  -0.631  1.00  0.00     0.159 C 
HETATM    6  O2  UNL     1      42.695  15.167  -1.376  1.00  0.00    -0.295 OA
HETATM    7  C4  UNL     1      42.960  17.239  -0.413  1.00  0.00     0.083 C 
HETATM    8  C5  UNL     1      43.107  18.141  -1.569  1.00  0.00     0.027 C 
HETATM    9  C6  UNL     1      42.050  18.014  -2.632  1.00  0.00     0.123 C 
HETATM   10  N2  UNL     1      42.551  18.491  -3.908  1.00  0.00    -0.361 N 
HETATM   11  C7  UNL     1      42.138  18.104  -5.180  1.00  0.00     0.217 C 
ATOM     12  H2  UNL     1      43.293  19.190  -3.867  1.00  0.00     0.162 HD
HETATM   13  O3  UNL     1      41.836  19.023  -6.024  1.00  0.00    -0.274 OA
HETATM   14  C8  UNL     1      41.991  16.735  -5.719  1.00  0.00     0.103 C 
HETATM   15  C9  UNL     1      42.765  15.692  -4.986  1.00  0.00     0.009 C 
HETATM   16  C10 UNL     1      43.333  14.738  -5.990  1.00  0.00     0.000 C 
HETATM   17  C11 UNL     1      44.554  14.011  -5.532  1.00  0.00     0.000 C 
HETATM   18  C12 UNL     1      44.343  13.155  -4.323  1.00  0.00     0.000 C 
HETATM   19  C13 UNL     1      45.616  12.893  -3.553  1.00  0.00     0.000 C 
HETATM   20  C14 UNL     1      45.265  12.670  -2.119  1.00  0.00     0.002 C 
HETATM   21  C15 UNL     1      46.027  13.479  -1.136  1.00  0.00     0.035 C 
HETATM   22  C16 UNL     1      45.657  14.914  -1.020  1.00  0.00     0.156 C 
BRANCH  22  23
HETATM   23  O4  UNL     1      45.373  15.416  -2.266  1.00  0.00    -0.393 OA
ATOM     24  H4  UNL     1      45.808  14.942  -2.965  1.00  0.00     0.210 HD
ENDBRANCH  22  23
ENDBRANCH   3   4
TORSDOF 2
ENDMDL
