MODEL 1
REMARK VINA RESULT: -8.005941291      0.000      0.000
REMARK  4 active torsions:
REMARK  status: ('A' for Active; 'I' for Inactive)
REMARK    1  A    between atoms: O1_1  and  C1_3 
REMARK    2  A    between atoms: C3_5  and  O2_6 
REMARK    3  A    between atoms: O2_6  and  C4_7 
REMARK    4  A    between atoms: C17_22  and  O5_23 
ROOT
HETATM    1  C4  UNL     1      43.869  14.962  -2.509  1.00  0.00     0.264 C 
HETATM    2  C5  UNL     1      43.002  15.892  -1.695  1.00  0.00     0.064 C 
HETATM    3  C6  UNL     1      42.753  17.004  -2.728  1.00  0.00     0.044 C 
HETATM    4  C7  UNL     1      42.784  16.226  -4.005  1.00  0.00     0.071 C 
HETATM    5  O3  UNL     1      43.214  14.954  -3.742  1.00  0.00    -0.349 OA
HETATM    6  C8  UNL     1      43.724  16.828  -5.032  1.00  0.00     0.021 C 
HETATM    7  C9  UNL     1      43.238  18.155  -5.549  1.00  0.00     0.012 C 
HETATM    8  C10 UNL     1      41.914  17.924  -6.239  1.00  0.00    -0.013 C 
HETATM    9  C11 UNL     1      42.002  16.929  -7.350  1.00  0.00     0.009 C 
HETATM   10  C12 UNL     1      42.460  15.601  -6.765  1.00  0.00    -0.013 C 
HETATM   11  C13 UNL     1      43.820  15.822  -6.165  1.00  0.00     0.012 C 
HETATM   12  C14 UNL     1      41.495  15.092  -5.729  1.00  0.00     0.012 C 
HETATM   13  C15 UNL     1      41.388  16.109  -4.619  1.00  0.00     0.021 C 
HETATM   14  C16 UNL     1      40.941  17.426  -5.208  1.00  0.00     0.012 C 
ENDROOT
BRANCH   1  15
HETATM   15  O2  UNL     1      43.845  13.659  -2.063  1.00  0.00    -0.331 OA
BRANCH  15  16
HETATM   16  C3  UNL     1      45.010  12.983  -2.091  1.00  0.00     0.268 C 
HETATM   17  C2  UNL     1      44.705  11.504  -2.366  1.00  0.00     0.097 C 
HETATM   18  C1  UNL     1      46.070  10.927  -2.019  1.00  0.00     0.177 C 
HETATM   19  C17 UNL     1      46.476  11.810  -0.877  1.00  0.00     0.288 C 
HETATM   20  O4  UNL     1      45.776  12.986  -0.969  1.00  0.00    -0.329 OA
BRANCH  18  21
HETATM   21  O1  UNL     1      46.877  11.142  -3.157  1.00  0.00    -0.390 OA
ATOM     22  H1  UNL     1      47.272  11.997  -3.034  1.00  0.00     0.210 HD
ENDBRANCH  18  21
BRANCH  19  23
HETATM   23  O5  UNL     1      47.860  11.978  -0.907  1.00  0.00    -0.369 OA
ATOM     24  H5  UNL     1      48.055  12.875  -1.156  1.00  0.00     0.212 HD
ENDBRANCH  19  23
ENDBRANCH  15  16
ENDBRANCH   1  15
TORSDOF 4
ENDMDL
MODEL 2
REMARK VINA RESULT: -7.802748914      1.230      1.922
REMARK  4 active torsions:
REMARK  status: ('A' for Active; 'I' for Inactive)
REMARK    1  A    between atoms: O1_1  and  C1_3 
REMARK    2  A    between atoms: C3_5  and  O2_6 
REMARK    3  A    between atoms: O2_6  and  C4_7 
REMARK    4  A    between atoms: C17_22  and  O5_23 
ROOT
HETATM    1  C4  UNL     1      43.323  16.574  -1.722  1.00  0.00     0.264 C 
HETATM    2  C5  UNL     1      42.404  17.751  -1.502  1.00  0.00     0.064 C 
HETATM    3  C6  UNL     1      42.364  18.334  -2.925  1.00  0.00     0.044 C 
HETATM    4  C7  UNL     1      42.530  17.097  -3.749  1.00  0.00     0.071 C 
HETATM    5  O3  UNL     1      42.848  16.051  -2.925  1.00  0.00    -0.349 OA
HETATM    6  C8  UNL     1      43.636  17.226  -4.779  1.00  0.00     0.021 C 
HETATM    7  C9  UNL     1      43.302  18.216  -5.862  1.00  0.00     0.012 C 
HETATM    8  C10 UNL     1      42.077  17.711  -6.586  1.00  0.00    -0.013 C 
HETATM    9  C11 UNL     1      42.264  16.345  -7.164  1.00  0.00     0.009 C 
HETATM   10  C12 UNL     1      42.560  15.382  -6.023  1.00  0.00    -0.013 C 
HETATM   11  C13 UNL     1      43.833  15.842  -5.371  1.00  0.00     0.012 C 
HETATM   12  C14 UNL     1      41.433  15.341  -5.027  1.00  0.00     0.012 C 
HETATM   13  C15 UNL     1      41.229  16.726  -4.463  1.00  0.00     0.021 C 
HETATM   14  C16 UNL     1      40.943  17.678  -5.601  1.00  0.00     0.012 C 
ENDROOT
BRANCH   1  15
HETATM   15  O2  UNL     1      43.164  15.572  -0.789  1.00  0.00    -0.331 OA
BRANCH  15  16
HETATM   16  C3  UNL     1      43.922  14.470  -0.943  1.00  0.00     0.268 C 
HETATM   17  C2  UNL     1      45.348  14.910  -1.303  1.00  0.00     0.097 C 
HETATM   18  C1  UNL     1      45.893  13.559  -1.747  1.00  0.00     0.177 C 
HETATM   19  C17 UNL     1      44.686  12.963  -2.409  1.00  0.00     0.288 C 
HETATM   20  O4  UNL     1      43.568  13.583  -1.909  1.00  0.00    -0.329 OA
BRANCH  18  21
HETATM   21  O1  UNL     1      46.228  12.873  -0.559  1.00  0.00    -0.390 OA
ATOM     22  H1  UNL     1      47.132  12.601  -0.666  1.00  0.00     0.210 HD
ENDBRANCH  18  21
BRANCH  19  23
HETATM   23  O5  UNL     1      44.698  11.584  -2.209  1.00  0.00    -0.369 OA
ATOM     24  H5  UNL     1      44.766  11.152  -3.053  1.00  0.00     0.212 HD
ENDBRANCH  19  23
ENDBRANCH  15  16
ENDBRANCH   1  15
TORSDOF 4
ENDMDL
MODEL 3
REMARK VINA RESULT: -7.667112101      0.885      1.043
REMARK  4 active torsions:
REMARK  status: ('A' for Active; 'I' for Inactive)
REMARK    1  A    between atoms: O1_1  and  C1_3 
REMARK    2  A    between atoms: C3_5  and  O2_6 
REMARK    3  A    between atoms: O2_6  and  C4_7 
REMARK    4  A    between atoms: C17_22  and  O5_23 
ROOT
HETATM    1  C4  UNL     1      44.382  14.260  -3.081  1.00  0.00     0.264 C 
HETATM    2  C5  UNL     1      43.515  14.951  -2.056  1.00  0.00     0.064 C 
HETATM    3  C6  UNL     1      43.115  16.210  -2.844  1.00  0.00     0.044 C 
HETATM    4  C7  UNL     1      43.106  15.685  -4.245  1.00  0.00     0.071 C 
HETATM    5  O3  UNL     1      43.640  14.425  -4.252  1.00  0.00    -0.349 OA
HETATM    6  C8  UNL     1      43.924  16.539  -5.194  1.00  0.00     0.021 C 
HETATM    7  C9  UNL     1      43.311  17.895  -5.422  1.00  0.00     0.012 C 
HETATM    8  C10 UNL     1      41.960  17.688  -6.062  1.00  0.00    -0.013 C 
HETATM    9  C11 UNL     1      42.034  16.924  -7.344  1.00  0.00     0.009 C 
HETATM   10  C12 UNL     1      42.622  15.552  -7.048  1.00  0.00    -0.013 C 
HETATM   11  C13 UNL     1      44.004  15.769  -6.500  1.00  0.00     0.012 C 
HETATM   12  C14 UNL     1      41.774  14.786  -6.071  1.00  0.00     0.012 C 
HETATM   13  C15 UNL     1      41.679  15.570  -4.785  1.00  0.00     0.021 C 
HETATM   14  C16 UNL     1      41.102  16.932  -5.087  1.00  0.00     0.012 C 
ENDROOT
BRANCH   1  15
HETATM   15  O2  UNL     1      44.480  12.899  -2.888  1.00  0.00    -0.331 OA
BRANCH  15  16
HETATM   16  C3  UNL     1      45.417  12.473  -2.020  1.00  0.00     0.268 C 
HETATM   17  C2  UNL     1      46.110  11.242  -2.621  1.00  0.00     0.097 C 
HETATM   18  C1  UNL     1      46.839  10.764  -1.373  1.00  0.00     0.177 C 
HETATM   19  C17 UNL     1      45.837  11.097  -0.307  1.00  0.00     0.288 C 
HETATM   20  O4  UNL     1      45.011  12.085  -0.783  1.00  0.00    -0.329 OA
BRANCH  18  21
HETATM   21  O1  UNL     1      47.994  11.570  -1.273  1.00  0.00    -0.390 OA
ATOM     22  H1  UNL     1      48.558  11.133  -0.645  1.00  0.00     0.210 HD
ENDBRANCH  18  21
BRANCH  19  23
HETATM   23  O5  UNL     1      46.518  11.450   0.857  1.00  0.00    -0.369 OA
ATOM     24  H5  UNL     1      45.886  11.718   1.514  1.00  0.00     0.212 HD
ENDBRANCH  19  23
ENDBRANCH  15  16
ENDBRANCH   1  15
TORSDOF 4
ENDMDL
MODEL 4
REMARK VINA RESULT: -7.636106390      2.116      3.587
REMARK  4 active torsions:
REMARK  status: ('A' for Active; 'I' for Inactive)
REMARK    1  A    between atoms: O1_1  and  C1_3 
REMARK    2  A    between atoms: C3_5  and  O2_6 
REMARK    3  A    between atoms: O2_6  and  C4_7 
REMARK    4  A    between atoms: C17_22  and  O5_23 
ROOT
HETATM    1  C4  UNL     1      44.514  14.579  -2.836  1.00  0.00     0.264 C 
HETATM    2  C5  UNL     1      44.840  13.532  -3.873  1.00  0.00     0.064 C 
HETATM    3  C6  UNL     1      43.738  13.822  -4.906  1.00  0.00     0.044 C 
HETATM    4  C7  UNL     1      43.552  15.295  -4.726  1.00  0.00     0.071 C 
HETATM    5  O3  UNL     1      44.253  15.701  -3.623  1.00  0.00    -0.349 OA
HETATM    6  C8  UNL     1      42.099  15.678  -4.517  1.00  0.00     0.021 C 
HETATM    7  C9  UNL     1      41.264  15.460  -5.750  1.00  0.00     0.012 C 
HETATM    8  C10 UNL     1      41.808  16.353  -6.839  1.00  0.00    -0.013 C 
HETATM    9  C11 UNL     1      41.813  17.799  -6.458  1.00  0.00     0.009 C 
HETATM   10  C12 UNL     1      42.701  17.965  -5.233  1.00  0.00    -0.013 C 
HETATM   11  C13 UNL     1      42.096  17.146  -4.129  1.00  0.00     0.012 C 
HETATM   12  C14 UNL     1      44.114  17.528  -5.512  1.00  0.00     0.012 C 
HETATM   13  C15 UNL     1      44.104  16.075  -5.920  1.00  0.00     0.021 C 
HETATM   14  C16 UNL     1      43.215  15.916  -7.131  1.00  0.00     0.012 C 
ENDROOT
BRANCH   1  15
HETATM   15  O2  UNL     1      45.589  14.919  -2.043  1.00  0.00    -0.331 OA
BRANCH  15  16
HETATM   16  C3  UNL     1      45.321  15.276  -0.772  1.00  0.00     0.268 C 
HETATM   17  C2  UNL     1      45.221  14.002   0.078  1.00  0.00     0.097 C 
HETATM   18  C1  UNL     1      44.598  14.614   1.325  1.00  0.00     0.177 C 
HETATM   19  C17 UNL     1      43.697  15.650   0.721  1.00  0.00     0.288 C 
HETATM   20  O4  UNL     1      44.169  15.956  -0.531  1.00  0.00    -0.329 OA
BRANCH  18  21
HETATM   21  O1  UNL     1      45.666  15.203   2.036  1.00  0.00    -0.390 OA
ATOM     22  H1  UNL     1      45.822  14.636   2.783  1.00  0.00     0.210 HD
ENDBRANCH  18  21
BRANCH  19  23
HETATM   23  O5  UNL     1      43.633  16.747   1.578  1.00  0.00    -0.369 OA
ATOM     24  H5  UNL     1      43.986  16.496   2.425  1.00  0.00     0.212 HD
ENDBRANCH  19  23
ENDBRANCH  15  16
ENDBRANCH   1  15
TORSDOF 4
ENDMDL
MODEL 5
REMARK VINA RESULT: -7.447103549      1.541      1.971
REMARK  4 active torsions:
REMARK  status: ('A' for Active; 'I' for Inactive)
REMARK    1  A    between atoms: O1_1  and  C1_3 
REMARK    2  A    between atoms: C3_5  and  O2_6 
REMARK    3  A    between atoms: O2_6  and  C4_7 
REMARK    4  A    between atoms: C17_22  and  O5_23 
ROOT
HETATM    1  C4  UNL     1      44.705  13.861  -3.538  1.00  0.00     0.264 C 
HETATM    2  C5  UNL     1      43.738  14.035  -2.393  1.00  0.00     0.064 C 
HETATM    3  C6  UNL     1      43.126  15.397  -2.760  1.00  0.00     0.044 C 
HETATM    4  C7  UNL     1      43.200  15.355  -4.254  1.00  0.00     0.071 C 
HETATM    5  O3  UNL     1      43.942  14.270  -4.632  1.00  0.00    -0.349 OA
HETATM    6  C8  UNL     1      43.857  16.591  -4.840  1.00  0.00     0.021 C 
HETATM    7  C9  UNL     1      43.021  17.829  -4.657  1.00  0.00     0.012 C 
HETATM    8  C10 UNL     1      41.722  17.621  -5.398  1.00  0.00    -0.013 C 
HETATM    9  C11 UNL     1      41.921  17.332  -6.851  1.00  0.00     0.009 C 
HETATM   10  C12 UNL     1      42.736  16.053  -6.975  1.00  0.00    -0.013 C 
HETATM   11  C13 UNL     1      44.063  16.305  -6.317  1.00  0.00     0.012 C 
HETATM   12  C14 UNL     1      42.035  14.886  -6.337  1.00  0.00     0.012 C 
HETATM   13  C15 UNL     1      41.812  15.189  -4.875  1.00  0.00     0.021 C 
HETATM   14  C16 UNL     1      41.010  16.463  -4.759  1.00  0.00     0.012 C 
ENDROOT
BRANCH   1  15
HETATM   15  O2  UNL     1      45.035  12.545  -3.781  1.00  0.00    -0.331 OA
BRANCH  15  16
HETATM   16  C3  UNL     1      44.974  11.698  -2.735  1.00  0.00     0.268 C 
HETATM   17  C2  UNL     1      46.405  11.288  -2.361  1.00  0.00     0.097 C 
HETATM   18  C1  UNL     1      46.070  10.125  -1.438  1.00  0.00     0.177 C 
HETATM   19  C17 UNL     1      44.865   9.550  -2.122  1.00  0.00     0.288 C 
HETATM   20  O4  UNL     1      44.300  10.530  -2.899  1.00  0.00    -0.329 OA
BRANCH  18  21
HETATM   21  O1  UNL     1      45.736  10.706  -0.196  1.00  0.00    -0.390 OA
ATOM     22  H1  UNL     1      46.336  10.327   0.436  1.00  0.00     0.210 HD
ENDBRANCH  18  21
BRANCH  19  23
HETATM   23  O5  UNL     1      44.002   9.034  -1.157  1.00  0.00    -0.369 OA
ATOM     24  H5  UNL     1      44.495   8.869  -0.361  1.00  0.00     0.212 HD
ENDBRANCH  19  23
ENDBRANCH  15  16
ENDBRANCH   1  15
TORSDOF 4
ENDMDL
