MODEL 1
REMARK VINA RESULT: -3.834566072      0.000      0.000
REMARK  3 active torsions:
REMARK  status: ('A' for Active; 'I' for Inactive)
REMARK    1  A    between atoms: C2_2  and  O2_4 
REMARK    2  A    between atoms: O2_4  and  C3_5 
REMARK    3  A    between atoms: C11_14  and  O4_15 
ROOT
HETATM    1  C3  UNL     1      30.481  59.860 -10.520  1.00  0.00     0.182 C 
HETATM    2  C4  UNL     1      31.189  60.624 -11.615  1.00  0.00     0.071 C 
HETATM    3  C5  UNL     1      30.147  61.109 -12.575  1.00  0.00     0.015 C 
HETATM    4  C6  UNL     1      28.912  60.304 -12.176  1.00  0.00    -0.029 C 
HETATM    5  C7  UNL     1      27.646  60.922 -12.655  1.00  0.00     0.016 C 
HETATM    6  C8  UNL     1      29.125  58.904 -12.657  1.00  0.00     0.050 C 
HETATM    7  C9  UNL     1      29.418  58.031 -11.465  1.00  0.00     0.087 C 
HETATM    8  C10 UNL     1      29.656  56.633 -11.940  1.00  0.00     0.049 C 
HETATM    9  O3  UNL     1      30.511  58.498 -10.783  1.00  0.00    -0.341 OA
HETATM   10  C11 UNL     1      28.160  58.022 -10.606  1.00  0.00     0.153 C 
HETATM   11  C12 UNL     1      28.069  59.411  -9.984  1.00  0.00     0.050 C 
HETATM   12  C13 UNL     1      29.055  60.330 -10.660  1.00  0.00     0.023 C 
HETATM   13  C14 UNL     1      28.846  61.713 -10.110  1.00  0.00     0.022 C 
ENDROOT
BRANCH   1  14
HETATM   14  O2  UNL     1      31.041  60.196  -9.275  1.00  0.00    -0.283 OA
BRANCH  14  15
HETATM   15  C2  UNL     1      32.315  60.739  -9.263  1.00  0.00     0.257 C 
HETATM   16  C1  UNL     1      32.533  62.230  -9.273  1.00  0.00     0.126 C 
HETATM   17  O1  UNL     1      33.336  60.015  -9.241  1.00  0.00    -0.266 OA
ENDBRANCH  14  15
ENDBRANCH   1  14
BRANCH  10  18
HETATM   18  O4  UNL     1      28.173  57.031  -9.652  1.00  0.00    -0.393 OA
ATOM     19  H4  UNL     1      27.921  57.345  -8.792  1.00  0.00     0.210 HD
ENDBRANCH  10  18
TORSDOF 3
ENDMDL
MODEL 2
REMARK VINA RESULT: -3.425725363      7.064      8.833
REMARK  3 active torsions:
REMARK  status: ('A' for Active; 'I' for Inactive)
REMARK    1  A    between atoms: C2_2  and  O2_4 
REMARK    2  A    between atoms: O2_4  and  C3_5 
REMARK    3  A    between atoms: C11_14  and  O4_15 
ROOT
HETATM    1  C3  UNL     1      29.305  54.335  -4.558  1.00  0.00     0.182 C 
HETATM    2  C4  UNL     1      29.268  53.407  -3.366  1.00  0.00     0.071 C 
HETATM    3  C5  UNL     1      30.041  52.177  -3.727  1.00  0.00     0.015 C 
HETATM    4  C6  UNL     1      30.197  52.301  -5.241  1.00  0.00    -0.029 C 
HETATM    5  C7  UNL     1      31.307  51.465  -5.773  1.00  0.00     0.016 C 
HETATM    6  C8  UNL     1      28.864  51.998  -5.848  1.00  0.00     0.050 C 
HETATM    7  C9  UNL     1      28.263  53.288  -6.344  1.00  0.00     0.087 C 
HETATM    8  C10 UNL     1      26.918  52.996  -6.930  1.00  0.00     0.049 C 
HETATM    9  O3  UNL     1      28.154  54.193  -5.320  1.00  0.00    -0.341 OA
HETATM   10  C11 UNL     1      29.162  53.789  -7.467  1.00  0.00     0.153 C 
HETATM   11  C12 UNL     1      30.446  54.260  -6.794  1.00  0.00     0.050 C 
HETATM   12  C13 UNL     1      30.463  53.796  -5.360  1.00  0.00     0.023 C 
HETATM   13  C14 UNL     1      31.795  54.167  -4.771  1.00  0.00     0.022 C 
ENDROOT
BRANCH   1  14
HETATM   14  O2  UNL     1      29.519  55.654  -4.121  1.00  0.00    -0.283 OA
BRANCH  14  15
HETATM   15  C2  UNL     1      28.723  56.133  -3.093  1.00  0.00     0.257 C 
HETATM   16  C1  UNL     1      27.299  56.562  -3.339  1.00  0.00     0.126 C 
HETATM   17  O1  UNL     1      29.151  56.228  -1.922  1.00  0.00    -0.266 OA
ENDBRANCH  14  15
ENDBRANCH   1  14
BRANCH  10  18
HETATM   18  O4  UNL     1      28.576  54.785  -8.212  1.00  0.00    -0.393 OA
ATOM     19  H4  UNL     1      28.857  55.654  -7.950  1.00  0.00     0.210 HD
ENDBRANCH  10  18
TORSDOF 3
ENDMDL
MODEL 3
REMARK VINA RESULT: -2.868238103      1.962      4.155
REMARK  3 active torsions:
REMARK  status: ('A' for Active; 'I' for Inactive)
REMARK    1  A    between atoms: C2_2  and  O2_4 
REMARK    2  A    between atoms: O2_4  and  C3_5 
REMARK    3  A    between atoms: C11_14  and  O4_15 
ROOT
HETATM    1  C3  UNL     1      28.672  59.409 -11.116  1.00  0.00     0.182 C 
HETATM    2  C4  UNL     1      29.469  58.943 -12.312  1.00  0.00     0.071 C 
HETATM    3  C5  UNL     1      30.444  60.025 -12.656  1.00  0.00     0.015 C 
HETATM    4  C6  UNL     1      29.930  61.219 -11.853  1.00  0.00    -0.029 C 
HETATM    5  C7  UNL     1      30.967  62.266 -11.655  1.00  0.00     0.016 C 
HETATM    6  C8  UNL     1      28.694  61.710 -12.539  1.00  0.00     0.050 C 
HETATM    7  C9  UNL     1      27.501  61.320 -11.705  1.00  0.00     0.087 C 
HETATM    8  C10 UNL     1      26.259  61.786 -12.396  1.00  0.00     0.049 C 
HETATM    9  O3  UNL     1      27.466  59.962 -11.521  1.00  0.00    -0.341 OA
HETATM   10  C11 UNL     1      27.615  62.080 -10.390  1.00  0.00     0.153 C 
HETATM   11  C12 UNL     1      28.772  61.435  -9.634  1.00  0.00     0.050 C 
HETATM   12  C13 UNL     1      29.530  60.519 -10.561  1.00  0.00     0.023 C 
HETATM   13  C14 UNL     1      30.731  60.004  -9.819  1.00  0.00     0.022 C 
ENDROOT
BRANCH   1  14
HETATM   14  O2  UNL     1      28.517  58.344 -10.211  1.00  0.00    -0.283 OA
BRANCH  14  15
HETATM   15  C2  UNL     1      28.026  57.145 -10.700  1.00  0.00     0.257 C 
HETATM   16  C1  UNL     1      28.869  55.896 -10.706  1.00  0.00     0.126 C 
HETATM   17  O1  UNL     1      26.864  57.049 -11.154  1.00  0.00    -0.266 OA
ENDBRANCH  14  15
ENDBRANCH   1  14
BRANCH  10  18
HETATM   18  O4  UNL     1      26.450  62.060  -9.661  1.00  0.00    -0.393 OA
ATOM     19  H4  UNL     1      26.444  62.700  -8.959  1.00  0.00     0.210 HD
ENDBRANCH  10  18
TORSDOF 3
ENDMDL
MODEL 4
REMARK VINA RESULT: -2.664290194      2.494      4.383
REMARK  3 active torsions:
REMARK  status: ('A' for Active; 'I' for Inactive)
REMARK    1  A    between atoms: C2_2  and  O2_4 
REMARK    2  A    between atoms: O2_4  and  C3_5 
REMARK    3  A    between atoms: C11_14  and  O4_15 
ROOT
HETATM    1  C3  UNL     1      27.710  61.217 -10.946  1.00  0.00     0.182 C 
HETATM    2  C4  UNL     1      28.121  62.027  -9.738  1.00  0.00     0.071 C 
HETATM    3  C5  UNL     1      29.599  61.865  -9.565  1.00  0.00     0.015 C 
HETATM    4  C6  UNL     1      29.924  60.686 -10.480  1.00  0.00    -0.029 C 
HETATM    5  C7  UNL     1      31.365  60.623 -10.844  1.00  0.00     0.016 C 
HETATM    6  C8  UNL     1      29.414  59.452  -9.805  1.00  0.00     0.050 C 
HETATM    7  C9  UNL     1      28.181  58.986 -10.535  1.00  0.00     0.087 C 
HETATM    8  C10 UNL     1      27.651  57.766  -9.850  1.00  0.00     0.049 C 
HETATM    9  O3  UNL     1      27.232  59.974 -10.557  1.00  0.00    -0.341 OA
HETATM   10  C11 UNL     1      28.626  58.578 -11.934  1.00  0.00     0.153 C 
HETATM   11  C12 UNL     1      28.967  59.876 -12.657  1.00  0.00     0.050 C 
HETATM   12  C13 UNL     1      29.021  61.008 -11.663  1.00  0.00     0.023 C 
HETATM   13  C14 UNL     1      29.483  62.239 -12.390  1.00  0.00     0.022 C 
ENDROOT
BRANCH   1  14
HETATM   14  O2  UNL     1      26.787  61.950 -11.712  1.00  0.00    -0.283 OA
BRANCH  14  15
HETATM   15  C2  UNL     1      25.474  61.509 -11.742  1.00  0.00     0.257 C 
HETATM   16  C1  UNL     1      24.476  61.946 -10.701  1.00  0.00     0.126 C 
HETATM   17  O1  UNL     1      25.064  60.732 -12.633  1.00  0.00    -0.266 OA
ENDBRANCH  14  15
ENDBRANCH   1  14
BRANCH  10  18
HETATM   18  O4  UNL     1      27.672  57.851 -12.605  1.00  0.00    -0.393 OA
ATOM     19  H4  UNL     1      27.994  57.485 -13.420  1.00  0.00     0.210 HD
ENDBRANCH  10  18
TORSDOF 3
ENDMDL
MODEL 5
REMARK VINA RESULT: -2.512166745      1.876      3.580
REMARK  3 active torsions:
REMARK  status: ('A' for Active; 'I' for Inactive)
REMARK    1  A    between atoms: C2_2  and  O2_4 
REMARK    2  A    between atoms: O2_4  and  C3_5 
REMARK    3  A    between atoms: C11_14  and  O4_15 
ROOT
HETATM    1  C3  UNL     1      29.042  59.358 -10.206  1.00  0.00     0.182 C 
HETATM    2  C4  UNL     1      28.388  58.305  -9.343  1.00  0.00     0.071 C 
HETATM    3  C5  UNL     1      27.454  57.522 -10.213  1.00  0.00     0.015 C 
HETATM    4  C6  UNL     1      27.350  58.385 -11.469  1.00  0.00    -0.029 C 
HETATM    5  C7  UNL     1      26.866  57.622 -12.650  1.00  0.00     0.016 C 
HETATM    6  C8  UNL     1      26.504  59.568 -11.121  1.00  0.00     0.050 C 
HETATM    7  C9  UNL     1      27.398  60.777 -11.015  1.00  0.00     0.087 C 
HETATM    8  C10 UNL     1      26.562  61.960 -10.642  1.00  0.00     0.049 C 
HETATM    9  O3  UNL     1      28.378  60.570 -10.079  1.00  0.00    -0.341 OA
HETATM   10  C11 UNL     1      27.966  61.028 -12.405  1.00  0.00     0.153 C 
HETATM   11  C12 UNL     1      28.963  59.902 -12.657  1.00  0.00     0.050 C 
HETATM   12  C13 UNL     1      28.799  58.838 -11.601  1.00  0.00     0.023 C 
HETATM   13  C14 UNL     1      29.704  57.693 -11.956  1.00  0.00     0.022 C 
ENDROOT
BRANCH   1  14
HETATM   14  O2  UNL     1      30.410  59.441  -9.893  1.00  0.00    -0.283 OA
BRANCH  14  15
HETATM   15  C2  UNL     1      30.933  60.689  -9.598  1.00  0.00     0.257 C 
HETATM   16  C1  UNL     1      31.142  61.136  -8.174  1.00  0.00     0.126 C 
HETATM   17  O1  UNL     1      31.254  61.495 -10.500  1.00  0.00    -0.266 OA
ENDBRANCH  14  15
ENDBRANCH   1  14
BRANCH  10  18
HETATM   18  O4  UNL     1      28.550  62.267 -12.526  1.00  0.00    -0.393 OA
ATOM     19  H4  UNL     1      27.941  62.978 -12.362  1.00  0.00     0.210 HD
ENDBRANCH  10  18
TORSDOF 3
ENDMDL
