MODEL 1
REMARK VINA RESULT: -4.499487613      0.000      0.000
REMARK  2 active torsions:
REMARK  status: ('A' for Active; 'I' for Inactive)
REMARK    1  A    between atoms: O1_2  and  C2_3 
REMARK    2  A    between atoms: C4_5  and  N1_6 
ROOT
HETATM    1  N1  UNL     1      28.942  53.720  -4.100  1.00  0.00    -0.394 N 
HETATM    2  C5  UNL     1      29.278  55.069  -4.280  1.00  0.00     0.080 C 
HETATM    3  C6  UNL     1      30.724  55.131  -4.725  1.00  0.00     0.025 C 
HETATM    4  C7  UNL     1      31.249  53.819  -5.215  1.00  0.00     0.004 C 
HETATM    5  C8  UNL     1      30.263  52.947  -5.904  1.00  0.00     0.031 C 
HETATM    6  C9  UNL     1      28.892  52.936  -5.258  1.00  0.00     0.125 C 
HETATM    7  C10 UNL     1      27.978  53.601  -6.223  1.00  0.00     0.003 C 
HETATM    8  N2  UNL     1      27.219  52.861  -6.930  1.00  0.00    -0.404 N 
ATOM      9  H21 UNL     1      26.592  53.317  -7.592  1.00  0.00     0.155 HD
ATOM     10  H22 UNL     1      27.264  51.849  -6.810  1.00  0.00     0.155 HD
HETATM   11  C11 UNL     1      27.914  55.049  -6.395  1.00  0.00     0.056 C 
HETATM   12  C12 UNL     1      28.441  55.846  -5.243  1.00  0.00     0.031 C 
ENDROOT
BRANCH   1  13
HETATM   13  C4  UNL     1      28.338  53.317  -2.891  1.00  0.00     0.086 C 
HETATM   14  C3  UNL     1      29.173  52.440  -2.015  1.00  0.00     0.085 C 
HETATM   15  C2  UNL     1      29.415  52.972  -0.628  1.00  0.00     0.260 C 
HETATM   16  O2  UNL     1      29.555  54.352  -0.598  1.00  0.00    -0.361 OA
HETATM   17  C14 UNL     1      28.416  55.017  -1.010  1.00  0.00     0.173 C 
HETATM   18  C13 UNL     1      27.649  54.386  -2.103  1.00  0.00     0.051 C 
BRANCH  15  19
HETATM   19  O1  UNL     1      30.628  52.457  -0.183  1.00  0.00    -0.366 OA
HETATM   20  C1  UNL     1      30.450  51.859   1.050  1.00  0.00     0.204 C 
ENDBRANCH  15  19
ENDBRANCH   1  13
TORSDOF 2
ENDMDL
MODEL 2
REMARK VINA RESULT: -3.965182974      1.772      2.524
REMARK  2 active torsions:
REMARK  status: ('A' for Active; 'I' for Inactive)
REMARK    1  A    between atoms: O1_2  and  C2_3 
REMARK    2  A    between atoms: C4_5  and  N1_6 
ROOT
HETATM    1  N1  UNL     1      29.031  53.432  -4.493  1.00  0.00    -0.394 N 
HETATM    2  C5  UNL     1      30.369  53.483  -4.080  1.00  0.00     0.080 C 
HETATM    3  C6  UNL     1      30.860  52.059  -3.921  1.00  0.00     0.025 C 
HETATM    4  C7  UNL     1      29.981  51.052  -4.592  1.00  0.00     0.004 C 
HETATM    5  C8  UNL     1      29.314  51.507  -5.839  1.00  0.00     0.031 C 
HETATM    6  C9  UNL     1      28.799  52.932  -5.780  1.00  0.00     0.125 C 
HETATM    7  C10 UNL     1      29.634  53.709  -6.732  1.00  0.00     0.003 C 
HETATM    8  N2  UNL     1      29.132  53.992  -7.869  1.00  0.00    -0.404 N 
ATOM      9  H21 UNL     1      29.705  54.526  -8.522  1.00  0.00     0.155 HD
ATOM     10  H22 UNL     1      28.186  53.678  -8.084  1.00  0.00     0.155 HD
HETATM   11  C11 UNL     1      30.988  54.159  -6.425  1.00  0.00     0.056 C 
HETATM   12  C12 UNL     1      31.317  54.225  -4.966  1.00  0.00     0.031 C 
ENDROOT
BRANCH   1  13
HETATM   13  C4  UNL     1      28.067  54.187  -3.795  1.00  0.00     0.086 C 
HETATM   14  C3  UNL     1      28.050  53.997  -2.313  1.00  0.00     0.085 C 
HETATM   15  C2  UNL     1      28.252  55.253  -1.507  1.00  0.00     0.260 C 
HETATM   16  O2  UNL     1      29.138  56.137  -2.105  1.00  0.00    -0.361 OA
HETATM   17  C14 UNL     1      28.694  56.600  -3.328  1.00  0.00     0.173 C 
HETATM   18  C13 UNL     1      27.957  55.632  -4.165  1.00  0.00     0.051 C 
BRANCH  15  19
HETATM   19  O1  UNL     1      28.832  54.892  -0.296  1.00  0.00    -0.366 OA
HETATM   20  C1  UNL     1      27.878  54.931   0.702  1.00  0.00     0.204 C 
ENDBRANCH  15  19
ENDBRANCH   1  13
TORSDOF 2
ENDMDL
MODEL 3
REMARK VINA RESULT: -3.918054370      1.064      1.560
REMARK  2 active torsions:
REMARK  status: ('A' for Active; 'I' for Inactive)
REMARK    1  A    between atoms: O1_2  and  C2_3 
REMARK    2  A    between atoms: C4_5  and  N1_6 
ROOT
HETATM    1  N1  UNL     1      28.942  53.636  -3.805  1.00  0.00    -0.394 N 
HETATM    2  C5  UNL     1      28.259  54.443  -4.724  1.00  0.00     0.080 C 
HETATM    3  C6  UNL     1      29.166  55.598  -5.092  1.00  0.00     0.025 C 
HETATM    4  C7  UNL     1      30.596  55.368  -4.721  1.00  0.00     0.004 C 
HETATM    5  C8  UNL     1      31.065  53.961  -4.799  1.00  0.00     0.031 C 
HETATM    6  C9  UNL     1      30.057  52.946  -4.297  1.00  0.00     0.125 C 
HETATM    7  C10 UNL     1      29.627  52.170  -5.488  1.00  0.00     0.003 C 
HETATM    8  N2  UNL     1      30.125  51.008  -5.652  1.00  0.00    -0.404 N 
ATOM      9  H21 UNL     1      29.830  50.475  -6.470  1.00  0.00     0.155 HD
ATOM     10  H22 UNL     1      30.795  50.656  -4.969  1.00  0.00     0.155 HD
HETATM   11  C11 UNL     1      28.669  52.673  -6.467  1.00  0.00     0.056 C 
HETATM   12  C12 UNL     1      27.788  53.779  -5.978  1.00  0.00     0.031 C 
ENDROOT
BRANCH   1  13
HETATM   13  C4  UNL     1      28.306  53.276  -2.600  1.00  0.00     0.086 C 
HETATM   14  C3  UNL     1      29.103  52.400  -1.687  1.00  0.00     0.085 C 
HETATM   15  C2  UNL     1      29.331  52.959  -0.307  1.00  0.00     0.260 C 
HETATM   16  O2  UNL     1      29.502  54.336  -0.307  1.00  0.00    -0.361 OA
HETATM   17  C14 UNL     1      28.387  55.016  -0.756  1.00  0.00     0.173 C 
HETATM   18  C13 UNL     1      27.627  54.378  -1.850  1.00  0.00     0.051 C 
BRANCH  15  19
HETATM   19  O1  UNL     1      30.522  52.426   0.173  1.00  0.00    -0.366 OA
HETATM   20  C1  UNL     1      30.258  51.605   1.252  1.00  0.00     0.204 C 
ENDBRANCH  15  19
ENDBRANCH   1  13
TORSDOF 2
ENDMDL
MODEL 4
REMARK VINA RESULT: -3.635278935      1.910      3.187
REMARK  2 active torsions:
REMARK  status: ('A' for Active; 'I' for Inactive)
REMARK    1  A    between atoms: O1_2  and  C2_3 
REMARK    2  A    between atoms: C4_5  and  N1_6 
ROOT
HETATM    1  N1  UNL     1      28.955  53.813  -4.858  1.00  0.00    -0.394 N 
HETATM    2  C5  UNL     1      28.660  53.105  -6.030  1.00  0.00     0.080 C 
HETATM    3  C6  UNL     1      29.538  53.650  -7.136  1.00  0.00     0.025 C 
HETATM    4  C7  UNL     1      30.692  54.457  -6.632  1.00  0.00     0.004 C 
HETATM    5  C8  UNL     1      31.264  54.022  -5.332  1.00  0.00     0.031 C 
HETATM    6  C9  UNL     1      30.226  53.601  -4.310  1.00  0.00     0.125 C 
HETATM    7  C10 UNL     1      30.406  52.138  -4.122  1.00  0.00     0.003 C 
HETATM    8  N2  UNL     1      31.020  51.744  -3.077  1.00  0.00    -0.404 N 
ATOM      9  H21 UNL     1      31.144  50.740  -2.948  1.00  0.00     0.155 HD
ATOM     10  H22 UNL     1      31.365  52.439  -2.415  1.00  0.00     0.155 HD
HETATM   11  C11 UNL     1      29.912  51.143  -5.070  1.00  0.00     0.056 C 
HETATM   12  C12 UNL     1      28.819  51.619  -5.973  1.00  0.00     0.031 C 
ENDROOT
BRANCH   1  13
HETATM   13  C4  UNL     1      27.902  54.384  -4.115  1.00  0.00     0.086 C 
HETATM   14  C3  UNL     1      28.024  54.266  -2.630  1.00  0.00     0.085 C 
HETATM   15  C2  UNL     1      28.008  55.575  -1.885  1.00  0.00     0.260 C 
HETATM   16  O2  UNL     1      28.646  56.594  -2.576  1.00  0.00    -0.361 OA
HETATM   17  C14 UNL     1      28.034  56.894  -3.778  1.00  0.00     0.173 C 
HETATM   18  C13 UNL     1      27.465  55.754  -4.524  1.00  0.00     0.051 C 
BRANCH  15  19
HETATM   19  O1  UNL     1      28.730  55.401  -0.709  1.00  0.00    -0.366 OA
HETATM   20  C1  UNL     1      27.962  54.707   0.206  1.00  0.00     0.204 C 
ENDBRANCH  15  19
ENDBRANCH   1  13
TORSDOF 2
ENDMDL
MODEL 5
REMARK VINA RESULT: -3.606530103      2.159      3.850
REMARK  2 active torsions:
REMARK  status: ('A' for Active; 'I' for Inactive)
REMARK    1  A    between atoms: O1_2  and  C2_3 
REMARK    2  A    between atoms: C4_5  and  N1_6 
ROOT
HETATM    1  N1  UNL     1      29.458  54.126  -4.418  1.00  0.00    -0.394 N 
HETATM    2  C5  UNL     1      28.975  52.845  -4.713  1.00  0.00     0.080 C 
HETATM    3  C6  UNL     1      27.957  52.977  -5.827  1.00  0.00     0.025 C 
HETATM    4  C7  UNL     1      28.033  54.287  -6.544  1.00  0.00     0.004 C 
HETATM    5  C8  UNL     1      29.389  54.882  -6.659  1.00  0.00     0.031 C 
HETATM    6  C9  UNL     1      30.235  54.738  -5.410  1.00  0.00     0.125 C 
HETATM    7  C10 UNL     1      31.338  53.809  -5.766  1.00  0.00     0.003 C 
HETATM    8  N2  UNL     1      32.484  54.312  -6.008  1.00  0.00    -0.404 N 
ATOM      9  H21 UNL     1      33.241  53.674  -6.252  1.00  0.00     0.155 HD
ATOM     10  H22 UNL     1      32.602  55.323  -5.950  1.00  0.00     0.155 HD
HETATM   11  C11 UNL     1      31.169  52.362  -5.849  1.00  0.00     0.056 C 
HETATM   12  C12 UNL     1      29.990  51.819  -5.104  1.00  0.00     0.031 C 
ENDROOT
BRANCH   1  13
HETATM   13  C4  UNL     1      29.462  54.569  -3.080  1.00  0.00     0.086 C 
HETATM   14  C3  UNL     1      29.165  56.019  -2.880  1.00  0.00     0.085 C 
HETATM   15  C2  UNL     1      27.986  56.311  -1.989  1.00  0.00     0.260 C 
HETATM   16  O2  UNL     1      26.963  55.384  -2.131  1.00  0.00    -0.361 OA
HETATM   17  C14 UNL     1      27.341  54.106  -1.768  1.00  0.00     0.173 C 
HETATM   18  C13 UNL     1      28.727  53.716  -2.095  1.00  0.00     0.051 C 
BRANCH  15  19
HETATM   19  O1  UNL     1      27.451  57.533  -2.381  1.00  0.00    -0.366 OA
HETATM   20  C1  UNL     1      26.309  57.793  -1.647  1.00  0.00     0.204 C 
ENDBRANCH  15  19
ENDBRANCH   1  13
TORSDOF 2
ENDMDL
