MODEL 1
REMARK VINA RESULT: -5.128040360      0.000      0.000
REMARK  2 active torsions:
REMARK  status: ('A' for Active; 'I' for Inactive)
REMARK    1  A    between atoms: C5_8  and  C6_9 
REMARK    2  A    between atoms: C6_9  and  O4_10 
ROOT
HETATM    1  C1  UNL     1      27.419  54.018  -0.031  1.00  0.00     0.040 C 
HETATM    2  C2  UNL     1      28.628  54.316  -0.926  1.00  0.00     0.135 C 
HETATM    3  O1  UNL     1      29.652  53.375  -0.635  1.00  0.00    -0.314 OA
HETATM    4  C3  UNL     1      30.048  52.737  -1.817  1.00  0.00     0.289 C 
HETATM    5  O2  UNL     1      31.139  52.226  -2.112  1.00  0.00    -0.262 OA
HETATM    6  C4  UNL     1      28.845  52.795  -2.693  1.00  0.00     0.229 C 
HETATM    7  O3  UNL     1      29.058  52.506  -3.984  1.00  0.00    -0.362 OA
HETATM    8  C5  UNL     1      29.402  53.509  -4.832  1.00  0.00     0.084 C 
HETATM    9  C7  UNL     1      28.231  53.840  -5.713  1.00  0.00     0.040 C 
HETATM   10  C8  UNL     1      27.645  55.183  -5.512  1.00  0.00     0.004 C 
HETATM   11  C9  UNL     1      27.642  55.719  -4.140  1.00  0.00     0.010 C 
HETATM   12  C10 UNL     1      28.769  55.244  -3.260  1.00  0.00    -0.032 C 
HETATM   13  C11 UNL     1      29.332  56.435  -2.499  1.00  0.00     0.016 C 
HETATM   14  C12 UNL     1      29.880  54.766  -4.170  1.00  0.00     0.050 C 
HETATM   15  C13 UNL     1      28.293  54.148  -2.380  1.00  0.00     0.062 C 
ENDROOT
BRANCH   8  16
HETATM   16  C6  UNL     1      30.586  52.992  -5.667  1.00  0.00     0.202 C 
BRANCH  16  17
HETATM   17  O4  UNL     1      30.262  51.782  -6.279  1.00  0.00    -0.398 OA
ATOM     18  H4  UNL     1      31.049  51.328  -6.558  1.00  0.00     0.209 HD
ENDBRANCH  16  17
ENDBRANCH   8  16
TORSDOF 2
ENDMDL
MODEL 2
REMARK VINA RESULT: -4.697927668      1.533      4.107
REMARK  2 active torsions:
REMARK  status: ('A' for Active; 'I' for Inactive)
REMARK    1  A    between atoms: C5_8  and  C6_9 
REMARK    2  A    between atoms: C6_9  and  O4_10 
ROOT
HETATM    1  C1  UNL     1      31.271  54.092  -5.826  1.00  0.00     0.040 C 
HETATM    2  C2  UNL     1      29.934  53.707  -5.180  1.00  0.00     0.135 C 
HETATM    3  O1  UNL     1      30.135  52.560  -4.367  1.00  0.00    -0.314 OA
HETATM    4  C3  UNL     1      29.678  52.823  -3.069  1.00  0.00     0.289 C 
HETATM    5  O2  UNL     1      29.249  52.040  -2.210  1.00  0.00    -0.262 OA
HETATM    6  C4  UNL     1      29.817  54.298  -2.918  1.00  0.00     0.229 C 
HETATM    7  O3  UNL     1      29.178  54.831  -1.867  1.00  0.00    -0.362 OA
HETATM    8  C5  UNL     1      27.888  55.229  -2.017  1.00  0.00     0.084 C 
HETATM    9  C7  UNL     1      27.833  56.730  -2.058  1.00  0.00     0.040 C 
HETATM   10  C8  UNL     1      27.408  57.314  -3.348  1.00  0.00     0.004 C 
HETATM   11  C9  UNL     1      27.820  56.611  -4.576  1.00  0.00     0.010 C 
HETATM   12  C10 UNL     1      27.990  55.120  -4.438  1.00  0.00    -0.032 C 
HETATM   13  C11 UNL     1      27.343  54.440  -5.635  1.00  0.00     0.016 C 
HETATM   14  C12 UNL     1      27.192  54.685  -3.228  1.00  0.00     0.050 C 
HETATM   15  C13 UNL     1      29.428  54.791  -4.273  1.00  0.00     0.062 C 
ENDROOT
BRANCH   8  16
HETATM   16  C6  UNL     1      27.117  54.686  -0.802  1.00  0.00     0.202 C 
BRANCH  16  17
HETATM   17  O4  UNL     1      26.880  55.702   0.122  1.00  0.00    -0.398 OA
ATOM     18  H4  UNL     1      26.193  56.281  -0.186  1.00  0.00     0.209 HD
ENDBRANCH  16  17
ENDBRANCH   8  16
TORSDOF 2
ENDMDL
MODEL 3
REMARK VINA RESULT: -4.630015915      2.147      4.757
REMARK  2 active torsions:
REMARK  status: ('A' for Active; 'I' for Inactive)
REMARK    1  A    between atoms: C5_8  and  C6_9 
REMARK    2  A    between atoms: C6_9  and  O4_10 
ROOT
HETATM    1  C1  UNL     1      27.665  53.209  -7.249  1.00  0.00     0.040 C 
HETATM    2  C2  UNL     1      28.538  54.131  -6.388  1.00  0.00     0.135 C 
HETATM    3  O1  UNL     1      28.000  55.444  -6.438  1.00  0.00    -0.314 OA
HETATM    4  C3  UNL     1      27.773  55.905  -5.135  1.00  0.00     0.289 C 
HETATM    5  O2  UNL     1      27.757  57.065  -4.699  1.00  0.00    -0.262 OA
HETATM    6  C4  UNL     1      27.544  54.668  -4.338  1.00  0.00     0.229 C 
HETATM    7  O3  UNL     1      27.588  54.823  -3.007  1.00  0.00    -0.362 OA
HETATM    8  C5  UNL     1      28.783  54.699  -2.373  1.00  0.00     0.084 C 
HETATM    9  C7  UNL     1      28.815  53.396  -1.626  1.00  0.00     0.040 C 
HETATM   10  C8  UNL     1      29.792  52.404  -2.123  1.00  0.00     0.004 C 
HETATM   11  C9  UNL     1      30.035  52.366  -3.575  1.00  0.00     0.010 C 
HETATM   12  C10 UNL     1      29.855  53.678  -4.293  1.00  0.00    -0.032 C 
HETATM   13  C11 UNL     1      31.012  53.870  -5.262  1.00  0.00     0.016 C 
HETATM   14  C12 UNL     1      29.987  54.777  -3.262  1.00  0.00     0.050 C 
HETATM   15  C13 UNL     1      28.523  53.716  -4.945  1.00  0.00     0.062 C 
ENDROOT
BRANCH   8  16
HETATM   16  C6  UNL     1      28.891  55.888  -1.403  1.00  0.00     0.202 C 
BRANCH  16  17
HETATM   17  O4  UNL     1      27.928  56.851  -1.699  1.00  0.00    -0.398 OA
ATOM     18  H4  UNL     1      27.192  56.781  -1.103  1.00  0.00     0.209 HD
ENDBRANCH  16  17
ENDBRANCH   8  16
TORSDOF 2
ENDMDL
MODEL 4
REMARK VINA RESULT: -4.179975078      2.311      3.562
REMARK  2 active torsions:
REMARK  status: ('A' for Active; 'I' for Inactive)
REMARK    1  A    between atoms: C5_8  and  C6_9 
REMARK    2  A    between atoms: C6_9  and  O4_10 
ROOT
HETATM    1  C1  UNL     1      28.965  55.789   0.934  1.00  0.00     0.040 C 
HETATM    2  C2  UNL     1      28.104  55.372  -0.265  1.00  0.00     0.135 C 
HETATM    3  O1  UNL     1      27.387  56.508  -0.727  1.00  0.00    -0.314 OA
HETATM    4  C3  UNL     1      27.635  56.692  -2.093  1.00  0.00     0.289 C 
HETATM    5  O2  UNL     1      26.925  57.222  -2.960  1.00  0.00    -0.262 OA
HETATM    6  C4  UNL     1      28.984  56.100  -2.309  1.00  0.00     0.229 C 
HETATM    7  O3  UNL     1      29.325  55.895  -3.589  1.00  0.00    -0.362 OA
HETATM    8  C5  UNL     1      28.998  54.714  -4.174  1.00  0.00     0.084 C 
HETATM    9  C7  UNL     1      30.237  53.877  -4.330  1.00  0.00     0.040 C 
HETATM   10  C8  UNL     1      30.273  52.641  -3.519  1.00  0.00     0.004 C 
HETATM   11  C9  UNL     1      29.642  52.688  -2.189  1.00  0.00     0.010 C 
HETATM   12  C10 UNL     1      28.489  53.648  -2.056  1.00  0.00    -0.032 C 
HETATM   13  C11 UNL     1      27.362  52.958  -1.303  1.00  0.00     0.016 C 
HETATM   14  C12 UNL     1      27.960  53.911  -3.449  1.00  0.00     0.050 C 
HETATM   15  C13 UNL     1      28.950  54.904  -1.415  1.00  0.00     0.062 C 
ENDROOT
BRANCH   8  16
HETATM   16  C6  UNL     1      28.392  55.055  -5.546  1.00  0.00     0.202 C 
BRANCH  16  17
HETATM   17  O4  UNL     1      27.094  55.540  -5.402  1.00  0.00    -0.398 OA
ATOM     18  H4  UNL     1      26.471  54.955  -5.815  1.00  0.00     0.209 HD
ENDBRANCH  16  17
ENDBRANCH   8  16
TORSDOF 2
ENDMDL
MODEL 5
REMARK VINA RESULT: -4.173780501      1.052      1.052
REMARK  2 active torsions:
REMARK  status: ('A' for Active; 'I' for Inactive)
REMARK    1  A    between atoms: C5_8  and  C6_9 
REMARK    2  A    between atoms: C6_9  and  O4_10 
ROOT
HETATM    1  C1  UNL     1      28.122  53.171  -0.270  1.00  0.00     0.040 C 
HETATM    2  C2  UNL     1      29.135  53.734  -1.274  1.00  0.00     0.135 C 
HETATM    3  O1  UNL     1      30.185  52.792  -1.438  1.00  0.00    -0.314 OA
HETATM    4  C3  UNL     1      30.334  52.490  -2.797  1.00  0.00     0.289 C 
HETATM    5  O2  UNL     1      31.340  52.115  -3.417  1.00  0.00    -0.262 OA
HETATM    6  C4  UNL     1      28.983  52.720  -3.379  1.00  0.00     0.229 C 
HETATM    7  O3  UNL     1      28.934  52.776  -4.718  1.00  0.00    -0.362 OA
HETATM    8  C5  UNL     1      29.117  53.975  -5.330  1.00  0.00     0.084 C 
HETATM    9  C7  UNL     1      27.798  54.471  -5.854  1.00  0.00     0.040 C 
HETATM   10  C8  UNL     1      27.279  55.694  -5.207  1.00  0.00     0.004 C 
HETATM   11  C9  UNL     1      27.551  55.865  -3.769  1.00  0.00     0.010 C 
HETATM   12  C10 UNL     1      28.824  55.228  -3.275  1.00  0.00    -0.032 C 
HETATM   13  C11 UNL     1      29.538  56.208  -2.357  1.00  0.00     0.016 C 
HETATM   14  C12 UNL     1      29.729  55.041  -4.473  1.00  0.00     0.050 C 
HETATM   15  C13 UNL     1      28.518  53.927  -2.630  1.00  0.00     0.062 C 
ENDROOT
BRANCH   8  16
HETATM   16  C6  UNL     1      30.107  53.733  -6.482  1.00  0.00     0.202 C 
BRANCH  16  17
HETATM   17  O4  UNL     1      29.533  54.081  -7.703  1.00  0.00    -0.398 OA
ATOM     18  H4  UNL     1      28.702  53.637  -7.821  1.00  0.00     0.209 HD
ENDBRANCH  16  17
ENDBRANCH   8  16
TORSDOF 2
ENDMDL
