MODEL 1
REMARK VINA RESULT: -9.026218051      0.000      0.000
REMARK  6 active torsions:
REMARK  status: ('A' for Active; 'I' for Inactive)
REMARK       I    between atoms: C1_2  and  N1_3 
REMARK       I    between atoms: C1_2  and  N2_10 
REMARK    1  A    between atoms: N1_3  and  C2_5 
REMARK    2  A    between atoms: N2_10  and  S1_12 
REMARK    3  A    between atoms: S1_12  and  N3_15 
REMARK    4  A    between atoms: C17_28  and  C18_29 
REMARK       I    between atoms: C18_29  and  N4_31 
REMARK    5  A    between atoms: N4_31  and  C19_33 
REMARK    6  A    between atoms: C27_43  and  O8_44 
ROOT
HETATM    1  N3  UNL     1      74.067  55.208  66.638  1.00  0.00    -0.210 N 
HETATM    2  C6  UNL     1      73.080  54.300  66.170  1.00  0.00     0.148 C 
HETATM    3  C7  UNL     1      73.407  53.279  65.173  1.00  0.00     0.021 C 
HETATM    4  C8  UNL     1      74.092  53.675  63.918  1.00  0.00     0.002 C 
HETATM    5  C9  UNL     1      73.172  53.698  62.696  1.00  0.00     0.000 C 
HETATM    6  C10 UNL     1      73.835  54.546  61.655  1.00  0.00     0.000 C 
HETATM    7  C11 UNL     1      72.887  55.438  60.890  1.00  0.00     0.000 C 
HETATM    8  C12 UNL     1      73.336  56.880  60.996  1.00  0.00     0.000 C 
HETATM    9  C13 UNL     1      72.231  57.774  61.502  1.00  0.00     0.000 C 
HETATM   10  C14 UNL     1      71.726  57.330  62.857  1.00  0.00     0.004 C 
HETATM   11  C15 UNL     1      72.785  57.500  63.929  1.00  0.00     0.054 C 
HETATM   12  C16 UNL     1      72.049  57.621  65.234  1.00  0.00     0.228 C 
HETATM   13  O5  UNL     1      71.527  58.883  65.221  1.00  0.00    -0.350 OA
HETATM   14  C17 UNL     1      71.835  59.499  66.367  1.00  0.00     0.233 C 
HETATM   15  C28 UNL     1      72.069  58.377  67.337  1.00  0.00     0.172 C 
HETATM   16  N6  UNL     1      72.802  57.438  66.415  1.00  0.00    -0.303 N 
HETATM   17  C29 UNL     1      73.925  56.621  66.687  1.00  0.00     0.337 C 
HETATM   18  O9  UNL     1      74.989  57.242  67.035  1.00  0.00    -0.246 OA
ENDROOT
BRANCH  14  19
HETATM   19  C18 UNL     1      70.791  60.457  66.752  1.00  0.00     0.248 C 
HETATM   20  O6  UNL     1      70.740  61.615  66.219  1.00  0.00    -0.271 OA
HETATM   21  N4  UNL     1      69.839  60.065  67.729  1.00  0.00    -0.350 N 
ATOM     22  H4  UNL     1      69.885  59.141  68.159  1.00  0.00     0.163 HD
BRANCH  21  23
HETATM   23  C19 UNL     1      68.803  61.001  68.103  1.00  0.00     0.131 C 
HETATM   24  C20 UNL     1      68.545  60.857  69.575  1.00  0.00     0.153 C 
HETATM   25  N5  UNL     1      67.401  61.630  70.029  1.00  0.00    -0.345 N 
HETATM   26  C21 UNL     1      67.186  62.031  71.355  1.00  0.00     0.220 C 
HETATM   27  C25 UNL     1      66.433  61.988  68.993  1.00  0.00     0.089 C 
HETATM   28  O7  UNL     1      67.796  61.403  72.275  1.00  0.00    -0.273 OA
HETATM   29  C22 UNL     1      66.276  63.154  71.713  1.00  0.00     0.103 C 
HETATM   30  C23 UNL     1      65.420  63.565  70.535  1.00  0.00     0.011 C 
HETATM   31  C24 UNL     1      65.139  62.299  69.717  1.00  0.00     0.026 C 
HETATM   32  C26 UNL     1      66.324  60.774  68.102  1.00  0.00     0.059 C 
HETATM   33  C27 UNL     1      67.569  60.743  67.251  1.00  0.00     0.144 C 
BRANCH  33  34
HETATM   34  O8  UNL     1      67.716  59.506  66.602  1.00  0.00    -0.393 OA
ATOM     35  H8  UNL     1      66.882  59.051  66.616  1.00  0.00     0.210 HD
ENDBRANCH  33  34
ENDBRANCH  21  23
ENDBRANCH  14  19
BRANCH   1  36
HETATM   36  S1  UNL     1      75.567  54.492  67.226  1.00  0.00     0.332 S 
HETATM   37  O3  UNL     1      75.400  53.009  67.273  1.00  0.00    -0.182 OA
HETATM   38  O4  UNL     1      76.653  54.730  66.172  1.00  0.00    -0.182 OA
BRANCH  36  39
HETATM   39  N2  UNL     1      76.117  55.079  68.679  1.00  0.00    -0.218 N 
HETATM   40  C1  UNL     1      75.509  54.875  69.950  1.00  0.00     0.331 C 
HETATM   41  O1  UNL     1      74.441  54.172  69.973  1.00  0.00    -0.246 OA
HETATM   42  N1  UNL     1      76.054  55.420  71.139  1.00  0.00    -0.336 N 
ATOM     43  H1  UNL     1      76.908  55.974  71.067  1.00  0.00     0.164 HD
ATOM     44  H2  UNL     1      76.970  55.639  68.658  1.00  0.00     0.185 HD
BRANCH  42  45
HETATM   45  C2  UNL     1      75.467  55.235  72.446  1.00  0.00     0.112 C 
HETATM   46  C3  UNL     1      76.285  55.932  73.518  1.00  0.00     0.053 C 
HETATM   47  C4  UNL     1      77.233  54.868  73.957  1.00  0.00     0.169 C 
HETATM   48  O2  UNL     1      76.960  53.729  73.209  1.00  0.00    -0.389 OA
HETATM   49  C5  UNL     1      75.610  53.783  72.882  1.00  0.00     0.192 C 
ENDBRANCH  42  45
ENDBRANCH  36  39
ENDBRANCH   1  36
TORSDOF 6
ENDMDL
MODEL 2
REMARK VINA RESULT: -8.531135719      4.649      9.288
REMARK  6 active torsions:
REMARK  status: ('A' for Active; 'I' for Inactive)
REMARK       I    between atoms: C1_2  and  N1_3 
REMARK       I    between atoms: C1_2  and  N2_10 
REMARK    1  A    between atoms: N1_3  and  C2_5 
REMARK    2  A    between atoms: N2_10  and  S1_12 
REMARK    3  A    between atoms: S1_12  and  N3_15 
REMARK    4  A    between atoms: C17_28  and  C18_29 
REMARK       I    between atoms: C18_29  and  N4_31 
REMARK    5  A    between atoms: N4_31  and  C19_33 
REMARK    6  A    between atoms: C27_43  and  O8_44 
ROOT
HETATM    1  N3  UNL     1      72.512  56.144  64.318  1.00  0.00    -0.210 N 
HETATM    2  C6  UNL     1      71.530  56.932  64.977  1.00  0.00     0.148 C 
HETATM    3  C7  UNL     1      71.112  58.225  64.434  1.00  0.00     0.021 C 
HETATM    4  C8  UNL     1      72.139  59.235  64.076  1.00  0.00     0.002 C 
HETATM    5  C9  UNL     1      72.249  60.383  65.081  1.00  0.00     0.000 C 
HETATM    6  C10 UNL     1      73.583  61.029  64.875  1.00  0.00     0.000 C 
HETATM    7  C11 UNL     1      74.276  61.436  66.153  1.00  0.00     0.000 C 
HETATM    8  C12 UNL     1      75.649  60.802  66.221  1.00  0.00     0.000 C 
HETATM    9  C13 UNL     1      75.846  60.028  67.502  1.00  0.00     0.000 C 
HETATM   10  C14 UNL     1      74.808  58.939  67.664  1.00  0.00     0.004 C 
HETATM   11  C15 UNL     1      74.968  57.858  66.613  1.00  0.00     0.054 C 
HETATM   12  C16 UNL     1      74.352  56.614  67.191  1.00  0.00     0.228 C 
HETATM   13  O5  UNL     1      75.258  56.176  68.115  1.00  0.00    -0.350 OA
HETATM   14  C17 UNL     1      75.506  54.879  67.911  1.00  0.00     0.233 C 
HETATM   15  C28 UNL     1      74.284  54.380  67.194  1.00  0.00     0.172 C 
HETATM   16  N6  UNL     1      74.058  55.565  66.292  1.00  0.00    -0.303 N 
HETATM   17  C29 UNL     1      73.665  55.586  64.932  1.00  0.00     0.337 C 
HETATM   18  O9  UNL     1      74.468  55.013  64.117  1.00  0.00    -0.246 OA
ENDROOT
BRANCH  14  19
HETATM   19  C18 UNL     1      75.821  54.192  69.169  1.00  0.00     0.248 C 
HETATM   20  O6  UNL     1      76.386  53.049  69.163  1.00  0.00    -0.271 OA
HETATM   21  N4  UNL     1      75.487  54.832  70.392  1.00  0.00    -0.350 N 
ATOM     22  H4  UNL     1      75.031  55.743  70.394  1.00  0.00     0.163 HD
BRANCH  21  23
HETATM   23  C19 UNL     1      75.807  54.164  71.634  1.00  0.00     0.131 C 
HETATM   24  C20 UNL     1      74.554  53.529  72.165  1.00  0.00     0.153 C 
HETATM   25  N5  UNL     1      74.721  52.974  73.497  1.00  0.00    -0.345 N 
HETATM   26  C21 UNL     1      73.904  51.980  74.055  1.00  0.00     0.220 C 
HETATM   27  C25 UNL     1      75.830  53.528  74.275  1.00  0.00     0.089 C 
HETATM   28  O7  UNL     1      72.754  51.801  73.549  1.00  0.00    -0.273 OA
HETATM   29  C22 UNL     1      74.339  51.141  75.204  1.00  0.00     0.103 C 
HETATM   30  C23 UNL     1      75.586  51.700  75.854  1.00  0.00     0.011 C 
HETATM   31  C24 UNL     1      75.516  53.227  75.726  1.00  0.00     0.026 C 
HETATM   32  C26 UNL     1      75.838  55.007  73.975  1.00  0.00     0.059 C 
HETATM   33  C27 UNL     1      76.422  55.171  72.595  1.00  0.00     0.144 C 
BRANCH  33  34
HETATM   34  O8  UNL     1      76.204  56.466  72.097  1.00  0.00    -0.393 OA
ATOM     35  H8  UNL     1      76.341  56.460  71.157  1.00  0.00     0.210 HD
ENDBRANCH  33  34
ENDBRANCH  21  23
ENDBRANCH  14  19
BRANCH   1  36
HETATM   36  S1  UNL     1      72.233  55.826  62.606  1.00  0.00     0.332 S 
HETATM   37  O3  UNL     1      70.804  56.125  62.293  1.00  0.00    -0.182 OA
HETATM   38  O4  UNL     1      73.033  56.851  61.795  1.00  0.00    -0.182 OA
BRANCH  36  39
HETATM   39  N2  UNL     1      72.656  54.307  62.085  1.00  0.00    -0.218 N 
HETATM   40  C1  UNL     1      72.136  53.076  62.577  1.00  0.00     0.331 C 
HETATM   41  O1  UNL     1      71.262  53.150  63.506  1.00  0.00    -0.246 OA
HETATM   42  N1  UNL     1      72.562  51.825  62.067  1.00  0.00    -0.336 N 
ATOM     43  H1  UNL     1      73.262  51.821  61.325  1.00  0.00     0.164 HD
ATOM     44  H2  UNL     1      73.353  54.251  61.342  1.00  0.00     0.185 HD
BRANCH  42  45
HETATM   45  C2  UNL     1      72.059  50.556  62.539  1.00  0.00     0.112 C 
HETATM   46  C3  UNL     1      72.898  50.026  63.688  1.00  0.00     0.053 C 
HETATM   47  C4  UNL     1      73.922  49.193  62.996  1.00  0.00     0.169 C 
HETATM   48  O2  UNL     1      73.668  49.265  61.631  1.00  0.00    -0.389 OA
HETATM   49  C5  UNL     1      72.300  49.476  61.493  1.00  0.00     0.192 C 
ENDBRANCH  42  45
ENDBRANCH  36  39
ENDBRANCH   1  36
TORSDOF 6
ENDMDL
MODEL 3
REMARK VINA RESULT: -8.498662459      4.409     10.056
REMARK  6 active torsions:
REMARK  status: ('A' for Active; 'I' for Inactive)
REMARK       I    between atoms: C1_2  and  N1_3 
REMARK       I    between atoms: C1_2  and  N2_10 
REMARK    1  A    between atoms: N1_3  and  C2_5 
REMARK    2  A    between atoms: N2_10  and  S1_12 
REMARK    3  A    between atoms: S1_12  and  N3_15 
REMARK    4  A    between atoms: C17_28  and  C18_29 
REMARK       I    between atoms: C18_29  and  N4_31 
REMARK    5  A    between atoms: N4_31  and  C19_33 
REMARK    6  A    between atoms: C27_43  and  O8_44 
ROOT
HETATM    1  N3  UNL     1      72.055  56.513  64.568  1.00  0.00    -0.210 N 
HETATM    2  C6  UNL     1      71.195  57.373  65.302  1.00  0.00     0.148 C 
HETATM    3  C7  UNL     1      70.819  58.689  64.781  1.00  0.00     0.021 C 
HETATM    4  C8  UNL     1      71.876  59.620  64.317  1.00  0.00     0.002 C 
HETATM    5  C9  UNL     1      72.157  60.766  65.290  1.00  0.00     0.000 C 
HETATM    6  C10 UNL     1      73.509  61.315  64.954  1.00  0.00     0.000 C 
HETATM    7  C11 UNL     1      74.343  61.683  66.158  1.00  0.00     0.000 C 
HETATM    8  C12 UNL     1      75.669  60.954  66.110  1.00  0.00     0.000 C 
HETATM    9  C13 UNL     1      75.928  60.179  67.379  1.00  0.00     0.000 C 
HETATM   10  C14 UNL     1      74.837  59.167  67.650  1.00  0.00     0.004 C 
HETATM   11  C15 UNL     1      74.825  58.068  66.606  1.00  0.00     0.054 C 
HETATM   12  C16 UNL     1      74.179  56.875  67.255  1.00  0.00     0.228 C 
HETATM   13  O5  UNL     1      75.134  56.383  68.099  1.00  0.00    -0.350 OA
HETATM   14  C17 UNL     1      75.272  55.070  67.892  1.00  0.00     0.233 C 
HETATM   15  C28 UNL     1      73.957  54.652  67.296  1.00  0.00     0.172 C 
HETATM   16  N6  UNL     1      73.733  55.843  66.402  1.00  0.00    -0.303 N 
HETATM   17  C29 UNL     1      73.219  55.880  65.083  1.00  0.00     0.337 C 
HETATM   18  O9  UNL     1      73.902  55.246  64.206  1.00  0.00    -0.246 OA
ENDROOT
BRANCH  14  19
HETATM   19  C18 UNL     1      75.653  54.373  69.126  1.00  0.00     0.248 C 
HETATM   20  O6  UNL     1      76.444  53.373  69.092  1.00  0.00    -0.271 OA
HETATM   21  N4  UNL     1      75.124  54.840  70.358  1.00  0.00    -0.350 N 
ATOM     22  H4  UNL     1      74.488  55.635  70.383  1.00  0.00     0.163 HD
BRANCH  21  23
HETATM   23  C19 UNL     1      75.507  54.163  71.577  1.00  0.00     0.131 C 
HETATM   24  C20 UNL     1      74.262  53.663  72.251  1.00  0.00     0.153 C 
HETATM   25  N5  UNL     1      74.513  53.115  73.573  1.00  0.00    -0.345 N 
HETATM   26  C21 UNL     1      73.667  52.215  74.237  1.00  0.00     0.220 C 
HETATM   27  C25 UNL     1      75.745  53.569  74.218  1.00  0.00     0.089 C 
HETATM   28  O7  UNL     1      72.458  52.142  73.856  1.00  0.00    -0.273 OA
HETATM   29  C22 UNL     1      74.137  51.355  75.357  1.00  0.00     0.103 C 
HETATM   30  C23 UNL     1      75.493  51.800  75.860  1.00  0.00     0.011 C 
HETATM   31  C24 UNL     1      75.557  53.323  75.701  1.00  0.00     0.026 C 
HETATM   32  C26 UNL     1      75.863  55.036  73.881  1.00  0.00     0.059 C 
HETATM   33  C27 UNL     1      76.314  55.120  72.445  1.00  0.00     0.144 C 
BRANCH  33  34
HETATM   34  O8  UNL     1      76.170  56.422  71.938  1.00  0.00    -0.393 OA
ATOM     35  H8  UNL     1      75.796  56.975  72.614  1.00  0.00     0.210 HD
ENDBRANCH  33  34
ENDBRANCH  21  23
ENDBRANCH  14  19
BRANCH   1  36
HETATM   36  S1  UNL     1      71.600  56.201  62.893  1.00  0.00     0.332 S 
HETATM   37  O3  UNL     1      71.312  54.744  62.742  1.00  0.00    -0.182 OA
HETATM   38  O4  UNL     1      70.258  56.894  62.629  1.00  0.00    -0.182 OA
BRANCH  36  39
HETATM   39  N2  UNL     1      72.686  56.720  61.750  1.00  0.00    -0.218 N 
HETATM   40  C1  UNL     1      72.544  56.593  60.339  1.00  0.00     0.331 C 
HETATM   41  O1  UNL     1      71.478  56.028  59.915  1.00  0.00    -0.246 OA
HETATM   42  N1  UNL     1      73.531  57.067  59.440  1.00  0.00    -0.336 N 
ATOM     43  H1  UNL     1      74.363  57.510  59.829  1.00  0.00     0.164 HD
ATOM     44  H2  UNL     1      73.536  57.171  62.091  1.00  0.00     0.185 HD
BRANCH  42  45
HETATM   45  C2  UNL     1      73.423  56.958  58.003  1.00  0.00     0.112 C 
HETATM   46  C3  UNL     1      74.786  56.770  57.363  1.00  0.00     0.053 C 
HETATM   47  C4  UNL     1      75.213  58.169  57.075  1.00  0.00     0.169 C 
HETATM   48  O2  UNL     1      74.199  59.015  57.510  1.00  0.00    -0.389 OA
HETATM   49  C5  UNL     1      73.013  58.298  57.407  1.00  0.00     0.192 C 
ENDBRANCH  42  45
ENDBRANCH  36  39
ENDBRANCH   1  36
TORSDOF 6
ENDMDL
MODEL 4
REMARK VINA RESULT: -8.452841936      4.891     10.168
REMARK  6 active torsions:
REMARK  status: ('A' for Active; 'I' for Inactive)
REMARK       I    between atoms: C1_2  and  N1_3 
REMARK       I    between atoms: C1_2  and  N2_10 
REMARK    1  A    between atoms: N1_3  and  C2_5 
REMARK    2  A    between atoms: N2_10  and  S1_12 
REMARK    3  A    between atoms: S1_12  and  N3_15 
REMARK    4  A    between atoms: C17_28  and  C18_29 
REMARK       I    between atoms: C18_29  and  N4_31 
REMARK    5  A    between atoms: N4_31  and  C19_33 
REMARK    6  A    between atoms: C27_43  and  O8_44 
ROOT
HETATM    1  N3  UNL     1      72.730  58.042  62.842  1.00  0.00    -0.210 N 
HETATM    2  C6  UNL     1      71.728  58.913  63.349  1.00  0.00     0.148 C 
HETATM    3  C7  UNL     1      71.671  60.317  62.938  1.00  0.00     0.021 C 
HETATM    4  C8  UNL     1      72.892  61.154  63.027  1.00  0.00     0.002 C 
HETATM    5  C9  UNL     1      72.882  62.135  64.202  1.00  0.00     0.000 C 
HETATM    6  C10 UNL     1      74.300  62.542  64.454  1.00  0.00     0.000 C 
HETATM    7  C11 UNL     1      74.658  62.659  65.916  1.00  0.00     0.000 C 
HETATM    8  C12 UNL     1      75.849  61.779  66.228  1.00  0.00     0.000 C 
HETATM    9  C13 UNL     1      75.565  60.835  67.371  1.00  0.00     0.000 C 
HETATM   10  C14 UNL     1      74.376  59.945  67.079  1.00  0.00     0.004 C 
HETATM   11  C15 UNL     1      74.665  58.985  65.941  1.00  0.00     0.054 C 
HETATM   12  C16 UNL     1      73.738  57.817  66.128  1.00  0.00     0.228 C 
HETATM   13  O5  UNL     1      74.275  57.112  67.168  1.00  0.00    -0.350 OA
HETATM   14  C17 UNL     1      74.379  55.825  66.823  1.00  0.00     0.233 C 
HETATM   15  C28 UNL     1      73.348  55.650  65.744  1.00  0.00     0.172 C 
HETATM   16  N6  UNL     1      73.559  56.955  65.024  1.00  0.00    -0.303 N 
HETATM   17  C29 UNL     1      73.571  57.211  63.631  1.00  0.00     0.337 C 
HETATM   18  O9  UNL     1      74.478  56.601  62.966  1.00  0.00    -0.246 OA
ENDROOT
BRANCH  14  19
HETATM   19  C18 UNL     1      74.225  54.947  67.989  1.00  0.00     0.248 C 
HETATM   20  O6  UNL     1      73.391  53.983  67.972  1.00  0.00    -0.271 OA
HETATM   21  N4  UNL     1      75.029  55.193  69.133  1.00  0.00    -0.350 N 
ATOM     22  H4  UNL     1      75.691  55.968  69.146  1.00  0.00     0.163 HD
BRANCH  21  23
HETATM   23  C19 UNL     1      74.889  54.324  70.279  1.00  0.00     0.131 C 
HETATM   24  C20 UNL     1      75.521  54.997  71.463  1.00  0.00     0.153 C 
HETATM   25  N5  UNL     1      75.590  54.138  72.633  1.00  0.00    -0.345 N 
HETATM   26  C21 UNL     1      75.717  54.597  73.952  1.00  0.00     0.220 C 
HETATM   27  C25 UNL     1      75.523  52.702  72.365  1.00  0.00     0.089 C 
HETATM   28  O7  UNL     1      76.158  55.774  74.134  1.00  0.00    -0.273 OA
HETATM   29  C22 UNL     1      75.354  53.760  75.128  1.00  0.00     0.103 C 
HETATM   30  C23 UNL     1      75.150  52.314  74.731  1.00  0.00     0.011 C 
HETATM   31  C24 UNL     1      76.118  52.020  73.579  1.00  0.00     0.026 C 
HETATM   32  C26 UNL     1      76.342  52.484  71.115  1.00  0.00     0.059 C 
HETATM   33  C27 UNL     1      75.510  52.972  69.956  1.00  0.00     0.144 C 
BRANCH  33  34
HETATM   34  O8  UNL     1      76.280  53.094  68.788  1.00  0.00    -0.393 OA
ATOM     35  H8  UNL     1      76.992  53.701  68.952  1.00  0.00     0.210 HD
ENDBRANCH  33  34
ENDBRANCH  21  23
ENDBRANCH  14  19
BRANCH   1  36
HETATM   36  S1  UNL     1      72.899  57.987  61.088  1.00  0.00     0.332 S 
HETATM   37  O3  UNL     1      71.666  58.564  60.473  1.00  0.00    -0.182 OA
HETATM   38  O4  UNL     1      74.022  58.951  60.689  1.00  0.00    -0.182 OA
BRANCH  36  39
HETATM   39  N2  UNL     1      73.245  56.494  60.451  1.00  0.00    -0.218 N 
HETATM   40  C1  UNL     1      73.378  56.182  59.068  1.00  0.00     0.331 C 
HETATM   41  O1  UNL     1      73.217  57.144  58.242  1.00  0.00    -0.246 OA
HETATM   42  N1  UNL     1      73.674  54.871  58.620  1.00  0.00    -0.336 N 
ATOM     43  H1  UNL     1      73.794  54.138  59.319  1.00  0.00     0.164 HD
ATOM     44  H2  UNL     1      73.374  55.728  61.113  1.00  0.00     0.185 HD
BRANCH  42  45
HETATM   45  C2  UNL     1      73.817  54.515  57.227  1.00  0.00     0.112 C 
HETATM   46  C3  UNL     1      73.756  53.011  57.035  1.00  0.00     0.053 C 
HETATM   47  C4  UNL     1      75.187  52.605  57.131  1.00  0.00     0.169 C 
HETATM   48  O2  UNL     1      75.936  53.756  57.351  1.00  0.00    -0.389 OA
HETATM   49  C5  UNL     1      75.238  54.802  56.758  1.00  0.00     0.192 C 
ENDBRANCH  42  45
ENDBRANCH  36  39
ENDBRANCH   1  36
TORSDOF 6
ENDMDL
MODEL 5
REMARK VINA RESULT: -8.449910626      5.265      7.375
REMARK  6 active torsions:
REMARK  status: ('A' for Active; 'I' for Inactive)
REMARK       I    between atoms: C1_2  and  N1_3 
REMARK       I    between atoms: C1_2  and  N2_10 
REMARK    1  A    between atoms: N1_3  and  C2_5 
REMARK    2  A    between atoms: N2_10  and  S1_12 
REMARK    3  A    between atoms: S1_12  and  N3_15 
REMARK    4  A    between atoms: C17_28  and  C18_29 
REMARK       I    between atoms: C18_29  and  N4_31 
REMARK    5  A    between atoms: N4_31  and  C19_33 
REMARK    6  A    between atoms: C27_43  and  O8_44 
ROOT
HETATM    1  N3  UNL     1      72.491  50.122  70.218  1.00  0.00    -0.210 N 
HETATM    2  C6  UNL     1      71.099  49.868  70.087  1.00  0.00     0.148 C 
HETATM    3  C7  UNL     1      70.598  48.512  69.853  1.00  0.00     0.021 C 
HETATM    4  C8  UNL     1      71.172  47.701  68.751  1.00  0.00     0.002 C 
HETATM    5  C9  UNL     1      70.258  47.589  67.529  1.00  0.00     0.000 C 
HETATM    6  C10 UNL     1      71.114  47.187  66.369  1.00  0.00     0.000 C 
HETATM    7  C11 UNL     1      70.762  47.878  65.073  1.00  0.00     0.000 C 
HETATM    8  C12 UNL     1      71.981  48.580  64.515  1.00  0.00     0.000 C 
HETATM    9  C13 UNL     1      71.710  50.039  64.240  1.00  0.00     0.000 C 
HETATM   10  C14 UNL     1      71.267  50.771  65.488  1.00  0.00     0.004 C 
HETATM   11  C15 UNL     1      72.380  50.844  66.515  1.00  0.00     0.054 C 
HETATM   12  C16 UNL     1      72.078  52.034  67.383  1.00  0.00     0.228 C 
HETATM   13  O5  UNL     1      72.401  53.115  66.612  1.00  0.00    -0.350 OA
HETATM   14  C17 UNL     1      73.192  53.935  67.311  1.00  0.00     0.233 C 
HETATM   15  C28 UNL     1      72.876  53.616  68.745  1.00  0.00     0.172 C 
HETATM   16  N6  UNL     1      72.758  52.120  68.617  1.00  0.00    -0.303 N 
HETATM   17  C29 UNL     1      73.215  51.113  69.501  1.00  0.00     0.337 C 
HETATM   18  O9  UNL     1      74.479  51.080  69.695  1.00  0.00    -0.246 OA
ENDROOT
BRANCH  14  19
HETATM   19  C18 UNL     1      72.988  55.334  66.918  1.00  0.00     0.248 C 
HETATM   20  O6  UNL     1      71.838  55.746  66.549  1.00  0.00    -0.271 OA
HETATM   21  N4  UNL     1      74.097  56.219  66.962  1.00  0.00    -0.350 N 
ATOM     22  H4  UNL     1      75.016  55.887  67.253  1.00  0.00     0.163 HD
BRANCH  21  23
HETATM   23  C19 UNL     1      73.897  57.601  66.587  1.00  0.00     0.131 C 
HETATM   24  C20 UNL     1      74.796  57.909  65.425  1.00  0.00     0.153 C 
HETATM   25  N5  UNL     1      74.804  59.319  65.072  1.00  0.00    -0.345 N 
HETATM   26  C21 UNL     1      75.180  59.826  63.820  1.00  0.00     0.220 C 
HETATM   27  C25 UNL     1      74.386  60.235  66.134  1.00  0.00     0.089 C 
HETATM   28  O7  UNL     1      75.892  59.090  63.069  1.00  0.00    -0.273 OA
HETATM   29  C22 UNL     1      74.776  61.180  63.352  1.00  0.00     0.103 C 
HETATM   30  C23 UNL     1      74.208  62.007  64.485  1.00  0.00     0.011 C 
HETATM   31  C24 UNL     1      74.947  61.592  65.762  1.00  0.00     0.026 C 
HETATM   32  C26 UNL     1      74.986  59.685  67.405  1.00  0.00     0.059 C 
HETATM   33  C27 UNL     1      74.158  58.487  67.797  1.00  0.00     0.144 C 
BRANCH  33  34
HETATM   34  O8  UNL     1      74.797  57.724  68.789  1.00  0.00    -0.393 OA
ATOM     35  H8  UNL     1      75.556  57.299  68.407  1.00  0.00     0.210 HD
ENDBRANCH  33  34
ENDBRANCH  21  23
ENDBRANCH  14  19
BRANCH   1  36
HETATM   36  S1  UNL     1      73.356  49.132  71.392  1.00  0.00     0.332 S 
HETATM   37  O3  UNL     1      72.359  48.496  72.305  1.00  0.00    -0.182 OA
HETATM   38  O4  UNL     1      74.001  47.961  70.643  1.00  0.00    -0.182 OA
BRANCH  36  39
HETATM   39  N2  UNL     1      74.541  49.916  72.251  1.00  0.00    -0.218 N 
HETATM   40  C1  UNL     1      74.366  51.081  73.051  1.00  0.00     0.331 C 
HETATM   41  O1  UNL     1      73.184  51.565  73.113  1.00  0.00    -0.246 OA
HETATM   42  N1  UNL     1      75.443  51.680  73.748  1.00  0.00    -0.336 N 
ATOM     43  H1  UNL     1      76.366  51.255  73.666  1.00  0.00     0.164 HD
ATOM     44  H2  UNL     1      75.482  49.526  72.201  1.00  0.00     0.185 HD
BRANCH  42  45
HETATM   45  C2  UNL     1      75.306  52.861  74.570  1.00  0.00     0.112 C 
HETATM   46  C3  UNL     1      75.565  54.122  73.765  1.00  0.00     0.053 C 
HETATM   47  C4  UNL     1      77.027  54.343  73.954  1.00  0.00     0.169 C 
HETATM   48  O2  UNL     1      77.504  53.319  74.765  1.00  0.00    -0.389 OA
HETATM   49  C5  UNL     1      76.445  52.931  75.578  1.00  0.00     0.192 C 
ENDBRANCH  42  45
ENDBRANCH  36  39
ENDBRANCH   1  36
TORSDOF 6
ENDMDL
