MODEL 1
REMARK VINA RESULT: -7.535060021      0.000      0.000
REMARK  5 active torsions:
REMARK  status: ('A' for Active; 'I' for Inactive)
REMARK    1  A    between atoms: N2_5  and  C4_6 
REMARK    2  A    between atoms: C4_6  and  C5_7 
REMARK    3  A    between atoms: C4_6  and  C6_10 
REMARK    4  A    between atoms: C6_10  and  C7_11 
REMARK    5  A    between atoms: C8_12  and  O3_13 
ROOT
HETATM    1  C6  UNL     1      74.188  55.595  66.510  1.00  0.00     0.110 C 
HETATM    2  C9  UNL     1      73.556  56.450  67.527  1.00  0.00     0.030 C 
HETATM    3  C10 UNL     1      74.079  57.757  67.904  1.00  0.00     0.002 C 
HETATM    4  C11 UNL     1      74.865  58.565  66.960  1.00  0.00     0.001 C 
HETATM    5  C12 UNL     1      74.066  59.757  66.407  1.00  0.00     0.010 C 
HETATM    6  C13 UNL     1      73.902  59.447  64.910  1.00  0.00     0.049 C 
HETATM    7  C14 UNL     1      72.983  58.258  64.831  1.00  0.00     0.134 C 
HETATM    8  N3  UNL     1      73.774  57.119  64.412  1.00  0.00    -0.342 N 
HETATM    9  C15 UNL     1      74.254  57.329  63.017  1.00  0.00     0.228 C 
HETATM   10  C16 UNL     1      73.153  56.890  62.120  1.00  0.00     0.235 C 
HETATM   11  O4  UNL     1      72.028  56.505  62.527  1.00  0.00    -0.272 OA
HETATM   12  N4  UNL     1      73.386  56.906  60.702  1.00  0.00    -0.360 N 
ATOM     13  H4  UNL     1      72.598  56.843  60.058  1.00  0.00     0.162 HD
HETATM   14  C17 UNL     1      74.731  57.011  60.186  1.00  0.00     0.122 C 
HETATM   15  C18 UNL     1      74.736  56.659  58.721  1.00  0.00     0.022 C 
HETATM   16  C19 UNL     1      75.489  57.740  57.957  1.00  0.00     0.028 C 
HETATM   17  C20 UNL     1      75.053  57.740  56.523  1.00  0.00     0.167 C 
HETATM   18  O5  UNL     1      75.056  59.080  56.084  1.00  0.00    -0.391 OA
HETATM   19  C21 UNL     1      73.790  59.658  56.245  1.00  0.00     0.167 C 
HETATM   20  C22 UNL     1      73.869  60.959  57.001  1.00  0.00     0.026 C 
HETATM   21  C23 UNL     1      72.964  60.872  58.209  1.00  0.00     0.002 C 
HETATM   22  C24 UNL     1      72.817  62.238  58.797  1.00  0.00     0.000 C 
HETATM   23  C25 UNL     1      72.121  62.264  60.120  1.00  0.00     0.002 C 
HETATM   24  C26 UNL     1      72.478  61.068  60.981  1.00  0.00     0.026 C 
HETATM   25  C27 UNL     1      72.060  61.325  62.406  1.00  0.00     0.169 C 
HETATM   26  O6  UNL     1      72.472  60.303  63.213  1.00  0.00    -0.368 OA
HETATM   27  C28 UNL     1      73.387  60.653  64.171  1.00  0.00     0.162 A 
HETATM   28  C29 UNL     1      74.483  61.598  63.787  1.00  0.00     0.171 A 
HETATM   29  N5  UNL     1      74.064  62.591  64.739  1.00  0.00    -0.355 N 
ATOM     30  H5  UNL     1      74.416  63.497  65.046  1.00  0.00     0.162 HD
HETATM   31  C30 UNL     1      72.954  61.772  65.066  1.00  0.00     0.254 A 
HETATM   32  O7  UNL     1      71.971  61.918  65.819  1.00  0.00    -0.270 OA
HETATM   33  C31 UNL     1      74.095  55.964  65.099  1.00  0.00     0.239 C 
HETATM   34  O8  UNL     1      74.381  54.982  64.306  1.00  0.00    -0.272 OA
ENDROOT
BRANCH   1  35
HETATM   35  C4  UNL     1      73.654  54.198  66.765  1.00  0.00     0.110 C 
BRANCH  35  36
HETATM   36  N2  UNL     1      74.090  53.574  67.982  1.00  0.00    -0.354 N 
HETATM   37  C3  UNL     1      73.906  52.126  67.890  1.00  0.00     0.158 C 
HETATM   38  C2  UNL     1      73.390  51.503  69.140  1.00  0.00     0.292 C 
HETATM   39  N1  UNL     1      74.371  51.892  70.169  1.00  0.00     0.090 N 
HETATM   40  C1  UNL     1      74.123  51.111  71.342  1.00  0.00     0.310 C 
HETATM   41  C33 UNL     1      74.130  53.265  70.423  1.00  0.00     0.316 C 
HETATM   42  C32 UNL     1      73.757  54.109  69.223  1.00  0.00     0.094 C 
ENDBRANCH  35  36
BRANCH  35  43
HETATM   43  C5  UNL     1      72.260  53.943  66.441  1.00  0.00     0.224 C 
HETATM   44  O1  UNL     1      71.892  53.310  65.398  1.00  0.00    -0.643 OA
HETATM   45  O2  UNL     1      71.220  54.368  67.233  1.00  0.00    -0.643 OA
ENDBRANCH  35  43
ENDBRANCH   1  35
BRANCH   1  46
HETATM   46  C7  UNL     1      75.688  55.445  66.756  1.00  0.00     0.023 C 
HETATM   47  C8  UNL     1      76.340  54.409  66.267  1.00  0.00     0.129 C 
BRANCH  47  48
HETATM   48  O3  UNL     1      77.703  54.265  66.486  1.00  0.00    -0.373 OA
ATOM     49  H3  UNL     1      78.226  53.702  65.927  1.00  0.00     0.216 HD
ENDBRANCH  47  48
ENDBRANCH   1  46
TORSDOF 5
ENDMDL
MODEL 2
REMARK VINA RESULT: -7.272462266      5.143     12.322
REMARK  5 active torsions:
REMARK  status: ('A' for Active; 'I' for Inactive)
REMARK    1  A    between atoms: N2_5  and  C4_6 
REMARK    2  A    between atoms: C4_6  and  C5_7 
REMARK    3  A    between atoms: C4_6  and  C6_10 
REMARK    4  A    between atoms: C6_10  and  C7_11 
REMARK    5  A    between atoms: C8_12  and  O3_13 
ROOT
HETATM    1  C6  UNL     1      73.871  53.093  66.965  1.00  0.00     0.110 C 
HETATM    2  C9  UNL     1      75.150  53.805  67.101  1.00  0.00     0.030 C 
HETATM    3  C10 UNL     1      75.340  54.935  68.002  1.00  0.00     0.002 C 
HETATM    4  C11 UNL     1      74.530  55.084  69.220  1.00  0.00     0.001 C 
HETATM    5  C12 UNL     1      75.327  54.758  70.493  1.00  0.00     0.010 C 
HETATM    6  C13 UNL     1      74.658  53.492  71.051  1.00  0.00     0.049 C 
HETATM    7  C14 UNL     1      74.971  52.392  70.074  1.00  0.00     0.134 C 
HETATM    8  N3  UNL     1      73.744  52.061  69.377  1.00  0.00    -0.342 N 
HETATM    9  C15 UNL     1      72.772  51.462  70.333  1.00  0.00     0.228 C 
HETATM   10  C16 UNL     1      73.105  50.017  70.425  1.00  0.00     0.235 C 
HETATM   11  O4  UNL     1      74.084  49.485  69.845  1.00  0.00    -0.272 OA
HETATM   12  N4  UNL     1      72.258  49.175  71.224  1.00  0.00    -0.360 N 
ATOM     13  H4  UNL     1      72.580  48.247  71.501  1.00  0.00     0.162 HD
HETATM   14  C17 UNL     1      70.953  49.636  71.638  1.00  0.00     0.122 C 
HETATM   15  C18 UNL     1      70.146  48.470  72.148  1.00  0.00     0.022 C 
HETATM   16  C19 UNL     1      69.539  48.844  73.494  1.00  0.00     0.028 C 
HETATM   17  C20 UNL     1      69.226  47.598  74.268  1.00  0.00     0.167 C 
HETATM   18  O5  UNL     1      69.471  47.878  75.628  1.00  0.00    -0.391 OA
HETATM   19  C21 UNL     1      70.776  47.512  75.983  1.00  0.00     0.167 C 
HETATM   20  C22 UNL     1      71.503  48.647  76.657  1.00  0.00     0.026 C 
HETATM   21  C23 UNL     1      72.778  48.926  75.892  1.00  0.00     0.002 C 
HETATM   22  C24 UNL     1      73.633  49.842  76.706  1.00  0.00     0.000 C 
HETATM   23  C25 UNL     1      74.829  50.371  75.979  1.00  0.00     0.002 C 
HETATM   24  C26 UNL     1      74.536  50.653  74.518  1.00  0.00     0.026 C 
HETATM   25  C27 UNL     1      75.629  51.512  73.938  1.00  0.00     0.169 C 
HETATM   26  O6  UNL     1      75.323  51.864  72.654  1.00  0.00    -0.368 OA
HETATM   27  C28 UNL     1      75.141  53.207  72.449  1.00  0.00     0.162 A 
HETATM   28  C29 UNL     1      74.385  53.981  73.483  1.00  0.00     0.171 A 
HETATM   29  N5  UNL     1      75.507  54.831  73.776  1.00  0.00    -0.355 N 
ATOM     30  H5  UNL     1      75.669  55.640  74.375  1.00  0.00     0.162 HD
HETATM   31  C30 UNL     1      76.291  54.064  72.878  1.00  0.00     0.254 A 
HETATM   32  O7  UNL     1      77.495  54.085  72.556  1.00  0.00    -0.270 OA
HETATM   33  C31 UNL     1      73.413  52.222  68.045  1.00  0.00     0.239 C 
HETATM   34  O8  UNL     1      72.478  51.410  67.669  1.00  0.00    -0.272 OA
ENDROOT
BRANCH   1  35
HETATM   35  C4  UNL     1      73.955  52.355  65.642  1.00  0.00     0.110 C 
BRANCH  35  36
HETATM   36  N2  UNL     1      73.386  53.033  64.511  1.00  0.00    -0.354 N 
HETATM   37  C3  UNL     1      72.664  52.077  63.672  1.00  0.00     0.158 C 
HETATM   38  C2  UNL     1      72.860  52.289  62.211  1.00  0.00     0.292 C 
HETATM   39  N1  UNL     1      72.435  53.683  61.988  1.00  0.00     0.090 N 
HETATM   40  C1  UNL     1      72.314  53.894  60.579  1.00  0.00     0.310 C 
HETATM   41  C33 UNL     1      73.471  54.486  62.527  1.00  0.00     0.316 C 
HETATM   42  C32 UNL     1      74.121  53.974  63.793  1.00  0.00     0.094 C 
ENDBRANCH  35  36
BRANCH  35  43
HETATM   43  C5  UNL     1      75.190  51.650  65.344  1.00  0.00     0.224 C 
HETATM   44  O1  UNL     1      75.626  50.681  66.048  1.00  0.00    -0.643 OA
HETATM   45  O2  UNL     1      75.995  51.972  64.277  1.00  0.00    -0.643 OA
ENDBRANCH  35  43
ENDBRANCH   1  35
BRANCH   1  46
HETATM   46  C7  UNL     1      72.709  54.061  66.752  1.00  0.00     0.023 C 
HETATM   47  C8  UNL     1      71.738  54.140  67.640  1.00  0.00     0.129 C 
BRANCH  47  48
HETATM   48  O3  UNL     1      70.679  55.016  67.453  1.00  0.00    -0.373 OA
ATOM     49  H3  UNL     1      70.688  55.878  67.852  1.00  0.00     0.216 HD
ENDBRANCH  47  48
ENDBRANCH   1  46
TORSDOF 5
ENDMDL
MODEL 3
REMARK VINA RESULT: -7.194670453      4.768     11.640
REMARK  5 active torsions:
REMARK  status: ('A' for Active; 'I' for Inactive)
REMARK    1  A    between atoms: N2_5  and  C4_6 
REMARK    2  A    between atoms: C4_6  and  C5_7 
REMARK    3  A    between atoms: C4_6  and  C6_10 
REMARK    4  A    between atoms: C6_10  and  C7_11 
REMARK    5  A    between atoms: C8_12  and  O3_13 
ROOT
HETATM    1  C6  UNL     1      73.603  52.069  64.421  1.00  0.00     0.110 C 
HETATM    2  C9  UNL     1      72.637  50.999  64.127  1.00  0.00     0.030 C 
HETATM    3  C10 UNL     1      72.886  49.597  64.432  1.00  0.00     0.002 C 
HETATM    4  C11 UNL     1      73.779  49.202  65.531  1.00  0.00     0.001 C 
HETATM    5  C12 UNL     1      73.005  48.667  66.748  1.00  0.00     0.010 C 
HETATM    6  C13 UNL     1      73.261  49.705  67.852  1.00  0.00     0.049 C 
HETATM    7  C14 UNL     1      72.543  50.955  67.421  1.00  0.00     0.134 C 
HETATM    8  N3  UNL     1      73.546  51.930  67.043  1.00  0.00    -0.342 N 
HETATM    9  C15 UNL     1      74.331  52.331  68.244  1.00  0.00     0.228 C 
HETATM   10  C16 UNL     1      73.553  53.400  68.921  1.00  0.00     0.235 C 
HETATM   11  O4  UNL     1      72.417  53.785  68.545  1.00  0.00    -0.272 OA
HETATM   12  N4  UNL     1      74.130  54.033  70.074  1.00  0.00    -0.360 N 
ATOM     13  H4  UNL     1      73.543  54.590  70.695  1.00  0.00     0.162 HD
HETATM   14  C17 UNL     1      75.539  53.885  70.359  1.00  0.00     0.122 C 
HETATM   15  C18 UNL     1      75.955  54.903  71.389  1.00  0.00     0.022 C 
HETATM   16  C19 UNL     1      76.738  54.199  72.489  1.00  0.00     0.028 C 
HETATM   17  C20 UNL     1      76.678  55.011  73.748  1.00  0.00     0.167 C 
HETATM   18  O5  UNL     1      76.630  54.106  74.828  1.00  0.00    -0.391 OA
HETATM   19  C21 UNL     1      75.303  53.840  75.192  1.00  0.00     0.167 C 
HETATM   20  C22 UNL     1      75.031  52.360  75.246  1.00  0.00     0.026 C 
HETATM   21  C23 UNL     1      73.869  52.047  74.330  1.00  0.00     0.002 C 
HETATM   22  C24 UNL     1      73.415  50.648  74.592  1.00  0.00     0.000 C 
HETATM   23  C25 UNL     1      72.411  50.135  73.610  1.00  0.00     0.002 C 
HETATM   24  C26 UNL     1      72.683  50.627  72.201  1.00  0.00     0.026 C 
HETATM   25  C27 UNL     1      71.893  49.805  71.215  1.00  0.00     0.169 C 
HETATM   26  O6  UNL     1      72.210  50.165  69.936  1.00  0.00    -0.368 OA
HETATM   27  C28 UNL     1      72.806  49.182  69.189  1.00  0.00     0.162 A 
HETATM   28  C29 UNL     1      73.840  48.324  69.849  1.00  0.00     0.171 A 
HETATM   29  N5  UNL     1      73.078  47.121  69.650  1.00  0.00    -0.355 N 
ATOM     30  H5  UNL     1      73.229  46.128  69.825  1.00  0.00     0.162 HD
HETATM   31  C30 UNL     1      72.029  47.905  69.107  1.00  0.00     0.254 A 
HETATM   32  O7  UNL     1      70.879  47.641  68.705  1.00  0.00    -0.270 OA
HETATM   33  C31 UNL     1      73.822  52.480  65.806  1.00  0.00     0.239 C 
HETATM   34  O8  UNL     1      74.415  53.627  65.899  1.00  0.00    -0.272 OA
ENDROOT
BRANCH   1  35
HETATM   35  C4  UNL     1      73.195  53.237  63.543  1.00  0.00     0.110 C 
BRANCH  35  36
HETATM   36  N2  UNL     1      74.033  53.487  62.405  1.00  0.00    -0.354 N 
HETATM   37  C3  UNL     1      74.077  54.921  62.126  1.00  0.00     0.158 C 
HETATM   38  C2  UNL     1      74.018  55.256  60.676  1.00  0.00     0.292 C 
HETATM   39  N1  UNL     1      75.155  54.523  60.089  1.00  0.00     0.090 N 
HETATM   40  C1  UNL     1      75.357  55.002  58.757  1.00  0.00     0.310 C 
HETATM   41  C33 UNL     1      74.762  53.161  60.077  1.00  0.00     0.316 C 
HETATM   42  C32 UNL     1      73.951  52.691  61.265  1.00  0.00     0.094 C 
ENDBRANCH  35  36
BRANCH  35  43
HETATM   43  C5  UNL     1      71.777  53.416  63.280  1.00  0.00     0.224 C 
HETATM   44  O1  UNL     1      70.985  53.997  64.092  1.00  0.00    -0.643 OA
HETATM   45  O2  UNL     1      71.170  52.970  62.129  1.00  0.00    -0.643 OA
ENDBRANCH  35  43
ENDBRANCH   1  35
BRANCH   1  46
HETATM   46  C7  UNL     1      75.000  51.721  63.912  1.00  0.00     0.023 C 
HETATM   47  C8  UNL     1      75.981  51.501  64.763  1.00  0.00     0.129 C 
BRANCH  47  48
HETATM   48  O3  UNL     1      77.253  51.185  64.308  1.00  0.00    -0.373 OA
ATOM     49  H3  UNL     1      77.972  51.072  64.920  1.00  0.00     0.216 HD
ENDBRANCH  47  48
ENDBRANCH   1  46
TORSDOF 5
ENDMDL
MODEL 4
REMARK VINA RESULT: -7.149133151      1.364      1.669
REMARK  5 active torsions:
REMARK  status: ('A' for Active; 'I' for Inactive)
REMARK    1  A    between atoms: N2_5  and  C4_6 
REMARK    2  A    between atoms: C4_6  and  C5_7 
REMARK    3  A    between atoms: C4_6  and  C6_10 
REMARK    4  A    between atoms: C6_10  and  C7_11 
REMARK    5  A    between atoms: C8_12  and  O3_13 
ROOT
HETATM    1  C6  UNL     1      73.875  53.855  66.320  1.00  0.00     0.110 C 
HETATM    2  C9  UNL     1      73.189  54.516  67.441  1.00  0.00     0.030 C 
HETATM    3  C10 UNL     1      73.681  55.737  68.065  1.00  0.00     0.002 C 
HETATM    4  C11 UNL     1      74.500  56.701  67.316  1.00  0.00     0.001 C 
HETATM    5  C12 UNL     1      73.714  57.969  66.944  1.00  0.00     0.010 C 
HETATM    6  C13 UNL     1      73.619  57.927  65.411  1.00  0.00     0.049 C 
HETATM    7  C14 UNL     1      72.718  56.768  65.082  1.00  0.00     0.134 C 
HETATM    8  N3  UNL     1      73.538  55.723  64.505  1.00  0.00    -0.342 N 
HETATM    9  C15 UNL     1      74.077  56.176  63.193  1.00  0.00     0.228 C 
HETATM   10  C16 UNL     1      73.022  55.900  62.183  1.00  0.00     0.235 C 
HETATM   11  O4  UNL     1      71.884  55.446  62.465  1.00  0.00    -0.272 OA
HETATM   12  N4  UNL     1      73.317  56.166  60.803  1.00  0.00    -0.360 N 
ATOM     13  H4  UNL     1      72.559  56.215  60.122  1.00  0.00     0.162 HD
HETATM   14  C17 UNL     1      74.683  56.363  60.374  1.00  0.00     0.122 C 
HETATM   15  C18 UNL     1      74.757  56.274  58.872  1.00  0.00     0.022 C 
HETATM   16  C19 UNL     1      75.532  57.475  58.346  1.00  0.00     0.028 C 
HETATM   17  C20 UNL     1      75.159  57.726  56.915  1.00  0.00     0.167 C 
HETATM   18  O5  UNL     1      75.169  59.122  56.719  1.00  0.00    -0.391 OA
HETATM   19  C21 UNL     1      73.891  59.660  56.921  1.00  0.00     0.167 C 
HETATM   20  C22 UNL     1      73.922  60.808  57.897  1.00  0.00     0.026 C 
HETATM   21  C23 UNL     1      72.965  60.507  59.029  1.00  0.00     0.002 C 
HETATM   22  C24 UNL     1      72.778  61.748  59.840  1.00  0.00     0.000 C 
HETATM   23  C25 UNL     1      72.024  61.539  61.114  1.00  0.00     0.002 C 
HETATM   24  C26 UNL     1      72.354  60.211  61.767  1.00  0.00     0.026 C 
HETATM   25  C27 UNL     1      71.871  60.212  63.194  1.00  0.00     0.169 C 
HETATM   26  O6  UNL     1      72.258  59.065  63.827  1.00  0.00    -0.368 OA
HETATM   27  C28 UNL     1      73.126  59.244  64.872  1.00  0.00     0.162 A 
HETATM   28  C29 UNL     1      74.227  60.243  64.710  1.00  0.00     0.171 A 
HETATM   29  N5  UNL     1      73.756  61.052  65.802  1.00  0.00    -0.355 N 
ATOM     30  H5  UNL     1      74.084  61.891  66.280  1.00  0.00     0.162 HD
HETATM   31  C30 UNL     1      72.641  60.186  65.929  1.00  0.00     0.254 A 
HETATM   32  O7  UNL     1      71.625  60.195  66.651  1.00  0.00    -0.270 OA
HETATM   33  C31 UNL     1      73.841  54.466  64.993  1.00  0.00     0.239 C 
HETATM   34  O8  UNL     1      74.171  53.639  64.054  1.00  0.00    -0.272 OA
ENDROOT
BRANCH   1  35
HETATM   35  C4  UNL     1      73.344  52.433  66.301  1.00  0.00     0.110 C 
BRANCH  35  36
HETATM   36  N2  UNL     1      73.613  51.649  67.473  1.00  0.00    -0.354 N 
HETATM   37  C3  UNL     1      74.255  50.392  67.092  1.00  0.00     0.158 C 
HETATM   38  C2  UNL     1      73.763  49.209  67.851  1.00  0.00     0.292 C 
HETATM   39  N1  UNL     1      73.992  49.564  69.263  1.00  0.00     0.090 N 
HETATM   40  C1  UNL     1      73.819  48.387  70.055  1.00  0.00     0.310 C 
HETATM   41  C33 UNL     1      73.001  50.528  69.577  1.00  0.00     0.316 C 
HETATM   42  C32 UNL     1      72.662  51.516  68.481  1.00  0.00     0.094 C 
ENDBRANCH  35  36
BRANCH  35  43
HETATM   43  C5  UNL     1      72.020  52.218  65.741  1.00  0.00     0.224 C 
HETATM   44  O1  UNL     1      71.758  51.290  64.908  1.00  0.00    -0.643 OA
HETATM   45  O2  UNL     1      70.938  53.003  66.063  1.00  0.00    -0.643 OA
ENDBRANCH  35  43
ENDBRANCH   1  35
BRANCH   1  46
HETATM   46  C7  UNL     1      75.364  53.667  66.604  1.00  0.00     0.023 C 
HETATM   47  C8  UNL     1      76.232  54.586  66.230  1.00  0.00     0.129 C 
BRANCH  47  48
HETATM   48  O3  UNL     1      77.586  54.422  66.483  1.00  0.00    -0.373 OA
ATOM     49  H3  UNL     1      78.045  53.647  66.179  1.00  0.00     0.216 HD
ENDBRANCH  47  48
ENDBRANCH   1  46
TORSDOF 5
ENDMDL
MODEL 5
REMARK VINA RESULT: -7.087404460      6.398     12.598
REMARK  5 active torsions:
REMARK  status: ('A' for Active; 'I' for Inactive)
REMARK    1  A    between atoms: N2_5  and  C4_6 
REMARK    2  A    between atoms: C4_6  and  C5_7 
REMARK    3  A    between atoms: C4_6  and  C6_10 
REMARK    4  A    between atoms: C6_10  and  C7_11 
REMARK    5  A    between atoms: C8_12  and  O3_13 
ROOT
HETATM    1  C6  UNL     1      74.825  53.485  68.426  1.00  0.00     0.110 C 
HETATM    2  C9  UNL     1      75.965  54.042  69.171  1.00  0.00     0.030 C 
HETATM    3  C10 UNL     1      75.811  54.843  70.378  1.00  0.00     0.002 C 
HETATM    4  C11 UNL     1      74.645  54.679  71.258  1.00  0.00     0.001 C 
HETATM    5  C12 UNL     1      74.998  53.943  72.562  1.00  0.00     0.010 C 
HETATM    6  C13 UNL     1      74.230  52.614  72.471  1.00  0.00     0.049 C 
HETATM    7  C14 UNL     1      74.883  51.833  71.364  1.00  0.00     0.134 C 
HETATM    8  N3  UNL     1      73.961  51.800  70.247  1.00  0.00    -0.342 N 
HETATM    9  C15 UNL     1      72.754  51.010  70.617  1.00  0.00     0.228 C 
HETATM   10  C16 UNL     1      73.091  49.583  70.375  1.00  0.00     0.235 C 
HETATM   11  O4  UNL     1      74.225  49.184  70.007  1.00  0.00    -0.272 OA
HETATM   12  N4  UNL     1      72.063  48.600  70.571  1.00  0.00    -0.360 N 
ATOM     13  H4  UNL     1      72.311  47.614  70.646  1.00  0.00     0.162 HD
HETATM   14  C17 UNL     1      70.678  49.002  70.663  1.00  0.00     0.122 C 
HETATM   15  C18 UNL     1      69.791  47.792  70.516  1.00  0.00     0.022 C 
HETATM   16  C19 UNL     1      68.768  47.792  71.644  1.00  0.00     0.028 C 
HETATM   17  C20 UNL     1      68.267  46.397  71.868  1.00  0.00     0.167 C 
HETATM   18  O5  UNL     1      68.046  46.248  73.253  1.00  0.00    -0.391 OA
HETATM   19  C21 UNL     1      69.179  45.712  73.880  1.00  0.00     0.167 C 
HETATM   20  C22 UNL     1      69.607  46.549  75.057  1.00  0.00     0.026 C 
HETATM   21  C23 UNL     1      71.050  46.958  74.861  1.00  0.00     0.002 C 
HETATM   22  C24 UNL     1      71.561  47.539  76.139  1.00  0.00     0.000 C 
HETATM   23  C25 UNL     1      72.907  48.179  76.026  1.00  0.00     0.002 C 
HETATM   24  C26 UNL     1      73.094  48.897  74.703  1.00  0.00     0.026 C 
HETATM   25  C27 UNL     1      74.284  49.816  74.787  1.00  0.00     0.169 C 
HETATM   26  O6  UNL     1      74.399  50.549  73.639  1.00  0.00    -0.368 OA
HETATM   27  C28 UNL     1      74.244  51.901  73.798  1.00  0.00     0.162 A 
HETATM   28  C29 UNL     1      73.166  52.385  74.717  1.00  0.00     0.171 A 
HETATM   29  N5  UNL     1      74.100  53.037  75.593  1.00  0.00    -0.355 N 
ATOM     30  H5  UNL     1      74.030  53.623  76.425  1.00  0.00     0.162 HD
HETATM   31  C30 UNL     1      75.161  52.519  74.807  1.00  0.00     0.254 A 
HETATM   32  O7  UNL     1      76.403  52.556  74.908  1.00  0.00    -0.270 OA
HETATM   33  C31 UNL     1      74.074  52.366  68.991  1.00  0.00     0.239 C 
HETATM   34  O8  UNL     1      73.341  51.762  68.112  1.00  0.00    -0.272 OA
ENDROOT
BRANCH   1  35
HETATM   35  C4  UNL     1      75.361  53.164  67.043  1.00  0.00     0.110 C 
BRANCH  35  36
HETATM   36  N2  UNL     1      74.545  52.297  66.242  1.00  0.00    -0.354 N 
HETATM   37  C3  UNL     1      75.316  51.122  65.839  1.00  0.00     0.158 C 
HETATM   38  C2  UNL     1      75.083  50.701  64.429  1.00  0.00     0.292 C 
HETATM   39  N1  UNL     1      73.627  50.484  64.353  1.00  0.00     0.090 N 
HETATM   40  C1  UNL     1      73.339  49.806  63.128  1.00  0.00     0.310 C 
HETATM   41  C33 UNL     1      73.050  51.779  64.356  1.00  0.00     0.316 C 
HETATM   42  C32 UNL     1      73.725  52.807  65.238  1.00  0.00     0.094 C 
ENDBRANCH  35  36
BRANCH  35  43
HETATM   43  C5  UNL     1      75.978  54.246  66.295  1.00  0.00     0.224 C 
HETATM   44  O1  UNL     1      75.314  55.075  65.592  1.00  0.00    -0.643 OA
HETATM   45  O2  UNL     1      77.336  54.465  66.282  1.00  0.00    -0.643 OA
ENDBRANCH  35  43
ENDBRANCH   1  35
BRANCH   1  46
HETATM   46  C7  UNL     1      73.761  54.545  68.151  1.00  0.00     0.023 C 
HETATM   47  C8  UNL     1      72.489  54.282  68.374  1.00  0.00     0.129 C 
BRANCH  47  48
HETATM   48  O3  UNL     1      71.516  55.239  68.126  1.00  0.00    -0.373 OA
ATOM     49  H3  UNL     1      70.845  55.089  67.470  1.00  0.00     0.216 HD
ENDBRANCH  47  48
ENDBRANCH   1  46
TORSDOF 5
ENDMDL
