MODEL 1
REMARK VINA RESULT: -7.586244557      0.000      0.000
REMARK  7 active torsions:
REMARK  status: ('A' for Active; 'I' for Inactive)
REMARK    1  A    between atoms: C2_2  and  N1_3 
REMARK    2  A    between atoms: C2_2  and  C8_13 
REMARK       I    between atoms: N1_3  and  C3_5 
REMARK       I    between atoms: C3_5  and  N2_7 
REMARK       I    between atoms: C8_13  and  N3_15 
REMARK    3  A    between atoms: C11_18  and  O4_19 
REMARK    4  A    between atoms: N4_22  and  C13_23 
REMARK    5  A    between atoms: C17_27  and  C18_28 
REMARK    6  A    between atoms: C18_28  and  C19_30 
REMARK    7  A    between atoms: C19_30  and  C20_31 
ROOT
HETATM    1  C8  UNL     1      73.353  54.046  68.407  1.00  0.00     0.242 C 
HETATM    2  O3  UNL     1      72.744  53.026  68.840  1.00  0.00    -0.271 OA
HETATM    3  N3  UNL     1      72.636  54.942  67.600  1.00  0.00    -0.349 N 
HETATM    4  C9  UNL     1      71.237  54.708  67.229  1.00  0.00     0.129 C 
HETATM    5  C10 UNL     1      70.479  55.916  67.689  1.00  0.00     0.064 C 
HETATM    6  C11 UNL     1      70.928  57.231  67.034  1.00  0.00     0.104 C 
HETATM    7  C12 UNL     1      69.786  57.807  66.279  1.00  0.00     0.098 C 
HETATM    8  N4  UNL     1      68.888  58.735  66.732  1.00  0.00    -0.369 N 
HETATM    9  C17 UNL     1      68.744  59.978  66.044  1.00  0.00     0.178 C 
HETATM   10  C21 UNL     1      70.104  60.580  65.614  1.00  0.00     0.200 C 
HETATM   11  O8  UNL     1      69.827  61.891  65.250  1.00  0.00    -0.389 OA
HETATM   12  C22 UNL     1      70.481  62.332  64.115  1.00  0.00     0.167 C 
HETATM   13  C23 UNL     1      71.953  62.297  64.378  1.00  0.00     0.026 C 
HETATM   14  C24 UNL     1      72.805  62.254  63.160  1.00  0.00     0.002 C 
HETATM   15  C25 UNL     1      73.772  61.128  63.281  1.00  0.00     0.000 C 
HETATM   16  C26 UNL     1      73.656  60.043  62.261  1.00  0.00     0.002 C 
HETATM   17  C27 UNL     1      72.462  59.181  62.309  1.00  0.00     0.020 C 
HETATM   18  C28 UNL     1      72.566  57.931  63.138  1.00  0.00     0.122 C 
HETATM   19  N5  UNL     1      73.334  58.069  64.331  1.00  0.00    -0.361 N 
ATOM     20  H5  UNL     1      74.325  58.272  64.202  1.00  0.00     0.162 HD
HETATM   21  C29 UNL     1      72.899  57.960  65.664  1.00  0.00     0.226 C 
HETATM   22  O9  UNL     1      73.212  58.904  66.461  1.00  0.00    -0.273 OA
HETATM   23  C30 UNL     1      72.101  56.792  66.148  1.00  0.00     0.135 C 
HETATM   24  C31 UNL     1      73.139  56.166  67.069  1.00  0.00     0.143 C 
ENDROOT
BRANCH   1  25
HETATM   25  C2  UNL     1      74.781  54.206  68.792  1.00  0.00     0.174 C 
HETATM   26  C1  UNL     1      75.527  55.203  67.957  1.00  0.00     0.042 C 
BRANCH  25  27
HETATM   27  N1  UNL     1      74.900  54.565  70.192  1.00  0.00    -0.330 N 
HETATM   28  C3  UNL     1      75.703  53.781  71.046  1.00  0.00     0.319 C 
HETATM   29  O1  UNL     1      76.288  52.767  70.508  1.00  0.00    -0.247 OA
HETATM   30  N2  UNL     1      75.888  54.044  72.416  1.00  0.00    -0.330 N 
HETATM   31  C4  UNL     1      75.295  55.169  73.074  1.00  0.00     0.153 C 
HETATM   32  C7  UNL     1      76.699  53.151  73.211  1.00  0.00     0.153 C 
HETATM   33  C5  UNL     1      76.438  56.028  73.618  1.00  0.00     0.187 C 
HETATM   34  O2  UNL     1      77.530  55.268  73.993  1.00  0.00    -0.388 OA
HETATM   35  C6  UNL     1      77.166  53.990  74.406  1.00  0.00     0.187 C 
ATOM     36  H1  UNL     1      74.406  55.379  70.557  1.00  0.00     0.165 HD
ENDBRANCH  25  27
ENDBRANCH   1  25
BRANCH   6  37
HETATM   37  O4  UNL     1      71.550  58.085  67.939  1.00  0.00    -0.383 OA
ATOM     38  H4  UNL     1      72.279  58.554  67.549  1.00  0.00     0.211 HD
ENDBRANCH   6  37
BRANCH   8  39
HETATM   39  C13 UNL     1      67.901  58.500  67.701  1.00  0.00     0.022 C 
HETATM   40  C14 UNL     1      66.879  57.410  67.386  1.00  0.00     0.037 C 
HETATM   41  C15 UNL     1      68.322  58.242  69.128  1.00  0.00     0.037 C 
HETATM   42  C16 UNL     1      66.968  59.735  67.871  1.00  0.00     0.037 C 
ENDBRANCH   8  39
BRANCH   9  43
HETATM   43  C18 UNL     1      68.043  60.000  64.754  1.00  0.00     0.161 C 
HETATM   44  O5  UNL     1      68.614  59.485  63.815  1.00  0.00    -0.295 OA
BRANCH  43  45
HETATM   45  C19 UNL     1      66.722  60.574  64.476  1.00  0.00     0.193 C 
BRANCH  45  46
HETATM   46  C20 UNL     1      66.781  62.001  64.070  1.00  0.00     0.179 C 
HETATM   47  O6  UNL     1      67.010  62.330  62.899  1.00  0.00    -0.648 OA
HETATM   48  O7  UNL     1      66.575  63.015  65.009  1.00  0.00    -0.648 OA
ENDBRANCH  45  46
ENDBRANCH  43  45
ENDBRANCH   9  43
TORSDOF 7
ENDMDL
MODEL 2
REMARK VINA RESULT: -7.524194705      4.614     11.721
REMARK  7 active torsions:
REMARK  status: ('A' for Active; 'I' for Inactive)
REMARK    1  A    between atoms: C2_2  and  N1_3 
REMARK    2  A    between atoms: C2_2  and  C8_13 
REMARK       I    between atoms: N1_3  and  C3_5 
REMARK       I    between atoms: C3_5  and  N2_7 
REMARK       I    between atoms: C8_13  and  N3_15 
REMARK    3  A    between atoms: C11_18  and  O4_19 
REMARK    4  A    between atoms: N4_22  and  C13_23 
REMARK    5  A    between atoms: C17_27  and  C18_28 
REMARK    6  A    between atoms: C18_28  and  C19_30 
REMARK    7  A    between atoms: C19_30  and  C20_31 
ROOT
HETATM    1  C8  UNL     1      73.564  54.199  67.351  1.00  0.00     0.242 C 
HETATM    2  O3  UNL     1      72.732  54.176  66.399  1.00  0.00    -0.271 OA
HETATM    3  N3  UNL     1      73.329  53.352  68.445  1.00  0.00    -0.349 N 
HETATM    4  C9  UNL     1      72.149  52.486  68.521  1.00  0.00     0.129 C 
HETATM    5  C10 UNL     1      72.669  51.092  68.701  1.00  0.00     0.064 C 
HETATM    6  C11 UNL     1      73.491  50.884  69.981  1.00  0.00     0.104 C 
HETATM    7  C12 UNL     1      72.813  49.870  70.829  1.00  0.00     0.098 C 
HETATM    8  N4  UNL     1      73.064  48.525  70.856  1.00  0.00    -0.369 N 
HETATM    9  C17 UNL     1      73.459  47.901  72.078  1.00  0.00     0.178 C 
HETATM   10  C21 UNL     1      74.486  48.746  72.871  1.00  0.00     0.200 C 
HETATM   11  O8  UNL     1      74.992  47.893  73.842  1.00  0.00    -0.389 OA
HETATM   12  C22 UNL     1      75.159  48.464  75.090  1.00  0.00     0.167 C 
HETATM   13  C23 UNL     1      76.162  49.567  74.971  1.00  0.00     0.026 C 
HETATM   14  C24 UNL     1      76.102  50.586  76.052  1.00  0.00     0.002 C 
HETATM   15  C25 UNL     1      76.029  51.942  75.441  1.00  0.00     0.000 C 
HETATM   16  C26 UNL     1      74.794  52.733  75.728  1.00  0.00     0.002 C 
HETATM   17  C27 UNL     1      73.527  52.266  75.136  1.00  0.00     0.020 C 
HETATM   18  C28 UNL     1      73.168  52.824  73.788  1.00  0.00     0.122 C 
HETATM   19  N5  UNL     1      74.274  53.028  72.912  1.00  0.00    -0.361 N 
ATOM     20  H5  UNL     1      74.955  53.726  73.210  1.00  0.00     0.162 HD
HETATM   21  C29 UNL     1      74.545  52.390  71.689  1.00  0.00     0.226 C 
HETATM   22  O9  UNL     1      75.709  51.893  71.533  1.00  0.00    -0.273 OA
HETATM   23  C30 UNL     1      73.525  52.288  70.600  1.00  0.00     0.135 C 
HETATM   24  C31 UNL     1      74.182  53.204  69.577  1.00  0.00     0.143 C 
ENDROOT
BRANCH   1  25
HETATM   25  C2  UNL     1      74.721  55.126  67.227  1.00  0.00     0.174 C 
HETATM   26  C1  UNL     1      75.995  54.455  66.812  1.00  0.00     0.042 C 
BRANCH  25  27
HETATM   27  N1  UNL     1      74.420  56.203  66.304  1.00  0.00    -0.330 N 
HETATM   28  C3  UNL     1      74.699  57.535  66.673  1.00  0.00     0.319 C 
HETATM   29  O1  UNL     1      75.212  57.708  67.842  1.00  0.00    -0.247 OA
HETATM   30  N2  UNL     1      74.450  58.650  65.851  1.00  0.00    -0.330 N 
HETATM   31  C4  UNL     1      73.912  58.532  64.529  1.00  0.00     0.153 C 
HETATM   32  C7  UNL     1      74.735  59.978  66.344  1.00  0.00     0.153 C 
HETATM   33  C5  UNL     1      74.948  59.114  63.566  1.00  0.00     0.187 C 
HETATM   34  O2  UNL     1      75.662  60.154  64.132  1.00  0.00    -0.388 OA
HETATM   35  C6  UNL     1      74.923  60.840  65.090  1.00  0.00     0.187 C 
ATOM     36  H1  UNL     1      74.010  55.999  65.392  1.00  0.00     0.165 HD
ENDBRANCH  25  27
ENDBRANCH   1  25
BRANCH   6  37
HETATM   37  O4  UNL     1      74.835  50.651  69.713  1.00  0.00    -0.383 OA
ATOM     38  H4  UNL     1      75.344  51.453  69.700  1.00  0.00     0.211 HD
ENDBRANCH   6  37
BRANCH   8  39
HETATM   39  C13 UNL     1      72.748  47.622  69.829  1.00  0.00     0.022 C 
HETATM   40  C14 UNL     1      71.265  47.411  69.535  1.00  0.00     0.037 C 
HETATM   41  C15 UNL     1      73.395  47.796  68.476  1.00  0.00     0.037 C 
HETATM   42  C16 UNL     1      73.183  46.172  70.195  1.00  0.00     0.037 C 
ENDBRANCH   8  39
BRANCH   9  43
HETATM   43  C18 UNL     1      72.452  47.686  73.125  1.00  0.00     0.161 C 
HETATM   44  O5  UNL     1      72.194  46.534  73.404  1.00  0.00    -0.295 OA
BRANCH  43  45
HETATM   45  C19 UNL     1      71.726  48.716  73.876  1.00  0.00     0.193 C 
BRANCH  45  46
HETATM   46  C20 UNL     1      70.265  48.712  73.605  1.00  0.00     0.179 C 
HETATM   47  O6  UNL     1      69.821  48.839  72.457  1.00  0.00    -0.648 OA
HETATM   48  O7  UNL     1      69.350  48.563  74.650  1.00  0.00    -0.648 OA
ENDBRANCH  45  46
ENDBRANCH  43  45
ENDBRANCH   9  43
TORSDOF 7
ENDMDL
MODEL 3
REMARK VINA RESULT: -7.412520334      0.821      1.390
REMARK  7 active torsions:
REMARK  status: ('A' for Active; 'I' for Inactive)
REMARK    1  A    between atoms: C2_2  and  N1_3 
REMARK    2  A    between atoms: C2_2  and  C8_13 
REMARK       I    between atoms: N1_3  and  C3_5 
REMARK       I    between atoms: C3_5  and  N2_7 
REMARK       I    between atoms: C8_13  and  N3_15 
REMARK    3  A    between atoms: C11_18  and  O4_19 
REMARK    4  A    between atoms: N4_22  and  C13_23 
REMARK    5  A    between atoms: C17_27  and  C18_28 
REMARK    6  A    between atoms: C18_28  and  C19_30 
REMARK    7  A    between atoms: C19_30  and  C20_31 
ROOT
HETATM    1  C8  UNL     1      73.374  54.100  68.409  1.00  0.00     0.242 C 
HETATM    2  O3  UNL     1      72.791  53.061  68.832  1.00  0.00    -0.271 OA
HETATM    3  N3  UNL     1      72.636  54.982  67.604  1.00  0.00    -0.349 N 
HETATM    4  C9  UNL     1      71.246  54.711  67.224  1.00  0.00     0.129 C 
HETATM    5  C10 UNL     1      70.451  55.894  67.687  1.00  0.00     0.064 C 
HETATM    6  C11 UNL     1      70.867  57.225  67.045  1.00  0.00     0.104 C 
HETATM    7  C12 UNL     1      69.713  57.773  66.286  1.00  0.00     0.098 C 
HETATM    8  N4  UNL     1      68.787  58.673  66.741  1.00  0.00    -0.369 N 
HETATM    9  C17 UNL     1      68.611  59.916  66.061  1.00  0.00     0.178 C 
HETATM   10  C21 UNL     1      69.955  60.559  65.642  1.00  0.00     0.200 C 
HETATM   11  O8  UNL     1      69.643  61.865  65.286  1.00  0.00    -0.389 OA
HETATM   12  C22 UNL     1      70.291  62.331  64.158  1.00  0.00     0.167 C 
HETATM   13  C23 UNL     1      71.762  62.337  64.429  1.00  0.00     0.026 C 
HETATM   14  C24 UNL     1      72.621  62.326  63.215  1.00  0.00     0.002 C 
HETATM   15  C25 UNL     1      73.619  61.227  63.333  1.00  0.00     0.000 C 
HETATM   16  C26 UNL     1      73.540  60.146  62.306  1.00  0.00     0.002 C 
HETATM   17  C27 UNL     1      72.370  59.250  62.341  1.00  0.00     0.020 C 
HETATM   18  C28 UNL     1      72.505  57.998  63.162  1.00  0.00     0.122 C 
HETATM   19  N5  UNL     1      73.262  58.150  64.361  1.00  0.00    -0.361 N 
ATOM     20  H5  UNL     1      74.248  58.382  64.238  1.00  0.00     0.162 HD
HETATM   21  C29 UNL     1      72.823  58.020  65.690  1.00  0.00     0.226 C 
HETATM   22  O9  UNL     1      73.106  58.966  66.495  1.00  0.00    -0.273 OA
HETATM   23  C30 UNL     1      72.056  56.826  66.162  1.00  0.00     0.135 C 
HETATM   24  C31 UNL     1      73.106  56.222  67.084  1.00  0.00     0.143 C 
ENDROOT
BRANCH   1  25
HETATM   25  C2  UNL     1      74.795  54.298  68.802  1.00  0.00     0.174 C 
HETATM   26  C1  UNL     1      75.502  55.356  68.011  1.00  0.00     0.042 C 
BRANCH  25  27
HETATM   27  N1  UNL     1      74.899  54.602  70.217  1.00  0.00    -0.330 N 
HETATM   28  C3  UNL     1      75.717  53.803  71.042  1.00  0.00     0.319 C 
HETATM   29  O1  UNL     1      76.329  52.826  70.466  1.00  0.00    -0.247 OA
HETATM   30  N2  UNL     1      75.891  54.015  72.423  1.00  0.00    -0.330 N 
HETATM   31  C4  UNL     1      75.268  55.098  73.123  1.00  0.00     0.153 C 
HETATM   32  C7  UNL     1      76.719  53.110  73.185  1.00  0.00     0.153 C 
HETATM   33  C5  UNL     1      76.388  55.961  73.706  1.00  0.00     0.187 C 
HETATM   34  O2  UNL     1      77.497  55.212  74.056  1.00  0.00    -0.388 OA
HETATM   35  C6  UNL     1      77.162  53.910  74.415  1.00  0.00     0.187 C 
ATOM     36  H1  UNL     1      74.385  55.389  70.612  1.00  0.00     0.165 HD
ENDBRANCH  25  27
ENDBRANCH   1  25
BRANCH   6  37
HETATM   37  O4  UNL     1      71.459  58.090  67.958  1.00  0.00    -0.383 OA
ATOM     38  H4  UNL     1      71.328  59.002  67.727  1.00  0.00     0.211 HD
ENDBRANCH   6  37
BRANCH   8  39
HETATM   39  C13 UNL     1      67.802  58.403  67.703  1.00  0.00     0.022 C 
HETATM   40  C14 UNL     1      66.876  57.222  67.422  1.00  0.00     0.037 C 
HETATM   41  C15 UNL     1      68.211  58.243  69.147  1.00  0.00     0.037 C 
HETATM   42  C16 UNL     1      66.770  59.566  67.800  1.00  0.00     0.037 C 
ENDBRANCH   8  39
BRANCH   9  43
HETATM   43  C18 UNL     1      67.917  59.927  64.767  1.00  0.00     0.161 C 
HETATM   44  O5  UNL     1      66.896  60.579  64.702  1.00  0.00    -0.295 OA
BRANCH  43  45
HETATM   45  C19 UNL     1      68.326  59.236  63.539  1.00  0.00     0.193 C 
BRANCH  45  46
HETATM   46  C20 UNL     1      67.384  58.161  63.134  1.00  0.00     0.179 C 
HETATM   47  O6  UNL     1      67.137  57.204  63.879  1.00  0.00    -0.648 OA
HETATM   48  O7  UNL     1      66.748  58.207  61.890  1.00  0.00    -0.648 OA
ENDBRANCH  45  46
ENDBRANCH  43  45
ENDBRANCH   9  43
TORSDOF 7
ENDMDL
MODEL 4
REMARK VINA RESULT: -7.315172393      1.521      1.814
REMARK  7 active torsions:
REMARK  status: ('A' for Active; 'I' for Inactive)
REMARK    1  A    between atoms: C2_2  and  N1_3 
REMARK    2  A    between atoms: C2_2  and  C8_13 
REMARK       I    between atoms: N1_3  and  C3_5 
REMARK       I    between atoms: C3_5  and  N2_7 
REMARK       I    between atoms: C8_13  and  N3_15 
REMARK    3  A    between atoms: C11_18  and  O4_19 
REMARK    4  A    between atoms: N4_22  and  C13_23 
REMARK    5  A    between atoms: C17_27  and  C18_28 
REMARK    6  A    between atoms: C18_28  and  C19_30 
REMARK    7  A    between atoms: C19_30  and  C20_31 
ROOT
HETATM    1  C8  UNL     1      72.180  53.263  67.999  1.00  0.00     0.242 C 
HETATM    2  O3  UNL     1      71.202  52.558  68.381  1.00  0.00    -0.271 OA
HETATM    3  N3  UNL     1      71.903  54.405  67.233  1.00  0.00    -0.349 N 
HETATM    4  C9  UNL     1      70.538  54.771  66.845  1.00  0.00     0.129 C 
HETATM    5  C10 UNL     1      70.319  56.161  67.359  1.00  0.00     0.064 C 
HETATM    6  C11 UNL     1      71.275  57.210  66.770  1.00  0.00     0.104 C 
HETATM    7  C12 UNL     1      70.479  58.228  66.038  1.00  0.00     0.098 C 
HETATM    8  N4  UNL     1      70.020  59.420  66.531  1.00  0.00    -0.369 N 
HETATM    9  C17 UNL     1      70.404  60.643  65.903  1.00  0.00     0.178 C 
HETATM   10  C21 UNL     1      71.901  60.663  65.508  1.00  0.00     0.200 C 
HETATM   11  O8  UNL     1      72.184  61.989  65.206  1.00  0.00    -0.389 OA
HETATM   12  C22 UNL     1      72.986  62.175  64.097  1.00  0.00     0.167 C 
HETATM   13  C23 UNL     1      74.314  61.540  64.364  1.00  0.00     0.026 C 
HETATM   14  C24 UNL     1      75.103  61.208  63.149  1.00  0.00     0.002 C 
HETATM   15  C25 UNL     1      75.533  59.784  63.220  1.00  0.00     0.000 C 
HETATM   16  C26 UNL     1      75.014  58.881  62.149  1.00  0.00     0.002 C 
HETATM   17  C27 UNL     1      73.573  58.573  62.150  1.00  0.00     0.020 C 
HETATM   18  C28 UNL     1      73.146  57.353  62.919  1.00  0.00     0.122 C 
HETATM   19  N5  UNL     1      73.876  57.120  64.121  1.00  0.00    -0.361 N 
ATOM     20  H5  UNL     1      74.868  56.911  64.006  1.00  0.00     0.162 HD
HETATM   21  C29 UNL     1      73.404  57.140  65.445  1.00  0.00     0.226 C 
HETATM   22  O9  UNL     1      74.052  57.842  66.287  1.00  0.00    -0.273 OA
HETATM   23  C30 UNL     1      72.192  56.373  65.869  1.00  0.00     0.135 C 
HETATM   24  C31 UNL     1      72.868  55.343  66.764  1.00  0.00     0.143 C 
ENDROOT
BRANCH   1  25
HETATM   25  C2  UNL     1      73.543  52.817  68.397  1.00  0.00     0.174 C 
HETATM   26  C1  UNL     1      74.581  53.015  67.334  1.00  0.00     0.042 C 
BRANCH  25  27
HETATM   27  N1  UNL     1      73.967  53.482  69.615  1.00  0.00    -0.330 N 
HETATM   28  C3  UNL     1      74.508  52.722  70.671  1.00  0.00     0.319 C 
HETATM   29  O1  UNL     1      74.587  51.450  70.478  1.00  0.00    -0.247 OA
HETATM   30  N2  UNL     1      74.953  53.268  71.890  1.00  0.00    -0.330 N 
HETATM   31  C4  UNL     1      74.925  54.674  72.162  1.00  0.00     0.153 C 
HETATM   32  C7  UNL     1      75.453  52.393  72.924  1.00  0.00     0.153 C 
HETATM   33  C5  UNL     1      76.369  55.114  72.408  1.00  0.00     0.187 C 
HETATM   34  O2  UNL     1      77.124  54.120  73.003  1.00  0.00    -0.388 OA
HETATM   35  C6  UNL     1      76.354  53.276  73.796  1.00  0.00     0.187 C 
ATOM     36  H1  UNL     1      73.874  54.494  69.706  1.00  0.00     0.165 HD
ENDBRANCH  25  27
ENDBRANCH   1  25
BRANCH   6  37
HETATM   37  O4  UNL     1      72.166  57.702  67.717  1.00  0.00    -0.383 OA
ATOM     38  H4  UNL     1      72.140  57.208  68.528  1.00  0.00     0.211 HD
ENDBRANCH   6  37
BRANCH   8  39
HETATM   39  C13 UNL     1      69.000  59.562  67.483  1.00  0.00     0.022 C 
HETATM   40  C14 UNL     1      67.586  59.205  67.031  1.00  0.00     0.037 C 
HETATM   41  C15 UNL     1      69.158  58.900  68.832  1.00  0.00     0.037 C 
HETATM   42  C16 UNL     1      68.808  61.053  67.891  1.00  0.00     0.037 C 
ENDBRANCH   8  39
BRANCH   9  43
HETATM   43  C18 UNL     1      69.802  60.999  64.612  1.00  0.00     0.161 C 
HETATM   44  O5  UNL     1      70.252  60.448  63.630  1.00  0.00    -0.295 OA
BRANCH  43  45
HETATM   45  C19 UNL     1      68.708  61.949  64.381  1.00  0.00     0.193 C 
BRANCH  45  46
HETATM   46  C20 UNL     1      69.185  63.312  64.029  1.00  0.00     0.179 C 
HETATM   47  O6  UNL     1      68.872  64.299  64.705  1.00  0.00    -0.648 OA
HETATM   48  O7  UNL     1      70.006  63.511  62.916  1.00  0.00    -0.648 OA
ENDBRANCH  45  46
ENDBRANCH  43  45
ENDBRANCH   9  43
TORSDOF 7
ENDMDL
MODEL 5
REMARK VINA RESULT: -7.295538461      3.608      6.206
REMARK  7 active torsions:
REMARK  status: ('A' for Active; 'I' for Inactive)
REMARK    1  A    between atoms: C2_2  and  N1_3 
REMARK    2  A    between atoms: C2_2  and  C8_13 
REMARK       I    between atoms: N1_3  and  C3_5 
REMARK       I    between atoms: C3_5  and  N2_7 
REMARK       I    between atoms: C8_13  and  N3_15 
REMARK    3  A    between atoms: C11_18  and  O4_19 
REMARK    4  A    between atoms: N4_22  and  C13_23 
REMARK    5  A    between atoms: C17_27  and  C18_28 
REMARK    6  A    between atoms: C18_28  and  C19_30 
REMARK    7  A    between atoms: C19_30  and  C20_31 
ROOT
HETATM    1  C8  UNL     1      73.923  50.813  69.416  1.00  0.00     0.242 C 
HETATM    2  O3  UNL     1      74.467  49.685  69.243  1.00  0.00    -0.271 OA
HETATM    3  N3  UNL     1      74.029  51.755  68.381  1.00  0.00    -0.349 N 
HETATM    4  C9  UNL     1      74.770  51.477  67.147  1.00  0.00     0.129 C 
HETATM    5  C10 UNL     1      73.799  51.687  66.025  1.00  0.00     0.064 C 
HETATM    6  C11 UNL     1      73.241  53.114  65.930  1.00  0.00     0.104 C 
HETATM    7  C12 UNL     1      73.630  53.697  64.620  1.00  0.00     0.098 C 
HETATM    8  N4  UNL     1      72.889  53.695  63.470  1.00  0.00    -0.369 N 
HETATM    9  C17 UNL     1      72.542  54.932  62.848  1.00  0.00     0.178 C 
HETATM   10  C21 UNL     1      72.108  56.010  63.871  1.00  0.00     0.200 C 
HETATM   11  O8  UNL     1      71.520  57.018  63.116  1.00  0.00    -0.389 OA
HETATM   12  C22 UNL     1      71.846  58.303  63.507  1.00  0.00     0.167 C 
HETATM   13  C23 UNL     1      71.347  58.511  64.902  1.00  0.00     0.026 C 
HETATM   14  C24 UNL     1      72.017  59.609  65.648  1.00  0.00     0.002 C 
HETATM   15  C25 UNL     1      72.483  59.091  66.963  1.00  0.00     0.000 C 
HETATM   16  C26 UNL     1      73.958  59.115  67.200  1.00  0.00     0.002 C 
HETATM   17  C27 UNL     1      74.795  58.198  66.406  1.00  0.00     0.020 C 
HETATM   18  C28 UNL     1      75.060  56.843  67.001  1.00  0.00     0.122 C 
HETATM   19  N5  UNL     1      73.966  56.284  67.725  1.00  0.00    -0.361 N 
ATOM     20  H5  UNL     1      73.685  56.789  68.566  1.00  0.00     0.162 HD
HETATM   21  C29 UNL     1      73.225  55.127  67.427  1.00  0.00     0.226 C 
HETATM   22  O9  UNL     1      71.955  55.233  67.415  1.00  0.00    -0.273 OA
HETATM   23  C30 UNL     1      73.880  53.815  67.136  1.00  0.00     0.135 C 
HETATM   24  C31 UNL     1      73.436  53.051  68.376  1.00  0.00     0.143 C 
ENDROOT
BRANCH   1  25
HETATM   25  C2  UNL     1      73.217  51.043  70.705  1.00  0.00     0.174 C 
HETATM   26  C1  UNL     1      72.036  50.144  70.919  1.00  0.00     0.042 C 
BRANCH  25  27
HETATM   27  N1  UNL     1      74.132  50.912  71.823  1.00  0.00    -0.330 N 
HETATM   28  C3  UNL     1      74.797  52.053  72.315  1.00  0.00     0.319 C 
HETATM   29  O1  UNL     1      74.543  53.165  71.716  1.00  0.00    -0.247 OA
HETATM   30  N2  UNL     1      75.699  52.035  73.395  1.00  0.00    -0.330 N 
HETATM   31  C4  UNL     1      76.006  50.843  74.127  1.00  0.00     0.153 C 
HETATM   32  C7  UNL     1      76.360  53.257  73.793  1.00  0.00     0.153 C 
HETATM   33  C5  UNL     1      75.584  51.083  75.578  1.00  0.00     0.187 C 
HETATM   34  O2  UNL     1      75.734  52.405  75.953  1.00  0.00    -0.388 OA
HETATM   35  C6  UNL     1      76.759  53.039  75.258  1.00  0.00     0.187 C 
ATOM     36  H1  UNL     1      74.292  50.000  72.251  1.00  0.00     0.165 HD
ENDBRANCH  25  27
ENDBRANCH   1  25
BRANCH   6  37
HETATM   37  O4  UNL     1      71.887  53.174  66.242  1.00  0.00    -0.383 OA
ATOM     38  H4  UNL     1      71.711  53.758  66.970  1.00  0.00     0.211 HD
ENDBRANCH   6  37
BRANCH   8  39
HETATM   39  C13 UNL     1      72.613  52.564  62.687  1.00  0.00     0.022 C 
HETATM   40  C14 UNL     1      71.653  51.537  63.281  1.00  0.00     0.037 C 
HETATM   41  C15 UNL     1      72.151  52.753  61.262  1.00  0.00     0.037 C 
HETATM   42  C16 UNL     1      73.887  51.690  62.486  1.00  0.00     0.037 C 
ENDBRANCH   8  39
BRANCH   9  43
HETATM   43  C18 UNL     1      73.577  55.680  62.123  1.00  0.00     0.161 C 
HETATM   44  O5  UNL     1      74.408  56.252  62.797  1.00  0.00    -0.295 OA
BRANCH  43  45
HETATM   45  C19 UNL     1      73.719  55.808  60.669  1.00  0.00     0.193 C 
BRANCH  45  46
HETATM   46  C20 UNL     1      75.031  55.326  60.167  1.00  0.00     0.179 C 
HETATM   47  O6  UNL     1      75.700  55.991  59.366  1.00  0.00    -0.648 OA
HETATM   48  O7  UNL     1      75.546  54.098  60.593  1.00  0.00    -0.648 OA
ENDBRANCH  45  46
ENDBRANCH  43  45
ENDBRANCH   9  43
TORSDOF 7
ENDMDL
