MODEL 1
REMARK VINA RESULT: -8.222228171      0.000      0.000
REMARK  9 active torsions:
REMARK  status: ('A' for Active; 'I' for Inactive)
REMARK       I    between atoms: N1_2  and  C2_4 
REMARK    1  A    between atoms: C2_4  and  C3_6 
REMARK       I    between atoms: C3_6  and  N2_8 
REMARK    2  A    between atoms: N2_8  and  C4_10 
REMARK    3  A    between atoms: C10_19  and  N4_20 
REMARK    4  A    between atoms: N4_20  and  C11_22 
REMARK    5  A    between atoms: C11_22  and  O4_23 
REMARK    6  A    between atoms: C11_22  and  C12_25 
REMARK    7  A    between atoms: C15_28  and  C16_29 
REMARK    8  A    between atoms: C17_30  and  C18_31 
REMARK    9  A    between atoms: C23_37  and  O5_38 
ROOT
HETATM    1  N4  UNL     1       7.737 -24.293  -3.618  1.00  0.00    -0.322 N 
ATOM      2  H4  UNL     1       7.527 -24.836  -2.781  1.00  0.00     0.169 HD
ENDROOT
BRANCH   1   3
HETATM    3  C10 UNL     1       8.336 -25.058  -4.626  1.00  0.00     0.109 A 
HETATM    4  C9  UNL     1       7.662 -25.595  -5.699  1.00  0.00     0.051 A 
HETATM    5  C8  UNL     1       8.237 -26.329  -6.699  1.00  0.00     0.036 A 
HETATM    6  C7  UNL     1       9.594 -26.541  -6.619  1.00  0.00     0.082 A 
HETATM    7  C6  UNL     1      10.332 -26.013  -5.539  1.00  0.00     0.132 A 
HETATM    8  N6  UNL     1      10.244 -27.229  -7.576  1.00  0.00    -0.189 N 
HETATM    9  C5  UNL     1      11.680 -26.234  -5.533  1.00  0.00     0.288 A 
HETATM   10  N5  UNL     1       9.691 -25.290  -4.569  1.00  0.00    -0.331 N 
HETATM   11  N3  UNL     1      12.246 -26.931  -6.529  1.00  0.00    -0.154 N 
HETATM   12  O3  UNL     1      12.426 -25.821  -4.649  1.00  0.00    -0.265 OA
HETATM   13  C4  UNL     1      11.583 -27.449  -7.569  1.00  0.00     0.688 A 
ATOM     14  H3  UNL     1      13.254 -27.077  -6.490  1.00  0.00     0.187 HD
HETATM   15  C29 UNL     1      10.460 -24.848  -3.456  1.00  0.00     0.158 C 
ATOM     16  H6  UNL     1       9.699 -27.605  -8.352  1.00  0.00     0.184 HD
BRANCH  13  17
HETATM   17  N2  UNL     1      12.172 -28.093  -8.483  1.00  0.00    -0.151 N 
HETATM   18  C3  UNL     1      11.645 -29.230  -9.128  1.00  0.00     0.327 C 
HETATM   19  O2  UNL     1      12.142 -30.386  -8.902  1.00  0.00    -0.261 OA
ATOM     20  H2  UNL     1      13.094 -27.767  -8.775  1.00  0.00     0.188 HD
BRANCH  18  21
HETATM   21  C2  UNL     1      10.531 -29.066 -10.053  1.00  0.00     0.309 C 
HETATM   22  N1  UNL     1      10.843 -28.462 -11.333  1.00  0.00    -0.357 N 
HETATM   23  C1  UNL     1       9.758 -28.289 -12.268  1.00  0.00     0.149 C 
ATOM     24  H1  UNL     1      11.793 -28.170 -11.563  1.00  0.00     0.162 HD
HETATM   25  O1  UNL     1       9.370 -29.409  -9.806  1.00  0.00    -0.262 OA
ENDBRANCH  18  21
ENDBRANCH  13  17
ENDBRANCH   1   3
BRANCH   1  26
HETATM   26  C11 UNL     1       7.369 -22.975  -3.505  1.00  0.00     0.151 C 
BRANCH  26  27
HETATM   27  O4  UNL     1       7.909 -22.156  -4.377  1.00  0.00    -0.345 OA
ATOM     28  H4  UNL     1       8.546 -21.544  -4.028  1.00  0.00     0.219 HD
ENDBRANCH  26  27
BRANCH  26  29
HETATM   29  C12 UNL     1       6.493 -22.292  -2.601  1.00  0.00     0.015 A 
HETATM   30  C13 UNL     1       5.319 -21.677  -3.040  1.00  0.00     0.017 A 
HETATM   31  C14 UNL     1       4.447 -21.057  -2.181  1.00  0.00     0.021 A 
HETATM   32  C15 UNL     1       4.693 -21.012  -0.835  1.00  0.00     0.018 A 
HETATM   33  C27 UNL     1       5.841 -21.607  -0.359  1.00  0.00     0.021 A 
HETATM   34  C28 UNL     1       6.716 -22.229  -1.220  1.00  0.00     0.017 A 
BRANCH  32  35
HETATM   35  C16 UNL     1       3.756 -20.364   0.069  1.00  0.00    -0.061 C 
HETATM   36  C17 UNL     1       2.963 -19.832   0.791  1.00  0.00    -0.053 C 
BRANCH  36  37
HETATM   37  C18 UNL     1       1.969 -19.178   1.645  1.00  0.00     0.069 A 
HETATM   38  S1  UNL     1       1.440 -19.635   3.199  1.00  0.00    -0.091 SA
HETATM   39  C19 UNL     1       0.302 -18.398   3.475  1.00  0.00     0.063 A 
HETATM   40  C20 UNL     1       0.369 -17.650   2.324  1.00  0.00    -0.017 A 
HETATM   41  C21 UNL     1      -0.407 -16.500   2.085  1.00  0.00     0.015 A 
HETATM   42  C26 UNL     1       1.227 -18.052   1.382  1.00  0.00     0.003 A 
HETATM   43  C22 UNL     1      -0.313 -15.779   0.924  1.00  0.00     0.037 A 
HETATM   44  C23 UNL     1       0.567 -16.181  -0.054  1.00  0.00     0.069 A 
HETATM   45  C25 UNL     1       1.319 -17.304   0.191  1.00  0.00     0.051 A 
BRANCH  44  46
HETATM   46  O5  UNL     1       0.677 -15.460  -1.236  1.00  0.00    -0.356 OA
HETATM   47  C24 UNL     1       1.102 -16.001  -2.453  1.00  0.00     0.210 C 
ENDBRANCH  44  46
ENDBRANCH  36  37
ENDBRANCH  32  35
ENDBRANCH  26  29
ENDBRANCH   1  26
TORSDOF 9
ENDMDL
MODEL 2
REMARK VINA RESULT: -8.161243467      3.023      5.377
REMARK  9 active torsions:
REMARK  status: ('A' for Active; 'I' for Inactive)
REMARK       I    between atoms: N1_2  and  C2_4 
REMARK    1  A    between atoms: C2_4  and  C3_6 
REMARK       I    between atoms: C3_6  and  N2_8 
REMARK    2  A    between atoms: N2_8  and  C4_10 
REMARK    3  A    between atoms: C10_19  and  N4_20 
REMARK    4  A    between atoms: N4_20  and  C11_22 
REMARK    5  A    between atoms: C11_22  and  O4_23 
REMARK    6  A    between atoms: C11_22  and  C12_25 
REMARK    7  A    between atoms: C15_28  and  C16_29 
REMARK    8  A    between atoms: C17_30  and  C18_31 
REMARK    9  A    between atoms: C23_37  and  O5_38 
ROOT
HETATM    1  N4  UNL     1       4.527 -20.976  -2.451  1.00  0.00    -0.322 N 
ATOM      2  H4  UNL     1       3.605 -21.268  -2.776  1.00  0.00     0.169 HD
ENDROOT
BRANCH   1   3
HETATM    3  C10 UNL     1       5.560 -21.771  -2.959  1.00  0.00     0.109 A 
HETATM    4  C9  UNL     1       6.585 -22.292  -2.202  1.00  0.00     0.051 A 
HETATM    5  C8  UNL     1       7.591 -23.084  -2.683  1.00  0.00     0.036 A 
HETATM    6  C7  UNL     1       7.568 -23.379  -4.026  1.00  0.00     0.082 A 
HETATM    7  C6  UNL     1       6.539 -22.870  -4.847  1.00  0.00     0.132 A 
HETATM    8  N6  UNL     1       8.504 -24.175  -4.575  1.00  0.00    -0.189 N 
HETATM    9  C5  UNL     1       6.557 -23.224  -6.166  1.00  0.00     0.288 A 
HETATM   10  N5  UNL     1       5.565 -22.079  -4.300  1.00  0.00    -0.331 N 
HETATM   11  N3  UNL     1       7.530 -24.023  -6.629  1.00  0.00    -0.154 N 
HETATM   12  O3  UNL     1       5.714 -22.846  -6.975  1.00  0.00    -0.265 OA
HETATM   13  C4  UNL     1       8.521 -24.525  -5.886  1.00  0.00     0.688 A 
ATOM     14  H3  UNL     1       7.511 -24.264  -7.620  1.00  0.00     0.187 HD
HETATM   15  C29 UNL     1       4.596 -21.520  -5.180  1.00  0.00     0.158 C 
ATOM     16  H6  UNL     1       9.243 -24.537  -3.971  1.00  0.00     0.184 HD
BRANCH  13  17
HETATM   17  N2  UNL     1       9.409 -25.280  -6.377  1.00  0.00    -0.151 N 
HETATM   18  C3  UNL     1      10.339 -26.021  -5.621  1.00  0.00     0.327 C 
HETATM   19  O2  UNL     1      11.571 -25.682  -5.605  1.00  0.00    -0.261 OA
ATOM     20  H2  UNL     1       9.455 -25.358  -7.394  1.00  0.00     0.188 HD
BRANCH  18  21
HETATM   21  C2  UNL     1       9.873 -27.174  -4.860  1.00  0.00     0.309 C 
HETATM   22  N1  UNL     1       9.970 -28.459  -5.522  1.00  0.00    -0.357 N 
HETATM   23  C1  UNL     1       9.518 -29.618  -4.791  1.00  0.00     0.149 C 
ATOM     24  H1  UNL     1      10.345 -28.542  -6.467  1.00  0.00     0.162 HD
HETATM   25  O1  UNL     1       9.416 -27.108  -3.714  1.00  0.00    -0.262 OA
ENDBRANCH  18  21
ENDBRANCH  13  17
ENDBRANCH   1   3
BRANCH   1  26
HETATM   26  C11 UNL     1       4.476 -19.891  -1.611  1.00  0.00     0.151 C 
BRANCH  26  27
HETATM   27  O4  UNL     1       5.474 -19.043  -1.714  1.00  0.00    -0.345 OA
ATOM     28  H4  UNL     1       6.124 -19.087  -1.023  1.00  0.00     0.219 HD
ENDBRANCH  26  27
BRANCH  26  29
HETATM   29  C12 UNL     1       3.531 -19.484  -0.614  1.00  0.00     0.015 A 
HETATM   30  C13 UNL     1       3.646 -19.893   0.716  1.00  0.00     0.017 A 
HETATM   31  C14 UNL     1       2.774 -19.478   1.691  1.00  0.00     0.021 A 
HETATM   32  C15 UNL     1       1.737 -18.632   1.399  1.00  0.00     0.018 A 
HETATM   33  C27 UNL     1       1.588 -18.205   0.098  1.00  0.00     0.021 A 
HETATM   34  C28 UNL     1       2.461 -18.621  -0.881  1.00  0.00     0.017 A 
BRANCH  32  35
HETATM   35  C16 UNL     1       0.828 -18.187   2.442  1.00  0.00    -0.061 C 
HETATM   36  C17 UNL     1       0.071 -17.796   3.283  1.00  0.00    -0.053 C 
BRANCH  36  37
HETATM   37  C18 UNL     1      -0.862 -17.287   4.292  1.00  0.00     0.069 A 
HETATM   38  S1  UNL     1      -2.128 -18.113   5.079  1.00  0.00    -0.091 SA
HETATM   39  C19 UNL     1      -2.714 -16.846   6.056  1.00  0.00     0.063 A 
HETATM   40  C20 UNL     1      -1.889 -15.796   5.732  1.00  0.00    -0.017 A 
HETATM   41  C21 UNL     1      -1.993 -14.510   6.297  1.00  0.00     0.015 A 
HETATM   42  C26 UNL     1      -0.936 -16.023   4.824  1.00  0.00     0.003 A 
HETATM   43  C22 UNL     1      -1.151 -13.486   5.949  1.00  0.00     0.037 A 
HETATM   44  C23 UNL     1      -0.165 -13.706   5.016  1.00  0.00     0.069 A 
HETATM   45  C25 UNL     1      -0.074 -14.965   4.473  1.00  0.00     0.051 A 
BRANCH  44  46
HETATM   46  O5  UNL     1       0.698 -12.680   4.653  1.00  0.00    -0.356 OA
HETATM   47  C24 UNL     1       1.086 -11.639   5.502  1.00  0.00     0.210 C 
ENDBRANCH  44  46
ENDBRANCH  36  37
ENDBRANCH  32  35
ENDBRANCH  26  29
ENDBRANCH   1  26
TORSDOF 9
ENDMDL
MODEL 3
REMARK VINA RESULT: -8.025482378      1.771      2.792
REMARK  9 active torsions:
REMARK  status: ('A' for Active; 'I' for Inactive)
REMARK       I    between atoms: N1_2  and  C2_4 
REMARK    1  A    between atoms: C2_4  and  C3_6 
REMARK       I    between atoms: C3_6  and  N2_8 
REMARK    2  A    between atoms: N2_8  and  C4_10 
REMARK    3  A    between atoms: C10_19  and  N4_20 
REMARK    4  A    between atoms: N4_20  and  C11_22 
REMARK    5  A    between atoms: C11_22  and  O4_23 
REMARK    6  A    between atoms: C11_22  and  C12_25 
REMARK    7  A    between atoms: C15_28  and  C16_29 
REMARK    8  A    between atoms: C17_30  and  C18_31 
REMARK    9  A    between atoms: C23_37  and  O5_38 
ROOT
HETATM    1  N4  UNL     1       7.612 -24.454  -3.691  1.00  0.00    -0.322 N 
ATOM      2  H4  UNL     1       7.329 -25.015  -2.888  1.00  0.00     0.169 HD
ENDROOT
BRANCH   1   3
HETATM    3  C10 UNL     1       8.230 -25.211  -4.693  1.00  0.00     0.109 A 
HETATM    4  C9  UNL     1       7.566 -25.792  -5.750  1.00  0.00     0.051 A 
HETATM    5  C8  UNL     1       8.159 -26.520  -6.744  1.00  0.00     0.036 A 
HETATM    6  C7  UNL     1       9.524 -26.676  -6.677  1.00  0.00     0.082 A 
HETATM    7  C6  UNL     1      10.252 -26.102  -5.613  1.00  0.00     0.132 A 
HETATM    8  N6  UNL     1      10.189 -27.353  -7.630  1.00  0.00    -0.189 N 
HETATM    9  C5  UNL     1      11.607 -26.270  -5.620  1.00  0.00     0.288 A 
HETATM   10  N5  UNL     1       9.594 -25.389  -4.648  1.00  0.00    -0.331 N 
HETATM   11  N3  UNL     1      12.190 -26.961  -6.610  1.00  0.00    -0.154 N 
HETATM   12  O3  UNL     1      12.346 -25.813  -4.750  1.00  0.00    -0.265 OA
HETATM   13  C4  UNL     1      11.537 -27.521  -7.634  1.00  0.00     0.688 A 
ATOM     14  H3  UNL     1      13.203 -27.066  -6.581  1.00  0.00     0.187 HD
HETATM   15  C29 UNL     1      10.356 -24.899  -3.551  1.00  0.00     0.158 C 
ATOM     16  H6  UNL     1       9.652 -27.764  -8.393  1.00  0.00     0.184 HD
BRANCH  13  17
HETATM   17  N2  UNL     1      12.141 -28.156  -8.545  1.00  0.00    -0.151 N 
HETATM   18  C3  UNL     1      11.633 -29.299  -9.195  1.00  0.00     0.327 C 
HETATM   19  O2  UNL     1      12.143 -30.449  -8.966  1.00  0.00    -0.261 OA
ATOM     20  H2  UNL     1      13.060 -27.818  -8.830  1.00  0.00     0.188 HD
BRANCH  18  21
HETATM   21  C2  UNL     1      10.524 -29.148 -10.128  1.00  0.00     0.309 C 
HETATM   22  N1  UNL     1      10.837 -28.533 -11.402  1.00  0.00    -0.357 N 
HETATM   23  C1  UNL     1       9.757 -28.373 -12.346  1.00  0.00     0.149 C 
ATOM     24  H1  UNL     1      11.784 -28.226 -11.624  1.00  0.00     0.162 HD
HETATM   25  O1  UNL     1       9.366 -29.511  -9.891  1.00  0.00    -0.262 OA
ENDBRANCH  18  21
ENDBRANCH  13  17
ENDBRANCH   1   3
BRANCH   1  26
HETATM   26  C11 UNL     1       7.302 -23.124  -3.547  1.00  0.00     0.151 C 
BRANCH  26  27
HETATM   27  O4  UNL     1       8.035 -22.289  -4.246  1.00  0.00    -0.345 OA
ATOM     28  H4  UNL     1       7.558 -21.615  -4.716  1.00  0.00     0.219 HD
ENDBRANCH  26  27
BRANCH  26  29
HETATM   29  C12 UNL     1       6.316 -22.442  -2.764  1.00  0.00     0.015 A 
HETATM   30  C13 UNL     1       6.606 -21.939  -1.494  1.00  0.00     0.017 A 
HETATM   31  C14 UNL     1       5.686 -21.246  -0.750  1.00  0.00     0.021 A 
HETATM   32  C15 UNL     1       4.422 -21.013  -1.224  1.00  0.00     0.018 A 
HETATM   33  C27 UNL     1       4.095 -21.493  -2.473  1.00  0.00     0.021 A 
HETATM   34  C28 UNL     1       5.017 -22.189  -3.221  1.00  0.00     0.017 A 
BRANCH  32  35
HETATM   35  C16 UNL     1       3.459 -20.265  -0.433  1.00  0.00    -0.061 C 
HETATM   36  C17 UNL     1       2.648 -19.646   0.193  1.00  0.00    -0.053 C 
BRANCH  36  37
HETATM   37  C18 UNL     1       1.636 -18.883   0.927  1.00  0.00     0.069 A 
HETATM   38  S1  UNL     1       0.935 -17.383   0.521  1.00  0.00    -0.091 SA
HETATM   39  C19 UNL     1      -0.101 -17.194   1.860  1.00  0.00     0.063 A 
HETATM   40  C20 UNL     1       0.135 -18.328   2.599  1.00  0.00    -0.017 A 
HETATM   41  C21 UNL     1      -0.504 -18.620   3.820  1.00  0.00     0.015 A 
HETATM   42  C26 UNL     1       1.029 -19.197   2.120  1.00  0.00     0.003 A 
HETATM   43  C22 UNL     1      -0.243 -19.762   4.530  1.00  0.00     0.037 A 
HETATM   44  C23 UNL     1       0.675 -20.666   4.047  1.00  0.00     0.069 A 
HETATM   45  C25 UNL     1       1.291 -20.370   2.856  1.00  0.00     0.051 A 
BRANCH  44  46
HETATM   46  O5  UNL     1       0.950 -21.830   4.753  1.00  0.00    -0.356 OA
HETATM   47  C24 UNL     1       0.329 -22.190   5.953  1.00  0.00     0.210 C 
ENDBRANCH  44  46
ENDBRANCH  36  37
ENDBRANCH  32  35
ENDBRANCH  26  29
ENDBRANCH   1  26
TORSDOF 9
ENDMDL
MODEL 4
REMARK VINA RESULT: -7.875116582      3.115      5.543
REMARK  9 active torsions:
REMARK  status: ('A' for Active; 'I' for Inactive)
REMARK       I    between atoms: N1_2  and  C2_4 
REMARK    1  A    between atoms: C2_4  and  C3_6 
REMARK       I    between atoms: C3_6  and  N2_8 
REMARK    2  A    between atoms: N2_8  and  C4_10 
REMARK    3  A    between atoms: C10_19  and  N4_20 
REMARK    4  A    between atoms: N4_20  and  C11_22 
REMARK    5  A    between atoms: C11_22  and  O4_23 
REMARK    6  A    between atoms: C11_22  and  C12_25 
REMARK    7  A    between atoms: C15_28  and  C16_29 
REMARK    8  A    between atoms: C17_30  and  C18_31 
REMARK    9  A    between atoms: C23_37  and  O5_38 
ROOT
HETATM    1  N4  UNL     1       3.821 -20.973  -2.958  1.00  0.00    -0.322 N 
ATOM      2  H4  UNL     1       3.051 -21.550  -3.295  1.00  0.00     0.169 HD
ENDROOT
BRANCH   1   3
HETATM    3  C10 UNL     1       5.049 -21.645  -2.967  1.00  0.00     0.109 A 
HETATM    4  C9  UNL     1       5.822 -21.868  -1.850  1.00  0.00     0.051 A 
HETATM    5  C8  UNL     1       7.014 -22.537  -1.842  1.00  0.00     0.036 A 
HETATM    6  C7  UNL     1       7.468 -23.023  -3.045  1.00  0.00     0.082 A 
HETATM    7  C6  UNL     1       6.713 -22.821  -4.221  1.00  0.00     0.132 A 
HETATM    8  N6  UNL     1       8.617 -23.718  -3.121  1.00  0.00    -0.189 N 
HETATM    9  C5  UNL     1       7.205 -23.354  -5.379  1.00  0.00     0.288 A 
HETATM   10  N5  UNL     1       5.530 -22.138  -4.158  1.00  0.00    -0.331 N 
HETATM   11  N3  UNL     1       8.361 -24.033  -5.364  1.00  0.00    -0.154 N 
HETATM   12  O3  UNL     1       6.636 -23.247  -6.463  1.00  0.00    -0.265 OA
HETATM   13  C4  UNL     1       9.105 -24.246  -4.273  1.00  0.00     0.688 A 
ATOM     14  H3  UNL     1       8.696 -24.415  -6.248  1.00  0.00     0.187 HD
HETATM   15  C29 UNL     1       4.845 -21.886  -5.380  1.00  0.00     0.158 C 
ATOM     16  H6  UNL     1       9.153 -23.857  -2.264  1.00  0.00     0.184 HD
BRANCH  13  17
HETATM   17  N2  UNL     1      10.185 -24.900  -4.318  1.00  0.00    -0.151 N 
HETATM   18  C3  UNL     1      10.342 -26.221  -3.850  1.00  0.00     0.327 C 
HETATM   19  O2  UNL     1      11.014 -26.451  -2.788  1.00  0.00    -0.261 OA
ATOM     20  H2  UNL     1      11.002 -24.441  -4.722  1.00  0.00     0.188 HD
BRANCH  18  21
HETATM   21  C2  UNL     1       9.726 -27.312  -4.595  1.00  0.00     0.309 C 
HETATM   22  N1  UNL     1      10.083 -28.653  -4.178  1.00  0.00    -0.357 N 
HETATM   23  C1  UNL     1       9.487 -29.753  -4.897  1.00  0.00     0.149 C 
ATOM     24  H1  UNL     1      10.730 -28.814  -3.405  1.00  0.00     0.162 HD
HETATM   25  O1  UNL     1       8.938 -27.152  -5.533  1.00  0.00    -0.262 OA
ENDBRANCH  18  21
ENDBRANCH  13  17
ENDBRANCH   1   3
BRANCH   1  26
HETATM   26  C11 UNL     1       3.422 -19.710  -2.597  1.00  0.00     0.151 C 
BRANCH  26  27
HETATM   27  O4  UNL     1       3.691 -18.758  -3.460  1.00  0.00    -0.345 OA
ATOM     28  H4  UNL     1       3.308 -18.864  -4.323  1.00  0.00     0.219 HD
ENDBRANCH  26  27
BRANCH  26  29
HETATM   29  C12 UNL     1       2.755 -19.204  -1.435  1.00  0.00     0.015 A 
HETATM   30  C13 UNL     1       1.515 -18.568  -1.519  1.00  0.00     0.017 A 
HETATM   31  C14 UNL     1       0.843 -18.116  -0.411  1.00  0.00     0.021 A 
HETATM   32  C15 UNL     1       1.365 -18.271   0.845  1.00  0.00     0.018 A 
HETATM   33  C27 UNL     1       2.587 -18.895   0.973  1.00  0.00     0.021 A 
HETATM   34  C28 UNL     1       3.262 -19.347  -0.138  1.00  0.00     0.017 A 
BRANCH  32  35
HETATM   35  C16 UNL     1       0.638 -17.803   2.014  1.00  0.00    -0.061 C 
HETATM   36  C17 UNL     1       0.014 -17.419   2.960  1.00  0.00    -0.053 C 
BRANCH  36  37
HETATM   37  C18 UNL     1      -0.781 -16.949   4.097  1.00  0.00     0.069 A 
HETATM   38  S1  UNL     1      -1.892 -17.823   5.050  1.00  0.00    -0.091 SA
HETATM   39  C19 UNL     1      -2.375 -16.583   6.113  1.00  0.00     0.063 A 
HETATM   40  C20 UNL     1      -1.642 -15.502   5.685  1.00  0.00    -0.017 A 
HETATM   41  C21 UNL     1      -1.707 -14.223   6.272  1.00  0.00     0.015 A 
HETATM   42  C26 UNL     1      -0.822 -15.690   4.647  1.00  0.00     0.003 A 
HETATM   43  C22 UNL     1      -0.961 -13.168   5.817  1.00  0.00     0.037 A 
HETATM   44  C23 UNL     1      -0.112 -13.349   4.750  1.00  0.00     0.069 A 
HETATM   45  C25 UNL     1      -0.056 -14.600   4.187  1.00  0.00     0.051 A 
BRANCH  44  46
HETATM   46  O5  UNL     1       0.655 -12.290   4.278  1.00  0.00    -0.356 OA
HETATM   47  C24 UNL     1       1.016 -11.176   5.041  1.00  0.00     0.210 C 
ENDBRANCH  44  46
ENDBRANCH  36  37
ENDBRANCH  32  35
ENDBRANCH  26  29
ENDBRANCH   1  26
TORSDOF 9
ENDMDL
MODEL 5
REMARK VINA RESULT: -7.786740914      3.305      5.624
REMARK  9 active torsions:
REMARK  status: ('A' for Active; 'I' for Inactive)
REMARK       I    between atoms: N1_2  and  C2_4 
REMARK    1  A    between atoms: C2_4  and  C3_6 
REMARK       I    between atoms: C3_6  and  N2_8 
REMARK    2  A    between atoms: N2_8  and  C4_10 
REMARK    3  A    between atoms: C10_19  and  N4_20 
REMARK    4  A    between atoms: N4_20  and  C11_22 
REMARK    5  A    between atoms: C11_22  and  O4_23 
REMARK    6  A    between atoms: C11_22  and  C12_25 
REMARK    7  A    between atoms: C15_28  and  C16_29 
REMARK    8  A    between atoms: C17_30  and  C18_31 
REMARK    9  A    between atoms: C23_37  and  O5_38 
ROOT
HETATM    1  N4  UNL     1       4.960 -21.036  -2.259  1.00  0.00    -0.322 N 
ATOM      2  H4  UNL     1       4.012 -21.230  -2.582  1.00  0.00     0.169 HD
ENDROOT
BRANCH   1   3
HETATM    3  C10 UNL     1       5.918 -21.861  -2.857  1.00  0.00     0.109 A 
HETATM    4  C9  UNL     1       6.980 -22.430  -2.191  1.00  0.00     0.051 A 
HETATM    5  C8  UNL     1       7.914 -23.251  -2.760  1.00  0.00     0.036 A 
HETATM    6  C7  UNL     1       7.773 -23.526  -4.100  1.00  0.00     0.082 A 
HETATM    7  C6  UNL     1       6.703 -22.967  -4.830  1.00  0.00     0.132 A 
HETATM    8  N6  UNL     1       8.632 -24.347  -4.731  1.00  0.00    -0.189 N 
HETATM    9  C5  UNL     1       6.603 -23.302  -6.150  1.00  0.00     0.288 A 
HETATM   10  N5  UNL     1       5.806 -22.149  -4.198  1.00  0.00    -0.331 N 
HETATM   11  N3  UNL     1       7.504 -24.129  -6.699  1.00  0.00    -0.154 N 
HETATM   12  O3  UNL     1       5.713 -22.881  -6.885  1.00  0.00    -0.265 OA
HETATM   13  C4  UNL     1       8.532 -24.678  -6.044  1.00  0.00     0.688 A 
ATOM     14  H3  UNL     1       7.398 -24.355  -7.688  1.00  0.00     0.187 HD
HETATM   15  C29 UNL     1       4.792 -21.541  -4.991  1.00  0.00     0.158 C 
ATOM     16  H6  UNL     1       9.402 -24.745  -4.192  1.00  0.00     0.184 HD
BRANCH  13  17
HETATM   17  N2  UNL     1       9.348 -25.458  -6.613  1.00  0.00    -0.151 N 
HETATM   18  C3  UNL     1      10.293 -26.259  -5.940  1.00  0.00     0.327 C 
HETATM   19  O2  UNL     1      11.538 -25.974  -6.002  1.00  0.00    -0.261 OA
ATOM     20  H2  UNL     1       9.322 -25.511  -7.631  1.00  0.00     0.188 HD
BRANCH  18  21
HETATM   21  C2  UNL     1       9.828 -27.410  -5.177  1.00  0.00     0.309 C 
HETATM   22  N1  UNL     1       9.807 -28.678  -5.878  1.00  0.00    -0.357 N 
HETATM   23  C1  UNL     1       9.352 -29.835  -5.146  1.00  0.00     0.149 C 
ATOM     24  H1  UNL     1      10.102 -28.749  -6.853  1.00  0.00     0.162 HD
HETATM   25  O1  UNL     1       9.467 -27.357  -3.996  1.00  0.00    -0.262 OA
ENDBRANCH  18  21
ENDBRANCH  13  17
ENDBRANCH   1   3
BRANCH   1  26
HETATM   26  C11 UNL     1       5.009 -20.023  -1.333  1.00  0.00     0.151 C 
BRANCH  26  27
HETATM   27  O4  UNL     1       6.063 -20.018  -0.549  1.00  0.00    -0.345 OA
ATOM     28  H4  UNL     1       6.602 -19.236  -0.588  1.00  0.00     0.219 HD
ENDBRANCH  26  27
BRANCH  26  29
HETATM   29  C12 UNL     1       4.118 -18.941  -1.037  1.00  0.00     0.015 A 
HETATM   30  C13 UNL     1       4.477 -17.611  -1.264  1.00  0.00     0.017 A 
HETATM   31  C14 UNL     1       3.620 -16.567  -1.027  1.00  0.00     0.021 A 
HETATM   32  C15 UNL     1       2.355 -16.784  -0.550  1.00  0.00     0.018 A 
HETATM   33  C27 UNL     1       1.960 -18.083  -0.312  1.00  0.00     0.021 A 
HETATM   34  C28 UNL     1       2.819 -19.131  -0.549  1.00  0.00     0.017 A 
BRANCH  32  35
HETATM   35  C16 UNL     1       1.448 -15.672  -0.315  1.00  0.00    -0.061 C 
HETATM   36  C17 UNL     1       0.724 -14.737  -0.132  1.00  0.00    -0.053 C 
BRANCH  36  37
HETATM   37  C18 UNL     1      -0.134 -13.569   0.082  1.00  0.00     0.069 A 
HETATM   38  S1  UNL     1      -1.128 -12.761  -1.042  1.00  0.00    -0.091 SA
HETATM   39  C19 UNL     1      -1.755 -11.545  -0.027  1.00  0.00     0.063 A 
HETATM   40  C20 UNL     1      -1.158 -11.809   1.182  1.00  0.00    -0.017 A 
HETATM   41  C21 UNL     1      -1.374 -11.052   2.350  1.00  0.00     0.015 A 
HETATM   42  C26 UNL     1      -0.324 -12.851   1.239  1.00  0.00     0.003 A 
HETATM   43  C22 UNL     1      -0.761 -11.346   3.539  1.00  0.00     0.037 A 
HETATM   44  C23 UNL     1       0.100 -12.417   3.611  1.00  0.00     0.069 A 
HETATM   45  C25 UNL     1       0.302 -13.148   2.466  1.00  0.00     0.051 A 
BRANCH  44  46
HETATM   46  O5  UNL     1       0.728 -12.731   4.810  1.00  0.00    -0.356 OA
HETATM   47  C24 UNL     1       0.972 -11.814   5.837  1.00  0.00     0.210 C 
ENDBRANCH  44  46
ENDBRANCH  36  37
ENDBRANCH  32  35
ENDBRANCH  26  29
ENDBRANCH   1  26
TORSDOF 9
ENDMDL
