MODEL 1
REMARK VINA RESULT: -7.787117307      0.000      0.000
REMARK  6 active torsions:
REMARK  status: ('A' for Active; 'I' for Inactive)
REMARK       I    between atoms: C2_3  and  N2_5 
REMARK       I    between atoms: N3_8  and  C5_9 
REMARK    1  A    between atoms: C5_9  and  C6_11 
REMARK    2  A    between atoms: C9_14  and  C10_15 
REMARK    3  A    between atoms: C10_15  and  C11_16 
REMARK    4  A    between atoms: C12_17  and  C13_18 
REMARK       I    between atoms: N6_28  and  C19_29 
REMARK       I    between atoms: C19_29  and  N7_31 
REMARK    5  A    between atoms: N7_31  and  C20_33 
REMARK    6  A    between atoms: C23_36  and  O4_37 
ROOT
HETATM    1  C1  UNL     1      -1.143 -20.647   3.208  1.00  0.00     0.234 C 
HETATM    2  N1  UNL     1      -0.191 -19.837   2.650  1.00  0.00    -0.376 NA
HETATM    3  C2  UNL     1       0.750 -19.037   2.099  1.00  0.00     0.394 C 
HETATM    4  O1  UNL     1       0.706 -17.787   1.953  1.00  0.00    -0.230 OA
HETATM    5  N2  UNL     1       1.991 -19.608   1.591  1.00  0.00    -0.319 N 
HETATM    6  C3  UNL     1       2.178 -21.012   1.757  1.00  0.00     0.148 C 
HETATM    7  C4  UNL     1       3.487 -21.501   1.263  1.00  0.00     0.145 C 
HETATM    8  N3  UNL     1       3.941 -20.890   0.031  1.00  0.00    -0.349 N 
HETATM    9  C5  UNL     1       4.413 -21.699  -0.988  1.00  0.00     0.225 C 
HETATM   10  O2  UNL     1       4.425 -22.968  -0.762  1.00  0.00    -0.273 OA
HETATM   11  C28 UNL     1       3.872 -19.466  -0.037  1.00  0.00     0.145 C 
HETATM   12  C29 UNL     1       2.972 -18.803   0.951  1.00  0.00     0.148 C 
ENDROOT
BRANCH   9  13
HETATM   13  C6  UNL     1       4.925 -21.301  -2.344  1.00  0.00     0.090 C 
HETATM   14  C7  UNL     1       3.872 -21.785  -3.376  1.00  0.00     0.096 C 
HETATM   15  C8  UNL     1       4.397 -22.753  -4.221  1.00  0.00    -0.155 C 
HETATM   16  C9  UNL     1       5.230 -23.655  -4.975  1.00  0.00     0.176 C 
HETATM   17  N6  UNL     1       6.610 -23.410  -4.428  1.00  0.00    -0.318 N 
HETATM   18  C19 UNL     1       7.515 -24.445  -4.364  1.00  0.00     0.319 C 
HETATM   19  C26 UNL     1       6.956 -22.144  -3.802  1.00  0.00     0.130 C 
HETATM   20  O3  UNL     1       7.012 -25.630  -4.405  1.00  0.00    -0.247 OA
HETATM   21  N7  UNL     1       8.906 -24.332  -4.272  1.00  0.00    -0.338 N 
ATOM     22  H7  UNL     1       9.288 -23.386  -4.266  1.00  0.00     0.164 HD
HETATM   23  C27 UNL     1       6.278 -21.918  -2.471  1.00  0.00     0.035 C 
BRANCH  16  24
HETATM   24  C10 UNL     1       5.250 -23.308  -6.458  1.00  0.00     0.054 C 
HETATM   25  C16 UNL     1       5.847 -21.956  -6.773  1.00  0.00     0.026 C 
HETATM   26  C17 UNL     1       4.719 -21.646  -7.731  1.00  0.00     0.004 C 
HETATM   27  C18 UNL     1       4.031 -22.896  -7.134  1.00  0.00     0.026 C 
BRANCH  24  28
HETATM   28  C11 UNL     1       6.003 -24.331  -7.257  1.00  0.00    -0.086 C 
HETATM   29  C12 UNL     1       6.618 -25.180  -7.842  1.00  0.00    -0.046 C 
BRANCH  29  30
HETATM   30  C13 UNL     1       7.366 -26.225  -8.496  1.00  0.00     0.102 A 
HETATM   31  C14 UNL     1       7.874 -27.365  -7.844  1.00  0.00     0.059 A 
HETATM   32  C15 UNL     1       8.514 -28.162  -8.759  1.00  0.00     0.110 A 
HETATM   33  N4  UNL     1       8.404 -27.531  -9.927  1.00  0.00    -0.311 N 
HETATM   34  N5  UNL     1       7.724 -26.383  -9.779  1.00  0.00    -0.293 N 
ATOM     35  H4  UNL     1       8.783 -27.874 -10.810  1.00  0.00     0.186 HD
ATOM     36  H5  UNL     1       7.511 -25.727 -10.531  1.00  0.00     0.187 HD
ENDBRANCH  29  30
ENDBRANCH  24  28
ENDBRANCH  16  24
BRANCH  21  37
HETATM   37  C20 UNL     1       9.854 -25.411  -4.185  1.00  0.00     0.086 C 
HETATM   38  C21 UNL     1      10.982 -24.978  -3.282  1.00  0.00     0.028 C 
HETATM   39  C22 UNL     1      11.917 -26.129  -3.036  1.00  0.00     0.034 C 
HETATM   40  C23 UNL     1      12.511 -26.556  -4.355  1.00  0.00     0.118 C 
HETATM   41  C24 UNL     1      11.476 -26.806  -5.415  1.00  0.00     0.034 C 
HETATM   42  C25 UNL     1      10.518 -25.623  -5.553  1.00  0.00     0.028 C 
BRANCH  40  43
HETATM   43  O4  UNL     1      13.398 -25.616  -4.796  1.00  0.00    -0.396 OA
ATOM     44  H4  UNL     1      13.620 -25.779  -5.705  1.00  0.00     0.210 HD
ENDBRANCH  40  43
ENDBRANCH  21  37
ENDBRANCH   9  13
TORSDOF 5
ENDMDL
MODEL 2
REMARK VINA RESULT: -7.738168612      2.384      3.865
REMARK  6 active torsions:
REMARK  status: ('A' for Active; 'I' for Inactive)
REMARK       I    between atoms: C2_3  and  N2_5 
REMARK       I    between atoms: N3_8  and  C5_9 
REMARK    1  A    between atoms: C5_9  and  C6_11 
REMARK    2  A    between atoms: C9_14  and  C10_15 
REMARK    3  A    between atoms: C10_15  and  C11_16 
REMARK    4  A    between atoms: C12_17  and  C13_18 
REMARK       I    between atoms: N6_28  and  C19_29 
REMARK       I    between atoms: C19_29  and  N7_31 
REMARK    5  A    between atoms: N7_31  and  C20_33 
REMARK    6  A    between atoms: C23_36  and  O4_37 
ROOT
HETATM    1  C1  UNL     1       1.323 -18.679   2.268  1.00  0.00     0.234 C 
HETATM    2  N1  UNL     1       2.562 -18.905   1.730  1.00  0.00    -0.376 NA
HETATM    3  C2  UNL     1       3.785 -19.128   1.198  1.00  0.00     0.394 C 
HETATM    4  O1  UNL     1       4.856 -18.516   1.450  1.00  0.00    -0.230 OA
HETATM    5  N2  UNL     1       3.974 -20.185   0.210  1.00  0.00    -0.319 N 
HETATM    6  C3  UNL     1       2.838 -20.987  -0.110  1.00  0.00     0.148 C 
HETATM    7  C4  UNL     1       3.129 -22.070  -1.078  1.00  0.00     0.145 C 
HETATM    8  N3  UNL     1       4.034 -21.705  -2.148  1.00  0.00    -0.349 N 
HETATM    9  C5  UNL     1       3.701 -22.028  -3.452  1.00  0.00     0.225 C 
HETATM   10  O2  UNL     1       2.588 -22.654  -3.627  1.00  0.00    -0.273 OA
HETATM   11  C28 UNL     1       5.232 -21.030  -1.767  1.00  0.00     0.145 C 
HETATM   12  C29 UNL     1       5.232 -20.404  -0.412  1.00  0.00     0.148 C 
ENDROOT
BRANCH   9  13
HETATM   13  C6  UNL     1       4.467 -21.751  -4.715  1.00  0.00     0.090 C 
HETATM   14  C7  UNL     1       3.683 -22.429  -5.868  1.00  0.00     0.096 C 
HETATM   15  C8  UNL     1       4.423 -23.444  -6.458  1.00  0.00    -0.155 C 
HETATM   16  C9  UNL     1       5.442 -24.361  -6.904  1.00  0.00     0.176 C 
HETATM   17  N6  UNL     1       6.660 -23.950  -6.124  1.00  0.00    -0.318 N 
HETATM   18  C19 UNL     1       7.583 -24.899  -5.745  1.00  0.00     0.319 C 
HETATM   19  C26 UNL     1       6.801 -22.597  -5.608  1.00  0.00     0.130 C 
HETATM   20  O3  UNL     1       7.160 -26.115  -5.735  1.00  0.00    -0.247 OA
HETATM   21  N7  UNL     1       8.915 -24.669  -5.387  1.00  0.00    -0.338 N 
ATOM     22  H7  UNL     1       9.239 -23.703  -5.425  1.00  0.00     0.164 HD
HETATM   23  C27 UNL     1       5.847 -22.273  -4.484  1.00  0.00     0.035 C 
BRANCH  16  24
HETATM   24  C10 UNL     1       5.757 -24.187  -8.384  1.00  0.00     0.054 C 
HETATM   25  C16 UNL     1       4.799 -24.897  -9.313  1.00  0.00     0.026 C 
HETATM   26  C17 UNL     1       5.946 -25.420 -10.148  1.00  0.00     0.004 C 
HETATM   27  C18 UNL     1       6.851 -24.923  -8.996  1.00  0.00     0.026 C 
BRANCH  24  28
HETATM   28  C11 UNL     1       5.779 -22.739  -8.780  1.00  0.00    -0.086 C 
HETATM   29  C12 UNL     1       5.760 -21.596  -9.146  1.00  0.00    -0.046 C 
BRANCH  29  30
HETATM   30  C13 UNL     1       5.702 -20.238  -9.628  1.00  0.00     0.102 A 
HETATM   31  C14 UNL     1       4.509 -19.540  -9.895  1.00  0.00     0.059 A 
HETATM   32  C15 UNL     1       4.812 -18.270 -10.318  1.00  0.00     0.110 A 
HETATM   33  N4  UNL     1       6.143 -18.196 -10.312  1.00  0.00    -0.311 N 
HETATM   34  N5  UNL     1       6.677 -19.359  -9.904  1.00  0.00    -0.293 N 
ATOM     35  H4  UNL     1       6.680 -17.371 -10.580  1.00  0.00     0.186 HD
ATOM     36  H5  UNL     1       7.676 -19.546  -9.817  1.00  0.00     0.187 HD
ENDBRANCH  29  30
ENDBRANCH  24  28
ENDBRANCH  16  24
BRANCH  21  37
HETATM   37  C20 UNL     1       9.877 -25.656  -4.971  1.00  0.00     0.086 C 
HETATM   38  C21 UNL     1      10.701 -25.070  -3.851  1.00  0.00     0.028 C 
HETATM   39  C22 UNL     1      11.614 -26.118  -3.279  1.00  0.00     0.034 C 
HETATM   40  C23 UNL     1      12.556 -26.578  -4.363  1.00  0.00     0.118 C 
HETATM   41  C24 UNL     1      11.851 -26.984  -5.626  1.00  0.00     0.034 C 
HETATM   42  C25 UNL     1      10.886 -25.898  -6.102  1.00  0.00     0.028 C 
BRANCH  40  43
HETATM   43  O4  UNL     1      13.464 -25.596  -4.642  1.00  0.00    -0.396 OA
ATOM     44  H4  UNL     1      14.174 -25.948  -5.166  1.00  0.00     0.210 HD
ENDBRANCH  40  43
ENDBRANCH  21  37
ENDBRANCH   9  13
TORSDOF 5
ENDMDL
MODEL 3
REMARK VINA RESULT: -7.631615070      4.013      8.167
REMARK  6 active torsions:
REMARK  status: ('A' for Active; 'I' for Inactive)
REMARK       I    between atoms: C2_3  and  N2_5 
REMARK       I    between atoms: N3_8  and  C5_9 
REMARK    1  A    between atoms: C5_9  and  C6_11 
REMARK    2  A    between atoms: C9_14  and  C10_15 
REMARK    3  A    between atoms: C10_15  and  C11_16 
REMARK    4  A    between atoms: C12_17  and  C13_18 
REMARK       I    between atoms: N6_28  and  C19_29 
REMARK       I    between atoms: C19_29  and  N7_31 
REMARK    5  A    between atoms: N7_31  and  C20_33 
REMARK    6  A    between atoms: C23_36  and  O4_37 
ROOT
HETATM    1  C1  UNL     1       5.973 -13.970  -9.458  1.00  0.00     0.234 C 
HETATM    2  N1  UNL     1       4.898 -14.809  -9.339  1.00  0.00    -0.376 NA
HETATM    3  C2  UNL     1       3.837 -15.639  -9.222  1.00  0.00     0.394 C 
HETATM    4  O1  UNL     1       2.677 -15.352  -8.828  1.00  0.00    -0.230 OA
HETATM    5  N2  UNL     1       3.966 -17.048  -9.575  1.00  0.00    -0.319 N 
HETATM    6  C3  UNL     1       5.224 -17.477 -10.094  1.00  0.00     0.148 C 
HETATM    7  C4  UNL     1       5.252 -18.908 -10.478  1.00  0.00     0.145 C 
HETATM    8  N3  UNL     1       4.542 -19.795  -9.580  1.00  0.00    -0.349 N 
HETATM    9  C5  UNL     1       5.160 -20.957  -9.152  1.00  0.00     0.225 C 
HETATM   10  O2  UNL     1       6.349 -21.180  -9.601  1.00  0.00    -0.273 OA
HETATM   11  C28 UNL     1       3.225 -19.397  -9.201  1.00  0.00     0.145 C 
HETATM   12  C29 UNL     1       2.888 -17.958  -9.406  1.00  0.00     0.148 C 
ENDROOT
BRANCH   9  13
HETATM   13  C6  UNL     1       4.633 -22.017  -8.227  1.00  0.00     0.090 C 
HETATM   14  C7  UNL     1       4.023 -21.278  -7.007  1.00  0.00     0.096 C 
HETATM   15  C8  UNL     1       4.712 -21.571  -5.838  1.00  0.00    -0.155 C 
HETATM   16  C9  UNL     1       5.557 -22.119  -4.807  1.00  0.00     0.176 C 
HETATM   17  N6  UNL     1       6.342 -23.188  -5.518  1.00  0.00    -0.318 N 
HETATM   18  C19 UNL     1       7.635 -23.461  -5.131  1.00  0.00     0.319 C 
HETATM   19  C26 UNL     1       5.827 -23.824  -6.720  1.00  0.00     0.130 C 
HETATM   20  O3  UNL     1       8.223 -22.532  -4.460  1.00  0.00    -0.247 OA
HETATM   21  N7  UNL     1       8.351 -24.635  -5.384  1.00  0.00    -0.338 N 
ATOM     22  H7  UNL     1       7.860 -25.369  -5.895  1.00  0.00     0.164 HD
HETATM   23  C27 UNL     1       5.789 -22.911  -7.922  1.00  0.00     0.035 C 
BRANCH  16  24
HETATM   24  C10 UNL     1       4.749 -22.791  -3.705  1.00  0.00     0.054 C 
HETATM   25  C16 UNL     1       4.954 -24.285  -3.605  1.00  0.00     0.026 C 
HETATM   26  C17 UNL     1       3.465 -24.512  -3.469  1.00  0.00     0.004 C 
HETATM   27  C18 UNL     1       3.325 -23.026  -3.875  1.00  0.00     0.026 C 
BRANCH  24  28
HETATM   28  C11 UNL     1       5.052 -22.203  -2.358  1.00  0.00    -0.086 C 
HETATM   29  C12 UNL     1       5.289 -21.675  -1.306  1.00  0.00    -0.046 C 
BRANCH  29  30
HETATM   30  C13 UNL     1       5.567 -20.990  -0.067  1.00  0.00     0.102 A 
HETATM   31  C14 UNL     1       6.809 -20.415   0.261  1.00  0.00     0.059 A 
HETATM   32  C15 UNL     1       6.724 -19.829   1.498  1.00  0.00     0.110 A 
HETATM   33  N4  UNL     1       5.475 -20.040   1.912  1.00  0.00    -0.311 N 
HETATM   34  N5  UNL     1       4.783 -20.728   0.989  1.00  0.00    -0.293 N 
ATOM     35  H4  UNL     1       5.097 -19.723   2.806  1.00  0.00     0.186 HD
ATOM     36  H5  UNL     1       3.806 -21.009   1.078  1.00  0.00     0.187 HD
ENDBRANCH  29  30
ENDBRANCH  24  28
ENDBRANCH  16  24
BRANCH  21  37
HETATM   37  C20 UNL     1       9.709 -24.915  -4.998  1.00  0.00     0.086 C 
HETATM   38  C21 UNL     1      10.152 -26.170  -5.709  1.00  0.00     0.028 C 
HETATM   39  C22 UNL     1      11.614 -26.415  -5.460  1.00  0.00     0.034 C 
HETATM   40  C23 UNL     1      11.822 -26.617  -3.980  1.00  0.00     0.118 C 
HETATM   41  C24 UNL     1      11.219 -25.523  -3.144  1.00  0.00     0.034 C 
HETATM   42  C25 UNL     1       9.755 -25.282  -3.509  1.00  0.00     0.028 C 
BRANCH  40  43
HETATM   43  O4  UNL     1      11.308 -27.821  -3.593  1.00  0.00    -0.396 OA
ATOM     44  H4  UNL     1      11.842 -28.198  -2.905  1.00  0.00     0.210 HD
ENDBRANCH  40  43
ENDBRANCH  21  37
ENDBRANCH   9  13
TORSDOF 5
ENDMDL
MODEL 4
REMARK VINA RESULT: -7.532387973      3.018     10.546
REMARK  6 active torsions:
REMARK  status: ('A' for Active; 'I' for Inactive)
REMARK       I    between atoms: C2_3  and  N2_5 
REMARK       I    between atoms: N3_8  and  C5_9 
REMARK    1  A    between atoms: C5_9  and  C6_11 
REMARK    2  A    between atoms: C9_14  and  C10_15 
REMARK    3  A    between atoms: C10_15  and  C11_16 
REMARK    4  A    between atoms: C12_17  and  C13_18 
REMARK       I    between atoms: N6_28  and  C19_29 
REMARK       I    between atoms: C19_29  and  N7_31 
REMARK    5  A    between atoms: N7_31  and  C20_33 
REMARK    6  A    between atoms: C23_36  and  O4_37 
ROOT
HETATM    1  C1  UNL     1      13.850 -28.282 -10.634  1.00  0.00     0.234 C 
HETATM    2  N1  UNL     1      12.806 -28.864  -9.967  1.00  0.00    -0.376 NA
HETATM    3  C2  UNL     1      11.775 -29.438  -9.307  1.00  0.00     0.394 C 
HETATM    4  O1  UNL     1      11.200 -30.525  -9.577  1.00  0.00    -0.230 OA
HETATM    5  N2  UNL     1      11.203 -28.789  -8.133  1.00  0.00    -0.319 N 
HETATM    6  C3  UNL     1      11.816 -27.577  -7.696  1.00  0.00     0.148 C 
HETATM    7  C4  UNL     1      11.209 -27.013  -6.468  1.00  0.00     0.145 C 
HETATM    8  N3  UNL     1       9.767 -27.116  -6.396  1.00  0.00    -0.349 N 
HETATM    9  C5  UNL     1       9.027 -26.002  -6.038  1.00  0.00     0.225 C 
HETATM   10  O2  UNL     1       9.690 -24.927  -5.778  1.00  0.00    -0.273 OA
HETATM   11  C28 UNL     1       9.203 -28.392  -6.700  1.00  0.00     0.145 C 
HETATM   12  C29 UNL     1      10.080 -29.335  -7.455  1.00  0.00     0.148 C 
ENDROOT
BRANCH   9  13
HETATM   13  C6  UNL     1       7.537 -25.865  -5.904  1.00  0.00     0.090 C 
HETATM   14  C7  UNL     1       7.042 -25.136  -7.180  1.00  0.00     0.096 C 
HETATM   15  C8  UNL     1       6.491 -23.898  -6.876  1.00  0.00    -0.155 C 
HETATM   16  C9  UNL     1       5.923 -22.730  -6.252  1.00  0.00     0.176 C 
HETATM   17  N6  UNL     1       5.985 -23.044  -4.782  1.00  0.00    -0.318 N 
HETATM   18  C19 UNL     1       6.183 -22.030  -3.872  1.00  0.00     0.319 C 
HETATM   19  C26 UNL     1       6.014 -24.419  -4.308  1.00  0.00     0.130 C 
HETATM   20  O3  UNL     1       6.692 -20.946  -4.347  1.00  0.00    -0.247 OA
HETATM   21  N7  UNL     1       5.878 -22.062  -2.508  1.00  0.00    -0.338 N 
ATOM     22  H7  UNL     1       5.453 -22.919  -2.154  1.00  0.00     0.164 HD
HETATM   23  C27 UNL     1       7.302 -25.142  -4.619  1.00  0.00     0.035 C 
BRANCH  16  24
HETATM   24  C10 UNL     1       4.460 -22.539  -6.625  1.00  0.00     0.054 C 
HETATM   25  C16 UNL     1       3.595 -23.759  -6.402  1.00  0.00     0.026 C 
HETATM   26  C17 UNL     1       2.934 -23.577  -7.749  1.00  0.00     0.004 C 
HETATM   27  C18 UNL     1       4.049 -22.538  -8.019  1.00  0.00     0.026 C 
BRANCH  24  28
HETATM   28  C11 UNL     1       3.838 -21.401  -5.868  1.00  0.00    -0.086 C 
HETATM   29  C12 UNL     1       3.312 -20.473  -5.317  1.00  0.00    -0.046 C 
BRANCH  29  30
HETATM   30  C13 UNL     1       2.654 -19.346  -4.704  1.00  0.00     0.102 A 
HETATM   31  C14 UNL     1       2.176 -18.226  -5.409  1.00  0.00     0.059 A 
HETATM   32  C15 UNL     1       1.589 -17.353  -4.528  1.00  0.00     0.110 A 
HETATM   33  N4  UNL     1       1.706 -17.919  -3.327  1.00  0.00    -0.311 N 
HETATM   34  N5  UNL     1       2.336 -19.100  -3.424  1.00  0.00    -0.293 N 
ATOM     35  H4  UNL     1       1.365 -17.511  -2.457  1.00  0.00     0.186 HD
ATOM     36  H5  UNL     1       2.543 -19.720  -2.640  1.00  0.00     0.187 HD
ENDBRANCH  29  30
ENDBRANCH  24  28
ENDBRANCH  16  24
BRANCH  21  37
HETATM   37  C20 UNL     1       6.102 -21.011  -1.550  1.00  0.00     0.086 C 
HETATM   38  C21 UNL     1       6.661 -21.629  -0.292  1.00  0.00     0.028 C 
HETATM   39  C22 UNL     1       7.057 -20.553   0.680  1.00  0.00     0.034 C 
HETATM   40  C23 UNL     1       5.826 -19.765   1.052  1.00  0.00     0.118 C 
HETATM   41  C24 UNL     1       5.054 -19.277  -0.142  1.00  0.00     0.034 C 
HETATM   42  C25 UNL     1       4.755 -20.414  -1.118  1.00  0.00     0.028 C 
BRANCH  40  43
HETATM   43  O4  UNL     1       5.010 -20.517   1.847  1.00  0.00    -0.396 OA
ATOM     44  H4  UNL     1       4.115 -20.203   1.785  1.00  0.00     0.210 HD
ENDBRANCH  40  43
ENDBRANCH  21  37
ENDBRANCH   9  13
TORSDOF 5
ENDMDL
MODEL 5
REMARK VINA RESULT: -7.506641699      1.539      1.818
REMARK  6 active torsions:
REMARK  status: ('A' for Active; 'I' for Inactive)
REMARK       I    between atoms: C2_3  and  N2_5 
REMARK       I    between atoms: N3_8  and  C5_9 
REMARK    1  A    between atoms: C5_9  and  C6_11 
REMARK    2  A    between atoms: C9_14  and  C10_15 
REMARK    3  A    between atoms: C10_15  and  C11_16 
REMARK    4  A    between atoms: C12_17  and  C13_18 
REMARK       I    between atoms: N6_28  and  C19_29 
REMARK       I    between atoms: C19_29  and  N7_31 
REMARK    5  A    between atoms: N7_31  and  C20_33 
REMARK    6  A    between atoms: C23_36  and  O4_37 
ROOT
HETATM    1  C1  UNL     1       1.370 -19.323   3.629  1.00  0.00     0.234 C 
HETATM    2  N1  UNL     1       2.600 -19.443   3.043  1.00  0.00    -0.376 NA
HETATM    3  C2  UNL     1       3.816 -19.563   2.462  1.00  0.00     0.394 C 
HETATM    4  O1  UNL     1       4.870 -18.937   2.750  1.00  0.00    -0.230 OA
HETATM    5  N2  UNL     1       4.017 -20.508   1.370  1.00  0.00    -0.319 N 
HETATM    6  C3  UNL     1       2.904 -21.319   0.997  1.00  0.00     0.148 C 
HETATM    7  C4  UNL     1       3.209 -22.287  -0.082  1.00  0.00     0.145 C 
HETATM    8  N3  UNL     1       4.070 -21.782  -1.131  1.00  0.00    -0.349 N 
HETATM    9  C5  UNL     1       3.715 -21.986  -2.453  1.00  0.00     0.225 C 
HETATM   10  O2  UNL     1       2.621 -22.636  -2.664  1.00  0.00    -0.273 OA
HETATM   11  C28 UNL     1       5.252 -21.101  -0.711  1.00  0.00     0.145 C 
HETATM   12  C29 UNL     1       5.265 -20.613   0.699  1.00  0.00     0.148 C 
ENDROOT
BRANCH   9  13
HETATM   13  C6  UNL     1       4.435 -21.554  -3.698  1.00  0.00     0.090 C 
HETATM   14  C7  UNL     1       3.584 -22.047  -4.898  1.00  0.00     0.096 C 
HETATM   15  C8  UNL     1       4.269 -22.988  -5.654  1.00  0.00    -0.155 C 
HETATM   16  C9  UNL     1       5.242 -23.856  -6.268  1.00  0.00     0.176 C 
HETATM   17  N6  UNL     1       6.503 -23.585  -5.494  1.00  0.00    -0.318 N 
HETATM   18  C19 UNL     1       7.414 -24.598  -5.292  1.00  0.00     0.319 C 
HETATM   19  C26 UNL     1       6.704 -22.321  -4.805  1.00  0.00     0.130 C 
HETATM   20  O3  UNL     1       6.957 -25.794  -5.430  1.00  0.00    -0.247 OA
HETATM   21  N7  UNL     1       8.766 -24.451  -4.967  1.00  0.00    -0.338 N 
ATOM     22  H7  UNL     1       9.115 -23.496  -4.885  1.00  0.00     0.164 HD
HETATM   23  C27 UNL     1       5.807 -22.134  -3.604  1.00  0.00     0.035 C 
BRANCH  16  24
HETATM   24  C10 UNL     1       5.500 -23.486  -7.722  1.00  0.00     0.054 C 
HETATM   25  C16 UNL     1       6.284 -22.206  -7.909  1.00  0.00     0.026 C 
HETATM   26  C17 UNL     1       5.337 -21.748  -8.995  1.00  0.00     0.004 C 
HETATM   27  C18 UNL     1       4.438 -22.920  -8.538  1.00  0.00     0.026 C 
BRANCH  24  28
HETATM   28  C11 UNL     1       6.233 -24.574  -8.451  1.00  0.00    -0.086 C 
HETATM   29  C12 UNL     1       6.784 -25.431  -9.086  1.00  0.00    -0.046 C 
BRANCH  29  30
HETATM   30  C13 UNL     1       7.415 -26.446  -9.893  1.00  0.00     0.102 A 
HETATM   31  C14 UNL     1       7.104 -26.693 -11.243  1.00  0.00     0.059 A 
HETATM   32  C15 UNL     1       7.900 -27.708 -11.712  1.00  0.00     0.110 A 
HETATM   33  N4  UNL     1       8.668 -28.069 -10.684  1.00  0.00    -0.311 N 
HETATM   34  N5  UNL     1       8.386 -27.325  -9.603  1.00  0.00    -0.293 N 
ATOM     35  H4  UNL     1       9.372 -28.807 -10.716  1.00  0.00     0.186 HD
ATOM     36  H5  UNL     1       8.843 -27.415  -8.695  1.00  0.00     0.187 HD
ENDBRANCH  29  30
ENDBRANCH  24  28
ENDBRANCH  16  24
BRANCH  21  37
HETATM   37  C20 UNL     1       9.715 -25.507  -4.734  1.00  0.00     0.086 C 
HETATM   38  C21 UNL     1      10.629 -25.082  -3.612  1.00  0.00     0.028 C 
HETATM   39  C22 UNL     1      11.538 -26.216  -3.228  1.00  0.00     0.034 C 
HETATM   40  C23 UNL     1      12.392 -26.571  -4.419  1.00  0.00     0.118 C 
HETATM   41  C24 UNL     1      11.594 -26.804  -5.671  1.00  0.00     0.034 C 
HETATM   42  C25 UNL     1      10.641 -25.642  -5.951  1.00  0.00     0.028 C 
BRANCH  40  43
HETATM   43  O4  UNL     1      13.316 -25.590  -4.644  1.00  0.00    -0.396 OA
ATOM     44  H4  UNL     1      13.122 -24.831  -4.107  1.00  0.00     0.210 HD
ENDBRANCH  40  43
ENDBRANCH  21  37
ENDBRANCH   9  13
TORSDOF 5
ENDMDL
