MODEL 1
REMARK VINA RESULT: -7.545080085      0.000      0.000
REMARK  8 active torsions:
REMARK  status: ('A' for Active; 'I' for Inactive)
REMARK       I    between atoms: N1_3  and  C3_4 
REMARK    1  A    between atoms: C3_4  and  C4_6 
REMARK    2  A    between atoms: C4_6  and  N2_7 
REMARK    3  A    between atoms: C4_6  and  C10_17 
REMARK       I    between atoms: N2_7  and  C5_9 
REMARK       I    between atoms: C5_9  and  N3_11 
REMARK    4  A    between atoms: N3_11  and  C6_13 
REMARK    5  A    between atoms: N4_20  and  C13_21 
REMARK    6  A    between atoms: C13_21  and  O3_22 
REMARK    7  A    between atoms: C13_21  and  C14_24 
REMARK    8  A    between atoms: C14_24  and  N5_27 
ROOT
HETATM    1  C4  UNL     1       6.814 -23.252  -3.505  1.00  0.00     0.182 C 
ENDROOT
BRANCH   1   2
HETATM    2  C3  UNL     1       6.519 -23.033  -4.934  1.00  0.00     0.243 C 
HETATM    3  N1  UNL     1       5.634 -23.855  -5.637  1.00  0.00    -0.343 N 
HETATM    4  C2  UNL     1       5.242 -23.700  -7.031  1.00  0.00     0.123 C 
HETATM    5  C19 UNL     1       4.948 -25.028  -5.174  1.00  0.00     0.130 C 
HETATM    6  C1  UNL     1       4.107 -22.703  -7.062  1.00  0.00     0.036 C 
HETATM    7  C21 UNL     1       4.840 -25.052  -7.530  1.00  0.00     0.123 C 
HETATM    8  C20 UNL     1       5.121 -25.978  -6.370  1.00  0.00     0.066 C 
HETATM    9  O4  UNL     1       3.454 -25.107  -7.751  1.00  0.00    -0.285 OA
HETATM   10  C28 UNL     1       5.656 -25.493  -8.690  1.00  0.00     0.004 A 
HETATM   11  C22 UNL     1       2.716 -25.883  -8.641  1.00  0.00     0.363 C 
HETATM   12  O5  UNL     1       1.601 -26.323  -8.303  1.00  0.00    -0.238 OA
HETATM   13  N6  UNL     1       3.106 -26.250  -9.955  1.00  0.00    -0.328 N 
HETATM   14  C23 UNL     1       2.459 -27.384 -10.591  1.00  0.00     0.155 C 
HETATM   15  C24 UNL     1       4.135 -25.556 -10.741  1.00  0.00     0.168 C 
HETATM   16  C25 UNL     1       5.397 -25.709 -10.012  1.00  0.00    -0.014 A 
HETATM   17  C26 UNL     1       6.556 -26.118 -10.632  1.00  0.00     0.097 A 
HETATM   18  N7  UNL     1       7.516 -26.152  -9.693  1.00  0.00    -0.374 N 
HETATM   19  C27 UNL     1       6.999 -25.778  -8.506  1.00  0.00     0.098 A 
ATOM     20  H7  UNL     1       8.487 -26.420  -9.854  1.00  0.00     0.164 HD
HETATM   21  O1  UNL     1       7.085 -22.080  -5.526  1.00  0.00    -0.271 OA
ENDBRANCH   1   2
BRANCH   1  22
HETATM   22  N2  UNL     1       8.254 -23.405  -3.295  1.00  0.00    -0.329 N 
HETATM   23  C5  UNL     1       8.920 -24.575  -3.722  1.00  0.00     0.317 C 
HETATM   24  O2  UNL     1       8.257 -25.507  -4.296  1.00  0.00    -0.247 OA
HETATM   25  N3  UNL     1      10.302 -24.777  -3.546  1.00  0.00    -0.335 N 
ATOM     26  H3  UNL     1      10.855 -24.051  -3.092  1.00  0.00     0.165 HD
ATOM     27  H2  UNL     1       8.780 -22.661  -2.836  1.00  0.00     0.165 HD
BRANCH  25  28
HETATM   28  C6  UNL     1      10.959 -25.986  -3.993  1.00  0.00     0.023 C 
HETATM   29  C7  UNL     1      12.390 -25.996  -3.448  1.00  0.00     0.037 C 
HETATM   30  C8  UNL     1      11.107 -25.980  -5.519  1.00  0.00     0.037 C 
HETATM   31  C9  UNL     1      10.216 -27.207  -3.539  1.00  0.00     0.037 C 
ENDBRANCH  25  28
ENDBRANCH   1  22
BRANCH   1  32
HETATM   32  C10 UNL     1       6.318 -22.095  -2.638  1.00  0.00     0.021 C 
HETATM   33  C11 UNL     1       4.810 -22.121  -2.756  1.00  0.00     0.027 C 
HETATM   34  C12 UNL     1       4.315 -20.817  -2.097  1.00  0.00     0.125 C 
HETATM   35  N4  UNL     1       4.770 -20.853  -0.730  1.00  0.00    -0.363 N 
HETATM   36  C17 UNL     1       5.561 -22.013  -0.317  1.00  0.00     0.125 C 
HETATM   37  C18 UNL     1       6.740 -22.269  -1.204  1.00  0.00     0.027 C 
BRANCH  35  38
HETATM   38  C13 UNL     1       4.469 -19.813   0.165  1.00  0.00     0.149 C 
BRANCH  38  39
HETATM   39  O3  UNL     1       3.263 -19.839   0.653  1.00  0.00    -0.348 OA
ATOM     40  H3  UNL     1       2.760 -19.043   0.524  1.00  0.00     0.219 HD
ENDBRANCH  38  39
BRANCH  38  41
HETATM   41  C14 UNL     1       5.351 -18.724   0.599  1.00  0.00     0.180 C 
HETATM   42  C15 UNL     1       4.852 -17.367   0.119  1.00  0.00     0.055 C 
HETATM   43  C16 UNL     1       5.355 -18.752   2.130  1.00  0.00     0.055 C 
BRANCH  41  44
HETATM   44  N5  UNL     1       6.698 -18.858   0.156  1.00  0.00    -0.064 N 
ATOM     45  H53 UNL     1       6.751 -19.498  -0.637  1.00  0.00     0.275 HD
ATOM     46  H52 UNL     1       7.013 -17.999  -0.295  1.00  0.00     0.275 HD
ATOM     47  H51 UNL     1       7.349 -19.139   0.889  1.00  0.00     0.275 HD
ENDBRANCH  41  44
ENDBRANCH  38  41
ENDBRANCH  35  38
ENDBRANCH   1  32
TORSDOF 8
ENDMDL
MODEL 2
REMARK VINA RESULT: -7.490126263      1.574      1.751
REMARK  8 active torsions:
REMARK  status: ('A' for Active; 'I' for Inactive)
REMARK       I    between atoms: N1_3  and  C3_4 
REMARK    1  A    between atoms: C3_4  and  C4_6 
REMARK    2  A    between atoms: C4_6  and  N2_7 
REMARK    3  A    between atoms: C4_6  and  C10_17 
REMARK       I    between atoms: N2_7  and  C5_9 
REMARK       I    between atoms: C5_9  and  N3_11 
REMARK    4  A    between atoms: N3_11  and  C6_13 
REMARK    5  A    between atoms: N4_20  and  C13_21 
REMARK    6  A    between atoms: C13_21  and  O3_22 
REMARK    7  A    between atoms: C13_21  and  C14_24 
REMARK    8  A    between atoms: C14_24  and  N5_27 
ROOT
HETATM    1  C4  UNL     1       6.440 -22.786  -3.685  1.00  0.00     0.182 C 
ENDROOT
BRANCH   1   2
HETATM    2  C3  UNL     1       5.924 -22.256  -4.962  1.00  0.00     0.243 C 
HETATM    3  N1  UNL     1       4.810 -22.814  -5.594  1.00  0.00    -0.343 N 
HETATM    4  C2  UNL     1       4.197 -22.343  -6.828  1.00  0.00     0.123 C 
HETATM    5  C19 UNL     1       4.048 -23.967  -5.204  1.00  0.00     0.130 C 
HETATM    6  C1  UNL     1       3.242 -21.234  -6.451  1.00  0.00     0.036 C 
HETATM    7  C21 UNL     1       3.507 -23.513  -7.455  1.00  0.00     0.123 C 
HETATM    8  C20 UNL     1       3.851 -24.676  -6.554  1.00  0.00     0.066 C 
HETATM    9  O4  UNL     1       2.112 -23.361  -7.387  1.00  0.00    -0.285 OA
HETATM   10  C28 UNL     1       4.019 -23.810  -8.817  1.00  0.00     0.004 A 
HETATM   11  C22 UNL     1       1.113 -23.855  -8.222  1.00  0.00     0.363 C 
HETATM   12  O5  UNL     1       0.025 -24.219  -7.737  1.00  0.00    -0.238 OA
HETATM   13  N6  UNL     1       1.194 -23.998  -9.631  1.00  0.00    -0.328 N 
HETATM   14  C23 UNL     1       0.275 -24.901 -10.301  1.00  0.00     0.155 C 
HETATM   15  C24 UNL     1       2.156 -23.289 -10.485  1.00  0.00     0.168 C 
HETATM   16  C25 UNL     1       3.492 -23.729 -10.072  1.00  0.00    -0.014 A 
HETATM   17  C26 UNL     1       4.440 -24.139 -10.982  1.00  0.00     0.097 A 
HETATM   18  N7  UNL     1       5.539 -24.471 -10.284  1.00  0.00    -0.374 N 
HETATM   19  C27 UNL     1       5.313 -24.280  -8.969  1.00  0.00     0.098 A 
ATOM     20  H7  UNL     1       6.411 -24.813 -10.687  1.00  0.00     0.164 HD
HETATM   21  O1  UNL     1       6.512 -21.278  -5.488  1.00  0.00    -0.271 OA
ENDBRANCH   1   2
BRANCH   1  22
HETATM   22  N2  UNL     1       7.876 -23.043  -3.777  1.00  0.00    -0.329 N 
HETATM   23  C5  UNL     1       8.353 -24.290  -4.239  1.00  0.00     0.317 C 
HETATM   24  O2  UNL     1       7.519 -25.199  -4.578  1.00  0.00    -0.247 OA
HETATM   25  N3  UNL     1       9.723 -24.593  -4.349  1.00  0.00    -0.335 N 
ATOM     26  H3  UNL     1      10.410 -23.887  -4.086  1.00  0.00     0.165 HD
ATOM     27  H2  UNL     1       8.540 -22.317  -3.505  1.00  0.00     0.165 HD
BRANCH  25  28
HETATM   28  C6  UNL     1      10.184 -25.880  -4.825  1.00  0.00     0.023 C 
HETATM   29  C7  UNL     1      11.715 -25.895  -4.792  1.00  0.00     0.037 C 
HETATM   30  C8  UNL     1       9.809 -26.068  -6.300  1.00  0.00     0.037 C 
HETATM   31  C9  UNL     1       9.629 -26.997  -3.993  1.00  0.00     0.037 C 
ENDBRANCH  25  28
ENDBRANCH   1  22
BRANCH   1  32
HETATM   32  C10 UNL     1       6.194 -21.817  -2.527  1.00  0.00     0.021 C 
HETATM   33  C11 UNL     1       4.748 -22.021  -2.133  1.00  0.00     0.027 C 
HETATM   34  C12 UNL     1       4.419 -20.882  -1.146  1.00  0.00     0.125 C 
HETATM   35  N4  UNL     1       5.326 -21.029  -0.037  1.00  0.00    -0.363 N 
HETATM   36  C17 UNL     1       6.299 -22.122  -0.106  1.00  0.00     0.125 C 
HETATM   37  C18 UNL     1       7.106 -22.113  -1.367  1.00  0.00     0.027 C 
BRANCH  35  38
HETATM   38  C13 UNL     1       5.282 -20.155   1.063  1.00  0.00     0.149 C 
BRANCH  38  39
HETATM   39  O3  UNL     1       4.534 -20.551   2.050  1.00  0.00    -0.348 OA
ATOM     40  H3  UNL     1       3.687 -20.125   2.109  1.00  0.00     0.219 HD
ENDBRANCH  38  39
BRANCH  38  41
HETATM   41  C14 UNL     1       5.974 -18.870   1.212  1.00  0.00     0.180 C 
HETATM   42  C15 UNL     1       5.192 -17.729   0.574  1.00  0.00     0.055 C 
HETATM   43  C16 UNL     1       6.104 -18.620   2.716  1.00  0.00     0.055 C 
BRANCH  41  44
HETATM   44  N5  UNL     1       7.283 -18.849   0.649  1.00  0.00    -0.064 N 
ATOM     45  H53 UNL     1       7.347 -19.501  -0.132  1.00  0.00     0.275 HD
ATOM     46  H52 UNL     1       7.446 -17.972   0.156  1.00  0.00     0.275 HD
ATOM     47  H51 UNL     1       8.027 -19.024   1.325  1.00  0.00     0.275 HD
ENDBRANCH  41  44
ENDBRANCH  38  41
ENDBRANCH  35  38
ENDBRANCH   1  32
TORSDOF 8
ENDMDL
MODEL 3
REMARK VINA RESULT: -7.321136411      2.784      8.972
REMARK  8 active torsions:
REMARK  status: ('A' for Active; 'I' for Inactive)
REMARK       I    between atoms: N1_3  and  C3_4 
REMARK    1  A    between atoms: C3_4  and  C4_6 
REMARK    2  A    between atoms: C4_6  and  N2_7 
REMARK    3  A    between atoms: C4_6  and  C10_17 
REMARK       I    between atoms: N2_7  and  C5_9 
REMARK       I    between atoms: C5_9  and  N3_11 
REMARK    4  A    between atoms: N3_11  and  C6_13 
REMARK    5  A    between atoms: N4_20  and  C13_21 
REMARK    6  A    between atoms: C13_21  and  O3_22 
REMARK    7  A    between atoms: C13_21  and  C14_24 
REMARK    8  A    between atoms: C14_24  and  N5_27 
ROOT
HETATM    1  C4  UNL     1       6.170 -22.971  -5.273  1.00  0.00     0.182 C 
ENDROOT
BRANCH   1   2
HETATM    2  C3  UNL     1       6.224 -21.876  -4.285  1.00  0.00     0.243 C 
HETATM    3  N1  UNL     1       5.432 -21.884  -3.134  1.00  0.00    -0.343 N 
HETATM    4  C2  UNL     1       5.440 -20.880  -2.080  1.00  0.00     0.123 C 
HETATM    5  C19 UNL     1       4.433 -22.840  -2.745  1.00  0.00     0.130 C 
HETATM    6  C1  UNL     1       6.561 -21.243  -1.132  1.00  0.00     0.036 C 
HETATM    7  C21 UNL     1       4.095 -20.914  -1.425  1.00  0.00     0.123 C 
HETATM    8  C20 UNL     1       3.311 -21.921  -2.234  1.00  0.00     0.066 C 
HETATM    9  O4  UNL     1       4.188 -21.439  -0.126  1.00  0.00    -0.285 OA
HETATM   10  C28 UNL     1       3.395 -19.606  -1.501  1.00  0.00     0.004 A 
HETATM   11  C22 UNL     1       3.397 -21.207   0.996  1.00  0.00     0.363 C 
HETATM   12  O5  UNL     1       3.156 -22.138   1.787  1.00  0.00    -0.238 OA
HETATM   13  N6  UNL     1       2.804 -19.971   1.362  1.00  0.00    -0.328 N 
HETATM   14  C23 UNL     1       1.685 -19.974   2.287  1.00  0.00     0.155 C 
HETATM   15  C24 UNL     1       3.243 -18.660   0.866  1.00  0.00     0.168 C 
HETATM   16  C25 UNL     1       3.032 -18.664  -0.584  1.00  0.00    -0.014 A 
HETATM   17  C26 UNL     1       2.396 -17.631  -1.234  1.00  0.00     0.097 A 
HETATM   18  N7  UNL     1       2.369 -17.942  -2.541  1.00  0.00    -0.374 N 
HETATM   19  C27 UNL     1       2.969 -19.135  -2.732  1.00  0.00     0.098 A 
ATOM     20  H7  UNL     1       1.959 -17.365  -3.275  1.00  0.00     0.164 HD
HETATM   21  O1  UNL     1       7.004 -20.914  -4.496  1.00  0.00    -0.271 OA
ENDBRANCH   1   2
BRANCH   1  22
HETATM   22  N2  UNL     1       6.615 -22.503  -6.585  1.00  0.00    -0.329 N 
HETATM   23  C5  UNL     1       5.675 -22.113  -7.565  1.00  0.00     0.317 C 
HETATM   24  O2  UNL     1       4.424 -22.173  -7.299  1.00  0.00    -0.247 OA
HETATM   25  N3  UNL     1       6.045 -21.655  -8.842  1.00  0.00    -0.335 N 
ATOM     26  H3  UNL     1       7.035 -21.597  -9.081  1.00  0.00     0.165 HD
ATOM     27  H2  UNL     1       7.613 -22.457  -6.795  1.00  0.00     0.165 HD
BRANCH  25  28
HETATM   28  C6  UNL     1       5.061 -21.263  -9.828  1.00  0.00     0.023 C 
HETATM   29  C7  UNL     1       5.759 -20.451 -10.923  1.00  0.00     0.037 C 
HETATM   30  C8  UNL     1       4.036 -20.306  -9.206  1.00  0.00     0.037 C 
HETATM   31  C9  UNL     1       4.376 -22.460 -10.417  1.00  0.00     0.037 C 
ENDBRANCH  25  28
ENDBRANCH   1  22
BRANCH   1  32
HETATM   32  C10 UNL     1       7.044 -24.154  -4.858  1.00  0.00     0.021 C 
HETATM   33  C11 UNL     1       7.916 -24.451  -6.059  1.00  0.00     0.027 C 
HETATM   34  C12 UNL     1       8.617 -25.789  -5.748  1.00  0.00     0.125 C 
HETATM   35  N4  UNL     1       9.377 -25.581  -4.542  1.00  0.00    -0.363 N 
HETATM   36  C17 UNL     1       9.297 -24.259  -3.918  1.00  0.00     0.125 C 
HETATM   37  C18 UNL     1       7.890 -23.814  -3.661  1.00  0.00     0.027 C 
BRANCH  35  38
HETATM   38  C13 UNL     1      10.160 -26.607  -3.987  1.00  0.00     0.149 C 
BRANCH  38  39
HETATM   39  O3  UNL     1       9.488 -27.611  -3.504  1.00  0.00    -0.348 OA
ATOM     40  H3  UNL     1       9.846 -28.469  -3.705  1.00  0.00     0.219 HD
ENDBRANCH  38  39
BRANCH  38  41
HETATM   41  C14 UNL     1      11.623 -26.667  -3.895  1.00  0.00     0.180 C 
HETATM   42  C15 UNL     1      12.290 -26.188  -5.178  1.00  0.00     0.055 C 
HETATM   43  C16 UNL     1      12.023 -25.747  -2.739  1.00  0.00     0.055 C 
BRANCH  41  44
HETATM   44  N5  UNL     1      12.133 -27.967  -3.617  1.00  0.00    -0.064 N 
ATOM     45  H53 UNL     1      12.652 -27.968  -2.738  1.00  0.00     0.275 HD
ATOM     46  H52 UNL     1      11.375 -28.603  -3.369  1.00  0.00     0.275 HD
ATOM     47  H51 UNL     1      12.699 -28.360  -4.369  1.00  0.00     0.275 HD
ENDBRANCH  41  44
ENDBRANCH  38  41
ENDBRANCH  35  38
ENDBRANCH   1  32
TORSDOF 8
ENDMDL
MODEL 4
REMARK VINA RESULT: -7.313623890      2.664      9.252
REMARK  8 active torsions:
REMARK  status: ('A' for Active; 'I' for Inactive)
REMARK       I    between atoms: N1_3  and  C3_4 
REMARK    1  A    between atoms: C3_4  and  C4_6 
REMARK    2  A    between atoms: C4_6  and  N2_7 
REMARK    3  A    between atoms: C4_6  and  C10_17 
REMARK       I    between atoms: N2_7  and  C5_9 
REMARK       I    between atoms: C5_9  and  N3_11 
REMARK    4  A    between atoms: N3_11  and  C6_13 
REMARK    5  A    between atoms: N4_20  and  C13_21 
REMARK    6  A    between atoms: C13_21  and  O3_22 
REMARK    7  A    between atoms: C13_21  and  C14_24 
REMARK    8  A    between atoms: C14_24  and  N5_27 
ROOT
HETATM    1  C4  UNL     1       5.972 -23.318  -4.513  1.00  0.00     0.182 C 
ENDROOT
BRANCH   1   2
HETATM    2  C3  UNL     1       5.919 -22.063  -3.739  1.00  0.00     0.243 C 
HETATM    3  N1  UNL     1       5.204 -21.967  -2.542  1.00  0.00    -0.343 N 
HETATM    4  C2  UNL     1       5.123 -20.793  -1.683  1.00  0.00     0.123 C 
HETATM    5  C19 UNL     1       4.381 -22.961  -1.912  1.00  0.00     0.130 C 
HETATM    6  C1  UNL     1       6.337 -20.821  -0.783  1.00  0.00     0.036 C 
HETATM    7  C21 UNL     1       3.837 -20.888  -0.924  1.00  0.00     0.123 C 
HETATM    8  C20 UNL     1       3.166 -22.124  -1.478  1.00  0.00     0.066 C 
HETATM    9  O4  UNL     1       4.081 -21.148   0.435  1.00  0.00    -0.285 OA
HETATM   10  C28 UNL     1       2.948 -19.724  -1.168  1.00  0.00     0.004 A 
HETATM   11  C22 UNL     1       3.329 -20.823   1.561  1.00  0.00     0.363 C 
HETATM   12  O5  UNL     1       3.274 -21.616   2.519  1.00  0.00    -0.238 OA
HETATM   13  N6  UNL     1       2.581 -19.633   1.753  1.00  0.00    -0.328 N 
HETATM   14  C23 UNL     1       1.529 -19.616   2.754  1.00  0.00     0.155 C 
HETATM   15  C24 UNL     1       2.792 -18.388   1.003  1.00  0.00     0.168 C 
HETATM   16  C25 UNL     1       2.502 -18.687  -0.402  1.00  0.00    -0.014 A 
HETATM   17  C26 UNL     1       1.684 -17.887  -1.167  1.00  0.00     0.097 A 
HETATM   18  N7  UNL     1       1.630 -18.434  -2.393  1.00  0.00    -0.374 N 
HETATM   19  C27 UNL     1       2.388 -19.549  -2.423  1.00  0.00     0.098 A 
ATOM     20  H7  UNL     1       1.098 -18.063  -3.180  1.00  0.00     0.164 HD
HETATM   21  O1  UNL     1       6.535 -21.060  -4.177  1.00  0.00    -0.271 OA
ENDBRANCH   1   2
BRANCH   1  22
HETATM   22  N2  UNL     1       5.278 -23.164  -5.791  1.00  0.00    -0.329 N 
HETATM   23  C5  UNL     1       3.991 -23.716  -5.979  1.00  0.00     0.317 C 
HETATM   24  O2  UNL     1       3.432 -24.357  -5.023  1.00  0.00    -0.247 OA
HETATM   25  N3  UNL     1       3.277 -23.599  -7.186  1.00  0.00    -0.335 N 
ATOM     26  H3  UNL     1       3.698 -23.094  -7.965  1.00  0.00     0.165 HD
ATOM     27  H2  UNL     1       5.726 -22.654  -6.552  1.00  0.00     0.165 HD
BRANCH  25  28
HETATM   28  C6  UNL     1       1.960 -24.176  -7.352  1.00  0.00     0.023 C 
HETATM   29  C7  UNL     1       1.460 -23.858  -8.764  1.00  0.00     0.037 C 
HETATM   30  C8  UNL     1       0.959 -23.500  -6.407  1.00  0.00     0.037 C 
HETATM   31  C9  UNL     1       1.984 -25.658  -7.124  1.00  0.00     0.037 C 
ENDBRANCH  25  28
ENDBRANCH   1  22
BRANCH   1  32
HETATM   32  C10 UNL     1       7.410 -23.754  -4.792  1.00  0.00     0.021 C 
HETATM   33  C11 UNL     1       8.053 -23.916  -3.432  1.00  0.00     0.027 C 
HETATM   34  C12 UNL     1       9.560 -24.106  -3.700  1.00  0.00     0.125 C 
HETATM   35  N4  UNL     1       9.682 -25.285  -4.520  1.00  0.00    -0.363 N 
HETATM   36  C17 UNL     1       8.445 -25.964  -4.907  1.00  0.00     0.125 C 
HETATM   37  C18 UNL     1       7.448 -25.052  -5.553  1.00  0.00     0.027 C 
BRANCH  35  38
HETATM   38  C13 UNL     1      10.939 -25.757  -4.935  1.00  0.00     0.149 C 
BRANCH  38  39
HETATM   39  O3  UNL     1      11.233 -25.519  -6.179  1.00  0.00    -0.348 OA
ATOM     40  H3  UNL     1      11.789 -26.169  -6.592  1.00  0.00     0.219 HD
ENDBRANCH  38  39
BRANCH  38  41
HETATM   41  C14 UNL     1      11.934 -26.476  -4.131  1.00  0.00     0.180 C 
HETATM   42  C15 UNL     1      13.249 -26.648  -4.879  1.00  0.00     0.055 C 
HETATM   43  C16 UNL     1      12.169 -25.633  -2.875  1.00  0.00     0.055 C 
BRANCH  41  44
HETATM   44  N5  UNL     1      11.514 -27.773  -3.716  1.00  0.00    -0.064 N 
ATOM     45  H53 UNL     1      10.573 -27.971  -4.056  1.00  0.00     0.275 HD
ATOM     46  H52 UNL     1      12.034 -28.494  -4.216  1.00  0.00     0.275 HD
ATOM     47  H51 UNL     1      11.571 -27.924  -2.708  1.00  0.00     0.275 HD
ENDBRANCH  41  44
ENDBRANCH  38  41
ENDBRANCH  35  38
ENDBRANCH   1  32
TORSDOF 8
ENDMDL
MODEL 5
REMARK VINA RESULT: -7.045156276      2.843      9.209
REMARK  8 active torsions:
REMARK  status: ('A' for Active; 'I' for Inactive)
REMARK       I    between atoms: N1_3  and  C3_4 
REMARK    1  A    between atoms: C3_4  and  C4_6 
REMARK    2  A    between atoms: C4_6  and  N2_7 
REMARK    3  A    between atoms: C4_6  and  C10_17 
REMARK       I    between atoms: N2_7  and  C5_9 
REMARK       I    between atoms: C5_9  and  N3_11 
REMARK    4  A    between atoms: N3_11  and  C6_13 
REMARK    5  A    between atoms: N4_20  and  C13_21 
REMARK    6  A    between atoms: C13_21  and  O3_22 
REMARK    7  A    between atoms: C13_21  and  C14_24 
REMARK    8  A    between atoms: C14_24  and  N5_27 
ROOT
HETATM    1  C4  UNL     1       6.017 -22.660  -5.885  1.00  0.00     0.182 C 
ENDROOT
BRANCH   1   2
HETATM    2  C3  UNL     1       6.247 -21.738  -4.756  1.00  0.00     0.243 C 
HETATM    3  N1  UNL     1       5.500 -21.817  -3.578  1.00  0.00    -0.343 N 
HETATM    4  C2  UNL     1       5.675 -20.987  -2.394  1.00  0.00     0.123 C 
HETATM    5  C19 UNL     1       4.398 -22.687  -3.276  1.00  0.00     0.130 C 
HETATM    6  C1  UNL     1       6.770 -21.623  -1.567  1.00  0.00     0.036 C 
HETATM    7  C21 UNL     1       4.360 -20.949  -1.681  1.00  0.00     0.123 C 
HETATM    8  C20 UNL     1       3.424 -21.720  -2.583  1.00  0.00     0.066 C 
HETATM    9  O4  UNL     1       4.427 -21.668  -0.476  1.00  0.00    -0.285 OA
HETATM   10  C28 UNL     1       3.835 -19.568  -1.535  1.00  0.00     0.004 A 
HETATM   11  C22 UNL     1       3.712 -21.506   0.707  1.00  0.00     0.363 C 
HETATM   12  O5  UNL     1       3.378 -22.506   1.370  1.00  0.00    -0.238 OA
HETATM   13  N6  UNL     1       3.298 -20.273   1.275  1.00  0.00    -0.328 N 
HETATM   14  C23 UNL     1       2.220 -20.272   2.247  1.00  0.00     0.155 C 
HETATM   15  C24 UNL     1       3.888 -18.968   0.948  1.00  0.00     0.168 C 
HETATM   16  C25 UNL     1       3.630 -18.733  -0.476  1.00  0.00    -0.014 A 
HETATM   17  C26 UNL     1       3.113 -17.544  -0.938  1.00  0.00     0.097 A 
HETATM   18  N7  UNL     1       3.002 -17.654  -2.273  1.00  0.00    -0.374 N 
HETATM   19  C27 UNL     1       3.433 -18.870  -2.662  1.00  0.00     0.098 A 
ATOM     20  H7  UNL     1       2.646 -16.929  -2.896  1.00  0.00     0.164 HD
HETATM   21  O1  UNL     1       7.139 -20.860  -4.869  1.00  0.00    -0.271 OA
ENDBRANCH   1   2
BRANCH   1  22
HETATM   22  N2  UNL     1       6.522 -22.085  -7.131  1.00  0.00    -0.329 N 
HETATM   23  C5  UNL     1       5.628 -21.626  -8.123  1.00  0.00     0.317 C 
HETATM   24  O2  UNL     1       4.367 -21.717  -7.929  1.00  0.00    -0.247 OA
HETATM   25  N3  UNL     1       6.057 -21.064  -9.340  1.00  0.00    -0.335 N 
ATOM     26  H3  UNL     1       7.057 -20.979  -9.522  1.00  0.00     0.165 HD
ATOM     27  H2  UNL     1       7.529 -22.014  -7.284  1.00  0.00     0.165 HD
BRANCH  25  28
HETATM   28  C6  UNL     1       5.119 -20.603 -10.340  1.00  0.00     0.023 C 
HETATM   29  C7  UNL     1       5.904 -19.990 -11.504  1.00  0.00     0.037 C 
HETATM   30  C8  UNL     1       4.264 -19.458  -9.783  1.00  0.00     0.037 C 
HETATM   31  C9  UNL     1       4.249 -21.724 -10.826  1.00  0.00     0.037 C 
ENDBRANCH  25  28
ENDBRANCH   1  22
BRANCH   1  32
HETATM   32  C10 UNL     1       6.698 -24.011  -5.663  1.00  0.00     0.021 C 
HETATM   33  C11 UNL     1       6.174 -24.911  -6.761  1.00  0.00     0.027 C 
HETATM   34  C12 UNL     1       6.652 -26.332  -6.402  1.00  0.00     0.125 C 
HETATM   35  N4  UNL     1       8.091 -26.280  -6.361  1.00  0.00    -0.363 N 
HETATM   36  C17 UNL     1       8.723 -24.985  -6.621  1.00  0.00     0.125 C 
HETATM   37  C18 UNL     1       8.195 -23.887  -5.751  1.00  0.00     0.027 C 
BRANCH  35  38
HETATM   38  C13 UNL     1       8.855 -27.425  -6.079  1.00  0.00     0.149 C 
BRANCH  38  39
HETATM   39  O3  UNL     1       8.593 -28.458  -6.825  1.00  0.00    -0.348 OA
ATOM     40  H3  UNL     1       8.194 -29.191  -6.371  1.00  0.00     0.219 HD
ENDBRANCH  38  39
BRANCH  38  41
HETATM   41  C14 UNL     1       9.893 -27.577  -5.054  1.00  0.00     0.180 C 
HETATM   42  C15 UNL     1      11.273 -27.217  -5.588  1.00  0.00     0.055 C 
HETATM   43  C16 UNL     1       9.523 -26.623  -3.916  1.00  0.00     0.055 C 
BRANCH  41  44
HETATM   44  N5  UNL     1       9.983 -28.892  -4.512  1.00  0.00    -0.064 N 
ATOM     45  H53 UNL     1       9.308 -29.014  -3.757  1.00  0.00     0.275 HD
ATOM     46  H52 UNL     1       9.625 -29.578  -5.176  1.00  0.00     0.275 HD
ATOM     47  H51 UNL     1      10.920 -29.148  -4.201  1.00  0.00     0.275 HD
ENDBRANCH  41  44
ENDBRANCH  38  41
ENDBRANCH  35  38
ENDBRANCH   1  32
TORSDOF 8
ENDMDL
