MODEL 1
REMARK VINA RESULT: -7.716872039      0.000      0.000
REMARK  9 active torsions:
REMARK  status: ('A' for Active; 'I' for Inactive)
REMARK    1  A    between atoms: N1_2  and  C2_4 
REMARK    2  A    between atoms: C2_4  and  O1_5 
REMARK    3  A    between atoms: C2_4  and  C3_7 
REMARK    4  A    between atoms: C3_7  and  N2_8 
REMARK       I    between atoms: N2_8  and  C4_10 
REMARK    5  A    between atoms: C4_10  and  C5_12 
REMARK    6  A    between atoms: N5_30  and  C16_31 
REMARK    7  A    between atoms: C16_31  and  O5_32 
REMARK    8  A    between atoms: C16_31  and  C17_34 
REMARK    9  A    between atoms: C24_41  and  C25_42 
ROOT
HETATM    1  C3  UNL     1       4.976 -22.752  -4.631  1.00  0.00     0.102 C 
HETATM    2  C12 UNL     1       5.894 -21.976  -3.603  1.00  0.00     0.050 C 
HETATM    3  C13 UNL     1       5.165 -21.822  -2.346  1.00  0.00    -0.034 C 
HETATM    4  C14 UNL     1       6.033 -22.339  -1.213  1.00  0.00     0.029 C 
HETATM    5  C15 UNL     1       5.434 -22.178   0.141  1.00  0.00     0.125 C 
HETATM    6  N5  UNL     1       4.892 -20.890   0.360  1.00  0.00    -0.365 N 
HETATM    7  C21 UNL     1       4.131 -20.260  -0.752  1.00  0.00     0.125 C 
HETATM    8  C22 UNL     1       4.879 -20.359  -2.029  1.00  0.00     0.029 C 
HETATM    9  C23 UNL     1       3.922 -22.632  -2.413  1.00  0.00     0.018 C 
HETATM   10  C24 UNL     1       3.899 -23.261  -3.785  1.00  0.00     0.030 C 
ENDROOT
BRANCH   1  11
HETATM   11  C2  UNL     1       4.648 -21.897  -5.741  1.00  0.00     0.140 C 
BRANCH  11  12
HETATM   12  N1  UNL     1       4.475 -22.169  -7.103  1.00  0.00    -0.377 N 
HETATM   13  C1  UNL     1       5.527 -21.855  -8.096  1.00  0.00     0.148 C 
ATOM     14  H1  UNL     1       3.603 -22.593  -7.420  1.00  0.00     0.160 HD
ENDBRANCH  11  12
BRANCH  11  15
HETATM   15  O1  UNL     1       4.478 -20.642  -5.433  1.00  0.00    -0.348 OA
ATOM     16  H1  UNL     1       4.302 -20.497  -4.511  1.00  0.00     0.219 HD
ENDBRANCH  11  15
ENDBRANCH   1  11
BRANCH   1  17
HETATM   17  N2  UNL     1       5.934 -23.755  -5.002  1.00  0.00    -0.337 N 
HETATM   18  C4  UNL     1       7.329 -23.459  -5.205  1.00  0.00     0.287 C 
HETATM   19  O2  UNL     1       7.818 -22.335  -5.169  1.00  0.00    -0.264 OA
ATOM     20  H2  UNL     1       5.614 -24.715  -5.128  1.00  0.00     0.164 HD
BRANCH  18  21
HETATM   21  C5  UNL     1       8.126 -24.688  -5.480  1.00  0.00     0.184 C 
HETATM   22  N3  UNL     1       7.780 -25.384  -6.655  1.00  0.00    -0.336 N 
HETATM   23  C6  UNL     1       8.503 -26.574  -6.994  1.00  0.00     0.057 A 
ATOM     24  H3  UNL     1       7.027 -25.046  -7.254  1.00  0.00     0.168 HD
HETATM   25  C7  UNL     1       8.141 -27.249  -8.133  1.00  0.00     0.031 A 
HETATM   26  C11 UNL     1       9.578 -27.044  -6.279  1.00  0.00     0.106 A 
HETATM   27  C8  UNL     1       8.852 -28.357  -8.539  1.00  0.00     0.002 A 
HETATM   28  C9  UNL     1       9.946 -28.816  -7.807  1.00  0.00     0.002 A 
HETATM   29  C10 UNL     1      10.325 -28.158  -6.652  1.00  0.00     0.027 A 
HETATM   30  S1  UNL     1       9.944 -26.289  -4.721  1.00  0.00     0.266 S 
HETATM   31  O3  UNL     1      11.029 -25.311  -4.903  1.00  0.00    -0.200 OA
HETATM   32  O4  UNL     1      10.204 -27.344  -3.701  1.00  0.00    -0.200 OA
HETATM   33  N4  UNL     1       8.466 -25.432  -4.323  1.00  0.00    -0.261 N 
ATOM     34  H4  UNL     1       7.956 -25.462  -3.440  1.00  0.00     0.180 HD
ENDBRANCH  18  21
ENDBRANCH   1  17
BRANCH  10  35
HETATM   35  C25 UNL     1       2.498 -23.355  -4.209  1.00  0.00    -0.045 C 
HETATM   36  C26 UNL     1       2.191 -24.070  -5.482  1.00  0.00     0.015 C 
HETATM   37  C27 UNL     1       1.799 -24.203  -3.119  1.00  0.00     0.015 C 
HETATM   38  C28 UNL     1       1.765 -22.019  -4.172  1.00  0.00     0.015 C 
ENDBRANCH  10  35
BRANCH   6  39
HETATM   39  C16 UNL     1       5.080 -19.990   1.445  1.00  0.00     0.121 C 
BRANCH  39  40
HETATM   40  O5  UNL     1       4.524 -20.327   2.586  1.00  0.00    -0.349 OA
ATOM     41  H5  UNL     1       4.691 -19.752   3.324  1.00  0.00     0.219 HD
ENDBRANCH  39  40
BRANCH  39  42
HETATM   42  C17 UNL     1       5.792 -18.716   1.496  1.00  0.00     0.014 C 
HETATM   43  C18 UNL     1       7.214 -19.027   0.859  1.00  0.00     0.023 C 
HETATM   44  C19 UNL     1       6.119 -18.361   2.948  1.00  0.00     0.023 C 
HETATM   45  C20 UNL     1       5.254 -17.603   0.703  1.00  0.00     0.023 C 
ENDBRANCH  39  42
ENDBRANCH   6  39
TORSDOF 9
ENDMDL
MODEL 2
REMARK VINA RESULT: -7.590686674      2.770      8.779
REMARK  9 active torsions:
REMARK  status: ('A' for Active; 'I' for Inactive)
REMARK    1  A    between atoms: N1_2  and  C2_4 
REMARK    2  A    between atoms: C2_4  and  O1_5 
REMARK    3  A    between atoms: C2_4  and  C3_7 
REMARK    4  A    between atoms: C3_7  and  N2_8 
REMARK       I    between atoms: N2_8  and  C4_10 
REMARK    5  A    between atoms: C4_10  and  C5_12 
REMARK    6  A    between atoms: N5_30  and  C16_31 
REMARK    7  A    between atoms: C16_31  and  O5_32 
REMARK    8  A    between atoms: C16_31  and  C17_34 
REMARK    9  A    between atoms: C24_41  and  C25_42 
ROOT
HETATM    1  C3  UNL     1       4.158 -23.233  -3.856  1.00  0.00     0.102 C 
HETATM    2  C12 UNL     1       5.369 -24.179  -3.479  1.00  0.00     0.050 C 
HETATM    3  C13 UNL     1       6.346 -24.146  -4.564  1.00  0.00    -0.034 C 
HETATM    4  C14 UNL     1       7.710 -23.820  -3.982  1.00  0.00     0.029 C 
HETATM    5  C15 UNL     1       8.817 -23.822  -4.977  1.00  0.00     0.125 C 
HETATM    6  N5  UNL     1       8.799 -24.952  -5.828  1.00  0.00    -0.365 N 
HETATM    7  C21 UNL     1       7.481 -25.412  -6.342  1.00  0.00     0.125 C 
HETATM    8  C22 UNL     1       6.487 -25.502  -5.245  1.00  0.00     0.029 C 
HETATM    9  C23 UNL     1       5.959 -23.078  -5.522  1.00  0.00     0.018 C 
HETATM   10  C24 UNL     1       4.677 -22.482  -4.997  1.00  0.00     0.030 C 
ENDROOT
BRANCH   1  11
HETATM   11  C2  UNL     1       2.958 -24.008  -4.017  1.00  0.00     0.140 C 
BRANCH  11  12
HETATM   12  N1  UNL     1       1.606 -23.645  -3.989  1.00  0.00    -0.377 N 
HETATM   13  C1  UNL     1       0.568 -24.558  -3.463  1.00  0.00     0.148 C 
ATOM     14  H1  UNL     1       1.330 -22.727  -4.341  1.00  0.00     0.160 HD
ENDBRANCH  11  12
BRANCH  11  15
HETATM   15  O1  UNL     1       3.152 -25.279  -4.228  1.00  0.00    -0.348 OA
ATOM     16  H1  UNL     1       2.396 -25.725  -4.591  1.00  0.00     0.219 HD
ENDBRANCH  11  15
ENDBRANCH   1  11
BRANCH   1  17
HETATM   17  N2  UNL     1       4.138 -22.476  -2.635  1.00  0.00    -0.337 N 
HETATM   18  C4  UNL     1       3.734 -23.045  -1.376  1.00  0.00     0.287 C 
HETATM   19  O2  UNL     1       3.292 -24.179  -1.231  1.00  0.00    -0.264 OA
ATOM     20  H2  UNL     1       4.422 -21.497  -2.661  1.00  0.00     0.164 HD
BRANCH  18  21
HETATM   21  C5  UNL     1       3.902 -22.083  -0.249  1.00  0.00     0.184 C 
HETATM   22  N3  UNL     1       5.112 -21.363  -0.244  1.00  0.00    -0.336 N 
HETATM   23  C6  UNL     1       5.350 -20.413   0.803  1.00  0.00     0.057 A 
ATOM     24  H3  UNL     1       5.808 -21.514  -0.974  1.00  0.00     0.168 HD
HETATM   25  C7  UNL     1       6.540 -19.732   0.802  1.00  0.00     0.031 A 
HETATM   26  C11 UNL     1       4.427 -20.100   1.772  1.00  0.00     0.106 A 
HETATM   27  C8  UNL     1       6.784 -18.759   1.746  1.00  0.00     0.002 A 
HETATM   28  C9  UNL     1       5.835 -18.446   2.718  1.00  0.00     0.002 A 
HETATM   29  C10 UNL     1       4.631 -19.124   2.744  1.00  0.00     0.027 A 
HETATM   30  S1  UNL     1       2.964 -21.089   1.890  1.00  0.00     0.266 S 
HETATM   31  O3  UNL     1       1.858 -20.396   1.209  1.00  0.00    -0.200 OA
HETATM   32  O4  UNL     1       2.711 -21.442   3.315  1.00  0.00    -0.200 OA
HETATM   33  N4  UNL     1       3.373 -22.535   0.985  1.00  0.00    -0.261 N 
ATOM     34  H4  UNL     1       3.255 -23.503   1.286  1.00  0.00     0.180 HD
ENDBRANCH  18  21
ENDBRANCH   1  17
BRANCH  10  35
HETATM   35  C25 UNL     1       3.866 -22.082  -6.152  1.00  0.00    -0.045 C 
HETATM   36  C26 UNL     1       2.820 -21.036  -5.953  1.00  0.00     0.015 C 
HETATM   37  C27 UNL     1       4.863 -21.437  -7.146  1.00  0.00     0.015 C 
HETATM   38  C28 UNL     1       3.282 -23.263  -6.918  1.00  0.00     0.015 C 
ENDBRANCH  10  35
BRANCH   6  39
HETATM   39  C16 UNL     1       9.843 -25.854  -6.174  1.00  0.00     0.121 C 
BRANCH  39  40
HETATM   40  O5  UNL     1      10.543 -25.555  -7.243  1.00  0.00    -0.349 OA
ATOM     41  H5  UNL     1      10.995 -26.275  -7.668  1.00  0.00     0.219 HD
ENDBRANCH  39  40
BRANCH  39  42
HETATM   42  C17 UNL     1      10.262 -27.095  -5.529  1.00  0.00     0.014 C 
HETATM   43  C18 UNL     1      11.832 -26.938  -5.342  1.00  0.00     0.023 C 
HETATM   44  C19 UNL     1      10.133 -28.261  -6.511  1.00  0.00     0.023 C 
HETATM   45  C20 UNL     1       9.743 -27.373  -4.183  1.00  0.00     0.023 C 
ENDBRANCH  39  42
ENDBRANCH   6  39
TORSDOF 9
ENDMDL
MODEL 3
REMARK VINA RESULT: -7.366884213      2.315      8.867
REMARK  9 active torsions:
REMARK  status: ('A' for Active; 'I' for Inactive)
REMARK    1  A    between atoms: N1_2  and  C2_4 
REMARK    2  A    between atoms: C2_4  and  O1_5 
REMARK    3  A    between atoms: C2_4  and  C3_7 
REMARK    4  A    between atoms: C3_7  and  N2_8 
REMARK       I    between atoms: N2_8  and  C4_10 
REMARK    5  A    between atoms: C4_10  and  C5_12 
REMARK    6  A    between atoms: N5_30  and  C16_31 
REMARK    7  A    between atoms: C16_31  and  O5_32 
REMARK    8  A    between atoms: C16_31  and  C17_34 
REMARK    9  A    between atoms: C24_41  and  C25_42 
ROOT
HETATM    1  C3  UNL     1       4.564 -23.479  -4.563  1.00  0.00     0.102 C 
HETATM    2  C12 UNL     1       5.541 -24.684  -4.256  1.00  0.00     0.050 C 
HETATM    3  C13 UNL     1       6.603 -24.693  -5.260  1.00  0.00    -0.034 C 
HETATM    4  C14 UNL     1       7.945 -24.720  -4.550  1.00  0.00     0.029 C 
HETATM    5  C15 UNL     1       9.119 -24.800  -5.462  1.00  0.00     0.125 C 
HETATM    6  N5  UNL     1       8.973 -25.779  -6.473  1.00  0.00    -0.365 N 
HETATM    7  C21 UNL     1       7.645 -25.900  -7.133  1.00  0.00     0.125 C 
HETATM    8  C22 UNL     1       6.556 -25.945  -6.127  1.00  0.00     0.029 C 
HETATM    9  C23 UNL     1       6.506 -23.451  -6.069  1.00  0.00     0.018 C 
HETATM   10  C24 UNL     1       5.311 -22.694  -5.542  1.00  0.00     0.030 C 
ENDROOT
BRANCH   1  11
HETATM   11  C2  UNL     1       3.261 -23.978  -4.915  1.00  0.00     0.140 C 
BRANCH  11  12
HETATM   12  N1  UNL     1       1.987 -23.409  -4.806  1.00  0.00    -0.377 N 
HETATM   13  C1  UNL     1       0.956 -23.610  -5.847  1.00  0.00     0.148 C 
ATOM     14  H1  UNL     1       1.764 -22.840  -3.988  1.00  0.00     0.160 HD
ENDBRANCH  11  12
BRANCH  11  15
HETATM   15  O1  UNL     1       3.256 -25.176  -5.429  1.00  0.00    -0.348 OA
ATOM     16  H1  UNL     1       2.941 -25.845  -4.833  1.00  0.00     0.219 HD
ENDBRANCH  11  15
ENDBRANCH   1  11
BRANCH   1  17
HETATM   17  N2  UNL     1       4.571 -22.907  -3.245  1.00  0.00    -0.337 N 
HETATM   18  C4  UNL     1       5.420 -21.801  -2.884  1.00  0.00     0.287 C 
HETATM   19  O2  UNL     1       6.267 -21.301  -3.615  1.00  0.00    -0.264 OA
ATOM     20  H2  UNL     1       3.950 -23.299  -2.537  1.00  0.00     0.164 HD
BRANCH  18  21
HETATM   21  C5  UNL     1       5.161 -21.330  -1.493  1.00  0.00     0.184 C 
HETATM   22  N3  UNL     1       6.117 -20.440  -0.967  1.00  0.00    -0.336 N 
HETATM   23  C6  UNL     1       5.938 -19.936   0.363  1.00  0.00     0.057 A 
ATOM     24  H3  UNL     1       6.924 -20.159  -1.523  1.00  0.00     0.168 HD
HETATM   25  C7  UNL     1       6.888 -19.084   0.866  1.00  0.00     0.031 A 
HETATM   26  C11 UNL     1       4.838 -20.208   1.140  1.00  0.00     0.106 A 
HETATM   27  C8  UNL     1       6.723 -18.517   2.111  1.00  0.00     0.002 A 
HETATM   28  C9  UNL     1       5.597 -18.797   2.884  1.00  0.00     0.002 A 
HETATM   29  C10 UNL     1       4.630 -19.658   2.402  1.00  0.00     0.027 A 
HETATM   30  S1  UNL     1       3.696 -21.438   0.577  1.00  0.00     0.266 S 
HETATM   31  O3  UNL     1       2.552 -20.773  -0.067  1.00  0.00    -0.200 OA
HETATM   32  O4  UNL     1       3.349 -22.352   1.702  1.00  0.00    -0.200 OA
HETATM   33  N4  UNL     1       4.605 -22.315  -0.640  1.00  0.00    -0.261 N 
ATOM     34  H4  UNL     1       4.712 -23.327  -0.718  1.00  0.00     0.180 HD
ENDBRANCH  18  21
ENDBRANCH   1  17
BRANCH  10  35
HETATM   35  C25 UNL     1       4.696 -21.992  -6.672  1.00  0.00    -0.045 C 
HETATM   36  C26 UNL     1       3.708 -20.911  -6.380  1.00  0.00     0.015 C 
HETATM   37  C27 UNL     1       5.861 -21.260  -7.381  1.00  0.00     0.015 C 
HETATM   38  C28 UNL     1       4.139 -22.931  -7.736  1.00  0.00     0.015 C 
ENDBRANCH  10  35
BRANCH   6  39
HETATM   39  C16 UNL     1       9.862 -26.810  -6.884  1.00  0.00     0.121 C 
BRANCH  39  40
HETATM   40  O5  UNL     1      11.064 -26.433  -7.252  1.00  0.00    -0.349 OA
ATOM     41  H5  UNL     1      11.701 -27.125  -7.390  1.00  0.00     0.219 HD
ENDBRANCH  39  40
BRANCH  39  42
HETATM   42  C17 UNL     1       9.646 -28.251  -6.981  1.00  0.00     0.014 C 
HETATM   43  C18 UNL     1       9.727 -28.770  -5.481  1.00  0.00     0.023 C 
HETATM   44  C19 UNL     1      10.850 -28.912  -7.654  1.00  0.00     0.023 C 
HETATM   45  C20 UNL     1       8.343 -28.713  -7.475  1.00  0.00     0.023 C 
ENDBRANCH  39  42
ENDBRANCH   6  39
TORSDOF 9
ENDMDL
MODEL 4
REMARK VINA RESULT: -7.294964578      2.947      8.565
REMARK  9 active torsions:
REMARK  status: ('A' for Active; 'I' for Inactive)
REMARK    1  A    between atoms: N1_2  and  C2_4 
REMARK    2  A    between atoms: C2_4  and  O1_5 
REMARK    3  A    between atoms: C2_4  and  C3_7 
REMARK    4  A    between atoms: C3_7  and  N2_8 
REMARK       I    between atoms: N2_8  and  C4_10 
REMARK    5  A    between atoms: C4_10  and  C5_12 
REMARK    6  A    between atoms: N5_30  and  C16_31 
REMARK    7  A    between atoms: C16_31  and  O5_32 
REMARK    8  A    between atoms: C16_31  and  C17_34 
REMARK    9  A    between atoms: C24_41  and  C25_42 
ROOT
HETATM    1  C3  UNL     1       5.464 -23.318  -4.962  1.00  0.00     0.102 C 
HETATM    2  C12 UNL     1       5.611 -21.911  -5.669  1.00  0.00     0.050 C 
HETATM    3  C13 UNL     1       4.719 -21.872  -6.826  1.00  0.00    -0.034 C 
HETATM    4  C14 UNL     1       3.856 -20.627  -6.734  1.00  0.00     0.029 C 
HETATM    5  C15 UNL     1       2.942 -20.427  -7.893  1.00  0.00     0.125 C 
HETATM    6  N5  UNL     1       3.581 -20.605  -9.142  1.00  0.00    -0.365 N 
HETATM    7  C21 UNL     1       4.541 -21.734  -9.275  1.00  0.00     0.125 C 
HETATM    8  C22 UNL     1       5.490 -21.760  -8.135  1.00  0.00     0.029 C 
HETATM    9  C23 UNL     1       3.844 -23.073  -6.795  1.00  0.00     0.018 C 
HETATM   10  C24 UNL     1       4.266 -23.872  -5.587  1.00  0.00     0.030 C 
ENDROOT
BRANCH   1  11
HETATM   11  C2  UNL     1       6.701 -24.047  -5.054  1.00  0.00     0.140 C 
BRANCH  11  12
HETATM   12  N1  UNL     1       7.187 -25.146  -4.336  1.00  0.00    -0.377 N 
HETATM   13  C1  UNL     1       8.625 -25.496  -4.333  1.00  0.00     0.148 C 
ATOM     14  H1  UNL     1       6.535 -25.720  -3.802  1.00  0.00     0.160 HD
ENDBRANCH  11  12
BRANCH  11  15
HETATM   15  O1  UNL     1       7.524 -23.615  -5.968  1.00  0.00    -0.348 OA
ATOM     16  H1  UNL     1       7.252 -23.823  -6.854  1.00  0.00     0.219 HD
ENDBRANCH  11  15
ENDBRANCH   1  11
BRANCH   1  17
HETATM   17  N2  UNL     1       5.240 -22.825  -3.632  1.00  0.00    -0.337 N 
HETATM   18  C4  UNL     1       6.296 -22.282  -2.817  1.00  0.00     0.287 C 
HETATM   19  O2  UNL     1       7.481 -22.264  -3.128  1.00  0.00    -0.264 OA
ATOM     20  H2  UNL     1       4.295 -22.861  -3.249  1.00  0.00     0.164 HD
BRANCH  18  21
HETATM   21  C5  UNL     1       5.782 -21.746  -1.523  1.00  0.00     0.184 C 
HETATM   22  N3  UNL     1       6.597 -20.779  -0.903  1.00  0.00    -0.336 N 
HETATM   23  C6  UNL     1       6.172 -20.210   0.342  1.00  0.00     0.057 A 
ATOM     24  H3  UNL     1       7.475 -20.489  -1.332  1.00  0.00     0.168 HD
HETATM   25  C7  UNL     1       6.985 -19.282   0.941  1.00  0.00     0.031 A 
HETATM   26  C11 UNL     1       4.966 -20.493   0.938  1.00  0.00     0.106 A 
HETATM   27  C8  UNL     1       6.586 -18.654   2.101  1.00  0.00     0.002 A 
HETATM   28  C9  UNL     1       5.356 -18.946   2.689  1.00  0.00     0.002 A 
HETATM   29  C10 UNL     1       4.523 -19.883   2.108  1.00  0.00     0.027 A 
HETATM   30  S1  UNL     1       3.990 -21.810   0.272  1.00  0.00     0.266 S 
HETATM   31  O3  UNL     1       2.947 -21.243  -0.599  1.00  0.00    -0.200 OA
HETATM   32  O4  UNL     1       3.492 -22.674   1.380  1.00  0.00    -0.200 OA
HETATM   33  N4  UNL     1       5.129 -22.708  -0.714  1.00  0.00    -0.261 N 
ATOM     34  H4  UNL     1       5.289 -23.716  -0.706  1.00  0.00     0.180 HD
ENDBRANCH  18  21
ENDBRANCH   1  17
BRANCH  10  35
HETATM   35  C25 UNL     1       4.092 -25.292  -5.910  1.00  0.00    -0.045 C 
HETATM   36  C26 UNL     1       3.971 -26.264  -4.784  1.00  0.00     0.015 C 
HETATM   37  C27 UNL     1       2.727 -25.381  -6.636  1.00  0.00     0.015 C 
HETATM   38  C28 UNL     1       5.096 -25.806  -6.935  1.00  0.00     0.015 C 
ENDBRANCH  10  35
BRANCH   6  39
HETATM   39  C16 UNL     1       3.583 -19.774 -10.296  1.00  0.00     0.121 C 
BRANCH  39  40
HETATM   40  O5  UNL     1       3.042 -20.279 -11.381  1.00  0.00    -0.349 OA
ATOM     41  H5  UNL     1       2.458 -21.018 -11.258  1.00  0.00     0.219 HD
ENDBRANCH  39  40
BRANCH  39  42
HETATM   42  C17 UNL     1       4.114 -18.426 -10.481  1.00  0.00     0.014 C 
HETATM   43  C18 UNL     1       3.988 -18.156 -12.042  1.00  0.00     0.023 C 
HETATM   44  C19 UNL     1       5.624 -18.425 -10.238  1.00  0.00     0.023 C 
HETATM   45  C20 UNL     1       3.393 -17.317  -9.842  1.00  0.00     0.023 C 
ENDBRANCH  39  42
ENDBRANCH   6  39
TORSDOF 9
ENDMDL
MODEL 5
REMARK VINA RESULT: -7.262140187      1.364      1.510
REMARK  9 active torsions:
REMARK  status: ('A' for Active; 'I' for Inactive)
REMARK    1  A    between atoms: N1_2  and  C2_4 
REMARK    2  A    between atoms: C2_4  and  O1_5 
REMARK    3  A    between atoms: C2_4  and  C3_7 
REMARK    4  A    between atoms: C3_7  and  N2_8 
REMARK       I    between atoms: N2_8  and  C4_10 
REMARK    5  A    between atoms: C4_10  and  C5_12 
REMARK    6  A    between atoms: N5_30  and  C16_31 
REMARK    7  A    between atoms: C16_31  and  O5_32 
REMARK    8  A    between atoms: C16_31  and  C17_34 
REMARK    9  A    between atoms: C24_41  and  C25_42 
ROOT
HETATM    1  C3  UNL     1       4.885 -23.587  -4.492  1.00  0.00     0.102 C 
HETATM    2  C12 UNL     1       5.947 -22.553  -3.938  1.00  0.00     0.050 C 
HETATM    3  C13 UNL     1       5.563 -22.167  -2.583  1.00  0.00    -0.034 C 
HETATM    4  C14 UNL     1       6.753 -22.371  -1.662  1.00  0.00     0.029 C 
HETATM    5  C15 UNL     1       6.517 -21.949  -0.254  1.00  0.00     0.125 C 
HETATM    6  N5  UNL     1       5.908 -20.676  -0.149  1.00  0.00    -0.365 N 
HETATM    7  C21 UNL     1       4.813 -20.351  -1.102  1.00  0.00     0.125 C 
HETATM    8  C22 UNL     1       5.204 -20.688  -2.492  1.00  0.00     0.029 C 
HETATM    9  C23 UNL     1       4.447 -23.040  -2.136  1.00  0.00     0.018 C 
HETATM   10  C24 UNL     1       4.136 -23.956  -3.294  1.00  0.00     0.030 C 
ENDROOT
BRANCH   1  11
HETATM   11  C2  UNL     1       4.180 -23.018  -5.609  1.00  0.00     0.140 C 
BRANCH  11  12
HETATM   12  N1  UNL     1       3.441 -23.611  -6.641  1.00  0.00    -0.377 N 
HETATM   13  C1  UNL     1       3.236 -22.930  -7.938  1.00  0.00     0.148 C 
ATOM     14  H1  UNL     1       3.033 -24.534  -6.493  1.00  0.00     0.160 HD
ENDBRANCH  11  12
BRANCH  11  15
HETATM   15  O1  UNL     1       4.232 -21.718  -5.685  1.00  0.00    -0.348 OA
ATOM     16  H1  UNL     1       4.819 -21.323  -5.051  1.00  0.00     0.219 HD
ENDBRANCH  11  15
ENDBRANCH   1  11
BRANCH   1  17
HETATM   17  N2  UNL     1       5.820 -24.592  -4.914  1.00  0.00    -0.337 N 
HETATM   18  C4  UNL     1       6.654 -24.438  -6.078  1.00  0.00     0.287 C 
HETATM   19  O2  UNL     1       6.593 -23.497  -6.861  1.00  0.00    -0.264 OA
ATOM     20  H2  UNL     1       5.897 -25.450  -4.367  1.00  0.00     0.164 HD
BRANCH  18  21
HETATM   21  C5  UNL     1       7.607 -25.573  -6.237  1.00  0.00     0.184 C 
HETATM   22  N3  UNL     1       7.115 -26.681  -6.953  1.00  0.00    -0.336 N 
HETATM   23  C6  UNL     1       7.971 -27.813  -7.155  1.00  0.00     0.057 A 
ATOM     24  H3  UNL     1       6.164 -26.678  -7.323  1.00  0.00     0.168 HD
HETATM   25  C7  UNL     1       7.470 -28.890  -7.840  1.00  0.00     0.031 A 
HETATM   26  C11 UNL     1       9.285 -27.856  -6.756  1.00  0.00     0.106 A 
HETATM   27  C8  UNL     1       8.277 -29.971  -8.121  1.00  0.00     0.002 A 
HETATM   28  C9  UNL     1       9.611 -29.996  -7.716  1.00  0.00     0.002 A 
HETATM   29  C10 UNL     1      10.136 -28.926  -7.018  1.00  0.00     0.027 A 
HETATM   30  S1  UNL     1       9.891 -26.553  -5.722  1.00  0.00     0.266 S 
HETATM   31  O3  UNL     1      10.615 -25.577  -6.553  1.00  0.00    -0.200 OA
HETATM   32  O4  UNL     1      10.674 -27.131  -4.594  1.00  0.00    -0.200 OA
HETATM   33  N4  UNL     1       8.429 -25.804  -5.107  1.00  0.00    -0.261 N 
ATOM     34  H4  UNL     1       8.215 -25.580  -4.134  1.00  0.00     0.180 HD
ENDBRANCH  18  21
ENDBRANCH   1  17
BRANCH  10  35
HETATM   35  C25 UNL     1       2.693 -24.219  -3.277  1.00  0.00    -0.045 C 
HETATM   36  C26 UNL     1       2.167 -25.325  -4.130  1.00  0.00     0.015 C 
HETATM   37  C27 UNL     1       2.377 -24.672  -1.831  1.00  0.00     0.015 C 
HETATM   38  C28 UNL     1       1.848 -22.965  -3.472  1.00  0.00     0.015 C 
ENDBRANCH  10  35
BRANCH   6  39
HETATM   39  C16 UNL     1       6.271 -19.550   0.641  1.00  0.00     0.121 C 
BRANCH  39  40
HETATM   40  O5  UNL     1       7.504 -19.119   0.512  1.00  0.00    -0.349 OA
ATOM     41  H5  UNL     1       7.796 -18.931  -0.373  1.00  0.00     0.219 HD
ENDBRANCH  39  40
BRANCH  39  42
HETATM   42  C17 UNL     1       5.483 -18.787   1.605  1.00  0.00     0.014 C 
HETATM   43  C18 UNL     1       4.987 -17.512   0.797  1.00  0.00     0.023 C 
HETATM   44  C19 UNL     1       6.402 -18.197   2.676  1.00  0.00     0.023 C 
HETATM   45  C20 UNL     1       4.259 -19.408   2.128  1.00  0.00     0.023 C 
ENDBRANCH  39  42
ENDBRANCH   6  39
TORSDOF 9
ENDMDL
