MODEL 1
REMARK VINA RESULT: -8.665641518      0.000      0.000
REMARK  8 active torsions:
REMARK  status: ('A' for Active; 'I' for Inactive)
REMARK       I    between atoms: C1_2  and  N1_3 
REMARK    1  A    between atoms: C1_2  and  C11_18 
REMARK    2  A    between atoms: N1_3  and  C2_5 
REMARK    3  A    between atoms: C7_10  and  O2_11 
REMARK    4  A    between atoms: C10_15  and  O3_16 
REMARK       I    between atoms: N2_22  and  C15_23 
REMARK    5  A    between atoms: C15_23  and  C16_25 
REMARK       I    between atoms: N3_29  and  C20_30 
REMARK       I    between atoms: C20_30  and  N4_32 
REMARK    6  A    between atoms: N5_35  and  C23_36 
REMARK    7  A    between atoms: C26_39  and  C27_40 
REMARK    8  A    between atoms: C27_40  and  O6_41 
ROOT
HETATM    1  C16 UNL     1      13.049  -9.812  18.121  1.00  0.00     0.181 C 
HETATM    2  C17 UNL     1      13.480 -11.224  17.938  1.00  0.00     0.037 C 
HETATM    3  C18 UNL     1      15.001 -11.047  18.160  1.00  0.00     0.022 C 
HETATM    4  C19 UNL     1      15.266  -9.537  17.897  1.00  0.00     0.129 C 
HETATM    5  N3  UNL     1      13.997  -9.137  17.257  1.00  0.00    -0.321 N 
HETATM    6  C20 UNL     1      13.818  -8.477  16.076  1.00  0.00     0.321 C 
HETATM    7  O5  UNL     1      12.661  -8.646  15.507  1.00  0.00    -0.247 OA
HETATM    8  N4  UNL     1      14.703  -7.631  15.369  1.00  0.00    -0.331 N 
HETATM    9  C21 UNL     1      15.928  -7.065  15.878  1.00  0.00     0.147 C 
HETATM   10  C22 UNL     1      17.164  -7.365  15.103  1.00  0.00     0.143 C 
HETATM   11  N5  UNL     1      16.847  -7.664  13.735  1.00  0.00    -0.378 N 
HETATM   12  C34 UNL     1      15.656  -7.185  13.114  1.00  0.00     0.143 C 
HETATM   13  C35 UNL     1      14.441  -7.306  13.954  1.00  0.00     0.147 C 
ENDROOT
BRANCH   1  14
HETATM   14  C15 UNL     1      11.667  -9.456  18.049  1.00  0.00     0.243 C 
HETATM   15  N2  UNL     1      10.752 -10.426  17.491  1.00  0.00    -0.337 N 
HETATM   16  C11 UNL     1       9.329 -10.304  17.245  1.00  0.00     0.179 C 
HETATM   17  C14 UNL     1      11.142 -11.742  17.053  1.00  0.00     0.127 C 
HETATM   18  C12 UNL     1       8.798 -11.714  17.284  1.00  0.00     0.037 C 
HETATM   19  C13 UNL     1       9.996 -12.607  17.511  1.00  0.00     0.022 C 
HETATM   20  O4  UNL     1      11.216  -8.364  18.430  1.00  0.00    -0.271 OA
BRANCH  16  21
HETATM   21  C1  UNL     1       9.195  -9.691  15.904  1.00  0.00     0.241 C 
HETATM   22  O1  UNL     1      10.240  -9.245  15.357  1.00  0.00    -0.271 OA
HETATM   23  N1  UNL     1       7.968  -9.567  15.188  1.00  0.00    -0.351 N 
ATOM     24  H1  UNL     1       7.105  -9.925  15.597  1.00  0.00     0.163 HD
BRANCH  23  25
HETATM   25  C2  UNL     1       7.940  -8.946  13.903  1.00  0.00     0.123 C 
HETATM   26  C3  UNL     1       6.747  -9.275  13.042  1.00  0.00     0.014 C 
HETATM   27  C4  UNL     1       5.637  -8.516  13.770  1.00  0.00     0.014 C 
HETATM   28  C8  UNL     1       6.981  -8.654  11.680  1.00  0.00     0.044 C 
HETATM   29  C5  UNL     1       6.304  -7.145  13.902  1.00  0.00     0.025 C 
HETATM   30  C6  UNL     1       6.115  -6.489  12.525  1.00  0.00     0.045 C 
HETATM   31  C10 UNL     1       7.779  -7.419  14.008  1.00  0.00     0.085 C 
HETATM   32  C7  UNL     1       7.240  -7.184  11.758  1.00  0.00     0.061 C 
HETATM   33  C9  UNL     1       8.400  -6.889  12.721  1.00  0.00     0.078 C 
BRANCH  32  34
HETATM   34  O2  UNL     1       7.444  -6.646  10.515  1.00  0.00    -0.390 OA
ATOM     35  H2  UNL     1       7.154  -7.220   9.816  1.00  0.00     0.210 HD
ENDBRANCH  32  34
BRANCH  31  36
HETATM   36  O3  UNL     1       8.359  -6.903  15.129  1.00  0.00    -0.387 OA
ATOM     37  H3  UNL     1       7.728  -6.514  15.724  1.00  0.00     0.210 HD
ENDBRANCH  31  36
ENDBRANCH  23  25
ENDBRANCH  16  21
ENDBRANCH   1  14
BRANCH  11  38
HETATM   38  C23 UNL     1      17.835  -8.435  12.992  1.00  0.00     0.030 A 
HETATM   39  C24 UNL     1      19.176  -8.420  13.250  1.00  0.00     0.030 A 
HETATM   40  C25 UNL     1      20.073  -9.209  12.518  1.00  0.00     0.012 A 
HETATM   41  C26 UNL     1      19.622 -10.025  11.510  1.00  0.00    -0.024 A 
HETATM   42  C32 UNL     1      18.268 -10.034  11.251  1.00  0.00     0.012 A 
HETATM   43  C33 UNL     1      17.385  -9.257  11.975  1.00  0.00     0.030 A 
BRANCH  41  44
HETATM   44  C27 UNL     1      20.515 -10.908  10.688  1.00  0.00     0.085 C 
HETATM   45  C28 UNL     1      21.721 -11.380  11.430  1.00  0.00     0.043 C 
HETATM   46  C29 UNL     1      21.409 -12.790  11.863  1.00  0.00     0.004 C 
HETATM   47  C30 UNL     1      20.305 -13.321  11.006  1.00  0.00     0.004 C 
HETATM   48  C31 UNL     1      19.736 -12.146  10.302  1.00  0.00     0.043 C 
BRANCH  44  49
HETATM   49  O6  UNL     1      20.835 -10.208   9.525  1.00  0.00    -0.385 OA
ATOM     50  H6  UNL     1      20.612 -10.765   8.789  1.00  0.00     0.211 HD
ENDBRANCH  44  49
ENDBRANCH  41  44
ENDBRANCH  11  38
TORSDOF 8
ENDMDL
MODEL 2
REMARK VINA RESULT: -8.437502974      3.223      5.046
REMARK  8 active torsions:
REMARK  status: ('A' for Active; 'I' for Inactive)
REMARK       I    between atoms: C1_2  and  N1_3 
REMARK    1  A    between atoms: C1_2  and  C11_18 
REMARK    2  A    between atoms: N1_3  and  C2_5 
REMARK    3  A    between atoms: C7_10  and  O2_11 
REMARK    4  A    between atoms: C10_15  and  O3_16 
REMARK       I    between atoms: N2_22  and  C15_23 
REMARK    5  A    between atoms: C15_23  and  C16_25 
REMARK       I    between atoms: N3_29  and  C20_30 
REMARK       I    between atoms: C20_30  and  N4_32 
REMARK    6  A    between atoms: N5_35  and  C23_36 
REMARK    7  A    between atoms: C26_39  and  C27_40 
REMARK    8  A    between atoms: C27_40  and  O6_41 
ROOT
HETATM    1  C16 UNL     1      12.497  -9.782  16.444  1.00  0.00     0.181 C 
HETATM    2  C17 UNL     1      13.276 -10.848  17.130  1.00  0.00     0.037 C 
HETATM    3  C18 UNL     1      14.195  -9.958  18.001  1.00  0.00     0.022 C 
HETATM    4  C19 UNL     1      14.183  -8.570  17.299  1.00  0.00     0.129 C 
HETATM    5  N3  UNL     1      13.573  -8.919  16.000  1.00  0.00    -0.321 N 
HETATM    6  C20 UNL     1      14.037  -8.641  14.747  1.00  0.00     0.321 C 
HETATM    7  O5  UNL     1      13.603  -9.420  13.801  1.00  0.00    -0.247 OA
HETATM    8  N4  UNL     1      14.925  -7.629  14.315  1.00  0.00    -0.331 N 
HETATM    9  C21 UNL     1      15.348  -6.483  15.083  1.00  0.00     0.147 C 
HETATM   10  C22 UNL     1      16.817  -6.321  15.267  1.00  0.00     0.143 C 
HETATM   11  N5  UNL     1      17.537  -6.975  14.211  1.00  0.00    -0.378 N 
HETATM   12  C34 UNL     1      16.952  -7.215  12.933  1.00  0.00     0.143 C 
HETATM   13  C35 UNL     1      15.561  -7.723  12.987  1.00  0.00     0.147 C 
ENDROOT
BRANCH   1  14
HETATM   14  C15 UNL     1      11.451 -10.117  15.530  1.00  0.00     0.243 C 
HETATM   15  N2  UNL     1      10.511  -9.077  15.176  1.00  0.00    -0.337 N 
HETATM   16  C11 UNL     1       9.335  -9.157  14.332  1.00  0.00     0.179 C 
HETATM   17  C14 UNL     1      10.598  -7.719  15.647  1.00  0.00     0.127 C 
HETATM   18  C12 UNL     1       9.131  -7.761  13.805  1.00  0.00     0.037 C 
HETATM   19  C13 UNL     1      10.211  -6.912  14.434  1.00  0.00     0.022 C 
HETATM   20  O4  UNL     1      11.303 -11.246  15.036  1.00  0.00    -0.271 OA
BRANCH  16  21
HETATM   21  C1  UNL     1       8.227  -9.593  15.213  1.00  0.00     0.241 C 
HETATM   22  O1  UNL     1       7.366  -8.733  15.540  1.00  0.00    -0.271 OA
HETATM   23  N1  UNL     1       8.068 -10.917  15.719  1.00  0.00    -0.351 N 
ATOM     24  H1  UNL     1       8.743 -11.640  15.468  1.00  0.00     0.163 HD
BRANCH  23  25
HETATM   25  C2  UNL     1       6.971 -11.236  16.575  1.00  0.00     0.123 C 
HETATM   26  C3  UNL     1       5.679 -11.586  15.881  1.00  0.00     0.014 C 
HETATM   27  C4  UNL     1       6.018 -12.958  15.296  1.00  0.00     0.014 C 
HETATM   28  C8  UNL     1       4.612 -11.734  16.947  1.00  0.00     0.044 C 
HETATM   29  C5  UNL     1       6.585 -13.638  16.545  1.00  0.00     0.025 C 
HETATM   30  C6  UNL     1       5.346 -14.069  17.346  1.00  0.00     0.045 C 
HETATM   31  C10 UNL     1       7.214 -12.539  17.357  1.00  0.00     0.085 C 
HETATM   32  C7  UNL     1       4.986 -12.733  17.994  1.00  0.00     0.061 C 
HETATM   33  C9  UNL     1       6.353 -12.391  18.605  1.00  0.00     0.078 C 
BRANCH  32  34
HETATM   34  O2  UNL     1       4.005 -12.852  18.942  1.00  0.00    -0.390 OA
ATOM     35  H2  UNL     1       4.025 -12.148  19.580  1.00  0.00     0.210 HD
ENDBRANCH  32  34
BRANCH  31  36
HETATM   36  O3  UNL     1       8.532 -12.746  17.641  1.00  0.00    -0.387 OA
ATOM     37  H3  UNL     1       8.705 -12.778  18.575  1.00  0.00     0.210 HD
ENDBRANCH  31  36
ENDBRANCH  23  25
ENDBRANCH  16  21
ENDBRANCH   1  14
BRANCH  11  38
HETATM   38  C23 UNL     1      18.923  -7.331  14.493  1.00  0.00     0.030 A 
HETATM   39  C24 UNL     1      19.855  -7.610  13.537  1.00  0.00     0.030 A 
HETATM   40  C25 UNL     1      21.181  -7.916  13.870  1.00  0.00     0.012 A 
HETATM   41  C26 UNL     1      21.579  -7.945  15.184  1.00  0.00    -0.024 A 
HETATM   42  C32 UNL     1      20.634  -7.665  16.147  1.00  0.00     0.012 A 
HETATM   43  C33 UNL     1      19.328  -7.362  15.816  1.00  0.00     0.030 A 
BRANCH  41  44
HETATM   44  C27 UNL     1      22.982  -8.252  15.625  1.00  0.00     0.085 C 
HETATM   45  C28 UNL     1      24.020  -7.745  14.680  1.00  0.00     0.043 C 
HETATM   46  C29 UNL     1      24.543  -6.470  15.291  1.00  0.00     0.004 C 
HETATM   47  C30 UNL     1      24.218  -6.471  16.751  1.00  0.00     0.004 C 
HETATM   48  C31 UNL     1      23.228  -7.558  16.946  1.00  0.00     0.043 C 
BRANCH  44  49
HETATM   49  O6  UNL     1      23.061  -9.629  15.828  1.00  0.00    -0.385 OA
ATOM     50  H6  UNL     1      23.464  -9.767  16.677  1.00  0.00     0.211 HD
ENDBRANCH  44  49
ENDBRANCH  41  44
ENDBRANCH  11  38
TORSDOF 8
ENDMDL
MODEL 3
REMARK VINA RESULT: -8.416360909      4.564      6.025
REMARK  8 active torsions:
REMARK  status: ('A' for Active; 'I' for Inactive)
REMARK       I    between atoms: C1_2  and  N1_3 
REMARK    1  A    between atoms: C1_2  and  C11_18 
REMARK    2  A    between atoms: N1_3  and  C2_5 
REMARK    3  A    between atoms: C7_10  and  O2_11 
REMARK    4  A    between atoms: C10_15  and  O3_16 
REMARK       I    between atoms: N2_22  and  C15_23 
REMARK    5  A    between atoms: C15_23  and  C16_25 
REMARK       I    between atoms: N3_29  and  C20_30 
REMARK       I    between atoms: C20_30  and  N4_32 
REMARK    6  A    between atoms: N5_35  and  C23_36 
REMARK    7  A    between atoms: C26_39  and  C27_40 
REMARK    8  A    between atoms: C27_40  and  O6_41 
ROOT
HETATM    1  C16 UNL     1      14.629  -9.231  16.091  1.00  0.00     0.181 C 
HETATM    2  C17 UNL     1      15.366  -8.191  15.322  1.00  0.00     0.037 C 
HETATM    3  C18 UNL     1      16.717  -8.927  15.148  1.00  0.00     0.022 C 
HETATM    4  C19 UNL     1      16.731 -10.001  16.274  1.00  0.00     0.129 C 
HETATM    5  N3  UNL     1      15.608  -9.539  17.114  1.00  0.00    -0.321 N 
HETATM    6  C20 UNL     1      15.601  -9.303  18.459  1.00  0.00     0.321 C 
HETATM    7  O5  UNL     1      14.680  -8.488  18.881  1.00  0.00    -0.247 OA
HETATM    8  N4  UNL     1      16.446  -9.812  19.471  1.00  0.00    -0.331 N 
HETATM    9  C21 UNL     1      17.366 -10.915  19.337  1.00  0.00     0.147 C 
HETATM   10  C22 UNL     1      18.791 -10.627  19.663  1.00  0.00     0.143 C 
HETATM   11  N5  UNL     1      18.891  -9.516  20.566  1.00  0.00    -0.378 N 
HETATM   12  C34 UNL     1      17.822  -9.150  21.436  1.00  0.00     0.143 C 
HETATM   13  C35 UNL     1      16.485  -9.163  20.795  1.00  0.00     0.147 C 
ENDROOT
BRANCH   1  14
HETATM   14  C15 UNL     1      13.266  -9.028  16.470  1.00  0.00     0.243 C 
HETATM   15  N2  UNL     1      12.306 -10.037  16.085  1.00  0.00    -0.337 N 
HETATM   16  C11 UNL     1      10.870 -10.054  16.282  1.00  0.00     0.179 C 
HETATM   17  C14 UNL     1      12.649 -11.253  15.393  1.00  0.00     0.127 C 
HETATM   18  C12 UNL     1      10.490 -11.512  16.297  1.00  0.00     0.037 C 
HETATM   19  C13 UNL     1      11.767 -12.281  16.053  1.00  0.00     0.022 C 
HETATM   20  O4  UNL     1      12.867  -8.035  17.098  1.00  0.00    -0.271 OA
BRANCH  16  21
HETATM   21  C1  UNL     1      10.289  -9.334  15.126  1.00  0.00     0.241 C 
HETATM   22  O1  UNL     1      11.043  -8.556  14.481  1.00  0.00    -0.271 OA
HETATM   23  N1  UNL     1       8.937  -9.458  14.691  1.00  0.00    -0.351 N 
ATOM     24  H1  UNL     1       8.301 -10.085  15.184  1.00  0.00     0.163 HD
BRANCH  23  25
HETATM   25  C2  UNL     1       8.467  -8.709  13.570  1.00  0.00     0.123 C 
HETATM   26  C3  UNL     1       7.243  -9.258  12.882  1.00  0.00     0.014 C 
HETATM   27  C4  UNL     1       6.160  -8.962  13.920  1.00  0.00     0.014 C 
HETATM   28  C8  UNL     1       7.002  -8.423  11.640  1.00  0.00     0.044 C 
HETATM   29  C5  UNL     1       6.458  -7.484  14.190  1.00  0.00     0.025 C 
HETATM   30  C6  UNL     1       5.808  -6.738  13.014  1.00  0.00     0.045 C 
HETATM   31  C10 UNL     1       7.940  -7.324  13.986  1.00  0.00     0.085 C 
HETATM   32  C7  UNL     1       6.879  -6.965  11.948  1.00  0.00     0.061 C 
HETATM   33  C9  UNL     1       8.103  -6.472  12.733  1.00  0.00     0.078 C 
BRANCH  32  34
HETATM   34  O2  UNL     1       6.658  -6.233  10.811  1.00  0.00    -0.390 OA
ATOM     35  H2  UNL     1       7.206  -5.459  10.761  1.00  0.00     0.210 HD
ENDBRANCH  32  34
BRANCH  31  36
HETATM   36  O3  UNL     1       8.596  -6.812  15.065  1.00  0.00    -0.387 OA
ATOM     37  H3  UNL     1       8.122  -6.101  15.480  1.00  0.00     0.210 HD
ENDBRANCH  31  36
ENDBRANCH  23  25
ENDBRANCH  16  21
ENDBRANCH   1  14
BRANCH  11  38
HETATM   38  C23 UNL     1      20.168  -8.813  20.592  1.00  0.00     0.030 A 
HETATM   39  C24 UNL     1      21.385  -9.428  20.643  1.00  0.00     0.030 A 
HETATM   40  C25 UNL     1      22.579  -8.697  20.635  1.00  0.00     0.012 A 
HETATM   41  C26 UNL     1      22.555  -7.325  20.577  1.00  0.00    -0.024 A 
HETATM   42  C32 UNL     1      21.324  -6.707  20.530  1.00  0.00     0.012 A 
HETATM   43  C33 UNL     1      20.148  -7.430  20.536  1.00  0.00     0.030 A 
BRANCH  41  44
HETATM   44  C27 UNL     1      23.788  -6.469  20.553  1.00  0.00     0.085 C 
HETATM   45  C28 UNL     1      24.928  -7.098  19.824  1.00  0.00     0.043 C 
HETATM   46  C29 UNL     1      24.949  -6.453  18.461  1.00  0.00     0.004 C 
HETATM   47  C30 UNL     1      24.204  -5.159  18.533  1.00  0.00     0.004 C 
HETATM   48  C31 UNL     1      23.464  -5.187  19.818  1.00  0.00     0.043 C 
BRANCH  44  49
HETATM   49  O6  UNL     1      24.100  -6.153  21.875  1.00  0.00    -0.385 OA
ATOM     50  H6  UNL     1      23.848  -5.248  22.016  1.00  0.00     0.211 HD
ENDBRANCH  44  49
ENDBRANCH  41  44
ENDBRANCH  11  38
TORSDOF 8
ENDMDL
MODEL 4
REMARK VINA RESULT: -8.370175805      2.285      4.270
REMARK  8 active torsions:
REMARK  status: ('A' for Active; 'I' for Inactive)
REMARK       I    between atoms: C1_2  and  N1_3 
REMARK    1  A    between atoms: C1_2  and  C11_18 
REMARK    2  A    between atoms: N1_3  and  C2_5 
REMARK    3  A    between atoms: C7_10  and  O2_11 
REMARK    4  A    between atoms: C10_15  and  O3_16 
REMARK       I    between atoms: N2_22  and  C15_23 
REMARK    5  A    between atoms: C15_23  and  C16_25 
REMARK       I    between atoms: N3_29  and  C20_30 
REMARK       I    between atoms: C20_30  and  N4_32 
REMARK    6  A    between atoms: N5_35  and  C23_36 
REMARK    7  A    between atoms: C26_39  and  C27_40 
REMARK    8  A    between atoms: C27_40  and  O6_41 
ROOT
HETATM    1  C16 UNL     1       8.405 -12.138  16.694  1.00  0.00     0.181 C 
HETATM    2  C17 UNL     1       8.960 -13.164  15.770  1.00  0.00     0.037 C 
HETATM    3  C18 UNL     1      10.341 -13.372  16.436  1.00  0.00     0.022 C 
HETATM    4  C19 UNL     1      10.573 -12.085  17.278  1.00  0.00     0.129 C 
HETATM    5  N3  UNL     1       9.514 -11.206  16.742  1.00  0.00    -0.321 N 
HETATM    6  C20 UNL     1       9.635  -9.935  16.261  1.00  0.00     0.321 C 
HETATM    7  O5  UNL     1       8.700  -9.552  15.443  1.00  0.00    -0.247 OA
HETATM    8  N4  UNL     1      10.629  -8.962  16.516  1.00  0.00    -0.331 N 
HETATM    9  C21 UNL     1      11.620  -9.012  17.563  1.00  0.00     0.147 C 
HETATM   10  C22 UNL     1      13.042  -8.922  17.126  1.00  0.00     0.143 C 
HETATM   11  N5  UNL     1      13.144  -8.249  15.862  1.00  0.00    -0.378 N 
HETATM   12  C34 UNL     1      12.150  -7.332  15.411  1.00  0.00     0.143 C 
HETATM   13  C35 UNL     1      10.757  -7.789  15.631  1.00  0.00     0.147 C 
ENDROOT
BRANCH   1  14
HETATM   14  C15 UNL     1       7.080 -11.634  16.514  1.00  0.00     0.243 C 
HETATM   15  N2  UNL     1       6.267 -12.239  15.483  1.00  0.00    -0.337 N 
HETATM   16  C11 UNL     1       4.929 -11.886  15.051  1.00  0.00     0.179 C 
HETATM   17  C14 UNL     1       6.693 -13.347  14.668  1.00  0.00     0.127 C 
HETATM   18  C12 UNL     1       4.354 -13.152  14.471  1.00  0.00     0.037 C 
HETATM   19  C13 UNL     1       5.448 -14.190  14.561  1.00  0.00     0.022 C 
HETATM   20  O4  UNL     1       6.599 -10.707  17.184  1.00  0.00    -0.271 OA
BRANCH  16  21
HETATM   21  C1  UNL     1       5.094 -10.825  14.031  1.00  0.00     0.241 C 
HETATM   22  O1  UNL     1       4.651 -11.052  12.873  1.00  0.00    -0.271 OA
HETATM   23  N1  UNL     1       5.722  -9.567  14.266  1.00  0.00    -0.351 N 
ATOM     24  H1  UNL     1       6.085  -9.347  15.193  1.00  0.00     0.163 HD
BRANCH  23  25
HETATM   25  C2  UNL     1       5.845  -8.613  13.211  1.00  0.00     0.123 C 
HETATM   26  C3  UNL     1       5.561  -7.180  13.586  1.00  0.00     0.014 C 
HETATM   27  C4  UNL     1       6.785  -6.848  14.441  1.00  0.00     0.014 C 
HETATM   28  C8  UNL     1       5.590  -6.359  12.313  1.00  0.00     0.044 C 
HETATM   29  C5  UNL     1       7.894  -7.333  13.503  1.00  0.00     0.025 C 
HETATM   30  C6  UNL     1       8.059  -6.198  12.480  1.00  0.00     0.045 C 
HETATM   31  C10 UNL     1       7.300  -8.477  12.728  1.00  0.00     0.085 C 
HETATM   32  C7  UNL     1       6.875  -6.509  11.565  1.00  0.00     0.061 C 
HETATM   33  C9  UNL     1       7.171  -7.990  11.290  1.00  0.00     0.078 C 
BRANCH  32  34
HETATM   34  O2  UNL     1       6.877  -5.754  10.422  1.00  0.00    -0.390 OA
ATOM     35  H2  UNL     1       6.068  -5.272  10.300  1.00  0.00     0.210 HD
ENDBRANCH  32  34
BRANCH  31  36
HETATM   36  O3  UNL     1       8.002  -9.641  12.834  1.00  0.00    -0.387 OA
ATOM     37  H3  UNL     1       8.547  -9.673  13.611  1.00  0.00     0.210 HD
ENDBRANCH  31  36
ENDBRANCH  23  25
ENDBRANCH  16  21
ENDBRANCH   1  14
BRANCH  11  38
HETATM   38  C23 UNL     1      14.350  -8.508  15.085  1.00  0.00     0.030 A 
HETATM   39  C24 UNL     1      14.808  -9.753  14.766  1.00  0.00     0.030 A 
HETATM   40  C25 UNL     1      15.959  -9.935  13.988  1.00  0.00     0.012 A 
HETATM   41  C26 UNL     1      16.665  -8.852  13.524  1.00  0.00    -0.024 A 
HETATM   42  C32 UNL     1      16.200  -7.596  13.851  1.00  0.00     0.012 A 
HETATM   43  C33 UNL     1      15.065  -7.419  14.616  1.00  0.00     0.030 A 
BRANCH  41  44
HETATM   44  C27 UNL     1      17.899  -8.961  12.677  1.00  0.00     0.085 C 
HETATM   45  C28 UNL     1      18.828  -7.804  12.836  1.00  0.00     0.043 C 
HETATM   46  C29 UNL     1      19.918  -8.278  13.764  1.00  0.00     0.004 C 
HETATM   47  C30 UNL     1      19.934  -9.774  13.758  1.00  0.00     0.004 C 
HETATM   48  C31 UNL     1      18.667 -10.191  13.109  1.00  0.00     0.043 C 
BRANCH  44  49
HETATM   49  O6  UNL     1      17.483  -9.143  11.358  1.00  0.00    -0.385 OA
ATOM     50  H6  UNL     1      17.420 -10.078  11.208  1.00  0.00     0.211 HD
ENDBRANCH  44  49
ENDBRANCH  41  44
ENDBRANCH  11  38
TORSDOF 8
ENDMDL
MODEL 5
REMARK VINA RESULT: -8.286238169      2.341     10.444
REMARK  8 active torsions:
REMARK  status: ('A' for Active; 'I' for Inactive)
REMARK       I    between atoms: C1_2  and  N1_3 
REMARK    1  A    between atoms: C1_2  and  C11_18 
REMARK    2  A    between atoms: N1_3  and  C2_5 
REMARK    3  A    between atoms: C7_10  and  O2_11 
REMARK    4  A    between atoms: C10_15  and  O3_16 
REMARK       I    between atoms: N2_22  and  C15_23 
REMARK    5  A    between atoms: C15_23  and  C16_25 
REMARK       I    between atoms: N3_29  and  C20_30 
REMARK       I    between atoms: C20_30  and  N4_32 
REMARK    6  A    between atoms: N5_35  and  C23_36 
REMARK    7  A    between atoms: C26_39  and  C27_40 
REMARK    8  A    between atoms: C27_40  and  O6_41 
ROOT
HETATM    1  C16 UNL     1      17.158  -7.814  15.051  1.00  0.00     0.181 C 
HETATM    2  C17 UNL     1      16.969  -7.150  13.733  1.00  0.00     0.037 C 
HETATM    3  C18 UNL     1      15.940  -6.071  14.147  1.00  0.00     0.022 C 
HETATM    4  C19 UNL     1      15.305  -6.613  15.459  1.00  0.00     0.129 C 
HETATM    5  N3  UNL     1      15.776  -8.013  15.441  1.00  0.00    -0.321 N 
HETATM    6  C20 UNL     1      15.039  -9.154  15.573  1.00  0.00     0.321 C 
HETATM    7  O5  UNL     1      15.573 -10.229  15.073  1.00  0.00    -0.247 OA
HETATM    8  N4  UNL     1      13.774  -9.349  16.174  1.00  0.00    -0.331 N 
HETATM    9  C21 UNL     1      13.081  -8.412  17.023  1.00  0.00     0.147 C 
HETATM   10  C22 UNL     1      11.714  -8.014  16.585  1.00  0.00     0.143 C 
HETATM   11  N5  UNL     1      11.132  -9.028  15.751  1.00  0.00    -0.378 N 
HETATM   12  C34 UNL     1      11.542 -10.392  15.821  1.00  0.00     0.143 C 
HETATM   13  C35 UNL     1      13.010 -10.582  15.900  1.00  0.00     0.147 C 
ENDROOT
BRANCH   1  14
HETATM   14  C15 UNL     1      18.084  -8.892  15.198  1.00  0.00     0.243 C 
HETATM   15  N2  UNL     1      19.181  -8.968  14.260  1.00  0.00    -0.337 N 
HETATM   16  C11 UNL     1      20.215  -9.977  14.142  1.00  0.00     0.179 C 
HETATM   17  C14 UNL     1      19.423  -7.997  13.224  1.00  0.00     0.127 C 
HETATM   18  C12 UNL     1      21.382  -9.274  13.499  1.00  0.00     0.037 C 
HETATM   19  C13 UNL     1      20.923  -7.860  13.228  1.00  0.00     0.022 C 
HETATM   20  O4  UNL     1      17.992  -9.764  16.077  1.00  0.00    -0.271 OA
BRANCH  16  21
HETATM   21  C1  UNL     1      19.654 -11.040  13.278  1.00  0.00     0.241 C 
HETATM   22  O1  UNL     1      20.046 -12.222  13.474  1.00  0.00    -0.271 OA
HETATM   23  N1  UNL     1      18.702 -10.821  12.238  1.00  0.00    -0.351 N 
ATOM     24  H1  UNL     1      18.357  -9.878  12.058  1.00  0.00     0.163 HD
BRANCH  23  25
HETATM   25  C2  UNL     1      18.230 -11.913  11.449  1.00  0.00     0.123 C 
HETATM   26  C3  UNL     1      16.733 -12.064  11.370  1.00  0.00     0.014 C 
HETATM   27  C4  UNL     1      16.359 -10.870  10.490  1.00  0.00     0.014 C 
HETATM   28  C8  UNL     1      16.441 -13.354  10.629  1.00  0.00     0.044 C 
HETATM   29  C5  UNL     1      17.349 -11.075   9.341  1.00  0.00     0.025 C 
HETATM   30  C6  UNL     1      16.708 -12.166   8.469  1.00  0.00     0.045 C 
HETATM   31  C10 UNL     1      18.558 -11.725   9.957  1.00  0.00     0.085 C 
HETATM   32  C7  UNL     1      17.092 -13.400   9.284  1.00  0.00     0.061 C 
HETATM   33  C9  UNL     1      18.602 -13.144   9.404  1.00  0.00     0.078 C 
BRANCH  32  34
HETATM   34  O2  UNL     1      16.810 -14.572   8.634  1.00  0.00    -0.390 OA
ATOM     35  H2  UNL     1      17.352 -14.705   7.866  1.00  0.00     0.210 HD
ENDBRANCH  32  34
BRANCH  31  36
HETATM   36  O3  UNL     1      19.719 -11.040   9.754  1.00  0.00    -0.387 OA
ATOM     37  H3  UNL     1      19.810 -10.726   8.862  1.00  0.00     0.210 HD
ENDBRANCH  31  36
ENDBRANCH  23  25
ENDBRANCH  16  21
ENDBRANCH   1  14
BRANCH  11  38
HETATM   38  C23 UNL     1      10.054  -8.602  14.866  1.00  0.00     0.030 A 
HETATM   39  C24 UNL     1      10.034  -7.415  14.194  1.00  0.00     0.030 A 
HETATM   40  C25 UNL     1       8.982  -7.076  13.333  1.00  0.00     0.012 A 
HETATM   41  C26 UNL     1       7.931  -7.939  13.144  1.00  0.00    -0.024 A 
HETATM   42  C32 UNL     1       7.954  -9.136  13.827  1.00  0.00     0.012 A 
HETATM   43  C33 UNL     1       8.993  -9.469  14.674  1.00  0.00     0.030 A 
BRANCH  41  44
HETATM   44  C27 UNL     1       6.773  -7.657  12.231  1.00  0.00     0.085 C 
HETATM   45  C28 UNL     1       5.588  -7.092  12.941  1.00  0.00     0.043 C 
HETATM   46  C29 UNL     1       5.626  -5.607  12.682  1.00  0.00     0.004 C 
HETATM   47  C30 UNL     1       6.475  -5.352  11.478  1.00  0.00     0.004 C 
HETATM   48  C31 UNL     1       7.205  -6.618  11.221  1.00  0.00     0.043 C 
BRANCH  44  49
HETATM   49  O6  UNL     1       6.483  -8.840  11.551  1.00  0.00    -0.385 OA
ATOM     50  H6  UNL     1       7.278  -9.359  11.536  1.00  0.00     0.211 HD
ENDBRANCH  44  49
ENDBRANCH  41  44
ENDBRANCH  11  38
TORSDOF 8
ENDMDL
