MODEL 1
REMARK VINA RESULT: -7.592585041      0.000      0.000
REMARK  4 active torsions:
REMARK  status: ('A' for Active; 'I' for Inactive)
REMARK       I    between atoms: N1_4  and  C4_6 
REMARK    1  A    between atoms: C4_6  and  C5_8 
REMARK    2  A    between atoms: C14_23  and  C15_24 
REMARK       I    between atoms: C15_24  and  N4_26 
REMARK    3  A    between atoms: C19_30  and  C20_31 
REMARK       I    between atoms: C20_31  and  N5_33 
REMARK    4  A    between atoms: N5_33  and  C21_35 
ROOT
HETATM    1  C5  UNL     1      10.638  -8.718  14.712  1.00  0.00     0.087 C 
HETATM    2  C6  UNL     1      11.563  -7.683  15.319  1.00  0.00     0.015 C 
HETATM    3  C7  UNL     1      12.139  -6.774  14.281  1.00  0.00     0.001 C 
HETATM    4  C8  UNL     1      13.581  -7.023  13.949  1.00  0.00     0.002 C 
HETATM    5  C9  UNL     1      14.489  -6.957  15.135  1.00  0.00     0.027 C 
HETATM    6  C10 UNL     1      15.947  -7.012  14.697  1.00  0.00     0.233 C 
HETATM    7  N2  UNL     1      16.103  -7.810  13.495  1.00  0.00    -0.063 N 
ATOM      8  H21 UNL     1      15.682  -7.373  12.675  1.00  0.00     0.278 HD
ATOM      9  H22 UNL     1      15.532  -8.656  13.507  1.00  0.00     0.278 HD
HETATM   10  C11 UNL     1      17.523  -8.090  13.318  1.00  0.00     0.273 C 
HETATM   11  C12 UNL     1      18.071  -6.847  12.594  1.00  0.00     0.050 C 
HETATM   12  C13 UNL     1      17.730  -9.270  12.449  1.00  0.00     0.248 C 
HETATM   13  O2  UNL     1      17.636  -9.005  11.188  1.00  0.00    -0.271 OA
HETATM   14  N3  UNL     1      17.999 -10.587  12.792  1.00  0.00    -0.346 N 
ATOM     15  H3  UNL     1      17.303 -11.262  12.476  1.00  0.00     0.163 HD
HETATM   16  C14 UNL     1      19.103 -11.155  13.524  1.00  0.00     0.177 C 
HETATM   17  C27 UNL     1      18.900 -11.002  15.021  1.00  0.00     0.044 C 
HETATM   18  C28 UNL     1      17.487 -11.361  15.415  1.00  0.00     0.105 C 
HETATM   19  C29 UNL     1      16.926 -10.472  16.447  1.00  0.00     0.217 C 
HETATM   20  O5  UNL     1      17.689  -9.724  17.096  1.00  0.00    -0.274 OA
HETATM   21  N6  UNL     1      15.535 -10.441  16.731  1.00  0.00    -0.360 N 
ATOM     22  H6  UNL     1      15.196  -9.914  17.535  1.00  0.00     0.162 HD
HETATM   23  C30 UNL     1      14.579 -11.157  15.879  1.00  0.00     0.132 C 
HETATM   24  C31 UNL     1      13.192 -11.105  16.452  1.00  0.00     0.093 C 
HETATM   25  S1  UNL     1      11.973 -11.072  15.086  1.00  0.00    -0.167 SA
HETATM   26  C32 UNL     1      10.607  -9.980  15.561  1.00  0.00     0.088 C 
ENDROOT
BRANCH  16  27
HETATM   27  C15 UNL     1      20.431 -10.756  13.053  1.00  0.00     0.243 C 
HETATM   28  O3  UNL     1      20.626 -10.814  11.805  1.00  0.00    -0.271 OA
HETATM   29  N4  UNL     1      21.512 -10.320  13.867  1.00  0.00    -0.337 N 
HETATM   30  C16 UNL     1      22.823  -9.957  13.376  1.00  0.00     0.127 C 
HETATM   31  C19 UNL     1      21.512 -10.204  15.310  1.00  0.00     0.179 C 
HETATM   32  C17 UNL     1      23.719  -9.927  14.578  1.00  0.00     0.022 C 
HETATM   33  C18 UNL     1      22.953 -10.622  15.656  1.00  0.00     0.037 C 
BRANCH  31  34
HETATM   34  C20 UNL     1      21.241  -8.873  15.853  1.00  0.00     0.241 C 
HETATM   35  O4  UNL     1      20.672  -8.067  15.021  1.00  0.00    -0.271 OA
HETATM   36  N5  UNL     1      21.500  -8.365  17.109  1.00  0.00    -0.355 N 
ATOM     37  H5  UNL     1      21.932  -8.978  17.801  1.00  0.00     0.162 HD
BRANCH  36  38
HETATM   38  C21 UNL     1      21.182  -6.978  17.499  1.00  0.00     0.084 C 
HETATM   39  C22 UNL     1      19.943  -6.957  18.370  1.00  0.00     0.025 C 
HETATM   40  C23 UNL     1      20.211  -7.299  19.795  1.00  0.00     0.002 C 
HETATM   41  C24 UNL     1      21.415  -6.584  20.362  1.00  0.00     0.000 C 
HETATM   42  C25 UNL     1      22.638  -6.669  19.511  1.00  0.00     0.002 C 
HETATM   43  C26 UNL     1      22.332  -6.257  18.087  1.00  0.00     0.025 C 
ENDBRANCH  36  38
ENDBRANCH  31  34
ENDBRANCH  16  27
BRANCH   1  44
HETATM   44  C4  UNL     1       9.223  -8.234  14.629  1.00  0.00     0.226 C 
HETATM   45  N1  UNL     1       8.385  -8.831  13.634  1.00  0.00    -0.335 N 
HETATM   46  C2  UNL     1       7.736  -8.051  12.795  1.00  0.00    -0.018 C 
ATOM     47  H1  UNL     1       8.292  -9.846  13.577  1.00  0.00     0.168 HD
HETATM   48  C1  UNL     1       7.829  -6.582  12.832  1.00  0.00     0.062 C 
HETATM   49  C3  UNL     1       6.877  -8.688  11.767  1.00  0.00     0.062 C 
HETATM   50  O1  UNL     1       8.769  -7.342  15.390  1.00  0.00    -0.273 OA
ENDBRANCH   1  44
TORSDOF 4
ENDMDL
MODEL 2
REMARK VINA RESULT: -7.503215228      6.431     12.536
REMARK  4 active torsions:
REMARK  status: ('A' for Active; 'I' for Inactive)
REMARK       I    between atoms: N1_4  and  C4_6 
REMARK    1  A    between atoms: C4_6  and  C5_8 
REMARK    2  A    between atoms: C14_23  and  C15_24 
REMARK       I    between atoms: C15_24  and  N4_26 
REMARK    3  A    between atoms: C19_30  and  C20_31 
REMARK       I    between atoms: C20_31  and  N5_33 
REMARK    4  A    between atoms: N5_33  and  C21_35 
ROOT
HETATM    1  C5  UNL     1      13.014  -9.909  23.557  1.00  0.00     0.087 C 
HETATM    2  C6  UNL     1      13.687 -10.721  22.468  1.00  0.00     0.015 C 
HETATM    3  C7  UNL     1      14.544  -9.869  21.589  1.00  0.00     0.001 C 
HETATM    4  C8  UNL     1      13.978  -9.591  20.228  1.00  0.00     0.002 C 
HETATM    5  C9  UNL     1      13.651 -10.826  19.450  1.00  0.00     0.027 C 
HETATM    6  C10 UNL     1      13.280 -10.472  18.015  1.00  0.00     0.233 C 
HETATM    7  N2  UNL     1      12.634  -9.175  17.946  1.00  0.00    -0.063 N 
ATOM      8  H21 UNL     1      13.268  -8.407  18.165  1.00  0.00     0.278 HD
ATOM      9  H22 UNL     1      11.970  -9.025  18.705  1.00  0.00     0.278 HD
HETATM   10  C11 UNL     1      12.023  -9.043  16.628  1.00  0.00     0.273 C 
HETATM   11  C12 UNL     1      13.166  -8.550  15.723  1.00  0.00     0.050 C 
HETATM   12  C13 UNL     1      10.955  -8.019  16.636  1.00  0.00     0.248 C 
HETATM   13  O2  UNL     1      11.399  -6.810  16.539  1.00  0.00    -0.271 OA
HETATM   14  N3  UNL     1       9.579  -8.174  16.734  1.00  0.00    -0.346 N 
ATOM     15  H3  UNL     1       9.154  -7.717  17.541  1.00  0.00     0.163 HD
HETATM   16  C14 UNL     1       8.654  -8.876  15.880  1.00  0.00     0.177 C 
HETATM   17  C27 UNL     1       8.656 -10.363  16.182  1.00  0.00     0.044 C 
HETATM   18  C28 UNL     1       8.626 -10.614  17.672  1.00  0.00     0.105 C 
HETATM   19  C29 UNL     1       9.485 -11.733  18.094  1.00  0.00     0.217 C 
HETATM   20  O5  UNL     1       9.919 -12.532  17.236  1.00  0.00    -0.274 OA
HETATM   21  N6  UNL     1       9.836 -11.933  19.455  1.00  0.00    -0.360 N 
ATOM     22  H6  UNL     1      10.322 -12.787  19.729  1.00  0.00     0.162 HD
HETATM   23  C30 UNL     1       9.509 -10.927  20.470  1.00  0.00     0.132 C 
HETATM   24  C31 UNL     1       9.842 -11.417  21.851  1.00  0.00     0.093 C 
HETATM   25  S1  UNL     1      10.367 -10.001  22.886  1.00  0.00    -0.167 SA
HETATM   26  C32 UNL     1      11.703 -10.553  23.980  1.00  0.00     0.088 C 
ENDROOT
BRANCH  16  27
HETATM   27  C15 UNL     1       8.756  -8.551  14.455  1.00  0.00     0.243 C 
HETATM   28  O3  UNL     1       9.908  -8.627  13.942  1.00  0.00    -0.271 OA
HETATM   29  N4  UNL     1       7.684  -8.155  13.609  1.00  0.00    -0.337 N 
HETATM   30  C16 UNL     1       7.818  -7.814  12.210  1.00  0.00     0.127 C 
HETATM   31  C19 UNL     1       6.299  -7.983  13.995  1.00  0.00     0.179 C 
HETATM   32  C17 UNL     1       6.544  -7.120  11.832  1.00  0.00     0.022 C 
HETATM   33  C18 UNL     1       5.882  -6.781  13.129  1.00  0.00     0.037 C 
BRANCH  31  34
HETATM   34  C20 UNL     1       5.408  -9.113  13.734  1.00  0.00     0.241 C 
HETATM   35  O4  UNL     1       4.158  -8.856  13.925  1.00  0.00    -0.271 OA
HETATM   36  N5  UNL     1       5.708 -10.393  13.317  1.00  0.00    -0.355 N 
ATOM     37  H5  UNL     1       6.684 -10.629  13.138  1.00  0.00     0.162 HD
BRANCH  36  38
HETATM   38  C21 UNL     1       4.685 -11.437  13.119  1.00  0.00     0.084 C 
HETATM   39  C22 UNL     1       4.800 -12.015  11.724  1.00  0.00     0.025 C 
HETATM   40  C23 UNL     1       5.874 -13.039  11.590  1.00  0.00     0.002 C 
HETATM   41  C24 UNL     1       5.875 -14.050  12.713  1.00  0.00     0.000 C 
HETATM   42  C25 UNL     1       5.818 -13.451  14.079  1.00  0.00     0.002 C 
HETATM   43  C26 UNL     1       4.678 -12.461  14.186  1.00  0.00     0.025 C 
ENDBRANCH  36  38
ENDBRANCH  31  34
ENDBRANCH  16  27
BRANCH   1  44
HETATM   44  C4  UNL     1      13.854  -9.816  24.793  1.00  0.00     0.226 C 
HETATM   45  N1  UNL     1      14.713  -8.678  24.915  1.00  0.00    -0.335 N 
HETATM   46  C2  UNL     1      15.992  -8.869  25.166  1.00  0.00    -0.018 C 
ATOM     47  H1  UNL     1      14.341  -7.734  24.809  1.00  0.00     0.168 HD
HETATM   48  C1  UNL     1      16.585 -10.206  25.331  1.00  0.00     0.062 C 
HETATM   49  C3  UNL     1      16.870  -7.678  25.282  1.00  0.00     0.062 C 
HETATM   50  O1  UNL     1      13.821 -10.687  25.699  1.00  0.00    -0.273 OA
ENDBRANCH   1  44
TORSDOF 4
ENDMDL
MODEL 3
REMARK VINA RESULT: -7.475952484      1.215      1.554
REMARK  4 active torsions:
REMARK  status: ('A' for Active; 'I' for Inactive)
REMARK       I    between atoms: N1_4  and  C4_6 
REMARK    1  A    between atoms: C4_6  and  C5_8 
REMARK    2  A    between atoms: C14_23  and  C15_24 
REMARK       I    between atoms: C15_24  and  N4_26 
REMARK    3  A    between atoms: C19_30  and  C20_31 
REMARK       I    between atoms: C20_31  and  N5_33 
REMARK    4  A    between atoms: N5_33  and  C21_35 
ROOT
HETATM    1  C5  UNL     1      10.563  -8.652  14.808  1.00  0.00     0.087 C 
HETATM    2  C6  UNL     1      11.412  -7.455  15.191  1.00  0.00     0.015 C 
HETATM    3  C7  UNL     1      11.898  -6.711  13.989  1.00  0.00     0.001 C 
HETATM    4  C8  UNL     1      13.350  -6.906  13.668  1.00  0.00     0.002 C 
HETATM    5  C9  UNL     1      14.267  -6.555  14.796  1.00  0.00     0.027 C 
HETATM    6  C10 UNL     1      15.719  -6.579  14.333  1.00  0.00     0.233 C 
HETATM    7  N2  UNL     1      15.920  -7.569  13.292  1.00  0.00    -0.063 N 
ATOM      8  H21 UNL     1      15.455  -7.323  12.419  1.00  0.00     0.278 HD
ATOM      9  H22 UNL     1      15.420  -8.439  13.474  1.00  0.00     0.278 HD
HETATM   10  C11 UNL     1      17.356  -7.769  13.128  1.00  0.00     0.273 C 
HETATM   11  C12 UNL     1      17.793  -6.642  12.176  1.00  0.00     0.050 C 
HETATM   12  C13 UNL     1      17.644  -9.068  12.483  1.00  0.00     0.248 C 
HETATM   13  O2  UNL     1      17.512  -9.047  11.198  1.00  0.00    -0.271 OA
HETATM   14  N3  UNL     1      18.022 -10.276  13.052  1.00  0.00    -0.346 N 
ATOM     15  H3  UNL     1      17.378 -11.049  12.883  1.00  0.00     0.163 HD
HETATM   16  C14 UNL     1      19.178 -10.615  13.843  1.00  0.00     0.177 C 
HETATM   17  C27 UNL     1      18.985 -10.207  15.292  1.00  0.00     0.044 C 
HETATM   18  C28 UNL     1      17.610 -10.593  15.785  1.00  0.00     0.105 C 
HETATM   19  C29 UNL     1      16.995  -9.576  16.654  1.00  0.00     0.217 C 
HETATM   20  O5  UNL     1      17.705  -8.666  17.134  1.00  0.00    -0.274 OA
HETATM   21  N6  UNL     1      15.610  -9.599  16.967  1.00  0.00    -0.360 N 
ATOM     22  H6  UNL     1      15.242  -8.960  17.672  1.00  0.00     0.162 HD
HETATM   23  C30 UNL     1      14.703 -10.529  16.286  1.00  0.00     0.132 C 
HETATM   24  C31 UNL     1      13.324 -10.478  16.880  1.00  0.00     0.093 C 
HETATM   25  S1  UNL     1      12.087 -10.789  15.566  1.00  0.00    -0.167 SA
HETATM   26  C32 UNL     1      10.645  -9.735  15.873  1.00  0.00     0.088 C 
ENDROOT
BRANCH  16  27
HETATM   27  C15 UNL     1      20.464 -10.210  13.269  1.00  0.00     0.243 C 
HETATM   28  O3  UNL     1      20.416  -9.415  12.288  1.00  0.00    -0.271 OA
HETATM   29  N4  UNL     1      21.748 -10.632  13.711  1.00  0.00    -0.337 N 
HETATM   30  C16 UNL     1      23.001 -10.236  13.107  1.00  0.00     0.127 C 
HETATM   31  C19 UNL     1      22.027 -11.551  14.794  1.00  0.00     0.179 C 
HETATM   32  C17 UNL     1      24.032 -11.185  13.640  1.00  0.00     0.022 C 
HETATM   33  C18 UNL     1      23.255 -12.305  14.252  1.00  0.00     0.037 C 
BRANCH  31  34
HETATM   34  C20 UNL     1      22.349 -10.949  16.088  1.00  0.00     0.241 C 
HETATM   35  O4  UNL     1      22.801 -11.783  16.962  1.00  0.00    -0.271 OA
HETATM   36  N5  UNL     1      22.241  -9.637  16.500  1.00  0.00    -0.355 N 
ATOM     37  H5  UNL     1      21.904  -8.944  15.831  1.00  0.00     0.162 HD
BRANCH  36  38
HETATM   38  C21 UNL     1      22.589  -9.189  17.861  1.00  0.00     0.084 C 
HETATM   39  C22 UNL     1      23.695  -8.157  17.798  1.00  0.00     0.025 C 
HETATM   40  C23 UNL     1      23.214  -6.786  17.467  1.00  0.00     0.002 C 
HETATM   41  C24 UNL     1      21.992  -6.379  18.255  1.00  0.00     0.000 C 
HETATM   42  C25 UNL     1      20.893  -7.390  18.254  1.00  0.00     0.002 C 
HETATM   43  C26 UNL     1      21.416  -8.754  18.651  1.00  0.00     0.025 C 
ENDBRANCH  36  38
ENDBRANCH  31  34
ENDBRANCH  16  27
BRANCH   1  44
HETATM   44  C4  UNL     1       9.114  -8.299  14.679  1.00  0.00     0.226 C 
HETATM   45  N1  UNL     1       8.373  -8.949  13.641  1.00  0.00    -0.335 N 
HETATM   46  C2  UNL     1       7.685  -8.213  12.792  1.00  0.00    -0.018 C 
ATOM     47  H1  UNL     1       8.378  -9.966  13.560  1.00  0.00     0.168 HD
HETATM   48  C1  UNL     1       7.639  -6.743  12.862  1.00  0.00     0.062 C 
HETATM   49  C3  UNL     1       6.929  -8.903  11.718  1.00  0.00     0.062 C 
HETATM   50  O1  UNL     1       8.549  -7.472  15.440  1.00  0.00    -0.273 OA
ENDBRANCH   1  44
TORSDOF 4
ENDMDL
MODEL 4
REMARK VINA RESULT: -7.190543471      3.957      6.243
REMARK  4 active torsions:
REMARK  status: ('A' for Active; 'I' for Inactive)
REMARK       I    between atoms: N1_4  and  C4_6 
REMARK    1  A    between atoms: C4_6  and  C5_8 
REMARK    2  A    between atoms: C14_23  and  C15_24 
REMARK       I    between atoms: C15_24  and  N4_26 
REMARK    3  A    between atoms: C19_30  and  C20_31 
REMARK       I    between atoms: C20_31  and  N5_33 
REMARK    4  A    between atoms: N5_33  and  C21_35 
ROOT
HETATM    1  C5  UNL     1       6.134 -10.826  14.069  1.00  0.00     0.087 C 
HETATM    2  C6  UNL     1       6.379  -9.345  14.275  1.00  0.00     0.015 C 
HETATM    3  C7  UNL     1       7.212  -8.761  13.180  1.00  0.00     0.001 C 
HETATM    4  C8  UNL     1       8.632  -8.457  13.558  1.00  0.00     0.002 C 
HETATM    5  C9  UNL     1       8.758  -7.542  14.734  1.00  0.00     0.027 C 
HETATM    6  C10 UNL     1      10.208  -7.116  14.928  1.00  0.00     0.233 C 
HETATM    7  N2  UNL     1      11.121  -8.161  14.507  1.00  0.00    -0.063 N 
ATOM      8  H21 UNL     1      11.109  -8.312  13.498  1.00  0.00     0.278 HD
ATOM      9  H22 UNL     1      10.812  -9.092  14.788  1.00  0.00     0.278 HD
HETATM   10  C11 UNL     1      12.450  -7.832  15.011  1.00  0.00     0.273 C 
HETATM   11  C12 UNL     1      13.030  -6.867  13.962  1.00  0.00     0.050 C 
HETATM   12  C13 UNL     1      13.310  -9.034  15.071  1.00  0.00     0.248 C 
HETATM   13  O2  UNL     1      13.833  -9.352  13.934  1.00  0.00    -0.271 OA
HETATM   14  N3  UNL     1      13.622  -9.848  16.151  1.00  0.00    -0.346 N 
ATOM     15  H3  UNL     1      13.344 -10.824  16.045  1.00  0.00     0.163 HD
HETATM   16  C14 UNL     1      14.274  -9.537  17.399  1.00  0.00     0.177 C 
HETATM   17  C27 UNL     1      13.298  -8.920  18.384  1.00  0.00     0.044 C 
HETATM   18  C28 UNL     1      11.991  -9.678  18.400  1.00  0.00     0.105 C 
HETATM   19  C29 UNL     1      10.811  -8.804  18.503  1.00  0.00     0.217 C 
HETATM   20  O5  UNL     1      10.957  -7.611  18.844  1.00  0.00    -0.274 OA
HETATM   21  N6  UNL     1       9.502  -9.280  18.227  1.00  0.00    -0.360 N 
ATOM     22  H6  UNL     1       8.697  -8.689  18.433  1.00  0.00     0.162 HD
HETATM   23  C30 UNL     1       9.295 -10.612  17.648  1.00  0.00     0.132 C 
HETATM   24  C31 UNL     1       7.835 -10.957  17.581  1.00  0.00     0.093 C 
HETATM   25  S1  UNL     1       7.524 -11.998  16.108  1.00  0.00    -0.167 SA
HETATM   26  C32 UNL     1       5.922 -11.531  15.401  1.00  0.00     0.088 C 
ENDROOT
BRANCH  16  27
HETATM   27  C15 UNL     1      15.541  -8.814  17.273  1.00  0.00     0.243 C 
HETATM   28  O3  UNL     1      15.500  -7.709  16.659  1.00  0.00    -0.271 OA
HETATM   29  N4  UNL     1      16.803  -9.243  17.770  1.00  0.00    -0.337 N 
HETATM   30  C16 UNL     1      18.044  -8.520  17.607  1.00  0.00     0.127 C 
HETATM   31  C19 UNL     1      17.076 -10.477  18.476  1.00  0.00     0.179 C 
HETATM   32  C17 UNL     1      19.134  -9.492  17.947  1.00  0.00     0.022 C 
HETATM   33  C18 UNL     1      18.477 -10.834  17.946  1.00  0.00     0.037 C 
BRANCH  31  34
HETATM   34  C20 UNL     1      17.107 -10.394  19.936  1.00  0.00     0.241 C 
HETATM   35  O4  UNL     1      17.781 -11.336  20.505  1.00  0.00    -0.271 OA
HETATM   36  N5  UNL     1      16.529  -9.468  20.778  1.00  0.00    -0.355 N 
ATOM     37  H5  UNL     1      16.003  -8.697  20.365  1.00  0.00     0.162 HD
BRANCH  36  38
HETATM   38  C21 UNL     1      16.635  -9.537  22.248  1.00  0.00     0.084 C 
HETATM   39  C22 UNL     1      16.882  -8.155  22.815  1.00  0.00     0.025 C 
HETATM   40  C23 UNL     1      15.647  -7.333  22.940  1.00  0.00     0.002 C 
HETATM   41  C24 UNL     1      14.490  -8.087  23.553  1.00  0.00     0.000 C 
HETATM   42  C25 UNL     1      14.232  -9.423  22.938  1.00  0.00     0.002 C 
HETATM   43  C26 UNL     1      15.502 -10.245  22.884  1.00  0.00     0.025 C 
ENDBRANCH  36  38
ENDBRANCH  31  34
ENDBRANCH  16  27
BRANCH   1  44
HETATM   44  C4  UNL     1       4.904 -11.089  13.256  1.00  0.00     0.226 C 
HETATM   45  N1  UNL     1       3.664 -11.195  13.963  1.00  0.00    -0.335 N 
HETATM   46  C2  UNL     1       2.909 -12.257  13.768  1.00  0.00    -0.018 C 
ATOM     47  H1  UNL     1       3.370 -10.462  14.608  1.00  0.00     0.168 HD
HETATM   48  C1  UNL     1       3.279 -13.345  12.849  1.00  0.00     0.062 C 
HETATM   49  C3  UNL     1       1.630 -12.354  14.515  1.00  0.00     0.062 C 
HETATM   50  O1  UNL     1       4.934 -11.212  12.005  1.00  0.00    -0.273 OA
ENDBRANCH   1  44
TORSDOF 4
ENDMDL
MODEL 5
REMARK VINA RESULT: -7.093353602      5.451     12.155
REMARK  4 active torsions:
REMARK  status: ('A' for Active; 'I' for Inactive)
REMARK       I    between atoms: N1_4  and  C4_6 
REMARK    1  A    between atoms: C4_6  and  C5_8 
REMARK    2  A    between atoms: C14_23  and  C15_24 
REMARK       I    between atoms: C15_24  and  N4_26 
REMARK    3  A    between atoms: C19_30  and  C20_31 
REMARK       I    between atoms: C20_31  and  N5_33 
REMARK    4  A    between atoms: N5_33  and  C21_35 
ROOT
HETATM    1  C5  UNL     1      14.761 -10.701  21.925  1.00  0.00     0.087 C 
HETATM    2  C6  UNL     1      14.915 -11.550  20.679  1.00  0.00     0.015 C 
HETATM    3  C7  UNL     1      15.767 -10.879  19.651  1.00  0.00     0.001 C 
HETATM    4  C8  UNL     1      15.019 -10.320  18.476  1.00  0.00     0.002 C 
HETATM    5  C9  UNL     1      14.189 -11.334  17.756  1.00  0.00     0.027 C 
HETATM    6  C10 UNL     1      13.629 -10.749  16.465  1.00  0.00     0.233 C 
HETATM    7  N2  UNL     1      13.386  -9.325  16.598  1.00  0.00    -0.063 N 
ATOM      8  H21 UNL     1      14.246  -8.785  16.685  1.00  0.00     0.278 HD
ATOM      9  H22 UNL     1      12.977  -9.078  17.499  1.00  0.00     0.278 HD
HETATM   10  C11 UNL     1      12.565  -8.898  15.470  1.00  0.00     0.273 C 
HETATM   11  C12 UNL     1      13.573  -8.645  14.336  1.00  0.00     0.050 C 
HETATM   12  C13 UNL     1      11.865  -7.629  15.770  1.00  0.00     0.248 C 
HETATM   13  O2  UNL     1      12.606  -6.582  15.612  1.00  0.00    -0.271 OA
HETATM   14  N3  UNL     1      10.560  -7.414  16.189  1.00  0.00    -0.346 N 
ATOM     15  H3  UNL     1      10.472  -6.943  17.090  1.00  0.00     0.163 HD
HETATM   16  C14 UNL     1       9.308  -7.748  15.557  1.00  0.00     0.177 C 
HETATM   17  C27 UNL     1       8.948  -9.202  15.798  1.00  0.00     0.044 C 
HETATM   18  C28 UNL     1       9.175  -9.585  17.242  1.00  0.00     0.105 C 
HETATM   19  C29 UNL     1       9.746 -10.932  17.406  1.00  0.00     0.217 C 
HETATM   20  O5  UNL     1       9.732 -11.728  16.442  1.00  0.00    -0.274 OA
HETATM   21  N6  UNL     1      10.315 -11.358  18.635  1.00  0.00    -0.360 N 
ATOM     22  H6  UNL     1      10.582 -12.335  18.755  1.00  0.00     0.162 HD
HETATM   23  C30 UNL     1      10.523 -10.410  19.734  1.00  0.00     0.132 C 
HETATM   24  C31 UNL     1      10.995 -11.109  20.976  1.00  0.00     0.093 C 
HETATM   25  S1  UNL     1      12.120 -10.003  21.905  1.00  0.00    -0.167 SA
HETATM   26  C32 UNL     1      13.446 -11.005  22.627  1.00  0.00     0.088 C 
ENDROOT
BRANCH  16  27
HETATM   27  C15 UNL     1       9.183  -7.319  14.162  1.00  0.00     0.243 C 
HETATM   28  O3  UNL     1      10.250  -6.959  13.587  1.00  0.00    -0.271 OA
HETATM   29  N4  UNL     1       7.979  -7.267  13.407  1.00  0.00    -0.337 N 
HETATM   30  C16 UNL     1       7.882  -6.814  12.038  1.00  0.00     0.127 C 
HETATM   31  C19 UNL     1       6.653  -7.609  13.876  1.00  0.00     0.179 C 
HETATM   32  C17 UNL     1       6.422  -6.581  11.784  1.00  0.00     0.022 C 
HETATM   33  C18 UNL     1       5.786  -6.574  13.136  1.00  0.00     0.037 C 
BRANCH  31  34
HETATM   34  C20 UNL     1       6.184  -8.960  13.564  1.00  0.00     0.241 C 
HETATM   35  O4  UNL     1       6.575  -9.404  12.418  1.00  0.00    -0.271 OA
HETATM   36  N5  UNL     1       5.398  -9.812  14.310  1.00  0.00    -0.355 N 
ATOM     37  H5  UNL     1       5.084  -9.504  15.231  1.00  0.00     0.162 HD
BRANCH  36  38
HETATM   38  C21 UNL     1       4.988 -11.150  13.841  1.00  0.00     0.084 C 
HETATM   39  C22 UNL     1       5.971 -12.193  14.331  1.00  0.00     0.025 C 
HETATM   40  C23 UNL     1       5.739 -12.614  15.740  1.00  0.00     0.002 C 
HETATM   41  C24 UNL     1       4.287 -12.898  16.045  1.00  0.00     0.000 C 
HETATM   42  C25 UNL     1       3.345 -11.827  15.603  1.00  0.00     0.002 C 
HETATM   43  C26 UNL     1       3.578 -11.472  14.150  1.00  0.00     0.025 C 
ENDBRANCH  36  38
ENDBRANCH  31  34
ENDBRANCH  16  27
BRANCH   1  44
HETATM   44  C4  UNL     1      15.842 -10.966  22.927  1.00  0.00     0.226 C 
HETATM   45  N1  UNL     1      16.638  -9.851  23.339  1.00  0.00    -0.335 N 
HETATM   46  C2  UNL     1      17.950  -9.941  23.263  1.00  0.00    -0.018 C 
ATOM     47  H1  UNL     1      16.197  -8.999  23.686  1.00  0.00     0.168 HD
HETATM   48  C1  UNL     1      18.643 -11.144  22.774  1.00  0.00     0.062 C 
HETATM   49  C3  UNL     1      18.760  -8.773  23.688  1.00  0.00     0.062 C 
HETATM   50  O1  UNL     1      16.058 -12.111  23.401  1.00  0.00    -0.273 OA
ENDBRANCH   1  44
TORSDOF 4
ENDMDL
