MODEL 1
REMARK VINA RESULT: -7.501624573      0.000      0.000
REMARK  8 active torsions:
REMARK  status: ('A' for Active; 'I' for Inactive)
REMARK    1  A    between atoms: C2_2  and  C4_4 
REMARK    2  A    between atoms: C5_5  and  C6_6 
REMARK    3  A    between atoms: C16_16  and  O1_17 
REMARK    4  A    between atoms: C17_19  and  N1_20 
REMARK    5  A    between atoms: N1_20  and  N2_22 
REMARK       I    between atoms: N2_22  and  C19_24 
REMARK       I    between atoms: C19_24  and  N3_26 
REMARK    6  A    between atoms: N3_26  and  C20_28 
REMARK    7  A    between atoms: C20_28  and  C21_29 
REMARK    8  A    between atoms: C29_42  and  N5_43 
REMARK       I    between atoms: N5_43  and  C30_45 
ROOT
HETATM    1  C6  UNL     1      18.585  -8.799  13.537  1.00  0.00     0.040 A 
HETATM    2  C7  UNL     1      18.960  -7.451  13.961  1.00  0.00     0.024 C 
HETATM    3  C8  UNL     1      19.946  -7.353  15.117  1.00  0.00     0.007 C 
HETATM    4  C9  UNL     1      19.716  -8.204  16.304  1.00  0.00    -0.001 C 
HETATM    5  C10 UNL     1      19.355  -9.551  15.597  1.00  0.00    -0.003 C 
HETATM    6  C11 UNL     1      19.324 -10.558  16.701  1.00  0.00     0.006 C 
HETATM    7  C12 UNL     1      17.982 -10.248  17.360  1.00  0.00     0.006 C 
HETATM    8  C13 UNL     1      18.006  -8.921  18.010  1.00  0.00     0.001 C 
HETATM    9  C14 UNL     1      16.670  -8.344  18.415  1.00  0.00     0.023 C 
HETATM   10  C15 UNL     1      15.521  -9.229  18.217  1.00  0.00     0.041 C 
HETATM   11  C16 UNL     1      14.501  -8.812  17.178  1.00  0.00     0.150 C 
HETATM   12  C17 UNL     1      14.476  -9.495  15.856  1.00  0.00     0.208 C 
HETATM   13  C25 UNL     1      15.175  -8.668  14.780  1.00  0.00     0.221 C 
HETATM   14  O3  UNL     1      14.890  -7.423  14.946  1.00  0.00    -0.287 OA
HETATM   15  C26 UNL     1      16.023  -9.100  13.719  1.00  0.00     0.203 C 
HETATM   16  O4  UNL     1      15.628  -9.069  12.487  1.00  0.00    -0.289 OA
HETATM   17  C27 UNL     1      17.441  -9.638  13.779  1.00  0.00     0.091 A 
HETATM   18  C28 UNL     1      18.129  -9.357  14.936  1.00  0.00     0.025 A 
HETATM   19  C29 UNL     1      16.971  -7.668  19.708  1.00  0.00     0.159 C 
HETATM   20  C32 UNL     1      18.368  -7.140  19.696  1.00  0.00     0.154 C 
HETATM   21  O6  UNL     1      18.689  -6.502  20.709  1.00  0.00    -0.295 OA
HETATM   22  C33 UNL     1      19.453  -7.249  18.666  1.00  0.00     0.062 C 
HETATM   23  C34 UNL     1      20.595  -8.056  19.150  1.00  0.00     0.018 C 
HETATM   24  C35 UNL     1      18.782  -7.810  17.377  1.00  0.00    -0.026 C 
HETATM   25  C36 UNL     1      18.089  -6.546  16.992  1.00  0.00     0.016 C 
ENDROOT
BRANCH  12  26
HETATM   26  N1  UNL     1      13.147  -9.753  15.477  1.00  0.00    -0.313 N 
HETATM   27  C18 UNL     1      12.861 -11.117  15.107  1.00  0.00     0.172 C 
BRANCH  26  28
HETATM   28  N2  UNL     1      12.475  -8.902  14.660  1.00  0.00    -0.253 N 
HETATM   29  C19 UNL     1      11.304  -8.154  14.867  1.00  0.00     0.334 C 
HETATM   30  O2  UNL     1      10.672  -8.163  15.924  1.00  0.00    -0.246 OA
HETATM   31  N3  UNL     1      10.763  -7.312  13.820  1.00  0.00    -0.340 N 
ATOM     32  H3  UNL     1      11.248  -7.281  12.924  1.00  0.00     0.164 HD
ATOM     33  H2  UNL     1      12.892  -8.786  13.736  1.00  0.00     0.191 HD
BRANCH  31  34
HETATM   34  C20 UNL     1       9.581  -6.521  13.984  1.00  0.00     0.157 C 
BRANCH  34  35
HETATM   35  C21 UNL     1       8.440  -7.156  13.222  1.00  0.00     0.203 C 
HETATM   36  C22 UNL     1       7.755  -6.173  12.295  1.00  0.00     0.036 C 
HETATM   37  C23 UNL     1       6.296  -6.612  12.311  1.00  0.00     0.029 C 
HETATM   38  C24 UNL     1       6.203  -7.744  13.285  1.00  0.00     0.233 C 
HETATM   39  N4  UNL     1       7.398  -7.594  14.118  1.00  0.00    -0.069 N 
ATOM     40  H42 UNL     1       7.637  -8.433  14.646  1.00  0.00     0.277 HD
ATOM     41  H41 UNL     1       7.262  -6.981  14.921  1.00  0.00     0.277 HD
ENDBRANCH  34  35
ENDBRANCH  31  34
ENDBRANCH  26  28
ENDBRANCH  12  26
BRANCH  11  42
HETATM   42  O1  UNL     1      13.226  -8.924  17.799  1.00  0.00    -0.393 OA
ATOM     43  H1  UNL     1      13.176  -8.221  18.436  1.00  0.00     0.210 HD
ENDBRANCH  11  42
BRANCH  19  44
HETATM   44  N5  UNL     1      16.816  -8.659  20.780  1.00  0.00    -0.350 N 
HETATM   45  C30 UNL     1      16.021  -8.409  21.915  1.00  0.00     0.214 C 
HETATM   46  C31 UNL     1      15.881  -9.429  22.985  1.00  0.00     0.117 C 
HETATM   47  O5  UNL     1      15.402  -7.307  22.057  1.00  0.00    -0.274 OA
ATOM     48  H5  UNL     1      17.297  -9.555  20.700  1.00  0.00     0.163 HD
ENDBRANCH  19  44
BRANCH   1  49
HETATM   49  C5  UNL     1      19.732  -9.492  12.926  1.00  0.00    -0.090 C 
HETATM   50  C4  UNL     1      20.694 -10.074  12.443  1.00  0.00    -0.072 C 
BRANCH  50  51
HETATM   51  C2  UNL     1      21.841 -10.738  11.871  1.00  0.00    -0.018 C 
HETATM   52  C1  UNL     1      21.800 -11.165  10.633  1.00  0.00     0.028 C 
HETATM   53  C3  UNL     1      23.086 -10.952  12.660  1.00  0.00     0.057 C 
ENDBRANCH  50  51
ENDBRANCH   1  49
TORSDOF 8
ENDMDL
MODEL 2
REMARK VINA RESULT: -7.421902346      2.774      6.122
REMARK  8 active torsions:
REMARK  status: ('A' for Active; 'I' for Inactive)
REMARK    1  A    between atoms: C2_2  and  C4_4 
REMARK    2  A    between atoms: C5_5  and  C6_6 
REMARK    3  A    between atoms: C16_16  and  O1_17 
REMARK    4  A    between atoms: C17_19  and  N1_20 
REMARK    5  A    between atoms: N1_20  and  N2_22 
REMARK       I    between atoms: N2_22  and  C19_24 
REMARK       I    between atoms: C19_24  and  N3_26 
REMARK    6  A    between atoms: N3_26  and  C20_28 
REMARK    7  A    between atoms: C20_28  and  C21_29 
REMARK    8  A    between atoms: C29_42  and  N5_43 
REMARK       I    between atoms: N5_43  and  C30_45 
ROOT
HETATM    1  C6  UNL     1      19.137  -7.706  17.021  1.00  0.00     0.040 A 
HETATM    2  C7  UNL     1      18.965  -9.019  17.639  1.00  0.00     0.024 C 
HETATM    3  C8  UNL     1      19.955 -10.099  17.224  1.00  0.00     0.007 C 
HETATM    4  C9  UNL     1      20.249 -10.260  15.783  1.00  0.00    -0.001 C 
HETATM    5  C10 UNL     1      20.397  -8.758  15.376  1.00  0.00    -0.003 C 
HETATM    6  C11 UNL     1      20.925  -8.799  13.978  1.00  0.00     0.006 C 
HETATM    7  C12 UNL     1      19.668  -9.155  13.187  1.00  0.00     0.006 C 
HETATM    8  C13 UNL     1      19.217 -10.527  13.500  1.00  0.00     0.001 C 
HETATM    9  C14 UNL     1      17.823 -10.898  13.051  1.00  0.00     0.023 C 
HETATM   10  C15 UNL     1      17.133  -9.883  12.254  1.00  0.00     0.041 C 
HETATM   11  C16 UNL     1      15.912  -9.233  12.872  1.00  0.00     0.150 C 
HETATM   12  C17 UNL     1      16.011  -7.853  13.421  1.00  0.00     0.208 C 
HETATM   13  C25 UNL     1      16.164  -7.859  14.940  1.00  0.00     0.221 C 
HETATM   14  O3  UNL     1      15.408  -8.774  15.442  1.00  0.00    -0.287 OA
HETATM   15  C26 UNL     1      16.977  -7.032  15.768  1.00  0.00     0.203 C 
HETATM   16  O4  UNL     1      16.457  -6.125  16.532  1.00  0.00    -0.289 OA
HETATM   17  C27 UNL     1      18.485  -7.023  15.933  1.00  0.00     0.091 A 
HETATM   18  C28 UNL     1      19.131  -8.163  15.515  1.00  0.00     0.025 A 
HETATM   19  C29 UNL     1      17.972 -12.317  12.621  1.00  0.00     0.159 C 
HETATM   20  C32 UNL     1      19.009 -12.997  13.454  1.00  0.00     0.154 C 
HETATM   21  O6  UNL     1      19.156 -14.203  13.212  1.00  0.00    -0.295 OA
HETATM   22  C33 UNL     1      19.905 -12.470  14.535  1.00  0.00     0.062 C 
HETATM   23  C34 UNL     1      21.329 -12.498  14.136  1.00  0.00     0.018 C 
HETATM   24  C35 UNL     1      19.375 -11.049  14.893  1.00  0.00    -0.026 C 
HETATM   25  C36 UNL     1      18.176 -11.510  15.653  1.00  0.00     0.016 C 
ENDROOT
BRANCH  12  26
HETATM   26  N1  UNL     1      14.875  -7.111  13.054  1.00  0.00    -0.313 N 
HETATM   27  C18 UNL     1      14.920  -5.707  13.378  1.00  0.00     0.172 C 
BRANCH  26  28
HETATM   28  N2  UNL     1      13.625  -7.595  13.267  1.00  0.00    -0.253 N 
HETATM   29  C19 UNL     1      12.716  -7.377  14.317  1.00  0.00     0.334 C 
HETATM   30  O2  UNL     1      12.951  -6.639  15.274  1.00  0.00    -0.246 OA
HETATM   31  N3  UNL     1      11.423  -8.028  14.330  1.00  0.00    -0.340 N 
ATOM     32  H3  UNL     1      11.188  -8.657  13.562  1.00  0.00     0.164 HD
ATOM     33  H2  UNL     1      13.286  -8.225  12.541  1.00  0.00     0.191 HD
BRANCH  31  34
HETATM   34  C20 UNL     1      10.457  -7.832  15.368  1.00  0.00     0.157 C 
BRANCH  34  35
HETATM   35  C21 UNL     1       9.131  -7.441  14.757  1.00  0.00     0.203 C 
HETATM   36  C22 UNL     1       8.450  -8.608  14.072  1.00  0.00     0.036 C 
HETATM   37  C23 UNL     1       7.725  -7.969  12.895  1.00  0.00     0.029 C 
HETATM   38  C24 UNL     1       8.083  -6.516  12.913  1.00  0.00     0.233 C 
HETATM   39  N4  UNL     1       9.309  -6.462  13.712  1.00  0.00    -0.069 N 
ATOM     40  H42 UNL     1       9.532  -5.529  14.058  1.00  0.00     0.277 HD
ATOM     41  H41 UNL     1      10.159  -6.596  13.166  1.00  0.00     0.277 HD
ENDBRANCH  34  35
ENDBRANCH  31  34
ENDBRANCH  26  28
ENDBRANCH  12  26
BRANCH  11  42
HETATM   42  O1  UNL     1      14.887  -9.285  11.888  1.00  0.00    -0.393 OA
ATOM     43  H1  UNL     1      14.429  -8.454  11.933  1.00  0.00     0.210 HD
ENDBRANCH  11  42
BRANCH  19  44
HETATM   44  N5  UNL     1      18.377 -12.318  11.211  1.00  0.00    -0.350 N 
HETATM   45  C30 UNL     1      17.620 -12.973  10.220  1.00  0.00     0.214 C 
HETATM   46  C31 UNL     1      18.053 -12.960   8.800  1.00  0.00     0.117 C 
HETATM   47  O5  UNL     1      16.548 -13.593  10.512  1.00  0.00    -0.274 OA
ATOM     48  H5  UNL     1      19.231 -11.831  10.940  1.00  0.00     0.163 HD
ENDBRANCH  19  44
BRANCH   1  49
HETATM   49  C5  UNL     1      20.384  -7.071  17.481  1.00  0.00    -0.090 C 
HETATM   50  C4  UNL     1      21.423  -6.563  17.881  1.00  0.00    -0.072 C 
BRANCH  50  51
HETATM   51  C2  UNL     1      22.635  -5.950  18.368  1.00  0.00    -0.018 C 
HETATM   52  C1  UNL     1      22.701  -5.522  19.605  1.00  0.00     0.028 C 
HETATM   53  C3  UNL     1      23.828  -5.788  17.492  1.00  0.00     0.057 C 
ENDBRANCH  50  51
ENDBRANCH   1  49
TORSDOF 8
ENDMDL
MODEL 3
REMARK VINA RESULT: -7.302606654      3.045      4.606
REMARK  8 active torsions:
REMARK  status: ('A' for Active; 'I' for Inactive)
REMARK    1  A    between atoms: C2_2  and  C4_4 
REMARK    2  A    between atoms: C5_5  and  C6_6 
REMARK    3  A    between atoms: C16_16  and  O1_17 
REMARK    4  A    between atoms: C17_19  and  N1_20 
REMARK    5  A    between atoms: N1_20  and  N2_22 
REMARK       I    between atoms: N2_22  and  C19_24 
REMARK       I    between atoms: C19_24  and  N3_26 
REMARK    6  A    between atoms: N3_26  and  C20_28 
REMARK    7  A    between atoms: C20_28  and  C21_29 
REMARK    8  A    between atoms: C29_42  and  N5_43 
REMARK       I    between atoms: N5_43  and  C30_45 
ROOT
HETATM    1  C6  UNL     1      16.908 -11.868   9.928  1.00  0.00     0.040 A 
HETATM    2  C7  UNL     1      17.464 -10.558   9.596  1.00  0.00     0.024 C 
HETATM    3  C8  UNL     1      18.943 -10.354   9.893  1.00  0.00     0.007 C 
HETATM    4  C9  UNL     1      19.459 -10.797  11.207  1.00  0.00    -0.001 C 
HETATM    5  C10 UNL     1      18.745 -12.183  11.316  1.00  0.00    -0.003 C 
HETATM    6  C11 UNL     1      19.372 -12.835  12.506  1.00  0.00     0.006 C 
HETATM    7  C12 UNL     1      18.681 -12.102  13.654  1.00  0.00     0.006 C 
HETATM    8  C13 UNL     1      19.088 -10.682  13.697  1.00  0.00     0.001 C 
HETATM    9  C14 UNL     1      18.252  -9.766  14.560  1.00  0.00     0.023 C 
HETATM   10  C15 UNL     1      17.207 -10.427  15.342  1.00  0.00     0.041 C 
HETATM   11  C16 UNL     1      15.771 -10.107  14.983  1.00  0.00     0.150 C 
HETATM   12  C17 UNL     1      14.967 -11.097  14.216  1.00  0.00     0.208 C 
HETATM   13  C25 UNL     1      14.896 -10.741  12.733  1.00  0.00     0.221 C 
HETATM   14  O3  UNL     1      14.766  -9.465  12.607  1.00  0.00    -0.287 OA
HETATM   15  C26 UNL     1      14.950 -11.598  11.596  1.00  0.00     0.203 C 
HETATM   16  O4  UNL     1      13.902 -11.817  10.868  1.00  0.00    -0.289 OA
HETATM   17  C27 UNL     1      16.127 -12.369  11.029  1.00  0.00     0.091 A 
HETATM   18  C28 UNL     1      17.367 -11.934  11.432  1.00  0.00     0.025 A 
HETATM   19  C29 UNL     1      19.262  -8.845  15.152  1.00  0.00     0.159 C 
HETATM   20  C32 UNL     1      20.383  -8.626  14.188  1.00  0.00     0.154 C 
HETATM   21  O6  UNL     1      21.242  -7.818  14.570  1.00  0.00    -0.295 OA
HETATM   22  C33 UNL     1      20.647  -9.217  12.835  1.00  0.00     0.062 C 
HETATM   23  C34 UNL     1      21.852 -10.076  12.833  1.00  0.00     0.018 C 
HETATM   24  C35 UNL     1      19.342  -9.955  12.414  1.00  0.00    -0.026 C 
HETATM   25  C36 UNL     1      18.558  -8.727  12.090  1.00  0.00     0.016 C 
ENDROOT
BRANCH  12  26
HETATM   26  N1  UNL     1      13.670 -11.179  14.754  1.00  0.00    -0.313 N 
HETATM   27  C18 UNL     1      13.112 -12.505  14.832  1.00  0.00     0.172 C 
BRANCH  26  28
HETATM   28  N2  UNL     1      12.707 -10.293  14.394  1.00  0.00    -0.253 N 
HETATM   29  C19 UNL     1      11.970  -9.369  15.155  1.00  0.00     0.334 C 
HETATM   30  O2  UNL     1      12.119  -9.218  16.368  1.00  0.00    -0.246 OA
HETATM   31  N3  UNL     1      10.968  -8.526  14.537  1.00  0.00    -0.340 N 
ATOM     32  H3  UNL     1      10.802  -8.624  13.535  1.00  0.00     0.164 HD
ATOM     33  H2  UNL     1      12.478 -10.298  13.401  1.00  0.00     0.191 HD
BRANCH  31  34
HETATM   34  C20 UNL     1      10.198  -7.562  15.264  1.00  0.00     0.157 C 
BRANCH  34  35
HETATM   35  C21 UNL     1       8.893  -7.312  14.544  1.00  0.00     0.203 C 
HETATM   36  C22 UNL     1       8.384  -8.550  13.836  1.00  0.00     0.036 C 
HETATM   37  C23 UNL     1       7.695  -8.002  12.592  1.00  0.00     0.029 C 
HETATM   38  C24 UNL     1       7.909  -6.522  12.605  1.00  0.00     0.233 C 
HETATM   39  N4  UNL     1       9.057  -6.337  13.494  1.00  0.00    -0.069 N 
ATOM     40  H42 UNL     1       9.162  -5.381  13.835  1.00  0.00     0.277 HD
ATOM     41  H41 UNL     1       9.957  -6.394  13.018  1.00  0.00     0.277 HD
ENDBRANCH  34  35
ENDBRANCH  31  34
ENDBRANCH  26  28
ENDBRANCH  12  26
BRANCH  11  42
HETATM   42  O1  UNL     1      15.111  -9.795  16.203  1.00  0.00    -0.393 OA
ATOM     43  H1  UNL     1      14.246  -9.482  15.968  1.00  0.00     0.210 HD
ENDBRANCH  11  42
BRANCH  19  44
HETATM   44  N5  UNL     1      19.768  -9.465  16.382  1.00  0.00    -0.350 N 
HETATM   45  C30 UNL     1      19.759  -8.786  17.616  1.00  0.00     0.214 C 
HETATM   46  C31 UNL     1      20.278  -9.437  18.846  1.00  0.00     0.117 C 
HETATM   47  O5  UNL     1      19.306  -7.601  17.713  1.00  0.00    -0.274 OA
ATOM     48  H5  UNL     1      20.139 -10.414  16.342  1.00  0.00     0.163 HD
ENDBRANCH  19  44
BRANCH   1  49
HETATM   49  C5  UNL     1      17.469 -12.911   9.053  1.00  0.00    -0.090 C 
HETATM   50  C4  UNL     1      17.940 -13.759   8.307  1.00  0.00    -0.072 C 
BRANCH  50  51
HETATM   51  C2  UNL     1      18.472 -14.765   7.419  1.00  0.00    -0.018 C 
HETATM   52  C1  UNL     1      17.893 -14.993   6.266  1.00  0.00     0.028 C 
HETATM   53  C3  UNL     1      19.676 -15.562   7.783  1.00  0.00     0.057 C 
ENDBRANCH  50  51
ENDBRANCH   1  49
TORSDOF 8
ENDMDL
MODEL 4
REMARK VINA RESULT: -7.121597467      3.128      6.344
REMARK  8 active torsions:
REMARK  status: ('A' for Active; 'I' for Inactive)
REMARK    1  A    between atoms: C2_2  and  C4_4 
REMARK    2  A    between atoms: C5_5  and  C6_6 
REMARK    3  A    between atoms: C16_16  and  O1_17 
REMARK    4  A    between atoms: C17_19  and  N1_20 
REMARK    5  A    between atoms: N1_20  and  N2_22 
REMARK       I    between atoms: N2_22  and  C19_24 
REMARK       I    between atoms: C19_24  and  N3_26 
REMARK    6  A    between atoms: N3_26  and  C20_28 
REMARK    7  A    between atoms: C20_28  and  C21_29 
REMARK    8  A    between atoms: C29_42  and  N5_43 
REMARK       I    between atoms: N5_43  and  C30_45 
ROOT
HETATM    1  C6  UNL     1      19.961  -8.158  16.030  1.00  0.00     0.040 A 
HETATM    2  C7  UNL     1      19.783  -9.470  16.650  1.00  0.00     0.024 C 
HETATM    3  C8  UNL     1      20.588 -10.616  16.054  1.00  0.00     0.007 C 
HETATM    4  C9  UNL     1      20.613 -10.759  14.582  1.00  0.00    -0.001 C 
HETATM    5  C10 UNL     1      20.821  -9.264  14.176  1.00  0.00    -0.003 C 
HETATM    6  C11 UNL     1      21.094  -9.308  12.707  1.00  0.00     0.006 C 
HETATM    7  C12 UNL     1      19.694  -9.534  12.142  1.00  0.00     0.006 C 
HETATM    8  C13 UNL     1      19.184 -10.872  12.510  1.00  0.00     0.001 C 
HETATM    9  C14 UNL     1      17.706 -11.110  12.305  1.00  0.00     0.023 C 
HETATM   10  C15 UNL     1      16.981 -10.018  11.655  1.00  0.00     0.041 C 
HETATM   11  C16 UNL     1      15.947  -9.287  12.486  1.00  0.00     0.150 C 
HETATM   12  C17 UNL     1      16.261  -7.937  13.029  1.00  0.00     0.208 C 
HETATM   13  C25 UNL     1      16.672  -8.000  14.498  1.00  0.00     0.221 C 
HETATM   14  O3  UNL     1      15.937  -8.862  15.110  1.00  0.00    -0.287 OA
HETATM   15  C26 UNL     1      17.686  -7.268  15.183  1.00  0.00     0.203 C 
HETATM   16  O4  UNL     1      17.386  -6.344  16.039  1.00  0.00    -0.289 OA
HETATM   17  C27 UNL     1      19.194  -7.392  15.083  1.00  0.00     0.091 A 
HETATM   18  C28 UNL     1      19.655  -8.568  14.542  1.00  0.00     0.025 A 
HETATM   19  C29 UNL     1      17.654 -12.524  11.836  1.00  0.00     0.159 C 
HETATM   20  C32 UNL     1      18.755 -13.313  12.465  1.00  0.00     0.154 C 
HETATM   21  O6  UNL     1      18.752 -14.520  12.184  1.00  0.00    -0.295 OA
HETATM   22  C33 UNL     1      19.867 -12.895  13.381  1.00  0.00     0.062 C 
HETATM   23  C34 UNL     1      21.193 -13.031  12.739  1.00  0.00     0.018 C 
HETATM   24  C35 UNL     1      19.534 -11.446  13.846  1.00  0.00    -0.026 C 
HETATM   25  C36 UNL     1      18.448 -11.826  14.797  1.00  0.00     0.016 C 
ENDROOT
BRANCH  12  26
HETATM   26  N1  UNL     1      15.148  -7.091  12.877  1.00  0.00    -0.313 N 
HETATM   27  C18 UNL     1      15.324  -5.742  13.353  1.00  0.00     0.172 C 
BRANCH  26  28
HETATM   28  N2  UNL     1      13.895  -7.524  13.168  1.00  0.00    -0.253 N 
HETATM   29  C19 UNL     1      13.072  -7.290  14.282  1.00  0.00     0.334 C 
HETATM   30  O2  UNL     1      13.405  -6.584  15.234  1.00  0.00    -0.246 OA
HETATM   31  N3  UNL     1      11.754  -7.884  14.374  1.00  0.00    -0.340 N 
ATOM     32  H3  UNL     1      11.439  -8.485  13.612  1.00  0.00     0.164 HD
ATOM     33  H2  UNL     1      13.479  -8.123  12.455  1.00  0.00     0.191 HD
BRANCH  31  34
HETATM   34  C20 UNL     1      10.873  -7.668  15.481  1.00  0.00     0.157 C 
BRANCH  34  35
HETATM   35  C21 UNL     1       9.479  -7.385  14.968  1.00  0.00     0.203 C 
HETATM   36  C22 UNL     1       8.832  -8.613  14.363  1.00  0.00     0.036 C 
HETATM   37  C23 UNL     1       7.975  -8.055  13.233  1.00  0.00     0.029 C 
HETATM   38  C24 UNL     1       8.229  -6.581  13.195  1.00  0.00     0.233 C 
HETATM   39  N4  UNL     1       9.506  -6.423  13.894  1.00  0.00    -0.069 N 
ATOM     40  H42 UNL     1       9.689  -5.468  14.203  1.00  0.00     0.277 HD
ATOM     41  H41 UNL     1      10.319  -6.511  13.285  1.00  0.00     0.277 HD
ENDBRANCH  34  35
ENDBRANCH  31  34
ENDBRANCH  26  28
ENDBRANCH  12  26
BRANCH  11  42
HETATM   42  O1  UNL     1      14.767  -9.223  11.695  1.00  0.00    -0.393 OA
ATOM     43  H1  UNL     1      14.692  -8.325  11.397  1.00  0.00     0.210 HD
ENDBRANCH  11  42
BRANCH  19  44
HETATM   44  N5  UNL     1      17.807 -12.518  10.377  1.00  0.00    -0.350 N 
HETATM   45  C30 UNL     1      16.795 -12.993   9.520  1.00  0.00     0.214 C 
HETATM   46  C31 UNL     1      16.977 -12.976   8.046  1.00  0.00     0.117 C 
HETATM   47  O5  UNL     1      15.701 -13.447   9.982  1.00  0.00    -0.274 OA
ATOM     48  H5  UNL     1      18.672 -12.160   9.971  1.00  0.00     0.163 HD
ENDBRANCH  19  44
BRANCH   1  49
HETATM   49  C5  UNL     1      21.319  -7.644  16.275  1.00  0.00    -0.090 C 
HETATM   50  C4  UNL     1      22.437  -7.197  16.494  1.00  0.00    -0.072 C 
BRANCH  50  51
HETATM   51  C2  UNL     1      23.755  -6.658  16.730  1.00  0.00    -0.018 C 
HETATM   52  C1  UNL     1      24.310  -6.779  17.910  1.00  0.00     0.028 C 
HETATM   53  C3  UNL     1      24.510  -5.958  15.654  1.00  0.00     0.057 C 
ENDBRANCH  50  51
ENDBRANCH   1  49
TORSDOF 8
ENDMDL
MODEL 5
REMARK VINA RESULT: -7.035007777      3.365      6.354
REMARK  8 active torsions:
REMARK  status: ('A' for Active; 'I' for Inactive)
REMARK    1  A    between atoms: C2_2  and  C4_4 
REMARK    2  A    between atoms: C5_5  and  C6_6 
REMARK    3  A    between atoms: C16_16  and  O1_17 
REMARK    4  A    between atoms: C17_19  and  N1_20 
REMARK    5  A    between atoms: N1_20  and  N2_22 
REMARK       I    between atoms: N2_22  and  C19_24 
REMARK       I    between atoms: C19_24  and  N3_26 
REMARK    6  A    between atoms: N3_26  and  C20_28 
REMARK    7  A    between atoms: C20_28  and  C21_29 
REMARK    8  A    between atoms: C29_42  and  N5_43 
REMARK       I    between atoms: N5_43  and  C30_45 
ROOT
HETATM    1  C6  UNL     1      20.388  -8.512  15.266  1.00  0.00     0.040 A 
HETATM    2  C7  UNL     1      20.374  -9.827  15.905  1.00  0.00     0.024 C 
HETATM    3  C8  UNL     1      21.016 -10.967  15.127  1.00  0.00     0.007 C 
HETATM    4  C9  UNL     1      20.684 -11.106  13.692  1.00  0.00    -0.001 C 
HETATM    5  C10 UNL     1      20.778  -9.609  13.254  1.00  0.00    -0.003 C 
HETATM    6  C11 UNL     1      20.687  -9.648  11.762  1.00  0.00     0.006 C 
HETATM    7  C12 UNL     1      19.193  -9.882  11.554  1.00  0.00     0.006 C 
HETATM    8  C13 UNL     1      18.794 -11.223  12.029  1.00  0.00     0.001 C 
HETATM    9  C14 UNL     1      17.313 -11.471  12.189  1.00  0.00     0.023 C 
HETATM   10  C15 UNL     1      16.446 -10.381  11.738  1.00  0.00     0.041 C 
HETATM   11  C16 UNL     1      15.640  -9.658  12.798  1.00  0.00     0.150 C 
HETATM   12  C17 UNL     1      16.069  -8.308  13.253  1.00  0.00     0.208 C 
HETATM   13  C25 UNL     1      16.825  -8.371  14.578  1.00  0.00     0.221 C 
HETATM   14  O3  UNL     1      16.265  -9.240  15.348  1.00  0.00    -0.287 OA
HETATM   15  C26 UNL     1      17.970  -7.635  14.999  1.00  0.00     0.203 C 
HETATM   16  O4  UNL     1      17.883  -6.715  15.906  1.00  0.00    -0.289 OA
HETATM   17  C27 UNL     1      19.410  -7.749  14.536  1.00  0.00     0.091 A 
HETATM   18  C28 UNL     1      19.732  -8.921  13.894  1.00  0.00     0.025 A 
HETATM   19  C29 UNL     1      17.156 -12.883  11.741  1.00  0.00     0.159 C 
HETATM   20  C32 UNL     1      18.381 -13.667  12.081  1.00  0.00     0.154 C 
HETATM   21  O6  UNL     1      18.317 -14.873  11.805  1.00  0.00    -0.295 OA
HETATM   22  C33 UNL     1      19.680 -13.244  12.702  1.00  0.00     0.062 C 
HETATM   23  C34 UNL     1      20.811 -13.371  11.756  1.00  0.00     0.018 C 
HETATM   24  C35 UNL     1      19.462 -11.798  13.238  1.00  0.00    -0.026 C 
HETATM   25  C36 UNL     1      18.642 -12.187  14.423  1.00  0.00     0.016 C 
ENDROOT
BRANCH  12  26
HETATM   26  N1  UNL     1      14.948  -7.468  13.379  1.00  0.00    -0.313 N 
HETATM   27  C18 UNL     1      15.208  -6.059  13.232  1.00  0.00     0.172 C 
BRANCH  26  28
HETATM   28  N2  UNL     1      14.031  -7.669  14.360  1.00  0.00    -0.253 N 
HETATM   29  C19 UNL     1      12.679  -7.297  14.451  1.00  0.00     0.334 C 
HETATM   30  O2  UNL     1      12.083  -6.687  13.562  1.00  0.00    -0.246 OA
HETATM   31  N3  UNL     1      11.895  -7.617  15.625  1.00  0.00    -0.340 N 
ATOM     32  H3  UNL     1      12.350  -8.114  16.391  1.00  0.00     0.164 HD
ATOM     33  H2  UNL     1      14.383  -8.177  15.170  1.00  0.00     0.191 HD
BRANCH  31  34
HETATM   34  C20 UNL     1      10.512  -7.272  15.763  1.00  0.00     0.157 C 
BRANCH  34  35
HETATM   35  C21 UNL     1       9.658  -8.482  15.464  1.00  0.00     0.203 C 
HETATM   36  C22 UNL     1       8.981  -8.385  14.112  1.00  0.00     0.036 C 
HETATM   37  C23 UNL     1       7.646  -9.089  14.321  1.00  0.00     0.029 C 
HETATM   38  C24 UNL     1       7.589  -9.474  15.766  1.00  0.00     0.233 C 
HETATM   39  N4  UNL     1       8.570  -8.596  16.405  1.00  0.00    -0.069 N 
ATOM     40  H42 UNL     1       8.861  -8.911  17.331  1.00  0.00     0.277 HD
ATOM     41  H41 UNL     1       8.187  -7.698  16.699  1.00  0.00     0.277 HD
ENDBRANCH  34  35
ENDBRANCH  31  34
ENDBRANCH  26  28
ENDBRANCH  12  26
BRANCH  11  42
HETATM   42  O1  UNL     1      14.303  -9.601  12.318  1.00  0.00    -0.393 OA
ATOM     43  H1  UNL     1      14.305  -8.987  11.593  1.00  0.00     0.210 HD
ENDBRANCH  11  42
BRANCH  19  44
HETATM   44  N5  UNL     1      16.950 -12.873  10.289  1.00  0.00    -0.350 N 
HETATM   45  C30 UNL     1      15.709 -13.203   9.710  1.00  0.00     0.214 C 
HETATM   46  C31 UNL     1      15.529 -13.185   8.236  1.00  0.00     0.117 C 
HETATM   47  O5  UNL     1      14.711 -13.523  10.430  1.00  0.00    -0.274 OA
ATOM     48  H5  UNL     1      17.729 -12.621   9.680  1.00  0.00     0.163 HD
ENDBRANCH  19  44
BRANCH   1  49
HETATM   49  C5  UNL     1      21.763  -7.990  15.175  1.00  0.00    -0.090 C 
HETATM   50  C4  UNL     1      22.895  -7.531  15.104  1.00  0.00    -0.072 C 
BRANCH  50  51
HETATM   51  C2  UNL     1      24.228  -6.991  14.994  1.00  0.00    -0.018 C 
HETATM   52  C1  UNL     1      25.172  -7.689  14.413  1.00  0.00     0.028 C 
HETATM   53  C3  UNL     1      24.565  -5.642  15.529  1.00  0.00     0.057 C 
ENDBRANCH  50  51
ENDBRANCH   1  49
TORSDOF 8
ENDMDL
