MODEL 1
REMARK VINA RESULT: -10.055909502      0.000      0.000
REMARK  6 active torsions:
REMARK  status: ('A' for Active; 'I' for Inactive)
REMARK       I    between atoms: N2_5  and  C2_6 
REMARK    1  A    between atoms: C2_6  and  C3_8 
REMARK       I    between atoms: C3_8  and  N3_10 
REMARK    2  A    between atoms: N3_10  and  C4_12 
REMARK    3  A    between atoms: C4_12  and  C5_13 
REMARK    4  A    between atoms: C5_13  and  O3_14 
REMARK    5  A    between atoms: C5_13  and  N4_16 
REMARK    6  A    between atoms: C19_31  and  O4_32 
ROOT
HETATM    1  N1  UNL     1       6.678  18.947   1.728  1.00  0.00    -0.234 N 
ATOM      2  H11 UNL     1       6.082  19.738   1.976  1.00  0.00     0.174 HD
ATOM      3  H12 UNL     1       7.612  19.323   1.569  1.00  0.00     0.174 HD
HETATM    4  C1  UNL     1       6.304  17.733   1.596  1.00  0.00     0.681 C 
HETATM    5  N2  UNL     1       7.145  16.618   1.246  1.00  0.00    -0.138 N 
HETATM    6  C2  UNL     1       8.126  16.425   0.282  1.00  0.00     0.330 C 
HETATM    7  O1  UNL     1       8.750  15.304   0.332  1.00  0.00    -0.261 OA
HETATM    8  C18 UNL     1       6.633  15.589   2.209  1.00  0.00     0.214 C 
HETATM    9  C19 UNL     1       5.170  15.818   2.100  1.00  0.00     0.178 C 
HETATM   10  N6  UNL     1       4.989  17.206   1.820  1.00  0.00    -0.182 N 
HETATM   11  C20 UNL     1       3.661  17.767   1.818  1.00  0.00     0.145 C 
HETATM   12  C21 UNL     1       2.624  16.686   2.066  1.00  0.00     0.022 C 
HETATM   13  C22 UNL     1       2.963  15.936   3.308  1.00  0.00     0.021 C 
HETATM   14  C23 UNL     1       4.332  15.299   3.226  1.00  0.00     0.040 C 
HETATM   15  C24 UNL     1       4.134  13.812   2.958  1.00  0.00     0.024 C 
HETATM   16  C25 UNL     1       4.114  13.215   4.323  1.00  0.00     0.040 C 
HETATM   17  C26 UNL     1       4.820  14.192   5.195  1.00  0.00    -0.051 A 
HETATM   18  C27 UNL     1       5.312  13.997   6.485  1.00  0.00     0.007 A 
HETATM   19  C28 UNL     1       5.929  15.036   7.109  1.00  0.00     0.001 A 
HETATM   20  C29 UNL     1       6.066  16.254   6.487  1.00  0.00     0.001 A 
HETATM   21  C30 UNL     1       5.570  16.419   5.212  1.00  0.00     0.009 A 
HETATM   22  C31 UNL     1       4.940  15.395   4.546  1.00  0.00    -0.038 A 
ENDROOT
BRANCH   6  23
HETATM   23  C3  UNL     1       8.523  17.341  -0.777  1.00  0.00     0.311 C 
HETATM   24  O2  UNL     1       8.021  17.232  -1.915  1.00  0.00    -0.262 OA
HETATM   25  N3  UNL     1       9.470  18.350  -0.523  1.00  0.00    -0.336 N 
ATOM     26  H3  UNL     1       9.844  18.386   0.425  1.00  0.00     0.164 HD
BRANCH  25  27
HETATM   27  C4  UNL     1       9.982  19.350  -1.452  1.00  0.00     0.098 A 
HETATM   28  C15 UNL     1      11.416  19.743  -1.146  1.00  0.00     0.040 A 
HETATM   29  C16 UNL     1      11.915  19.191  -2.452  1.00  0.00     0.006 A 
HETATM   30  C17 UNL     1      10.488  18.690  -2.698  1.00  0.00     0.040 A 
BRANCH  27  31
HETATM   31  C5  UNL     1       9.011  20.439  -1.628  1.00  0.00     0.142 C 
BRANCH  31  32
HETATM   32  O3  UNL     1       7.946  20.030  -2.287  1.00  0.00    -0.348 OA
ATOM     33  H3  UNL     1       7.172  20.046  -1.737  1.00  0.00     0.219 HD
ENDBRANCH  31  32
BRANCH  31  34
HETATM   34  N4  UNL     1       8.967  21.775  -1.262  1.00  0.00    -0.362 N 
HETATM   35  C6  UNL     1       7.834  22.002  -0.309  1.00  0.00     0.125 C 
HETATM   36  C7  UNL     1       6.588  22.405  -1.026  1.00  0.00     0.022 C 
HETATM   37  C8  UNL     1       6.123  23.796  -0.583  1.00  0.00     0.037 C 
HETATM   38  C9  UNL     1       7.301  24.724  -0.676  1.00  0.00     0.223 C 
HETATM   39  C10 UNL     1       6.883  26.142  -1.001  1.00  0.00     0.037 C 
HETATM   40  N5  UNL     1       8.177  24.292  -1.716  1.00  0.00     0.094 N 
HETATM   41  C11 UNL     1       6.908  26.130  -2.514  1.00  0.00     0.032 C 
HETATM   42  C12 UNL     1       7.987  25.128  -2.858  1.00  0.00     0.273 C 
HETATM   43  C13 UNL     1       9.537  24.125  -1.311  1.00  0.00     0.292 C 
HETATM   44  C14 UNL     1       9.915  22.689  -1.803  1.00  0.00     0.155 C 
ENDBRANCH  31  34
ENDBRANCH  27  31
ENDBRANCH  25  27
ENDBRANCH   6  23
BRANCH   9  45
HETATM   45  O4  UNL     1       4.745  15.124   0.940  1.00  0.00    -0.367 OA
ATOM     46  H4  UNL     1       4.242  14.379   1.245  1.00  0.00     0.212 HD
ENDBRANCH   9  45
TORSDOF 6
ENDMDL
MODEL 2
REMARK VINA RESULT: -9.988431554      1.055      1.198
REMARK  6 active torsions:
REMARK  status: ('A' for Active; 'I' for Inactive)
REMARK       I    between atoms: N2_5  and  C2_6 
REMARK    1  A    between atoms: C2_6  and  C3_8 
REMARK       I    between atoms: C3_8  and  N3_10 
REMARK    2  A    between atoms: N3_10  and  C4_12 
REMARK    3  A    between atoms: C4_12  and  C5_13 
REMARK    4  A    between atoms: C5_13  and  O3_14 
REMARK    5  A    between atoms: C5_13  and  N4_16 
REMARK    6  A    between atoms: C19_31  and  O4_32 
ROOT
HETATM    1  N1  UNL     1       8.042  18.545   2.091  1.00  0.00    -0.234 N 
ATOM      2  H11 UNL     1       7.691  19.402   2.518  1.00  0.00     0.174 HD
ATOM      3  H12 UNL     1       9.048  18.663   1.979  1.00  0.00     0.174 HD
HETATM    4  C1  UNL     1       7.340  17.542   1.726  1.00  0.00     0.681 C 
HETATM    5  N2  UNL     1       7.835  16.331   1.124  1.00  0.00    -0.138 N 
HETATM    6  C2  UNL     1       8.743  16.071   0.107  1.00  0.00     0.330 C 
HETATM    7  O1  UNL     1       9.019  14.834  -0.098  1.00  0.00    -0.261 OA
HETATM    8  C18 UNL     1       7.027  15.315   1.873  1.00  0.00     0.214 C 
HETATM    9  C19 UNL     1       5.694  15.968   1.867  1.00  0.00     0.178 C 
HETATM   10  N6  UNL     1       5.923  17.376   1.885  1.00  0.00    -0.182 N 
HETATM   11  C20 UNL     1       4.813  18.280   2.046  1.00  0.00     0.145 C 
HETATM   12  C21 UNL     1       3.504  17.512   2.105  1.00  0.00     0.022 C 
HETATM   13  C22 UNL     1       3.584  16.456   3.153  1.00  0.00     0.021 C 
HETATM   14  C23 UNL     1       4.715  15.487   2.892  1.00  0.00     0.040 C 
HETATM   15  C24 UNL     1       4.106  14.208   2.331  1.00  0.00     0.024 C 
HETATM   16  C25 UNL     1       3.883  13.372   3.544  1.00  0.00     0.040 C 
HETATM   17  C26 UNL     1       4.817  13.905   4.572  1.00  0.00    -0.051 A 
HETATM   18  C27 UNL     1       5.201  13.315   5.776  1.00  0.00     0.007 A 
HETATM   19  C28 UNL     1       6.074  13.982   6.577  1.00  0.00     0.001 A 
HETATM   20  C29 UNL     1       6.569  15.212   6.214  1.00  0.00     0.001 A 
HETATM   21  C30 UNL     1       6.172  15.772   5.019  1.00  0.00     0.009 A 
HETATM   22  C31 UNL     1       5.292  15.130   4.180  1.00  0.00    -0.038 A 
ENDROOT
BRANCH   6  23
HETATM   23  C3  UNL     1       9.411  17.035  -0.756  1.00  0.00     0.311 C 
HETATM   24  O2  UNL     1       9.160  17.055  -1.979  1.00  0.00    -0.262 OA
HETATM   25  N3  UNL     1      10.340  17.944  -0.216  1.00  0.00    -0.336 N 
ATOM     26  H3  UNL     1      10.503  17.876   0.789  1.00  0.00     0.164 HD
BRANCH  25  27
HETATM   27  C4  UNL     1      11.097  18.972  -0.920  1.00  0.00     0.098 A 
HETATM   28  C15 UNL     1      12.282  19.472  -0.113  1.00  0.00     0.040 A 
HETATM   29  C16 UNL     1      13.270  18.948  -1.116  1.00  0.00     0.006 A 
HETATM   30  C17 UNL     1      12.077  18.341  -1.862  1.00  0.00     0.040 A 
BRANCH  27  31
HETATM   31  C5  UNL     1      10.195  19.985  -1.484  1.00  0.00     0.142 C 
BRANCH  31  32
HETATM   32  O3  UNL     1       9.868  19.697  -2.728  1.00  0.00    -0.348 OA
ATOM     33  H3  UNL     1       8.927  19.728  -2.855  1.00  0.00     0.219 HD
ENDBRANCH  31  32
BRANCH  31  34
HETATM   34  N4  UNL     1       9.621  21.155  -1.010  1.00  0.00    -0.362 N 
HETATM   35  C6  UNL     1       8.393  20.831  -0.216  1.00  0.00     0.125 C 
HETATM   36  C7  UNL     1       7.168  20.860  -1.068  1.00  0.00     0.022 C 
HETATM   37  C8  UNL     1       6.178  21.920  -0.573  1.00  0.00     0.037 C 
HETATM   38  C9  UNL     1       6.932  23.209  -0.409  1.00  0.00     0.223 C 
HETATM   39  C10 UNL     1       6.055  24.417  -0.662  1.00  0.00     0.037 C 
HETATM   40  N5  UNL     1       8.008  23.263  -1.345  1.00  0.00     0.094 N 
HETATM   41  C11 UNL     1       6.239  24.622  -2.150  1.00  0.00     0.032 C 
HETATM   42  C12 UNL     1       7.641  24.127  -2.422  1.00  0.00     0.273 C 
HETATM   43  C13 UNL     1       9.284  23.537  -0.762  1.00  0.00     0.292 C 
HETATM   44  C14 UNL     1      10.215  22.411  -1.321  1.00  0.00     0.155 C 
ENDBRANCH  31  34
ENDBRANCH  27  31
ENDBRANCH  25  27
ENDBRANCH   6  23
BRANCH   9  45
HETATM   45  O4  UNL     1       5.116  15.680   0.605  1.00  0.00    -0.367 OA
ATOM     46  H4  UNL     1       4.603  16.442   0.367  1.00  0.00     0.212 HD
ENDBRANCH   9  45
TORSDOF 6
ENDMDL
MODEL 3
REMARK VINA RESULT: -9.692936189      1.304      1.630
REMARK  6 active torsions:
REMARK  status: ('A' for Active; 'I' for Inactive)
REMARK       I    between atoms: N2_5  and  C2_6 
REMARK    1  A    between atoms: C2_6  and  C3_8 
REMARK       I    between atoms: C3_8  and  N3_10 
REMARK    2  A    between atoms: N3_10  and  C4_12 
REMARK    3  A    between atoms: C4_12  and  C5_13 
REMARK    4  A    between atoms: C5_13  and  O3_14 
REMARK    5  A    between atoms: C5_13  and  N4_16 
REMARK    6  A    between atoms: C19_31  and  O4_32 
ROOT
HETATM    1  N1  UNL     1       5.334  19.082   2.452  1.00  0.00    -0.234 N 
ATOM      2  H11 UNL     1       4.575  19.667   2.803  1.00  0.00     0.174 HD
ATOM      3  H12 UNL     1       6.150  19.685   2.358  1.00  0.00     0.174 HD
HETATM    4  C1  UNL     1       5.253  17.844   2.147  1.00  0.00     0.681 C 
HETATM    5  N2  UNL     1       6.324  17.018   1.653  1.00  0.00    -0.138 N 
HETATM    6  C2  UNL     1       7.300  17.198   0.681  1.00  0.00     0.330 C 
HETATM    7  O1  UNL     1       8.170  16.260   0.579  1.00  0.00    -0.261 OA
HETATM    8  C18 UNL     1       6.090  15.775   2.455  1.00  0.00     0.214 C 
HETATM    9  C19 UNL     1       4.612  15.665   2.365  1.00  0.00     0.178 C 
HETATM   10  N6  UNL     1       4.103  16.995   2.281  1.00  0.00    -0.182 N 
HETATM   11  C20 UNL     1       2.682  17.223   2.344  1.00  0.00     0.145 C 
HETATM   12  C21 UNL     1       1.934  15.904   2.427  1.00  0.00     0.022 C 
HETATM   13  C22 UNL     1       2.468  15.089   3.554  1.00  0.00     0.021 C 
HETATM   14  C23 UNL     1       3.946  14.811   3.398  1.00  0.00     0.040 C 
HETATM   15  C24 UNL     1       4.096  13.372   2.920  1.00  0.00     0.024 C 
HETATM   16  C25 UNL     1       4.249  12.603   4.187  1.00  0.00     0.040 C 
HETATM   17  C26 UNL     1       4.725  13.587   5.196  1.00  0.00    -0.051 A 
HETATM   18  C27 UNL     1       5.279  13.336   6.450  1.00  0.00     0.007 A 
HETATM   19  C28 UNL     1       5.649  14.393   7.221  1.00  0.00     0.001 A 
HETATM   20  C29 UNL     1       5.482  15.684   6.778  1.00  0.00     0.001 A 
HETATM   21  C30 UNL     1       4.932  15.904   5.534  1.00  0.00     0.009 A 
HETATM   22  C31 UNL     1       4.545  14.862   4.724  1.00  0.00    -0.038 A 
ENDROOT
BRANCH   6  23
HETATM   23  C3  UNL     1       7.446  18.320  -0.234  1.00  0.00     0.311 C 
HETATM   24  O2  UNL     1       6.866  18.301  -1.340  1.00  0.00    -0.262 OA
HETATM   25  N3  UNL     1       8.238  19.427   0.122  1.00  0.00    -0.336 N 
ATOM     26  H3  UNL     1       8.686  19.382   1.038  1.00  0.00     0.164 HD
BRANCH  25  27
HETATM   27  C4  UNL     1       8.496  20.631  -0.659  1.00  0.00     0.098 A 
HETATM   28  C15 UNL     1       9.972  20.982  -0.710  1.00  0.00     0.040 A 
HETATM   29  C16 UNL     1      10.038  20.766  -2.196  1.00  0.00     0.006 A 
HETATM   30  C17 UNL     1       8.582  20.296  -2.116  1.00  0.00     0.040 A 
BRANCH  27  31
HETATM   31  C5  UNL     1       7.564  21.703  -0.280  1.00  0.00     0.142 C 
BRANCH  31  32
HETATM   32  O3  UNL     1       6.382  21.219   0.046  1.00  0.00    -0.348 OA
ATOM     33  H3  UNL     1       5.699  21.868  -0.070  1.00  0.00     0.219 HD
ENDBRANCH  31  32
BRANCH  31  34
HETATM   34  N4  UNL     1       7.649  23.084  -0.191  1.00  0.00    -0.362 N 
HETATM   35  C6  UNL     1       6.370  23.702  -0.663  1.00  0.00     0.125 C 
HETATM   36  C7  UNL     1       6.426  24.033  -2.118  1.00  0.00     0.022 C 
HETATM   37  C8  UNL     1       6.249  25.538  -2.347  1.00  0.00     0.037 C 
HETATM   38  C9  UNL     1       7.208  26.256  -1.440  1.00  0.00     0.223 C 
HETATM   39  C10 UNL     1       7.680  27.565  -2.035  1.00  0.00     0.037 C 
HETATM   40  N5  UNL     1       8.364  25.448  -1.221  1.00  0.00     0.094 N 
HETATM   41  C11 UNL     1       8.905  27.127  -2.807  1.00  0.00     0.032 C 
HETATM   42  C12 UNL     1       9.435  25.948  -2.023  1.00  0.00     0.273 C 
HETATM   43  C13 UNL     1       8.687  25.241   0.155  1.00  0.00     0.292 C 
HETATM   44  C14 UNL     1       8.846  23.690   0.287  1.00  0.00     0.155 C 
ENDBRANCH  31  34
ENDBRANCH  27  31
ENDBRANCH  25  27
ENDBRANCH   6  23
BRANCH   9  45
HETATM   45  O4  UNL     1       4.335  15.059   1.114  1.00  0.00    -0.367 OA
ATOM     46  H4  UNL     1       4.414  15.745   0.462  1.00  0.00     0.212 HD
ENDBRANCH   9  45
TORSDOF 6
ENDMDL
MODEL 4
REMARK VINA RESULT: -9.662057828      1.345      1.742
REMARK  6 active torsions:
REMARK  status: ('A' for Active; 'I' for Inactive)
REMARK       I    between atoms: N2_5  and  C2_6 
REMARK    1  A    between atoms: C2_6  and  C3_8 
REMARK       I    between atoms: C3_8  and  N3_10 
REMARK    2  A    between atoms: N3_10  and  C4_12 
REMARK    3  A    between atoms: C4_12  and  C5_13 
REMARK    4  A    between atoms: C5_13  and  O3_14 
REMARK    5  A    between atoms: C5_13  and  N4_16 
REMARK    6  A    between atoms: C19_31  and  O4_32 
ROOT
HETATM    1  N1  UNL     1       7.470  18.295   3.681  1.00  0.00    -0.234 N 
ATOM      2  H11 UNL     1       6.911  18.901   4.281  1.00  0.00     0.174 HD
ATOM      3  H12 UNL     1       8.448  18.489   3.897  1.00  0.00     0.174 HD
HETATM    4  C1  UNL     1       7.024  17.486   2.799  1.00  0.00     0.681 C 
HETATM    5  N2  UNL     1       7.814  16.630   1.952  1.00  0.00    -0.138 N 
HETATM    6  C2  UNL     1       8.962  16.828   1.196  1.00  0.00     0.330 C 
HETATM    7  O1  UNL     1       9.453  15.784   0.635  1.00  0.00    -0.261 OA
HETATM    8  C18 UNL     1       7.008  15.369   2.027  1.00  0.00     0.214 C 
HETATM    9  C19 UNL     1       5.634  15.916   1.900  1.00  0.00     0.178 C 
HETATM   10  N6  UNL     1       5.648  17.213   2.496  1.00  0.00    -0.182 N 
HETATM   11  C20 UNL     1       4.413  17.933   2.671  1.00  0.00     0.145 C 
HETATM   12  C21 UNL     1       3.251  17.150   2.086  1.00  0.00     0.022 C 
HETATM   13  C22 UNL     1       3.234  15.772   2.653  1.00  0.00     0.021 C 
HETATM   14  C23 UNL     1       4.522  15.031   2.371  1.00  0.00     0.040 C 
HETATM   15  C24 UNL     1       4.251  14.050   1.237  1.00  0.00     0.024 C 
HETATM   16  C25 UNL     1       3.873  12.797   1.949  1.00  0.00     0.040 C 
HETATM   17  C26 UNL     1       4.455  12.922   3.313  1.00  0.00    -0.051 A 
HETATM   18  C27 UNL     1       4.629  11.924   4.271  1.00  0.00     0.007 A 
HETATM   19  C28 UNL     1       5.185  12.260   5.465  1.00  0.00     0.001 A 
HETATM   20  C29 UNL     1       5.570  13.553   5.728  1.00  0.00     0.001 A 
HETATM   21  C30 UNL     1       5.387  14.520   4.763  1.00  0.00     0.009 A 
HETATM   22  C31 UNL     1       4.828  14.222   3.542  1.00  0.00    -0.038 A 
ENDROOT
BRANCH   6  23
HETATM   23  C3  UNL     1       9.668  18.080   0.964  1.00  0.00     0.311 C 
HETATM   24  O2  UNL     1       9.746  18.929   1.877  1.00  0.00    -0.262 OA
HETATM   25  N3  UNL     1      10.263  18.338  -0.284  1.00  0.00    -0.336 N 
ATOM     26  H3  UNL     1      10.164  17.606  -0.988  1.00  0.00     0.164 HD
BRANCH  25  27
HETATM   27  C4  UNL     1      11.006  19.524  -0.693  1.00  0.00     0.098 A 
HETATM   28  C15 UNL     1      11.933  20.030   0.396  1.00  0.00     0.040 A 
HETATM   29  C16 UNL     1      13.159  19.752  -0.428  1.00  0.00     0.006 A 
HETATM   30  C17 UNL     1      12.225  19.131  -1.470  1.00  0.00     0.040 A 
BRANCH  27  31
HETATM   31  C5  UNL     1      10.109  20.505  -1.320  1.00  0.00     0.142 C 
BRANCH  31  32
HETATM   32  O3  UNL     1       9.842  20.182  -2.570  1.00  0.00    -0.348 OA
ATOM     33  H3  UNL     1       9.154  19.529  -2.619  1.00  0.00     0.219 HD
ENDBRANCH  31  32
BRANCH  31  34
HETATM   34  N4  UNL     1       9.492  21.673  -0.899  1.00  0.00    -0.362 N 
HETATM   35  C6  UNL     1       8.238  21.342  -0.151  1.00  0.00     0.125 C 
HETATM   36  C7  UNL     1       7.050  21.326  -1.055  1.00  0.00     0.022 C 
HETATM   37  C8  UNL     1       6.019  22.375  -0.628  1.00  0.00     0.037 C 
HETATM   38  C9  UNL     1       6.739  23.684  -0.462  1.00  0.00     0.223 C 
HETATM   39  C10 UNL     1       5.849  24.866  -0.782  1.00  0.00     0.037 C 
HETATM   40  N5  UNL     1       7.853  23.739  -1.352  1.00  0.00     0.094 N 
HETATM   41  C11 UNL     1       6.093  25.042  -2.265  1.00  0.00     0.032 C 
HETATM   42  C12 UNL     1       7.516  24.570  -2.464  1.00  0.00     0.273 C 
HETATM   43  C13 UNL     1       9.097  24.052  -0.722  1.00  0.00     0.292 C 
HETATM   44  C14 UNL     1      10.074  22.933  -1.214  1.00  0.00     0.155 C 
ENDBRANCH  31  34
ENDBRANCH  27  31
ENDBRANCH  25  27
ENDBRANCH   6  23
BRANCH   9  45
HETATM   45  O4  UNL     1       5.414  16.122   0.515  1.00  0.00    -0.367 OA
ATOM     46  H4  UNL     1       4.727  16.773   0.449  1.00  0.00     0.212 HD
ENDBRANCH   9  45
TORSDOF 6
ENDMDL
MODEL 5
REMARK VINA RESULT: -9.503789327      1.432      2.067
REMARK  6 active torsions:
REMARK  status: ('A' for Active; 'I' for Inactive)
REMARK       I    between atoms: N2_5  and  C2_6 
REMARK    1  A    between atoms: C2_6  and  C3_8 
REMARK       I    between atoms: C3_8  and  N3_10 
REMARK    2  A    between atoms: N3_10  and  C4_12 
REMARK    3  A    between atoms: C4_12  and  C5_13 
REMARK    4  A    between atoms: C5_13  and  O3_14 
REMARK    5  A    between atoms: C5_13  and  N4_16 
REMARK    6  A    between atoms: C19_31  and  O4_32 
ROOT
HETATM    1  N1  UNL     1       5.732  18.348   3.137  1.00  0.00    -0.234 N 
ATOM      2  H11 UNL     1       5.018  19.028   3.399  1.00  0.00     0.174 HD
ATOM      3  H12 UNL     1       6.583  18.875   2.945  1.00  0.00     0.174 HD
HETATM    4  C1  UNL     1       5.569  17.086   3.028  1.00  0.00     0.681 C 
HETATM    5  N2  UNL     1       6.577  16.126   2.660  1.00  0.00    -0.138 N 
HETATM    6  C2  UNL     1       7.546  16.091   1.666  1.00  0.00     0.330 C 
HETATM    7  O1  UNL     1       8.354  15.095   1.703  1.00  0.00    -0.261 OA
HETATM    8  C18 UNL     1       6.279  15.039   3.646  1.00  0.00     0.214 C 
HETATM    9  C19 UNL     1       4.796  15.012   3.584  1.00  0.00     0.178 C 
HETATM   10  N6  UNL     1       4.370  16.344   3.299  1.00  0.00    -0.182 N 
HETATM   11  C20 UNL     1       2.967  16.670   3.336  1.00  0.00     0.145 C 
HETATM   12  C21 UNL     1       2.139  15.431   3.626  1.00  0.00     0.022 C 
HETATM   13  C22 UNL     1       2.640  14.767   4.863  1.00  0.00     0.021 C 
HETATM   14  C23 UNL     1       4.094  14.372   4.741  1.00  0.00     0.040 C 
HETATM   15  C24 UNL     1       4.146  12.870   4.490  1.00  0.00     0.024 C 
HETATM   16  C25 UNL     1       4.271  12.297   5.860  1.00  0.00     0.040 C 
HETATM   17  C26 UNL     1       4.825  13.392   6.701  1.00  0.00    -0.051 A 
HETATM   18  C27 UNL     1       5.383  13.301   7.976  1.00  0.00     0.007 A 
HETATM   19  C28 UNL     1       5.831  14.438   8.571  1.00  0.00     0.001 A 
HETATM   20  C29 UNL     1       5.739  15.654   7.936  1.00  0.00     0.001 A 
HETATM   21  C30 UNL     1       5.182  15.715   6.676  1.00  0.00     0.009 A 
HETATM   22  C31 UNL     1       4.717  14.588   6.039  1.00  0.00    -0.038 A 
ENDROOT
BRANCH   6  23
HETATM   23  C3  UNL     1       7.747  17.048   0.587  1.00  0.00     0.311 C 
HETATM   24  O2  UNL     1       6.784  17.388  -0.131  1.00  0.00    -0.262 OA
HETATM   25  N3  UNL     1       9.023  17.591   0.350  1.00  0.00    -0.336 N 
ATOM     26  H3  UNL     1       9.769  17.272   0.969  1.00  0.00     0.164 HD
BRANCH  25  27
HETATM   27  C4  UNL     1       9.409  18.554  -0.674  1.00  0.00     0.098 A 
HETATM   28  C15 UNL     1      10.861  18.404  -1.092  1.00  0.00     0.040 A 
HETATM   29  C16 UNL     1      10.485  18.015  -2.494  1.00  0.00     0.006 A 
HETATM   30  C17 UNL     1       9.025  18.050  -2.032  1.00  0.00     0.040 A 
BRANCH  27  31
HETATM   31  C5  UNL     1       8.951  19.903  -0.315  1.00  0.00     0.142 C 
BRANCH  31  32
HETATM   32  O3  UNL     1       9.568  20.348   0.762  1.00  0.00    -0.348 OA
ATOM     33  H3  UNL     1      10.433  20.678   0.553  1.00  0.00     0.219 HD
ENDBRANCH  31  32
BRANCH  31  34
HETATM   34  N4  UNL     1       8.032  20.796  -0.845  1.00  0.00    -0.362 N 
HETATM   35  C6  UNL     1       8.592  21.424  -2.084  1.00  0.00     0.125 C 
HETATM   36  C7  UNL     1       9.298  22.703  -1.778  1.00  0.00     0.022 C 
HETATM   37  C8  UNL     1       8.638  23.882  -2.500  1.00  0.00     0.037 C 
HETATM   38  C9  UNL     1       7.163  23.825  -2.217  1.00  0.00     0.223 C 
HETATM   39  C10 UNL     1       6.535  25.202  -2.195  1.00  0.00     0.037 C 
HETATM   40  N5  UNL     1       6.939  23.237  -0.937  1.00  0.00     0.094 N 
HETATM   41  C11 UNL     1       6.691  25.587  -0.741  1.00  0.00     0.032 C 
HETATM   42  C12 UNL     1       6.631  24.270  -0.000  1.00  0.00     0.273 C 
HETATM   43  C13 UNL     1       6.024  22.139  -0.944  1.00  0.00     0.292 C 
HETATM   44  C14 UNL     1       6.783  20.996  -0.193  1.00  0.00     0.155 C 
ENDBRANCH  31  34
ENDBRANCH  27  31
ENDBRANCH  25  27
ENDBRANCH   6  23
BRANCH   9  45
HETATM   45  O4  UNL     1       4.460  14.240   2.444  1.00  0.00    -0.367 OA
ATOM     46  H4  UNL     1       3.760  13.659   2.713  1.00  0.00     0.212 HD
ENDBRANCH   9  45
TORSDOF 6
ENDMDL
