MODEL 1
REMARK VINA RESULT: -8.265897396      0.000      0.000
REMARK  5 active torsions:
REMARK  status: ('A' for Active; 'I' for Inactive)
REMARK       I    between atoms: C2_2  and  N1_4 
REMARK    1  A    between atoms: C11_16  and  C12_17 
REMARK    2  A    between atoms: C12_17  and  O3_18 
REMARK    3  A    between atoms: C12_17  and  N3_20 
REMARK       I    between atoms: N4_23  and  C15_24 
REMARK    4  A    between atoms: C15_24  and  C16_26 
REMARK    5  A    between atoms: C16_26  and  O5_29 
ROOT
HETATM    1  C1  UNL     1      10.088  14.004   9.918  1.00  0.00     0.117 C 
HETATM    2  C2  UNL     1       8.716  14.033   9.367  1.00  0.00     0.215 C 
HETATM    3  O1  UNL     1       8.028  12.978   9.555  1.00  0.00    -0.274 OA
HETATM    4  N1  UNL     1       8.111  15.093   8.672  1.00  0.00    -0.352 N 
HETATM    5  C3  UNL     1       8.814  16.299   8.373  1.00  0.00     0.126 C 
HETATM    6  C4  UNL     1      10.054  16.194   7.571  1.00  0.00     0.021 C 
HETATM    7  C5  UNL     1      10.115  15.163   6.505  1.00  0.00     0.021 C 
HETATM    8  C6  UNL     1       9.743  15.612   5.127  1.00  0.00     0.122 C 
HETATM    9  N2  UNL     1       9.234  16.935   5.011  1.00  0.00    -0.361 N 
ATOM     10  H2  UNL     1       8.950  17.453   5.843  1.00  0.00     0.162 HD
HETATM   11  C7  UNL     1       9.124  17.530   3.719  1.00  0.00     0.221 C 
HETATM   12  O2  UNL     1       9.190  18.785   3.560  1.00  0.00    -0.273 OA
HETATM   13  C8  UNL     1       8.925  16.696   2.508  1.00  0.00     0.137 C 
HETATM   14  C9  UNL     1       8.833  17.590   1.272  1.00  0.00    -0.065 C 
HETATM   15  C10 UNL     1      10.134  17.978   0.725  1.00  0.00     0.044 C 
HETATM   16  C11 UNL     1       7.673  17.985   0.842  1.00  0.00    -0.005 C 
HETATM   17  C21 UNL     1       6.436  17.502   1.646  1.00  0.00     0.043 C 
HETATM   18  C22 UNL     1       5.838  16.297   1.029  1.00  0.00     0.006 C 
HETATM   19  C23 UNL     1       5.101  15.419   2.016  1.00  0.00     0.020 C 
HETATM   20  C24 UNL     1       3.827  16.047   2.536  1.00  0.00     0.122 C 
HETATM   21  N5  UNL     1       3.945  16.535   3.879  1.00  0.00    -0.361 N 
ATOM     22  H5  UNL     1       3.457  17.405   4.094  1.00  0.00     0.162 HD
HETATM   23  C25 UNL     1       4.663  15.936   4.934  1.00  0.00     0.217 C 
HETATM   24  O6  UNL     1       5.448  16.669   5.630  1.00  0.00    -0.274 OA
HETATM   25  C26 UNL     1       4.598  14.509   5.325  1.00  0.00     0.103 C 
HETATM   26  C27 UNL     1       4.920  14.297   6.796  1.00  0.00     0.011 C 
HETATM   27  C28 UNL     1       6.440  14.313   7.004  1.00  0.00     0.020 C 
HETATM   28  C29 UNL     1       6.721  14.986   8.296  1.00  0.00     0.125 C 
ENDROOT
BRANCH  16  29
HETATM   29  C12 UNL     1       7.366  18.797  -0.272  1.00  0.00     0.144 C 
BRANCH  29  30
HETATM   30  O3  UNL     1       7.501  17.989  -1.389  1.00  0.00    -0.346 OA
ATOM     31  H3  UNL     1       7.628  18.574  -2.127  1.00  0.00     0.219 HD
ENDBRANCH  29  30
BRANCH  29  32
HETATM   32  N3  UNL     1       6.993  20.049  -0.695  1.00  0.00    -0.355 N 
HETATM   33  C13 UNL     1       8.028  20.785  -1.549  1.00  0.00     0.145 C 
HETATM   34  C14 UNL     1       8.448  21.913  -0.630  1.00  0.00     0.151 C 
HETATM   35  N4  UNL     1       7.345  22.875  -0.728  1.00  0.00    -0.326 N 
HETATM   36  C15 UNL     1       7.678  24.213  -0.836  1.00  0.00     0.257 C 
HETATM   37  C19 UNL     1       6.040  22.364  -0.704  1.00  0.00     0.086 C 
HETATM   38  O4  UNL     1       8.922  24.544  -0.813  1.00  0.00    -0.270 OA
HETATM   39  C20 UNL     1       5.871  20.873  -0.464  1.00  0.00     0.169 C 
BRANCH  36  40
HETATM   40  C16 UNL     1       6.729  25.311  -0.980  1.00  0.00     0.131 C 
HETATM   41  C17 UNL     1       5.932  25.213  -2.279  1.00  0.00     0.056 C 
HETATM   42  C18 UNL     1       7.535  26.605  -1.079  1.00  0.00     0.056 C 
BRANCH  40  43
HETATM   43  O5  UNL     1       5.823  25.441   0.047  1.00  0.00    -0.381 OA
ATOM     44  H5  UNL     1       6.179  25.777   0.861  1.00  0.00     0.211 HD
ENDBRANCH  40  43
ENDBRANCH  36  40
ENDBRANCH  29  32
ENDBRANCH  16  29
TORSDOF 5
ENDMDL
MODEL 2
REMARK VINA RESULT: -7.924524523      3.101      3.637
REMARK  5 active torsions:
REMARK  status: ('A' for Active; 'I' for Inactive)
REMARK       I    between atoms: C2_2  and  N1_4 
REMARK    1  A    between atoms: C11_16  and  C12_17 
REMARK    2  A    between atoms: C12_17  and  O3_18 
REMARK    3  A    between atoms: C12_17  and  N3_20 
REMARK       I    between atoms: N4_23  and  C15_24 
REMARK    4  A    between atoms: C15_24  and  C16_26 
REMARK    5  A    between atoms: C16_26  and  O5_29 
ROOT
HETATM    1  C1  UNL     1       8.284   8.102   3.506  1.00  0.00     0.117 C 
HETATM    2  C2  UNL     1       7.290   9.071   4.016  1.00  0.00     0.215 C 
HETATM    3  O1  UNL     1       6.105   8.623   4.144  1.00  0.00    -0.274 OA
HETATM    4  N1  UNL     1       7.524  10.410   4.367  1.00  0.00    -0.352 N 
HETATM    5  C3  UNL     1       8.808  11.016   4.218  1.00  0.00     0.126 C 
HETATM    6  C4  UNL     1       9.406  11.041   2.864  1.00  0.00     0.021 C 
HETATM    7  C5  UNL     1       8.500  11.214   1.700  1.00  0.00     0.021 C 
HETATM    8  C6  UNL     1       8.320  12.614   1.205  1.00  0.00     0.122 C 
HETATM    9  N2  UNL     1       8.917  13.642   1.986  1.00  0.00    -0.361 N 
ATOM     10  H2  UNL     1       9.259  13.442   2.926  1.00  0.00     0.162 HD
HETATM   11  C7  UNL     1       9.032  14.955   1.442  1.00  0.00     0.221 C 
HETATM   12  O2  UNL     1       9.954  15.744   1.806  1.00  0.00    -0.273 OA
HETATM   13  C8  UNL     1       8.070  15.449   0.426  1.00  0.00     0.137 C 
HETATM   14  C9  UNL     1       8.424  16.882   0.029  1.00  0.00    -0.065 C 
HETATM   15  C10 UNL     1       9.466  16.971  -0.994  1.00  0.00     0.044 C 
HETATM   16  C11 UNL     1       7.858  17.882   0.635  1.00  0.00    -0.005 C 
HETATM   17  C21 UNL     1       6.837  17.527   1.749  1.00  0.00     0.043 C 
HETATM   18  C22 UNL     1       5.453  17.543   1.227  1.00  0.00     0.006 C 
HETATM   19  C23 UNL     1       4.513  16.634   1.987  1.00  0.00     0.020 C 
HETATM   20  C24 UNL     1       4.218  17.120   3.388  1.00  0.00     0.122 C 
HETATM   21  N5  UNL     1       4.900  16.370   4.403  1.00  0.00    -0.361 N 
ATOM     22  H5  UNL     1       5.246  16.896   5.206  1.00  0.00     0.162 HD
HETATM   23  C25 UNL     1       5.142  14.981   4.405  1.00  0.00     0.217 C 
HETATM   24  O6  UNL     1       6.324  14.570   4.670  1.00  0.00    -0.274 OA
HETATM   25  C26 UNL     1       4.140  13.927   4.125  1.00  0.00     0.103 C 
HETATM   26  C27 UNL     1       4.476  12.612   4.810  1.00  0.00     0.011 C 
HETATM   27  C28 UNL     1       5.537  11.858   3.998  1.00  0.00     0.020 C 
HETATM   28  C29 UNL     1       6.453  11.183   4.950  1.00  0.00     0.125 C 
ENDROOT
BRANCH  16  29
HETATM   29  C12 UNL     1       8.032  19.267   0.421  1.00  0.00     0.144 C 
BRANCH  29  30
HETATM   30  O3  UNL     1       9.144  19.636   1.160  1.00  0.00    -0.346 OA
ATOM     31  H3  UNL     1       9.457  20.449   0.781  1.00  0.00     0.219 HD
ENDBRANCH  29  30
BRANCH  29  32
HETATM   32  N3  UNL     1       7.553  20.386  -0.215  1.00  0.00    -0.355 N 
HETATM   33  C13 UNL     1       8.564  21.117  -1.100  1.00  0.00     0.145 C 
HETATM   34  C14 UNL     1       8.768  22.411  -0.340  1.00  0.00     0.151 C 
HETATM   35  N4  UNL     1       7.573  23.199  -0.659  1.00  0.00    -0.326 N 
HETATM   36  C15 UNL     1       7.755  24.539  -0.950  1.00  0.00     0.257 C 
HETATM   37  C19 UNL     1       6.339  22.533  -0.644  1.00  0.00     0.086 C 
HETATM   38  O4  UNL     1       8.944  25.027  -0.894  1.00  0.00    -0.270 OA
HETATM   39  C20 UNL     1       6.326  21.083  -0.189  1.00  0.00     0.169 C 
BRANCH  36  40
HETATM   40  C16 UNL     1       6.699  25.472  -1.325  1.00  0.00     0.131 C 
HETATM   41  C17 UNL     1       6.089  25.133  -2.683  1.00  0.00     0.056 C 
HETATM   42  C18 UNL     1       7.340  26.850  -1.486  1.00  0.00     0.056 C 
BRANCH  40  43
HETATM   43  O5  UNL     1       5.663  25.579  -0.426  1.00  0.00    -0.381 OA
ATOM     44  H5  UNL     1       5.803  26.196   0.282  1.00  0.00     0.211 HD
ENDBRANCH  40  43
ENDBRANCH  36  40
ENDBRANCH  29  32
ENDBRANCH  16  29
TORSDOF 5
ENDMDL
MODEL 3
REMARK VINA RESULT: -7.676123926      3.719      5.455
REMARK  5 active torsions:
REMARK  status: ('A' for Active; 'I' for Inactive)
REMARK       I    between atoms: C2_2  and  N1_4 
REMARK    1  A    between atoms: C11_16  and  C12_17 
REMARK    2  A    between atoms: C12_17  and  O3_18 
REMARK    3  A    between atoms: C12_17  and  N3_20 
REMARK       I    between atoms: N4_23  and  C15_24 
REMARK    4  A    between atoms: C15_24  and  C16_26 
REMARK    5  A    between atoms: C16_26  and  O5_29 
ROOT
HETATM    1  C1  UNL     1       5.475   8.932   4.920  1.00  0.00     0.117 C 
HETATM    2  C2  UNL     1       6.632   9.135   4.021  1.00  0.00     0.215 C 
HETATM    3  O1  UNL     1       7.728   8.619   4.416  1.00  0.00    -0.274 OA
HETATM    4  N1  UNL     1       6.637   9.824   2.799  1.00  0.00    -0.352 N 
HETATM    5  C3  UNL     1       5.470  10.473   2.293  1.00  0.00     0.126 C 
HETATM    6  C4  UNL     1       4.846  11.522   3.130  1.00  0.00     0.021 C 
HETATM    7  C5  UNL     1       5.735  12.392   3.942  1.00  0.00     0.021 C 
HETATM    8  C6  UNL     1       6.135  13.693   3.322  1.00  0.00     0.122 C 
HETATM    9  N2  UNL     1       5.742  13.895   1.970  1.00  0.00    -0.361 N 
ATOM     10  H2  UNL     1       5.398  13.114   1.411  1.00  0.00     0.162 HD
HETATM   11  C7  UNL     1       5.834  15.200   1.403  1.00  0.00     0.221 C 
HETATM   12  O2  UNL     1       5.069  15.570   0.463  1.00  0.00    -0.273 OA
HETATM   13  C8  UNL     1       6.836  16.178   1.894  1.00  0.00     0.137 C 
HETATM   14  C9  UNL     1       6.718  17.483   1.107  1.00  0.00    -0.065 C 
HETATM   15  C10 UNL     1       5.677  18.382   1.606  1.00  0.00     0.044 C 
HETATM   16  C11 UNL     1       7.461  17.679   0.060  1.00  0.00    -0.005 C 
HETATM   17  C21 UNL     1       8.439  16.534  -0.318  1.00  0.00     0.043 C 
HETATM   18  C22 UNL     1       9.791  16.787   0.228  1.00  0.00     0.006 C 
HETATM   19  C23 UNL     1      10.586  15.524   0.476  1.00  0.00     0.020 C 
HETATM   20  C24 UNL     1      10.998  14.821  -0.798  1.00  0.00     0.122 C 
HETATM   21  N5  UNL     1      10.228  13.641  -1.068  1.00  0.00    -0.361 N 
ATOM     22  H5  UNL     1       9.999  13.458  -2.045  1.00  0.00     0.162 HD
HETATM   23  C25 UNL     1       9.755  12.708  -0.122  1.00  0.00     0.217 C 
HETATM   24  O6  UNL     1       8.529  12.349  -0.182  1.00  0.00    -0.274 OA
HETATM   25  C26 UNL     1      10.557  12.089   0.958  1.00  0.00     0.103 C 
HETATM   26  C27 UNL     1      10.024  10.724   1.365  1.00  0.00     0.011 C 
HETATM   27  C28 UNL     1       8.828  10.894   2.311  1.00  0.00     0.020 C 
HETATM   28  C29 UNL     1       7.840   9.833   1.999  1.00  0.00     0.125 C 
ENDROOT
BRANCH  16  29
HETATM   29  C12 UNL     1       7.517  18.802  -0.794  1.00  0.00     0.144 C 
BRANCH  29  30
HETATM   30  O3  UNL     1       6.915  18.416  -1.981  1.00  0.00    -0.346 OA
ATOM     31  H3  UNL     1       7.397  18.848  -2.676  1.00  0.00     0.219 HD
ENDBRANCH  29  30
BRANCH  29  32
HETATM   32  N3  UNL     1       7.922  20.107  -0.928  1.00  0.00    -0.355 N 
HETATM   33  C13 UNL     1       7.287  21.092   0.057  1.00  0.00     0.145 C 
HETATM   34  C14 UNL     1       6.418  21.931  -0.856  1.00  0.00     0.151 C 
HETATM   35  N4  UNL     1       7.368  22.840  -1.507  1.00  0.00    -0.326 N 
HETATM   36  C15 UNL     1       6.996  24.167  -1.629  1.00  0.00     0.257 C 
HETATM   37  C19 UNL     1       8.579  22.293  -1.955  1.00  0.00     0.086 C 
HETATM   38  O4  UNL     1       5.836  24.524  -1.201  1.00  0.00    -0.270 OA
HETATM   39  C20 UNL     1       8.762  20.790  -1.833  1.00  0.00     0.169 C 
BRANCH  36  40
HETATM   40  C16 UNL     1       7.815  25.224  -2.211  1.00  0.00     0.131 C 
HETATM   41  C17 UNL     1       8.815  25.792  -1.206  1.00  0.00     0.056 C 
HETATM   42  C18 UNL     1       6.883  26.379  -2.574  1.00  0.00     0.056 C 
BRANCH  40  43
HETATM   43  O5  UNL     1       8.522  24.867  -3.335  1.00  0.00    -0.381 OA
ATOM     44  H5  UNL     1       9.464  24.820  -3.224  1.00  0.00     0.211 HD
ENDBRANCH  40  43
ENDBRANCH  36  40
ENDBRANCH  29  32
ENDBRANCH  16  29
TORSDOF 5
ENDMDL
MODEL 4
REMARK VINA RESULT: -7.596340498      2.458      3.128
REMARK  5 active torsions:
REMARK  status: ('A' for Active; 'I' for Inactive)
REMARK       I    between atoms: C2_2  and  N1_4 
REMARK    1  A    between atoms: C11_16  and  C12_17 
REMARK    2  A    between atoms: C12_17  and  O3_18 
REMARK    3  A    between atoms: C12_17  and  N3_20 
REMARK       I    between atoms: N4_23  and  C15_24 
REMARK    4  A    between atoms: C15_24  and  C16_26 
REMARK    5  A    between atoms: C16_26  and  O5_29 
ROOT
HETATM    1  C1  UNL     1      11.187  10.606   5.282  1.00  0.00     0.117 C 
HETATM    2  C2  UNL     1      10.057  11.500   5.613  1.00  0.00     0.215 C 
HETATM    3  O1  UNL     1       9.030  10.926   6.101  1.00  0.00    -0.274 OA
HETATM    4  N1  UNL     1      10.009  12.893   5.446  1.00  0.00    -0.352 N 
HETATM    5  C3  UNL     1      11.092  13.621   4.866  1.00  0.00     0.126 C 
HETATM    6  C4  UNL     1      11.517  13.254   3.497  1.00  0.00     0.021 C 
HETATM    7  C5  UNL     1      10.474  12.823   2.531  1.00  0.00     0.021 C 
HETATM    8  C6  UNL     1       9.919  13.887   1.638  1.00  0.00     0.122 C 
HETATM    9  N2  UNL     1      10.342  15.219   1.904  1.00  0.00    -0.361 N 
ATOM     10  H2  UNL     1      10.822  15.442   2.777  1.00  0.00     0.162 HD
HETATM   11  C7  UNL     1      10.088  16.238   0.940  1.00  0.00     0.221 C 
HETATM   12  O2  UNL     1      10.835  17.257   0.841  1.00  0.00    -0.273 OA
HETATM   13  C8  UNL     1       8.933  16.144   0.014  1.00  0.00     0.137 C 
HETATM   14  C9  UNL     1       8.897  17.369  -0.898  1.00  0.00    -0.065 C 
HETATM   15  C10 UNL     1       9.772  17.262  -2.066  1.00  0.00     0.044 C 
HETATM   16  C11 UNL     1       8.183  18.404  -0.569  1.00  0.00    -0.005 C 
HETATM   17  C21 UNL     1       7.401  18.306   0.769  1.00  0.00     0.043 C 
HETATM   18  C22 UNL     1       6.003  17.881   0.537  1.00  0.00     0.006 C 
HETATM   19  C23 UNL     1       5.389  17.162   1.718  1.00  0.00     0.020 C 
HETATM   20  C24 UNL     1       5.143  18.068   2.904  1.00  0.00     0.122 C 
HETATM   21  N5  UNL     1       6.088  17.878   3.966  1.00  0.00    -0.361 N 
ATOM     22  H5  UNL     1       6.387  18.714   4.467  1.00  0.00     0.162 HD
HETATM   23  C25 UNL     1       6.646  16.654   4.389  1.00  0.00     0.217 C 
HETATM   24  O6  UNL     1       7.913  16.587   4.553  1.00  0.00    -0.274 OA
HETATM   25  C26 UNL     1       5.893  15.410   4.668  1.00  0.00     0.103 C 
HETATM   26  C27 UNL     1       6.599  14.521   5.681  1.00  0.00     0.011 C 
HETATM   27  C28 UNL     1       7.711  13.724   4.986  1.00  0.00     0.020 C 
HETATM   28  C29 UNL     1       8.857  13.621   5.922  1.00  0.00     0.125 C 
ENDROOT
BRANCH  16  29
HETATM   29  C12 UNL     1       8.006  19.620  -1.263  1.00  0.00     0.144 C 
BRANCH  29  30
HETATM   30  O3  UNL     1       7.073  19.367  -2.256  1.00  0.00    -0.346 OA
ATOM     31  H3  UNL     1       7.360  19.853  -3.020  1.00  0.00     0.219 HD
ENDBRANCH  29  30
BRANCH  29  32
HETATM   32  N3  UNL     1       8.378  20.939  -1.355  1.00  0.00    -0.355 N 
HETATM   33  C13 UNL     1       7.763  21.866  -0.305  1.00  0.00     0.145 C 
HETATM   34  C14 UNL     1       6.841  22.724  -1.146  1.00  0.00     0.151 C 
HETATM   35  N4  UNL     1       7.745  23.681  -1.793  1.00  0.00    -0.326 N 
HETATM   36  C15 UNL     1       7.341  25.003  -1.843  1.00  0.00     0.257 C 
HETATM   37  C19 UNL     1       8.948  23.181  -2.311  1.00  0.00     0.086 C 
HETATM   38  O4  UNL     1       6.193  25.316  -1.354  1.00  0.00    -0.270 OA
HETATM   39  C20 UNL     1       9.166  21.679  -2.262  1.00  0.00     0.169 C 
BRANCH  36  40
HETATM   40  C16 UNL     1       8.115  26.102  -2.409  1.00  0.00     0.131 C 
HETATM   41  C17 UNL     1       9.539  26.143  -1.861  1.00  0.00     0.056 C 
HETATM   42  C18 UNL     1       7.455  27.406  -1.961  1.00  0.00     0.056 C 
BRANCH  40  43
HETATM   43  O5  UNL     1       8.204  26.110  -3.782  1.00  0.00    -0.381 OA
ATOM     44  H5  UNL     1       8.234  26.972  -4.181  1.00  0.00     0.211 HD
ENDBRANCH  40  43
ENDBRANCH  36  40
ENDBRANCH  29  32
ENDBRANCH  16  29
TORSDOF 5
ENDMDL
MODEL 5
REMARK VINA RESULT: -7.596003769      2.075      3.999
REMARK  5 active torsions:
REMARK  status: ('A' for Active; 'I' for Inactive)
REMARK       I    between atoms: C2_2  and  N1_4 
REMARK    1  A    between atoms: C11_16  and  C12_17 
REMARK    2  A    between atoms: C12_17  and  O3_18 
REMARK    3  A    between atoms: C12_17  and  N3_20 
REMARK       I    between atoms: N4_23  and  C15_24 
REMARK    4  A    between atoms: C15_24  and  C16_26 
REMARK    5  A    between atoms: C16_26  and  O5_29 
ROOT
HETATM    1  C1  UNL     1       4.728  11.035   8.663  1.00  0.00     0.117 C 
HETATM    2  C2  UNL     1       6.074  11.341   8.133  1.00  0.00     0.215 C 
HETATM    3  O1  UNL     1       7.004  11.396   9.001  1.00  0.00    -0.274 OA
HETATM    4  N1  UNL     1       6.417  11.570   6.791  1.00  0.00    -0.352 N 
HETATM    5  C3  UNL     1       5.439  11.574   5.751  1.00  0.00     0.126 C 
HETATM    6  C4  UNL     1       4.324  12.540   5.856  1.00  0.00     0.021 C 
HETATM    7  C5  UNL     1       4.605  13.874   6.445  1.00  0.00     0.021 C 
HETATM    8  C6  UNL     1       4.928  14.970   5.480  1.00  0.00     0.122 C 
HETATM    9  N2  UNL     1       5.074  14.588   4.117  1.00  0.00    -0.361 N 
ATOM     10  H2  UNL     1       5.158  13.603   3.865  1.00  0.00     0.162 HD
HETATM   11  C7  UNL     1       5.101  15.595   3.108  1.00  0.00     0.221 C 
HETATM   12  O2  UNL     1       4.714  15.358   1.925  1.00  0.00    -0.273 OA
HETATM   13  C8  UNL     1       5.588  16.964   3.408  1.00  0.00     0.137 C 
HETATM   14  C9  UNL     1       5.516  17.828   2.149  1.00  0.00    -0.065 C 
HETATM   15  C10 UNL     1       4.195  18.410   1.907  1.00  0.00     0.044 C 
HETATM   16  C11 UNL     1       6.553  17.937   1.376  1.00  0.00    -0.005 C 
HETATM   17  C21 UNL     1       7.823  17.153   1.808  1.00  0.00     0.043 C 
HETATM   18  C22 UNL     1       8.755  18.024   2.558  1.00  0.00     0.006 C 
HETATM   19  C23 UNL     1       9.636  17.267   3.526  1.00  0.00     0.020 C 
HETATM   20  C24 UNL     1      10.663  16.395   2.839  1.00  0.00     0.122 C 
HETATM   21  N5  UNL     1      10.339  14.998   2.881  1.00  0.00    -0.361 N 
ATOM     22  H5  UNL     1      10.564  14.451   2.050  1.00  0.00     0.162 HD
HETATM   23  C25 UNL     1       9.741  14.303   3.953  1.00  0.00     0.217 C 
HETATM   24  O6  UNL     1       8.749  13.535   3.703  1.00  0.00    -0.274 OA
HETATM   25  C26 UNL     1      10.158  14.376   5.372  1.00  0.00     0.103 C 
HETATM   26  C27 UNL     1       9.815  13.111   6.142  1.00  0.00     0.011 C 
HETATM   27  C28 UNL     1       8.335  13.135   6.547  1.00  0.00     0.020 C 
HETATM   28  C29 UNL     1       7.806  11.753   6.440  1.00  0.00     0.125 C 
ENDROOT
BRANCH  16  29
HETATM   29  C12 UNL     1       6.702  18.680   0.185  1.00  0.00     0.144 C 
BRANCH  29  30
HETATM   30  O3  UNL     1       6.948  17.759  -0.820  1.00  0.00    -0.346 OA
ATOM     31  H3  UNL     1       6.573  18.123  -1.612  1.00  0.00     0.219 HD
ENDBRANCH  29  30
BRANCH  29  32
HETATM   32  N3  UNL     1       6.704  19.933  -0.378  1.00  0.00    -0.355 N 
HETATM   33  C13 UNL     1       7.955  20.285  -1.186  1.00  0.00     0.145 C 
HETATM   34  C14 UNL     1       8.590  21.360  -0.330  1.00  0.00     0.151 C 
HETATM   35  N4  UNL     1       7.789  22.556  -0.617  1.00  0.00    -0.326 N 
HETATM   36  C15 UNL     1       8.470  23.745  -0.806  1.00  0.00     0.257 C 
HETATM   37  C19 UNL     1       6.397  22.400  -0.676  1.00  0.00     0.086 C 
HETATM   38  O4  UNL     1       9.751  23.748  -0.689  1.00  0.00    -0.270 OA
HETATM   39  C20 UNL     1       5.825  21.036  -0.328  1.00  0.00     0.169 C 
BRANCH  36  40
HETATM   40  C16 UNL     1       7.856  25.026  -1.135  1.00  0.00     0.131 C 
HETATM   41  C17 UNL     1       7.359  25.070  -2.578  1.00  0.00     0.056 C 
HETATM   42  C18 UNL     1       8.942  26.095  -1.032  1.00  0.00     0.056 C 
BRANCH  40  43
HETATM   43  O5  UNL     1       6.805  25.397  -0.328  1.00  0.00    -0.381 OA
ATOM     44  H5  UNL     1       5.941  25.200  -0.672  1.00  0.00     0.211 HD
ENDBRANCH  40  43
ENDBRANCH  36  40
ENDBRANCH  29  32
ENDBRANCH  16  29
TORSDOF 5
ENDMDL
