MODEL 1
REMARK VINA RESULT: -7.660483268      0.000      0.000
REMARK  2 active torsions:
REMARK  status: ('A' for Active; 'I' for Inactive)
REMARK       I    between atoms: C2_2  and  N1_4 
REMARK    1  A    between atoms: C3_5  and  C4_6 
REMARK    2  A    between atoms: C4_6  and  C5_8 
REMARK       I    between atoms: N3_31  and  C23_33 
REMARK       I    between atoms: C23_33  and  N4_35 
ROOT
HETATM    1  C1  UNL     1      10.580  14.993  -0.671  1.00  0.00     0.117 C 
HETATM    2  C2  UNL     1       9.727  15.935   0.044  1.00  0.00     0.217 C 
HETATM    3  O1  UNL     1       9.147  15.458   1.095  1.00  0.00    -0.274 OA
HETATM    4  N1  UNL     1       9.471  17.302  -0.291  1.00  0.00    -0.322 N 
HETATM    5  C3  UNL     1      10.137  17.893  -1.438  1.00  0.00     0.170 C 
HETATM    6  C6  UNL     1      11.616  17.843  -1.417  1.00  0.00     0.034 C 
HETATM    7  C7  UNL     1      12.382  19.098  -1.584  1.00  0.00     0.012 C 
HETATM    8  C8  UNL     1      11.666  20.376  -1.768  1.00  0.00     0.103 C 
HETATM    9  C9  UNL     1      12.600  21.379  -2.349  1.00  0.00     0.217 C 
HETATM   10  O5  UNL     1      13.736  21.007  -2.729  1.00  0.00    -0.274 OA
HETATM   11  N2  UNL     1      12.271  22.756  -2.497  1.00  0.00    -0.361 N 
ATOM     12  H2  UNL     1      12.691  23.298  -3.252  1.00  0.00     0.162 HD
HETATM   13  C10 UNL     1      11.343  23.393  -1.583  1.00  0.00     0.122 C 
HETATM   14  C11 UNL     1       9.947  23.490  -2.161  1.00  0.00     0.020 C 
HETATM   15  C12 UNL     1       9.111  24.281  -1.161  1.00  0.00     0.002 C 
HETATM   16  C13 UNL     1       7.660  23.919  -1.214  1.00  0.00     0.000 C 
HETATM   17  C14 UNL     1       7.272  22.869  -0.199  1.00  0.00     0.000 C 
HETATM   18  C15 UNL     1       6.141  22.028  -0.779  1.00  0.00     0.000 C 
HETATM   19  C16 UNL     1       6.244  20.593  -0.323  1.00  0.00     0.000 C 
HETATM   20  C17 UNL     1       7.524  19.912  -0.807  1.00  0.00     0.003 C 
HETATM   21  C18 UNL     1       8.413  19.473   0.294  1.00  0.00     0.041 C 
HETATM   22  C19 UNL     1       8.515  17.998   0.573  1.00  0.00     0.117 C 
HETATM   23  C20 UNL     1       7.162  17.411   0.526  1.00  0.00     0.049 C 
HETATM   24  C21 UNL     1       6.278  17.394   1.684  1.00  0.00     0.080 C 
HETATM   25  C22 UNL     1       6.843  17.546   3.019  1.00  0.00     0.087 C 
HETATM   26  N3  UNL     1       6.103  17.287   4.035  1.00  0.00    -0.298 N 
ATOM     27  H3  UNL     1       5.139  16.980   3.910  1.00  0.00     0.172 HD
HETATM   28  C23 UNL     1       6.653  17.437   5.336  1.00  0.00     0.323 C 
HETATM   29  O6  UNL     1       6.387  18.437   6.044  1.00  0.00    -0.247 OA
HETATM   30  N4  UNL     1       7.516  16.443   5.842  1.00  0.00    -0.334 N 
HETATM   31  C24 UNL     1       7.953  15.218   5.208  1.00  0.00     0.127 C 
HETATM   32  C25 UNL     1       8.114  14.244   6.361  1.00  0.00     0.022 C 
HETATM   33  C26 UNL     1       7.853  15.043   7.629  1.00  0.00     0.022 C 
HETATM   34  C27 UNL     1       8.158  16.457   7.139  1.00  0.00     0.127 C 
HETATM   35  N5  UNL     1       8.191  17.976   3.119  1.00  0.00    -0.314 N 
ATOM     36  H5  UNL     1       8.550  18.318   4.011  1.00  0.00     0.170 HD
HETATM   37  C28 UNL     1       9.036  17.933   1.993  1.00  0.00     0.251 C 
HETATM   38  O7  UNL     1      10.288  17.837   2.228  1.00  0.00    -0.270 OA
ENDROOT
BRANCH   5  39
HETATM   39  C4  UNL     1       9.611  17.341  -2.703  1.00  0.00     0.247 C 
HETATM   40  O2  UNL     1       8.331  17.326  -2.839  1.00  0.00    -0.283 OA
BRANCH  39  41
HETATM   41  C5  UNL     1      10.341  16.809  -3.819  1.00  0.00     0.249 C 
HETATM   42  O3  UNL     1      11.089  17.442  -4.609  1.00  0.00    -0.642 OA
HETATM   43  O4  UNL     1      10.273  15.428  -4.144  1.00  0.00    -0.642 OA
ENDBRANCH  39  41
ENDBRANCH   5  39
TORSDOF 2
ENDMDL
MODEL 2
REMARK VINA RESULT: -7.411850381      0.980      1.256
REMARK  2 active torsions:
REMARK  status: ('A' for Active; 'I' for Inactive)
REMARK       I    between atoms: C2_2  and  N1_4 
REMARK    1  A    between atoms: C3_5  and  C4_6 
REMARK    2  A    between atoms: C4_6  and  C5_8 
REMARK       I    between atoms: N3_31  and  C23_33 
REMARK       I    between atoms: C23_33  and  N4_35 
ROOT
HETATM    1  C1  UNL     1      11.959  16.010  -0.336  1.00  0.00     0.117 C 
HETATM    2  C2  UNL     1      10.833  16.701   0.282  1.00  0.00     0.217 C 
HETATM    3  O1  UNL     1      10.232  16.040   1.215  1.00  0.00    -0.274 OA
HETATM    4  N1  UNL     1      10.335  18.004  -0.034  1.00  0.00    -0.322 N 
HETATM    5  C3  UNL     1      11.007  18.801  -1.044  1.00  0.00     0.170 C 
HETATM    6  C6  UNL     1      12.444  19.060  -0.807  1.00  0.00     0.034 C 
HETATM    7  C7  UNL     1      12.936  20.456  -0.808  1.00  0.00     0.012 C 
HETATM    8  C8  UNL     1      11.991  21.566  -1.046  1.00  0.00     0.103 C 
HETATM    9  C9  UNL     1      12.756  22.780  -1.441  1.00  0.00     0.217 C 
HETATM   10  O5  UNL     1      13.986  22.681  -1.663  1.00  0.00    -0.274 OA
HETATM   11  N2  UNL     1      12.159  24.064  -1.582  1.00  0.00    -0.361 N 
ATOM     12  H2  UNL     1      12.550  24.734  -2.244  1.00  0.00     0.162 HD
HETATM   13  C10 UNL     1      10.999  24.428  -0.791  1.00  0.00     0.122 C 
HETATM   14  C11 UNL     1       9.708  24.271  -1.565  1.00  0.00     0.020 C 
HETATM   15  C12 UNL     1       8.592  24.798  -0.670  1.00  0.00     0.002 C 
HETATM   16  C13 UNL     1       7.275  24.145  -0.952  1.00  0.00     0.000 C 
HETATM   17  C14 UNL     1       6.989  22.969  -0.049  1.00  0.00     0.000 C 
HETATM   18  C15 UNL     1       6.158  21.952  -0.823  1.00  0.00     0.000 C 
HETATM   19  C16 UNL     1       6.506  20.542  -0.413  1.00  0.00     0.000 C 
HETATM   20  C17 UNL     1       7.957  20.180  -0.729  1.00  0.00     0.003 C 
HETATM   21  C18 UNL     1       8.762  19.860   0.474  1.00  0.00     0.041 C 
HETATM   22  C19 UNL     1       9.141  18.422   0.706  1.00  0.00     0.117 C 
HETATM   23  C20 UNL     1       7.968  17.571   0.436  1.00  0.00     0.049 C 
HETATM   24  C21 UNL     1       6.959  17.288   1.448  1.00  0.00     0.080 C 
HETATM   25  C22 UNL     1       7.290  17.460   2.857  1.00  0.00     0.087 C 
HETATM   26  N3  UNL     1       6.492  16.982   3.741  1.00  0.00    -0.298 N 
ATOM     27  H3  UNL     1       5.644  16.489   3.462  1.00  0.00     0.172 HD
HETATM   28  C23 UNL     1       6.814  17.151   5.114  1.00  0.00     0.323 C 
HETATM   29  O6  UNL     1       6.243  18.020   5.814  1.00  0.00    -0.247 OA
HETATM   30  N4  UNL     1       7.795  16.326   5.703  1.00  0.00    -0.334 N 
HETATM   31  C24 UNL     1       8.569  15.267   5.092  1.00  0.00     0.127 C 
HETATM   32  C25 UNL     1       8.779  14.269   6.217  1.00  0.00     0.022 C 
HETATM   33  C26 UNL     1       8.181  14.904   7.463  1.00  0.00     0.022 C 
HETATM   34  C27 UNL     1       8.235  16.382   7.081  1.00  0.00     0.127 C 
HETATM   35  N5  UNL     1       8.486  18.154   3.173  1.00  0.00    -0.314 N 
ATOM     36  H5  UNL     1       8.638  18.500   4.121  1.00  0.00     0.170 HD
HETATM   37  C28 UNL     1       9.466  18.369   2.184  1.00  0.00     0.251 C 
HETATM   38  O7  UNL     1      10.665  18.519   2.598  1.00  0.00    -0.270 OA
ENDROOT
BRANCH   5  39
HETATM   39  C4  UNL     1      10.790  18.242  -2.394  1.00  0.00     0.247 C 
HETATM   40  O2  UNL     1      11.560  18.674  -3.330  1.00  0.00    -0.283 OA
BRANCH  39  41
HETATM   41  C5  UNL     1       9.822  17.268  -2.814  1.00  0.00     0.249 C 
HETATM   42  O3  UNL     1       8.569  17.358  -2.732  1.00  0.00    -0.642 OA
HETATM   43  O4  UNL     1      10.229  16.038  -3.395  1.00  0.00    -0.642 OA
ENDBRANCH  39  41
ENDBRANCH   5  39
TORSDOF 2
ENDMDL
MODEL 3
REMARK VINA RESULT: -7.301608891      1.478      1.745
REMARK  2 active torsions:
REMARK  status: ('A' for Active; 'I' for Inactive)
REMARK       I    between atoms: C2_2  and  N1_4 
REMARK    1  A    between atoms: C3_5  and  C4_6 
REMARK    2  A    between atoms: C4_6  and  C5_8 
REMARK       I    between atoms: N3_31  and  C23_33 
REMARK       I    between atoms: C23_33  and  N4_35 
ROOT
HETATM    1  C1  UNL     1      12.595  16.548  -0.231  1.00  0.00     0.117 C 
HETATM    2  C2  UNL     1      11.453  17.175   0.424  1.00  0.00     0.217 C 
HETATM    3  O1  UNL     1      11.050  16.586   1.500  1.00  0.00    -0.274 OA
HETATM    4  N1  UNL     1      10.748  18.346   0.005  1.00  0.00    -0.322 N 
HETATM    5  C3  UNL     1      11.195  19.066  -1.175  1.00  0.00     0.170 C 
HETATM    6  C6  UNL     1      12.598  19.533  -1.148  1.00  0.00     0.034 C 
HETATM    7  C7  UNL     1      12.887  20.964  -1.390  1.00  0.00     0.012 C 
HETATM    8  C8  UNL     1      11.777  21.902  -1.654  1.00  0.00     0.103 C 
HETATM    9  C9  UNL     1      12.320  23.132  -2.293  1.00  0.00     0.217 C 
HETATM   10  O5  UNL     1      13.522  23.156  -2.647  1.00  0.00    -0.274 OA
HETATM   11  N2  UNL     1      11.538  24.298  -2.526  1.00  0.00    -0.361 N 
ATOM     12  H2  UNL     1      11.761  24.909  -3.312  1.00  0.00     0.162 HD
HETATM   13  C10 UNL     1      10.426  24.625  -1.654  1.00  0.00     0.122 C 
HETATM   14  C11 UNL     1       9.097  24.199  -2.239  1.00  0.00     0.020 C 
HETATM   15  C12 UNL     1       8.016  24.707  -1.292  1.00  0.00     0.002 C 
HETATM   16  C13 UNL     1       6.781  23.861  -1.326  1.00  0.00     0.000 C 
HETATM   17  C14 UNL     1       6.757  22.802  -0.249  1.00  0.00     0.000 C 
HETATM   18  C15 UNL     1       6.001  21.589  -0.779  1.00  0.00     0.000 C 
HETATM   19  C16 UNL     1       6.583  20.307  -0.235  1.00  0.00     0.000 C 
HETATM   20  C17 UNL     1       8.031  20.086  -0.674  1.00  0.00     0.003 C 
HETATM   21  C18 UNL     1       8.991  20.046   0.454  1.00  0.00     0.041 C 
HETATM   22  C19 UNL     1       9.590  18.716   0.823  1.00  0.00     0.117 C 
HETATM   23  C20 UNL     1       8.526  17.695   0.809  1.00  0.00     0.049 C 
HETATM   24  C21 UNL     1       7.676  17.438   1.964  1.00  0.00     0.080 C 
HETATM   25  C22 UNL     1       8.122  17.852   3.289  1.00  0.00     0.087 C 
HETATM   26  N3  UNL     1       7.494  17.411   4.317  1.00  0.00    -0.298 N 
ATOM     27  H3  UNL     1       6.699  16.782   4.209  1.00  0.00     0.172 HD
HETATM   28  C23 UNL     1       7.928  17.816   5.608  1.00  0.00     0.323 C 
HETATM   29  O6  UNL     1       7.316  18.699   6.252  1.00  0.00    -0.247 OA
HETATM   30  N4  UNL     1       9.069  17.213   6.175  1.00  0.00    -0.334 N 
HETATM   31  C24 UNL     1       9.918  16.181   5.618  1.00  0.00     0.127 C 
HETATM   32  C25 UNL     1      10.379  15.391   6.829  1.00  0.00     0.022 C 
HETATM   33  C26 UNL     1       9.829  16.120   8.046  1.00  0.00     0.022 C 
HETATM   34  C27 UNL     1       9.637  17.522   7.471  1.00  0.00     0.127 C 
HETATM   35  N5  UNL     1       9.235  18.728   3.365  1.00  0.00    -0.314 N 
ATOM     36  H5  UNL     1       9.433  19.223   4.234  1.00  0.00     0.170 HD
HETATM   37  C28 UNL     1      10.069  18.917   2.245  1.00  0.00     0.251 C 
HETATM   38  O7  UNL     1      11.271  19.274   2.488  1.00  0.00    -0.270 OA
ENDROOT
BRANCH   5  39
HETATM   39  C4  UNL     1      10.921  18.295  -2.404  1.00  0.00     0.247 C 
HETATM   40  O2  UNL     1      11.631  18.583  -3.438  1.00  0.00    -0.283 OA
BRANCH  39  41
HETATM   41  C5  UNL     1       9.955  17.253  -2.610  1.00  0.00     0.249 C 
HETATM   42  O3  UNL     1       8.702  17.356  -2.551  1.00  0.00    -0.642 OA
HETATM   43  O4  UNL     1      10.365  15.928  -2.916  1.00  0.00    -0.642 OA
ENDBRANCH  39  41
ENDBRANCH   5  39
TORSDOF 2
ENDMDL
MODEL 4
REMARK VINA RESULT: -7.268627152      2.407      3.314
REMARK  2 active torsions:
REMARK  status: ('A' for Active; 'I' for Inactive)
REMARK       I    between atoms: C2_2  and  N1_4 
REMARK    1  A    between atoms: C3_5  and  C4_6 
REMARK    2  A    between atoms: C4_6  and  C5_8 
REMARK       I    between atoms: N3_31  and  C23_33 
REMARK       I    between atoms: C23_33  and  N4_35 
ROOT
HETATM    1  C1  UNL     1      12.435  16.761  -0.507  1.00  0.00     0.117 C 
HETATM    2  C2  UNL     1      11.225  17.555  -0.331  1.00  0.00     0.217 C 
HETATM    3  O1  UNL     1      10.181  16.886   0.032  1.00  0.00    -0.274 OA
HETATM    4  N1  UNL     1      11.076  18.965  -0.518  1.00  0.00    -0.322 N 
HETATM    5  C3  UNL     1      12.233  19.764  -0.881  1.00  0.00     0.170 C 
HETATM    6  C6  UNL     1      13.384  19.686   0.045  1.00  0.00     0.034 C 
HETATM    7  C7  UNL     1      13.945  20.935   0.605  1.00  0.00     0.012 C 
HETATM    8  C8  UNL     1      13.354  22.236   0.233  1.00  0.00     0.103 C 
HETATM    9  C9  UNL     1      14.328  23.319   0.537  1.00  0.00     0.217 C 
HETATM   10  O5  UNL     1      15.492  23.012   0.890  1.00  0.00    -0.274 OA
HETATM   11  N2  UNL     1      14.007  24.703   0.450  1.00  0.00    -0.361 N 
ATOM     12  H2  UNL     1      14.737  25.379   0.225  1.00  0.00     0.162 HD
HETATM   13  C10 UNL     1      12.650  25.159   0.680  1.00  0.00     0.122 C 
HETATM   14  C11 UNL     1      11.899  25.394  -0.613  1.00  0.00     0.020 C 
HETATM   15  C12 UNL     1      10.545  25.982  -0.235  1.00  0.00     0.002 C 
HETATM   16  C13 UNL     1       9.481  25.662  -1.239  1.00  0.00     0.000 C 
HETATM   17  C14 UNL     1       8.674  24.437  -0.880  1.00  0.00     0.000 C 
HETATM   18  C15 UNL     1       8.237  23.748  -2.168  1.00  0.00     0.000 C 
HETATM   19  C16 UNL     1       8.199  22.250  -1.995  1.00  0.00     0.000 C 
HETATM   20  C17 UNL     1       9.574  21.658  -1.684  1.00  0.00     0.003 C 
HETATM   21  C18 UNL     1       9.646  20.992  -0.363  1.00  0.00     0.041 C 
HETATM   22  C19 UNL     1       9.720  19.489  -0.334  1.00  0.00     0.117 C 
HETATM   23  C20 UNL     1       8.756  18.947  -1.309  1.00  0.00     0.049 C 
HETATM   24  C21 UNL     1       7.357  18.712  -0.975  1.00  0.00     0.080 C 
HETATM   25  C22 UNL     1       6.966  18.584   0.423  1.00  0.00     0.087 C 
HETATM   26  N3  UNL     1       5.794  18.138   0.697  1.00  0.00    -0.298 N 
ATOM     27  H3  UNL     1       5.150  17.879  -0.050  1.00  0.00     0.172 HD
HETATM   28  C23 UNL     1       5.412  18.014   2.059  1.00  0.00     0.323 C 
HETATM   29  O6  UNL     1       4.658  18.855   2.603  1.00  0.00    -0.247 OA
HETATM   30  N4  UNL     1       5.889  16.924   2.816  1.00  0.00    -0.334 N 
HETATM   31  C24 UNL     1       6.757  15.844   2.397  1.00  0.00     0.127 C 
HETATM   32  C25 UNL     1       6.286  14.656   3.216  1.00  0.00     0.022 C 
HETATM   33  C26 UNL     1       5.217  15.187   4.158  1.00  0.00     0.022 C 
HETATM   34  C27 UNL     1       5.597  16.666   4.210  1.00  0.00     0.127 C 
HETATM   35  N5  UNL     1       7.912  18.962   1.410  1.00  0.00    -0.314 N 
ATOM     36  H5  UNL     1       7.610  19.111   2.372  1.00  0.00     0.170 HD
HETATM   37  C28 UNL     1       9.268  19.132   1.066  1.00  0.00     0.251 C 
HETATM   38  O7  UNL     1      10.115  18.969   2.008  1.00  0.00    -0.270 OA
ENDROOT
BRANCH   5  39
HETATM   39  C4  UNL     1      12.656  19.486  -2.269  1.00  0.00     0.247 C 
HETATM   40  O2  UNL     1      11.723  19.238  -3.120  1.00  0.00    -0.283 OA
BRANCH  39  41
HETATM   41  C5  UNL     1      13.986  19.454  -2.809  1.00  0.00     0.249 C 
HETATM   42  O3  UNL     1      14.689  18.434  -3.037  1.00  0.00    -0.642 OA
HETATM   43  O4  UNL     1      14.664  20.654  -3.152  1.00  0.00    -0.642 OA
ENDBRANCH  39  41
ENDBRANCH   5  39
TORSDOF 2
ENDMDL
MODEL 5
REMARK VINA RESULT: -7.083113763      5.760      8.620
REMARK  2 active torsions:
REMARK  status: ('A' for Active; 'I' for Inactive)
REMARK       I    between atoms: C2_2  and  N1_4 
REMARK    1  A    between atoms: C3_5  and  C4_6 
REMARK    2  A    between atoms: C4_6  and  C5_8 
REMARK       I    between atoms: N3_31  and  C23_33 
REMARK       I    between atoms: C23_33  and  N4_35 
ROOT
HETATM    1  C1  UNL     1      15.007  26.556  -1.869  1.00  0.00     0.117 C 
HETATM    2  C2  UNL     1      14.575  25.288  -1.294  1.00  0.00     0.217 C 
HETATM    3  O1  UNL     1      15.491  24.636  -0.658  1.00  0.00    -0.274 OA
HETATM    4  N1  UNL     1      13.271  24.703  -1.361  1.00  0.00    -0.322 N 
HETATM    5  C3  UNL     1      12.200  25.422  -2.027  1.00  0.00     0.170 C 
HETATM    6  C6  UNL     1      11.913  26.776  -1.504  1.00  0.00     0.034 C 
HETATM    7  C7  UNL     1      10.533  27.112  -1.089  1.00  0.00     0.012 C 
HETATM    8  C8  UNL     1       9.466  26.098  -1.201  1.00  0.00     0.103 C 
HETATM    9  C9  UNL     1       8.142  26.777  -1.163  1.00  0.00     0.217 C 
HETATM   10  O5  UNL     1       8.098  28.029  -1.200  1.00  0.00    -0.274 OA
HETATM   11  N2  UNL     1       6.908  26.073  -1.084  1.00  0.00    -0.361 N 
ATOM     12  H2  UNL     1       6.066  26.479  -1.492  1.00  0.00     0.162 HD
HETATM   13  C10 UNL     1       6.837  24.782  -0.427  1.00  0.00     0.122 C 
HETATM   14  C11 UNL     1       6.878  23.635  -1.415  1.00  0.00     0.020 C 
HETATM   15  C12 UNL     1       6.674  22.356  -0.612  1.00  0.00     0.002 C 
HETATM   16  C13 UNL     1       7.321  21.168  -1.253  1.00  0.00     0.000 C 
HETATM   17  C14 UNL     1       8.705  20.885  -0.718  1.00  0.00     0.000 C 
HETATM   18  C15 UNL     1       9.545  20.282  -1.839  1.00  0.00     0.000 C 
HETATM   19  C16 UNL     1      10.986  20.717  -1.731  1.00  0.00     0.000 C 
HETATM   20  C17 UNL     1      11.157  22.229  -1.886  1.00  0.00     0.003 C 
HETATM   21  C18 UNL     1      11.718  22.887  -0.682  1.00  0.00     0.041 C 
HETATM   22  C19 UNL     1      13.137  23.380  -0.746  1.00  0.00     0.117 C 
HETATM   23  C20 UNL     1      13.969  22.353  -1.399  1.00  0.00     0.049 C 
HETATM   24  C21 UNL     1      14.569  21.249  -0.663  1.00  0.00     0.080 C 
HETATM   25  C22 UNL     1      14.739  21.359   0.781  1.00  0.00     0.087 C 
HETATM   26  N3  UNL     1      15.480  20.501   1.381  1.00  0.00    -0.298 N 
ATOM     27  H3  UNL     1      15.941  19.757   0.859  1.00  0.00     0.172 HD
HETATM   28  C23 UNL     1      15.645  20.608   2.788  1.00  0.00     0.323 C 
HETATM   29  O6  UNL     1      15.024  19.856   3.575  1.00  0.00    -0.247 OA
HETATM   30  N4  UNL     1      16.525  21.578   3.311  1.00  0.00    -0.334 N 
HETATM   31  C24 UNL     1      17.338  22.539   2.597  1.00  0.00     0.127 C 
HETATM   32  C25 UNL     1      18.573  22.693   3.466  1.00  0.00     0.022 C 
HETATM   33  C26 UNL     1      18.318  21.863   4.715  1.00  0.00     0.022 C 
HETATM   34  C27 UNL     1      16.792  21.814   4.714  1.00  0.00     0.127 C 
HETATM   35  N5  UNL     1      14.069  22.419   1.444  1.00  0.00    -0.314 N 
ATOM     36  H5  UNL     1      13.967  22.399   2.459  1.00  0.00     0.170 HD
HETATM   37  C28 UNL     1      13.544  23.499   0.708  1.00  0.00     0.251 C 
HETATM   38  O7  UNL     1      13.423  24.606   1.334  1.00  0.00    -0.270 OA
ENDROOT
BRANCH   5  39
HETATM   39  C4  UNL     1      12.410  25.456  -3.489  1.00  0.00     0.247 C 
HETATM   40  O2  UNL     1      13.105  24.500  -3.996  1.00  0.00    -0.283 OA
BRANCH  39  41
HETATM   41  C5  UNL     1      11.938  26.426  -4.437  1.00  0.00     0.249 C 
HETATM   42  O3  UNL     1      12.637  27.159  -5.185  1.00  0.00    -0.642 OA
HETATM   43  O4  UNL     1      10.548  26.653  -4.619  1.00  0.00    -0.642 OA
ENDBRANCH  39  41
ENDBRANCH   5  39
TORSDOF 2
ENDMDL
