MODEL 1
REMARK VINA RESULT: -7.229377498      0.000      0.000
REMARK  3 active torsions:
REMARK  status: ('A' for Active; 'I' for Inactive)
REMARK    1  A    between atoms: N1_1  and  C1_5 
REMARK    2  A    between atoms: C4_10  and  C5_11 
REMARK       I    between atoms: C5_11  and  N2_13 
REMARK    3  A    between atoms: C11_21  and  O2_22 
ROOT
HETATM    1  C1  UNL     1      12.850  22.605  -2.144  1.00  0.00     0.262 C 
HETATM    2  C2  UNL     1      13.386  21.656  -1.117  1.00  0.00     0.127 C 
HETATM    3  S1  UNL     1      13.886  20.094  -1.880  1.00  0.00    -0.095 SA
HETATM    4  S2  UNL     1      12.400  18.613  -1.493  1.00  0.00    -0.095 SA
HETATM    5  C3  UNL     1      10.754  19.225  -1.968  1.00  0.00     0.120 C 
HETATM    6  C4  UNL     1       9.974  18.148  -2.577  1.00  0.00     0.185 C 
HETATM    7  N3  UNL     1       8.641  17.936  -2.094  1.00  0.00    -0.358 N 
ATOM      8  H3  UNL     1       8.275  17.023  -2.366  1.00  0.00     0.162 HD
HETATM    9  C11 UNL     1       7.727  18.664  -1.347  1.00  0.00     0.141 C 
HETATM   10  C12 UNL     1       7.629  19.018   0.077  1.00  0.00     0.097 C 
HETATM   11  C13 UNL     1       6.198  18.685   0.598  1.00  0.00     0.040 C 
HETATM   12  C14 UNL     1       6.285  17.300   1.149  1.00  0.00     0.003 C 
HETATM   13  C15 UNL     1       7.732  17.016   1.442  1.00  0.00     0.003 C 
HETATM   14  C16 UNL     1       8.509  18.206   0.999  1.00  0.00     0.040 C 
HETATM   15  N4  UNL     1       7.797  20.390   0.421  1.00  0.00    -0.343 N 
ATOM     16  H4  UNL     1       7.668  20.566   1.418  1.00  0.00     0.163 HD
HETATM   17  C17 UNL     1       8.094  21.536  -0.290  1.00  0.00     0.244 C 
HETATM   18  O3  UNL     1       9.125  22.185   0.157  1.00  0.00    -0.272 OA
HETATM   19  C18 UNL     1       7.447  22.139  -1.453  1.00  0.00     0.339 C 
HETATM   20  N5  UNL     1       7.756  23.586  -1.558  1.00  0.00    -0.059 N 
HETATM   21  C19 UNL     1       7.435  24.211  -0.338  1.00  0.00     0.238 C 
HETATM   22  C20 UNL     1       6.222  25.122  -0.550  1.00  0.00     0.029 C 
HETATM   23  C21 UNL     1       6.362  25.438  -2.032  1.00  0.00     0.029 C 
HETATM   24  C22 UNL     1       6.781  24.079  -2.552  1.00  0.00     0.238 C 
HETATM   25  C23 UNL     1       9.038  23.797  -2.128  1.00  0.00     0.238 C 
HETATM   26  C24 UNL     1       9.899  24.856  -1.549  1.00  0.00     0.035 C 
HETATM   27  C25 UNL     1      11.286  24.697  -2.204  1.00  0.00     0.082 C 
HETATM   28  C26 UNL     1      12.109  23.712  -1.457  1.00  0.00     0.158 C 
HETATM   29  O4  UNL     1      12.173  23.820  -0.246  1.00  0.00    -0.296 OA
ENDROOT
BRANCH   6  30
HETATM   30  C5  UNL     1      10.729  16.870  -2.450  1.00  0.00     0.243 C 
HETATM   31  O1  UNL     1      10.702  16.256  -1.325  1.00  0.00    -0.271 OA
HETATM   32  N2  UNL     1      11.448  16.354  -3.542  1.00  0.00    -0.350 N 
HETATM   33  C6  UNL     1      11.548  16.910  -4.863  1.00  0.00     0.126 C 
HETATM   34  C10 UNL     1      12.196  15.099  -3.347  1.00  0.00     0.126 C 
HETATM   35  C7  UNL     1      10.845  15.915  -5.794  1.00  0.00     0.020 C 
HETATM   36  C8  UNL     1      10.475  14.649  -5.073  1.00  0.00     0.003 C 
HETATM   37  C9  UNL     1      11.691  14.113  -4.369  1.00  0.00     0.020 C 
ENDBRANCH   6  30
BRANCH   9  38
HETATM   38  O2  UNL     1       6.713  19.160  -2.008  1.00  0.00    -0.348 OA
ATOM     39  H2  UNL     1       5.986  19.471  -1.483  1.00  0.00     0.219 HD
ENDBRANCH   9  38
BRANCH   1  40
HETATM   40  N1  UNL     1      13.960  23.163  -2.931  1.00  0.00    -0.068 N 
ATOM     41  H13 UNL     1      13.755  24.104  -3.269  1.00  0.00     0.275 HD
ATOM     42  H12 UNL     1      14.767  23.387  -2.351  1.00  0.00     0.275 HD
ATOM     43  H11 UNL     1      14.198  22.526  -3.691  1.00  0.00     0.275 HD
ENDBRANCH   1  40
TORSDOF 3
ENDMDL
MODEL 2
REMARK VINA RESULT: -7.208856499      2.968      6.608
REMARK  3 active torsions:
REMARK  status: ('A' for Active; 'I' for Inactive)
REMARK    1  A    between atoms: N1_1  and  C1_5 
REMARK    2  A    between atoms: C4_10  and  C5_11 
REMARK       I    between atoms: C5_11  and  N2_13 
REMARK    3  A    between atoms: C11_21  and  O2_22 
ROOT
HETATM    1  C1  UNL     1       8.031  18.319   0.321  1.00  0.00     0.262 C 
HETATM    2  C2  UNL     1       8.953  17.538  -0.565  1.00  0.00     0.127 C 
HETATM    3  S1  UNL     1      10.369  16.913   0.370  1.00  0.00    -0.095 SA
HETATM    4  S2  UNL     1      12.079  18.119  -0.052  1.00  0.00    -0.095 SA
HETATM    5  C3  UNL     1      11.692  19.879   0.195  1.00  0.00     0.120 C 
HETATM    6  C4  UNL     1      12.832  20.564   0.804  1.00  0.00     0.185 C 
HETATM    7  N3  UNL     1      13.273  21.788   0.200  1.00  0.00    -0.358 N 
ATOM      8  H3  UNL     1      14.211  22.050   0.505  1.00  0.00     0.162 HD
HETATM    9  C11 UNL     1      12.739  22.703  -0.694  1.00  0.00     0.141 C 
HETATM   10  C12 UNL     1      12.496  22.684  -2.144  1.00  0.00     0.097 C 
HETATM   11  C13 UNL     1      13.072  23.983  -2.786  1.00  0.00     0.040 C 
HETATM   12  C14 UNL     1      14.460  23.637  -3.211  1.00  0.00     0.003 C 
HETATM   13  C15 UNL     1      14.542  22.140  -3.326  1.00  0.00     0.003 C 
HETATM   14  C16 UNL     1      13.224  21.597  -2.901  1.00  0.00     0.040 C 
HETATM   15  N4  UNL     1      11.138  22.674  -2.579  1.00  0.00    -0.343 N 
ATOM     16  H4  UNL     1      11.048  22.709  -3.594  1.00  0.00     0.163 HD
HETATM   17  C17 UNL     1       9.918  22.627  -1.934  1.00  0.00     0.244 C 
HETATM   18  O3  UNL     1       9.152  21.654  -2.320  1.00  0.00    -0.272 OA
HETATM   19  C18 UNL     1       9.346  23.483  -0.898  1.00  0.00     0.339 C 
HETATM   20  N5  UNL     1       7.865  23.398  -0.877  1.00  0.00    -0.059 N 
HETATM   21  C19 UNL     1       7.374  23.660  -2.170  1.00  0.00     0.238 C 
HETATM   22  C20 UNL     1       6.644  25.007  -2.161  1.00  0.00     0.029 C 
HETATM   23  C21 UNL     1       6.217  25.086  -0.704  1.00  0.00     0.029 C 
HETATM   24  C22 UNL     1       7.462  24.542  -0.035  1.00  0.00     0.238 C 
HETATM   25  C23 UNL     1       7.428  22.234  -0.194  1.00  0.00     0.238 C 
HETATM   26  C24 UNL     1       6.291  21.470  -0.762  1.00  0.00     0.035 C 
HETATM   27  C25 UNL     1       6.198  20.161   0.046  1.00  0.00     0.082 C 
HETATM   28  C26 UNL     1       7.094  19.125  -0.528  1.00  0.00     0.158 C 
HETATM   29  O4  UNL     1       7.055  18.937  -1.730  1.00  0.00    -0.296 OA
ENDROOT
BRANCH   6  30
HETATM   30  C5  UNL     1      13.988  19.625   0.859  1.00  0.00     0.243 C 
HETATM   31  O1  UNL     1      14.670  19.434  -0.209  1.00  0.00    -0.271 OA
HETATM   32  N2  UNL     1      14.319  18.972   2.060  1.00  0.00    -0.350 N 
HETATM   33  C6  UNL     1      13.672  19.107   3.335  1.00  0.00     0.126 C 
HETATM   34  C10 UNL     1      15.458  18.036   2.046  1.00  0.00     0.126 C 
HETATM   35  C7  UNL     1      14.700  19.765   4.263  1.00  0.00     0.020 C 
HETATM   36  C8  UNL     1      16.050  19.865   3.611  1.00  0.00     0.003 C 
HETATM   37  C9  UNL     1      16.441  18.511   3.085  1.00  0.00     0.020 C 
ENDBRANCH   6  30
BRANCH   9  38
HETATM   38  O2  UNL     1      12.359  23.847  -0.186  1.00  0.00    -0.348 OA
ATOM     39  H2  UNL     1      12.701  24.053   0.677  1.00  0.00     0.219 HD
ENDBRANCH   9  38
BRANCH   1  40
HETATM   40  N1  UNL     1       7.263  17.399   1.173  1.00  0.00    -0.068 N 
ATOM     41  H13 UNL     1       6.257  17.494   1.031  1.00  0.00     0.275 HD
ATOM     42  H12 UNL     1       7.363  16.429   0.878  1.00  0.00     0.275 HD
ATOM     43  H11 UNL     1       7.528  17.532   2.149  1.00  0.00     0.275 HD
ENDBRANCH   1  40
TORSDOF 3
ENDMDL
MODEL 3
REMARK VINA RESULT: -7.092932896      3.079      4.119
REMARK  3 active torsions:
REMARK  status: ('A' for Active; 'I' for Inactive)
REMARK    1  A    between atoms: N1_1  and  C1_5 
REMARK    2  A    between atoms: C4_10  and  C5_11 
REMARK       I    between atoms: C5_11  and  N2_13 
REMARK    3  A    between atoms: C11_21  and  O2_22 
ROOT
HETATM    1  C1  UNL     1      12.219  26.597  -0.694  1.00  0.00     0.262 C 
HETATM    2  C2  UNL     1      12.992  25.862   0.358  1.00  0.00     0.127 C 
HETATM    3  S1  UNL     1      14.443  25.052  -0.356  1.00  0.00    -0.095 SA
HETATM    4  S2  UNL     1      14.052  22.965  -0.569  1.00  0.00    -0.095 SA
HETATM    5  C3  UNL     1      12.488  22.699  -1.460  1.00  0.00     0.120 C 
HETATM    6  C4  UNL     1      12.616  21.561  -2.370  1.00  0.00     0.185 C 
HETATM    7  N3  UNL     1      11.590  20.559  -2.331  1.00  0.00    -0.358 N 
ATOM      8  H3  UNL     1      11.884  19.692  -2.782  1.00  0.00     0.162 HD
HETATM    9  C11 UNL     1      10.299  20.478  -1.833  1.00  0.00     0.141 C 
HETATM   10  C12 UNL     1       9.737  20.363  -0.479  1.00  0.00     0.097 C 
HETATM   11  C13 UNL     1       8.696  19.203  -0.444  1.00  0.00     0.040 C 
HETATM   12  C14 UNL     1       9.460  17.993  -0.019  1.00  0.00     0.003 C 
HETATM   13  C15 UNL     1      10.712  18.463   0.669  1.00  0.00     0.003 C 
HETATM   14  C16 UNL     1      10.722  19.949   0.589  1.00  0.00     0.040 C 
HETATM   15  N4  UNL     1       9.006  21.480   0.022  1.00  0.00    -0.343 N 
ATOM     16  H4  UNL     1       8.606  21.309   0.945  1.00  0.00     0.163 HD
HETATM   17  C17 UNL     1       8.716  22.741  -0.462  1.00  0.00     0.244 C 
HETATM   18  O3  UNL     1       9.066  23.705   0.331  1.00  0.00    -0.272 OA
HETATM   19  C18 UNL     1       8.083  23.169  -1.707  1.00  0.00     0.339 C 
HETATM   20  N5  UNL     1       7.508  24.531  -1.584  1.00  0.00    -0.059 N 
HETATM   21  C19 UNL     1       6.653  24.567  -0.467  1.00  0.00     0.238 C 
HETATM   22  C20 UNL     1       5.206  24.709  -0.952  1.00  0.00     0.029 C 
HETATM   23  C21 UNL     1       5.424  25.403  -2.288  1.00  0.00     0.029 C 
HETATM   24  C22 UNL     1       6.646  24.654  -2.777  1.00  0.00     0.238 C 
HETATM   25  C23 UNL     1       8.511  25.526  -1.720  1.00  0.00     0.238 C 
HETATM   26  C24 UNL     1       8.464  26.700  -0.817  1.00  0.00     0.035 C 
HETATM   27  C25 UNL     1       9.780  27.471  -1.035  1.00  0.00     0.082 C 
HETATM   28  C26 UNL     1      10.856  26.929  -0.166  1.00  0.00     0.158 C 
HETATM   29  O4  UNL     1      10.606  26.754   1.012  1.00  0.00    -0.296 OA
ENDROOT
BRANCH   6  30
HETATM   30  C5  UNL     1      13.929  20.897  -2.136  1.00  0.00     0.243 C 
HETATM   31  O1  UNL     1      14.015  20.033  -1.194  1.00  0.00    -0.271 OA
HETATM   32  N2  UNL     1      15.041  21.215  -2.935  1.00  0.00    -0.350 N 
HETATM   33  C6  UNL     1      15.091  22.134  -4.038  1.00  0.00     0.126 C 
HETATM   34  C10 UNL     1      16.320  20.543  -2.639  1.00  0.00     0.126 C 
HETATM   35  C7  UNL     1      15.357  21.283  -5.286  1.00  0.00     0.020 C 
HETATM   36  C8  UNL     1      15.661  19.856  -4.928  1.00  0.00     0.003 C 
HETATM   37  C9  UNL     1      16.755  19.832  -3.894  1.00  0.00     0.020 C 
ENDBRANCH   6  30
BRANCH   9  38
HETATM   38  O2  UNL     1       9.339  20.502  -2.721  1.00  0.00    -0.348 OA
ATOM     39  H2  UNL     1       8.652  19.856  -2.609  1.00  0.00     0.219 HD
ENDBRANCH   9  38
BRANCH   1  40
HETATM   40  N1  UNL     1      12.927  27.834  -1.058  1.00  0.00    -0.068 N 
ATOM     41  H13 UNL     1      13.397  28.256  -0.257  1.00  0.00     0.275 HD
ATOM     42  H12 UNL     1      13.749  27.651  -1.632  1.00  0.00     0.275 HD
ATOM     43  H11 UNL     1      12.280  28.481  -1.508  1.00  0.00     0.275 HD
ENDBRANCH   1  40
TORSDOF 3
ENDMDL
MODEL 4
REMARK VINA RESULT: -7.085092993      2.469      6.081
REMARK  3 active torsions:
REMARK  status: ('A' for Active; 'I' for Inactive)
REMARK    1  A    between atoms: N1_1  and  C1_5 
REMARK    2  A    between atoms: C4_10  and  C5_11 
REMARK       I    between atoms: C5_11  and  N2_13 
REMARK    3  A    between atoms: C11_21  and  O2_22 
ROOT
HETATM    1  C1  UNL     1       8.256  23.706  -0.366  1.00  0.00     0.262 C 
HETATM    2  C2  UNL     1       7.432  22.961  -1.371  1.00  0.00     0.127 C 
HETATM    3  S1  UNL     1       6.432  21.688  -0.567  1.00  0.00    -0.095 SA
HETATM    4  S2  UNL     1       7.328  19.779  -0.890  1.00  0.00    -0.095 SA
HETATM    5  C3  UNL     1       9.084  19.813  -0.414  1.00  0.00     0.120 C 
HETATM    6  C4  UNL     1       9.452  18.556   0.238  1.00  0.00     0.185 C 
HETATM    7  N3  UNL     1      10.635  17.889  -0.222  1.00  0.00    -0.358 N 
ATOM      8  H3  UNL     1      10.670  16.916   0.083  1.00  0.00     0.162 HD
HETATM    9  C11 UNL     1      11.743  18.240  -0.978  1.00  0.00     0.141 C 
HETATM   10  C12 UNL     1      11.958  18.493  -2.411  1.00  0.00     0.097 C 
HETATM   11  C13 UNL     1      13.192  17.679  -2.904  1.00  0.00     0.040 C 
HETATM   12  C14 UNL     1      12.642  16.388  -3.413  1.00  0.00     0.003 C 
HETATM   13  C15 UNL     1      11.185  16.601  -3.716  1.00  0.00     0.003 C 
HETATM   14  C16 UNL     1      10.856  17.997  -3.319  1.00  0.00     0.040 C 
HETATM   15  N4  UNL     1      12.265  19.829  -2.799  1.00  0.00    -0.343 N 
ATOM     16  H4  UNL     1      12.447  19.918  -3.799  1.00  0.00     0.163 HD
HETATM   17  C17 UNL     1      12.372  21.031  -2.127  1.00  0.00     0.244 C 
HETATM   18  O3  UNL     1      11.623  21.975  -2.606  1.00  0.00    -0.272 OA
HETATM   19  C18 UNL     1      13.183  21.417  -0.974  1.00  0.00     0.339 C 
HETATM   20  N5  UNL     1      13.382  22.886  -0.917  1.00  0.00    -0.059 N 
HETATM   21  C19 UNL     1      13.898  23.325  -2.151  1.00  0.00     0.238 C 
HETATM   22  C20 UNL     1      15.348  23.778  -1.951  1.00  0.00     0.029 C 
HETATM   23  C21 UNL     1      15.321  24.171  -0.482  1.00  0.00     0.029 C 
HETATM   24  C22 UNL     1      14.465  23.052   0.073  1.00  0.00     0.238 C 
HETATM   25  C23 UNL     1      12.247  23.537  -0.370  1.00  0.00     0.238 C 
HETATM   26  C24 UNL     1      11.796  24.805  -0.992  1.00  0.00     0.035 C 
HETATM   27  C25 UNL     1      10.437  25.146  -0.351  1.00  0.00     0.082 C 
HETATM   28  C26 UNL     1       9.330  24.474  -1.078  1.00  0.00     0.158 C 
HETATM   29  O4  UNL     1       9.308  24.558  -2.292  1.00  0.00    -0.296 OA
ENDROOT
BRANCH   6  30
HETATM   30  C5  UNL     1       8.309  17.605   0.140  1.00  0.00     0.243 C 
HETATM   31  O1  UNL     1       8.024  17.112  -1.008  1.00  0.00    -0.271 OA
HETATM   32  N2  UNL     1       7.568  17.260   1.284  1.00  0.00    -0.350 N 
HETATM   33  C6  UNL     1       7.785  17.706   2.633  1.00  0.00     0.126 C 
HETATM   34  C10 UNL     1       6.433  16.334   1.119  1.00  0.00     0.126 C 
HETATM   35  C7  UNL     1       8.206  16.463   3.425  1.00  0.00     0.020 C 
HETATM   36  C8  UNL     1       8.067  15.210   2.606  1.00  0.00     0.003 C 
HETATM   37  C9  UNL     1       6.679  15.156   2.026  1.00  0.00     0.020 C 
ENDBRANCH   6  30
BRANCH   9  38
HETATM   38  O2  UNL     1      12.864  18.385  -0.320  1.00  0.00    -0.348 OA
ATOM     39  H2  UNL     1      13.461  17.646  -0.346  1.00  0.00     0.219 HD
ENDBRANCH   9  38
BRANCH   1  40
HETATM   40  N1  UNL     1       7.400  24.633   0.390  1.00  0.00    -0.068 N 
ATOM     41  H13 UNL     1       6.464  24.256   0.538  1.00  0.00     0.275 HD
ATOM     42  H12 UNL     1       7.685  24.710   1.365  1.00  0.00     0.275 HD
ATOM     43  H11 UNL     1       7.379  25.540  -0.076  1.00  0.00     0.275 HD
ENDBRANCH   1  40
TORSDOF 3
ENDMDL
MODEL 5
REMARK VINA RESULT: -6.909552813      5.931      8.724
REMARK  3 active torsions:
REMARK  status: ('A' for Active; 'I' for Inactive)
REMARK    1  A    between atoms: N1_1  and  C1_5 
REMARK    2  A    between atoms: C4_10  and  C5_11 
REMARK       I    between atoms: C5_11  and  N2_13 
REMARK    3  A    between atoms: C11_21  and  O2_22 
ROOT
HETATM    1  C1  UNL     1      10.680  14.852   4.491  1.00  0.00     0.262 C 
HETATM    2  C2  UNL     1       9.896  14.933   5.764  1.00  0.00     0.127 C 
HETATM    3  S1  UNL     1       9.215  13.316   6.205  1.00  0.00    -0.095 SA
HETATM    4  S2  UNL     1       7.138  13.269   5.720  1.00  0.00    -0.095 SA
HETATM    5  C3  UNL     1       6.877  13.785   3.995  1.00  0.00     0.120 C 
HETATM    6  C4  UNL     1       5.826  12.974   3.381  1.00  0.00     0.185 C 
HETATM    7  N3  UNL     1       4.779  13.659   2.681  1.00  0.00    -0.358 N 
ATOM      8  H3  UNL     1       3.967  13.061   2.525  1.00  0.00     0.162 HD
HETATM    9  C11 UNL     1       4.598  14.932   2.164  1.00  0.00     0.141 C 
HETATM   10  C12 UNL     1       4.344  16.249   2.768  1.00  0.00     0.097 C 
HETATM   11  C13 UNL     1       3.139  16.928   2.050  1.00  0.00     0.040 C 
HETATM   12  C14 UNL     1       1.934  16.547   2.844  1.00  0.00     0.003 C 
HETATM   13  C15 UNL     1       2.401  16.141   4.214  1.00  0.00     0.003 C 
HETATM   14  C16 UNL     1       3.887  16.214   4.208  1.00  0.00     0.040 C 
HETATM   15  N4  UNL     1       5.380  17.223   2.671  1.00  0.00    -0.343 N 
ATOM     16  H4  UNL     1       5.114  18.124   3.069  1.00  0.00     0.163 HD
HETATM   17  C17 UNL     1       6.663  17.222   2.158  1.00  0.00     0.244 C 
HETATM   18  O3  UNL     1       7.572  17.588   3.006  1.00  0.00    -0.272 OA
HETATM   19  C18 UNL     1       7.164  16.881   0.829  1.00  0.00     0.339 C 
HETATM   20  N5  UNL     1       8.484  17.507   0.568  1.00  0.00    -0.059 N 
HETATM   21  C19 UNL     1       8.387  18.891   0.805  1.00  0.00     0.238 C 
HETATM   22  C20 UNL     1       8.503  19.633  -0.531  1.00  0.00     0.029 C 
HETATM   23  C21 UNL     1       9.316  18.632  -1.339  1.00  0.00     0.029 C 
HETATM   24  C22 UNL     1       8.667  17.341  -0.888  1.00  0.00     0.238 C 
HETATM   25  C23 UNL     1       9.531  16.772   1.182  1.00  0.00     0.238 C 
HETATM   26  C24 UNL     1      10.622  17.523   1.847  1.00  0.00     0.035 C 
HETATM   27  C25 UNL     1      11.468  16.483   2.608  1.00  0.00     0.082 C 
HETATM   28  C26 UNL     1      10.905  16.236   3.960  1.00  0.00     0.158 C 
HETATM   29  O4  UNL     1      10.620  17.200   4.646  1.00  0.00    -0.296 OA
ENDROOT
BRANCH   6  30
HETATM   30  C5  UNL     1       5.205  12.112   4.427  1.00  0.00     0.243 C 
HETATM   31  O1  UNL     1       4.343  12.637   5.216  1.00  0.00    -0.271 OA
HETATM   32  N2  UNL     1       5.560  10.756   4.537  1.00  0.00    -0.350 N 
HETATM   33  C6  UNL     1       6.482  10.025   3.713  1.00  0.00     0.126 C 
HETATM   34  C10 UNL     1       4.931   9.961   5.607  1.00  0.00     0.126 C 
HETATM   35  C7  UNL     1       5.642   8.989   2.956  1.00  0.00     0.020 C 
HETATM   36  C8  UNL     1       4.225   8.954   3.455  1.00  0.00     0.003 C 
HETATM   37  C9  UNL     1       4.236   8.796   4.951  1.00  0.00     0.020 C 
ENDBRANCH   6  30
BRANCH   9  38
HETATM   38  O2  UNL     1       4.652  15.035   0.861  1.00  0.00    -0.348 OA
ATOM     39  H2  UNL     1       3.842  15.280   0.429  1.00  0.00     0.219 HD
ENDBRANCH   9  38
BRANCH   1  40
HETATM   40  N1  UNL     1      11.974  14.201   4.745  1.00  0.00    -0.068 N 
ATOM     41  H13 UNL     1      11.894  13.184   4.768  1.00  0.00     0.275 HD
ATOM     42  H12 UNL     1      12.606  14.281   3.949  1.00  0.00     0.275 HD
ATOM     43  H11 UNL     1      12.385  14.574   5.600  1.00  0.00     0.275 HD
ENDBRANCH   1  40
TORSDOF 3
ENDMDL
