MODEL 1
REMARK VINA RESULT: -9.346099723      0.000      0.000
REMARK  5 active torsions:
REMARK  status: ('A' for Active; 'I' for Inactive)
REMARK    1  A    between atoms: N1_1  and  C1_5 
REMARK    2  A    between atoms: C1_5  and  N2_6 
REMARK    3  A    between atoms: C1_5  and  C24_34 
REMARK    4  A    between atoms: N2_6  and  C2_8 
REMARK    5  A    between atoms: C12_21  and  C13_22 
ROOT
HETATM    1  C2  UNL     1       7.984  19.075   0.142  1.00  0.00     0.147 A 
HETATM    2  N3  UNL     1       9.012  19.889   0.382  1.00  0.00    -0.339 N 
ATOM      3  H3  UNL     1       9.788  19.587   0.972  1.00  0.00     0.168 HD
HETATM    4  C3  UNL     1       9.008  21.088  -0.157  1.00  0.00     0.030 A 
HETATM    5  C4  UNL     1       7.931  21.426  -0.939  1.00  0.00     0.038 A 
HETATM    6  S1  UNL     1       6.978  20.021  -0.870  1.00  0.00    -0.052 SA
HETATM    7  C5  UNL     1       8.079  22.779  -1.444  1.00  0.00    -0.019 C 
HETATM    8  C6  UNL     1       7.533  23.862  -1.883  1.00  0.00    -0.017 A 
HETATM    9  C7  UNL     1       6.183  24.128  -2.065  1.00  0.00     0.013 A 
HETATM   10  C8  UNL     1       5.805  25.395  -2.438  1.00  0.00     0.001 A 
HETATM   11  C9  UNL     1       6.760  26.366  -2.623  1.00  0.00     0.001 A 
HETATM   12  C10 UNL     1       8.103  26.107  -2.443  1.00  0.00     0.012 A 
HETATM   13  C11 UNL     1       8.524  24.846  -2.068  1.00  0.00    -0.021 A 
HETATM   14  C12 UNL     1       9.731  24.299  -1.820  1.00  0.00    -0.042 C 
HETATM   15  C22 UNL     1       9.609  22.901  -1.520  1.00  0.00     0.058 C 
HETATM   16  C23 UNL     1       9.894  22.329  -0.189  1.00  0.00     0.072 C 
ENDROOT
BRANCH   1  17
HETATM   17  N2  UNL     1       7.805  17.848   0.585  1.00  0.00    -0.341 N 
ATOM     18  H2  UNL     1       8.402  17.072   0.298  1.00  0.00     0.163 HD
BRANCH  17  19
HETATM   19  C1  UNL     1       6.702  17.678   1.508  1.00  0.00     0.320 C 
BRANCH  19  20
HETATM   20  N1  UNL     1       7.081  17.990   2.849  1.00  0.00    -0.055 N 
ATOM     21  H13 UNL     1       8.086  17.884   2.985  1.00  0.00     0.276 HD
ATOM     22  H12 UNL     1       6.999  18.989   3.035  1.00  0.00     0.276 HD
ATOM     23  H11 UNL     1       6.554  17.441   3.528  1.00  0.00     0.276 HD
ENDBRANCH  19  20
BRANCH  19  24
HETATM   24  C24 UNL     1       6.224  16.228   1.475  1.00  0.00     0.240 C 
HETATM   25  O1  UNL     1       4.826  16.221   1.345  1.00  0.00    -0.333 OA
HETATM   26  C25 UNL     1       3.971  16.163   2.414  1.00  0.00     0.096 A 
HETATM   27  C26 UNL     1       2.619  16.520   2.293  1.00  0.00     0.039 A 
HETATM   28  C30 UNL     1       4.429  15.751   3.637  1.00  0.00     0.066 A 
HETATM   29  C27 UNL     1       1.795  16.451   3.381  1.00  0.00     0.003 A 
HETATM   30  C28 UNL     1       2.241  16.038   4.616  1.00  0.00     0.002 A 
HETATM   31  C29 UNL     1       3.577  15.692   4.708  1.00  0.00     0.032 A 
HETATM   32  N4  UNL     1       5.794  15.387   3.773  1.00  0.00    -0.346 N 
HETATM   33  C31 UNL     1       6.684  15.454   2.637  1.00  0.00     0.111 C 
ATOM     34  H4  UNL     1       6.149  15.078   4.678  1.00  0.00     0.167 HD
HETATM   35  S3  UNL     1       8.104  14.674   2.743  1.00  0.00    -0.062 SA
ENDBRANCH  19  24
ENDBRANCH  17  19
ENDBRANCH   1  17
BRANCH  14  36
HETATM   36  C13 UNL     1      10.982  25.135  -1.936  1.00  0.00     0.105 A 
HETATM   37  C14 UNL     1      11.155  25.888  -0.691  1.00  0.00     0.005 A 
HETATM   38  C15 UNL     1      12.129  25.905   0.160  1.00  0.00    -0.028 A 
HETATM   39  C16 UNL     1      12.000  26.751   1.283  1.00  0.00     0.012 A 
HETATM   40  C20 UNL     1      13.272  25.174   0.068  1.00  0.00    -0.020 A 
HETATM   41  C17 UNL     1      12.960  26.860   2.258  1.00  0.00     0.001 A 
HETATM   42  C18 UNL     1      14.101  26.123   2.154  1.00  0.00     0.001 A 
HETATM   43  C19 UNL     1      14.247  25.294   1.072  1.00  0.00     0.012 A 
HETATM   44  C21 UNL     1      13.560  24.339  -0.904  1.00  0.00     0.058 A 
HETATM   45  S2  UNL     1      12.420  24.094  -2.229  1.00  0.00    -0.127 SA
ENDBRANCH  14  36
TORSDOF 5
ENDMDL
MODEL 2
REMARK VINA RESULT: -9.262567823      2.369      3.827
REMARK  5 active torsions:
REMARK  status: ('A' for Active; 'I' for Inactive)
REMARK    1  A    between atoms: N1_1  and  C1_5 
REMARK    2  A    between atoms: C1_5  and  N2_6 
REMARK    3  A    between atoms: C1_5  and  C24_34 
REMARK    4  A    between atoms: N2_6  and  C2_8 
REMARK    5  A    between atoms: C12_21  and  C13_22 
ROOT
HETATM    1  C2  UNL     1       8.085  16.358   0.488  1.00  0.00     0.147 A 
HETATM    2  N3  UNL     1       7.221  17.349   0.271  1.00  0.00    -0.339 N 
ATOM      3  H3  UNL     1       6.216  17.189   0.344  1.00  0.00     0.168 HD
HETATM    4  C3  UNL     1       7.689  18.538  -0.038  1.00  0.00     0.030 A 
HETATM    5  C4  UNL     1       9.052  18.680  -0.119  1.00  0.00     0.038 A 
HETATM    6  S1  UNL     1       9.602  17.115   0.249  1.00  0.00    -0.052 SA
HETATM    7  C5  UNL     1       9.398  20.044  -0.478  1.00  0.00    -0.019 C 
HETATM    8  C6  UNL     1      10.231  20.869  -1.012  1.00  0.00    -0.017 A 
HETATM    9  C7  UNL     1      11.463  20.590  -1.590  1.00  0.00     0.013 A 
HETATM   10  C8  UNL     1      12.147  21.608  -2.208  1.00  0.00     0.001 A 
HETATM   11  C9  UNL     1      11.605  22.872  -2.244  1.00  0.00     0.001 A 
HETATM   12  C10 UNL     1      10.382  23.154  -1.673  1.00  0.00     0.012 A 
HETATM   13  C11 UNL     1       9.663  22.158  -1.042  1.00  0.00    -0.021 A 
HETATM   14  C12 UNL     1       8.474  22.122  -0.408  1.00  0.00    -0.042 C 
HETATM   15  C22 UNL     1       8.219  20.817   0.132  1.00  0.00     0.058 C 
HETATM   16  C23 UNL     1       7.151  19.927  -0.366  1.00  0.00     0.072 C 
ENDROOT
BRANCH   1  17
HETATM   17  N2  UNL     1       7.816  15.108   0.806  1.00  0.00    -0.341 N 
ATOM     18  H2  UNL     1       8.256  14.318   0.334  1.00  0.00     0.163 HD
BRANCH  17  19
HETATM   19  C1  UNL     1       6.852  14.935   1.873  1.00  0.00     0.320 C 
BRANCH  19  20
HETATM   20  N1  UNL     1       7.342  14.061   2.892  1.00  0.00    -0.055 N 
ATOM     21  H13 UNL     1       8.359  14.002   2.872  1.00  0.00     0.276 HD
ATOM     22  H12 UNL     1       7.223  14.470   3.819  1.00  0.00     0.276 HD
ATOM     23  H11 UNL     1       6.914  13.137   2.835  1.00  0.00     0.276 HD
ENDBRANCH  19  20
BRANCH  19  24
HETATM   24  C24 UNL     1       5.566  14.333   1.311  1.00  0.00     0.240 C 
HETATM   25  O1  UNL     1       4.604  15.350   1.208  1.00  0.00    -0.333 OA
HETATM   26  C25 UNL     1       3.690  15.625   2.191  1.00  0.00     0.096 A 
HETATM   27  C26 UNL     1       2.998  16.844   2.231  1.00  0.00     0.039 A 
HETATM   28  C30 UNL     1       3.434  14.698   3.166  1.00  0.00     0.066 A 
HETATM   29  C27 UNL     1       2.094  17.084   3.227  1.00  0.00     0.003 A 
HETATM   30  C28 UNL     1       1.826  16.162   4.214  1.00  0.00     0.002 A 
HETATM   31  C29 UNL     1       2.521  14.968   4.151  1.00  0.00     0.032 A 
HETATM   32  N4  UNL     1       4.127  13.459   3.138  1.00  0.00    -0.346 N 
HETATM   33  C31 UNL     1       5.088  13.185   2.095  1.00  0.00     0.111 C 
ATOM     34  H4  UNL     1       3.946  12.760   3.858  1.00  0.00     0.167 HD
HETATM   35  S3  UNL     1       5.553  11.644   1.882  1.00  0.00    -0.062 SA
ENDBRANCH  19  24
ENDBRANCH  17  19
ENDBRANCH   1  17
BRANCH  14  36
HETATM   36  C13 UNL     1       7.636  23.373  -0.295  1.00  0.00     0.105 A 
HETATM   37  C14 UNL     1       8.479  24.452   0.225  1.00  0.00     0.005 A 
HETATM   38  C15 UNL     1       8.781  25.606  -0.273  1.00  0.00    -0.028 A 
HETATM   39  C16 UNL     1       9.632  26.441   0.482  1.00  0.00     0.012 A 
HETATM   40  C20 UNL     1       8.348  26.089  -1.469  1.00  0.00    -0.020 A 
HETATM   41  C17 UNL     1      10.028  27.688   0.065  1.00  0.00     0.001 A 
HETATM   42  C18 UNL     1       9.588  28.160  -1.134  1.00  0.00     0.001 A 
HETATM   43  C19 UNL     1       8.760  27.365  -1.885  1.00  0.00     0.012 A 
HETATM   44  C21 UNL     1       7.555  25.451  -2.299  1.00  0.00     0.058 A 
HETATM   45  S2  UNL     1       6.964  23.837  -1.898  1.00  0.00    -0.127 SA
ENDBRANCH  14  36
TORSDOF 5
ENDMDL
MODEL 3
REMARK VINA RESULT: -9.112852317      2.925     11.136
REMARK  5 active torsions:
REMARK  status: ('A' for Active; 'I' for Inactive)
REMARK    1  A    between atoms: N1_1  and  C1_5 
REMARK    2  A    between atoms: C1_5  and  N2_6 
REMARK    3  A    between atoms: C1_5  and  C24_34 
REMARK    4  A    between atoms: N2_6  and  C2_8 
REMARK    5  A    between atoms: C12_21  and  C13_22 
ROOT
HETATM    1  C2  UNL     1       8.255  18.671  -0.077  1.00  0.00     0.147 A 
HETATM    2  N3  UNL     1       8.357  17.351   0.079  1.00  0.00    -0.339 N 
ATOM      3  H3  UNL     1       9.123  16.833  -0.352  1.00  0.00     0.168 HD
HETATM    4  C3  UNL     1       7.450  16.729   0.800  1.00  0.00     0.030 A 
HETATM    5  C4  UNL     1       6.448  17.490   1.349  1.00  0.00     0.038 A 
HETATM    6  S1  UNL     1       6.844  19.053   0.813  1.00  0.00    -0.052 SA
HETATM    7  C5  UNL     1       5.532  16.651   2.102  1.00  0.00    -0.019 C 
HETATM    8  C6  UNL     1       4.350  16.455   2.578  1.00  0.00    -0.017 A 
HETATM    9  C7  UNL     1       3.237  17.278   2.476  1.00  0.00     0.013 A 
HETATM   10  C8  UNL     1       2.034  16.825   2.962  1.00  0.00     0.001 A 
HETATM   11  C9  UNL     1       1.956  15.577   3.534  1.00  0.00     0.001 A 
HETATM   12  C10 UNL     1       3.059  14.755   3.637  1.00  0.00     0.012 A 
HETATM   13  C11 UNL     1       4.286  15.174   3.161  1.00  0.00    -0.021 A 
HETATM   14  C12 UNL     1       5.512  14.615   3.118  1.00  0.00    -0.042 C 
HETATM   15  C22 UNL     1       6.471  15.525   2.559  1.00  0.00     0.058 C 
HETATM   16  C23 UNL     1       7.131  15.309   1.257  1.00  0.00     0.072 C 
ENDROOT
BRANCH   1  17
HETATM   17  N2  UNL     1       9.055  19.467  -0.756  1.00  0.00    -0.341 N 
ATOM     18  H2  UNL     1      10.048  19.268  -0.879  1.00  0.00     0.163 HD
BRANCH  17  19
HETATM   19  C1  UNL     1       8.426  20.646  -1.315  1.00  0.00     0.320 C 
BRANCH  19  20
HETATM   20  N1  UNL     1       8.818  20.861  -2.672  1.00  0.00    -0.055 N 
ATOM     21  H13 UNL     1       9.823  20.739  -2.792  1.00  0.00     0.276 HD
ATOM     22  H12 UNL     1       8.492  20.107  -3.277  1.00  0.00     0.276 HD
ATOM     23  H11 UNL     1       8.510  21.771  -3.015  1.00  0.00     0.276 HD
ENDBRANCH  19  20
BRANCH  19  24
HETATM   24  C24 UNL     1       8.828  21.876  -0.505  1.00  0.00     0.240 C 
HETATM   25  O1  UNL     1       7.668  22.598  -0.182  1.00  0.00    -0.333 OA
HETATM   26  C25 UNL     1       7.185  23.629  -0.944  1.00  0.00     0.096 A 
HETATM   27  C26 UNL     1       5.864  24.082  -0.813  1.00  0.00     0.039 A 
HETATM   28  C30 UNL     1       7.997  24.242  -1.860  1.00  0.00     0.066 A 
HETATM   29  C27 UNL     1       5.416  25.113  -1.590  1.00  0.00     0.003 A 
HETATM   30  C28 UNL     1       6.221  25.740  -2.516  1.00  0.00     0.002 A 
HETATM   31  C29 UNL     1       7.518  25.274  -2.624  1.00  0.00     0.032 A 
HETATM   32  N4  UNL     1       9.336  23.793  -2.002  1.00  0.00    -0.346 N 
HETATM   33  C31 UNL     1       9.831  22.704  -1.192  1.00  0.00     0.111 C 
ATOM     34  H4  UNL     1       9.952  24.241  -2.681  1.00  0.00     0.167 HD
HETATM   35  S3  UNL     1      11.438  22.491  -1.112  1.00  0.00    -0.062 SA
ENDBRANCH  19  24
ENDBRANCH  17  19
ENDBRANCH   1  17
BRANCH  14  36
HETATM   36  C13 UNL     1       5.734  13.229   3.671  1.00  0.00     0.105 A 
HETATM   37  C14 UNL     1       5.605  12.264   2.576  1.00  0.00     0.005 A 
HETATM   38  C15 UNL     1       6.441  11.395   2.110  1.00  0.00    -0.028 A 
HETATM   39  C16 UNL     1       6.016  10.594   1.028  1.00  0.00     0.012 A 
HETATM   40  C20 UNL     1       7.702  11.183   2.573  1.00  0.00    -0.020 A 
HETATM   41  C17 UNL     1       6.807   9.636   0.443  1.00  0.00     0.001 A 
HETATM   42  C18 UNL     1       8.068   9.434   0.916  1.00  0.00     0.001 A 
HETATM   43  C19 UNL     1       8.502  10.201   1.967  1.00  0.00     0.012 A 
HETATM   44  C21 UNL     1       8.261  11.834   3.569  1.00  0.00     0.058 A 
HETATM   45  S2  UNL     1       7.365  13.095   4.418  1.00  0.00    -0.127 SA
ENDBRANCH  14  36
TORSDOF 5
ENDMDL
MODEL 4
REMARK VINA RESULT: -9.110335465      3.143     10.911
REMARK  5 active torsions:
REMARK  status: ('A' for Active; 'I' for Inactive)
REMARK    1  A    between atoms: N1_1  and  C1_5 
REMARK    2  A    between atoms: C1_5  and  N2_6 
REMARK    3  A    between atoms: C1_5  and  C24_34 
REMARK    4  A    between atoms: N2_6  and  C2_8 
REMARK    5  A    between atoms: C12_21  and  C13_22 
ROOT
HETATM    1  C2  UNL     1       6.677  21.163  -0.665  1.00  0.00     0.147 A 
HETATM    2  N3  UNL     1       6.353  20.439   0.407  1.00  0.00    -0.339 N 
ATOM      3  H3  UNL     1       5.718  20.811   1.113  1.00  0.00     0.168 HD
HETATM    4  C3  UNL     1       6.867  19.236   0.535  1.00  0.00     0.030 A 
HETATM    5  C4  UNL     1       7.714  18.802  -0.454  1.00  0.00     0.038 A 
HETATM    6  S1  UNL     1       7.738  20.125  -1.519  1.00  0.00    -0.052 SA
HETATM    7  C5  UNL     1       8.198  17.465  -0.153  1.00  0.00    -0.019 C 
HETATM    8  C6  UNL     1       9.109  16.563  -0.288  1.00  0.00    -0.017 A 
HETATM    9  C7  UNL     1      10.290  16.638  -1.014  1.00  0.00     0.013 A 
HETATM   10  C8  UNL     1      11.182  15.597  -0.931  1.00  0.00     0.001 A 
HETATM   11  C9  UNL     1      10.893  14.511  -0.139  1.00  0.00     0.001 A 
HETATM   12  C10 UNL     1       9.721  14.432   0.585  1.00  0.00     0.012 A 
HETATM   13  C11 UNL     1       8.798  15.458   0.529  1.00  0.00    -0.021 A 
HETATM   14  C12 UNL     1       7.598  15.667   1.105  1.00  0.00    -0.042 C 
HETATM   15  C22 UNL     1       7.017  16.898   0.649  1.00  0.00     0.058 C 
HETATM   16  C23 UNL     1       6.819  18.073   1.521  1.00  0.00     0.072 C 
ENDROOT
BRANCH   1  17
HETATM   17  N2  UNL     1       6.271  22.377  -0.971  1.00  0.00    -0.341 N 
ATOM     18  H2  UNL     1       5.452  22.548  -1.555  1.00  0.00     0.163 HD
BRANCH  17  19
HETATM   19  C1  UNL     1       7.068  23.454  -0.422  1.00  0.00     0.320 C 
BRANCH  19  20
HETATM   20  N1  UNL     1       6.268  24.386   0.307  1.00  0.00    -0.055 N 
ATOM     21  H13 UNL     1       5.339  24.477  -0.102  1.00  0.00     0.276 HD
ATOM     22  H12 UNL     1       6.005  24.015   1.221  1.00  0.00     0.276 HD
ATOM     23  H11 UNL     1       6.727  25.293   0.393  1.00  0.00     0.276 HD
ENDBRANCH  19  20
BRANCH  19  24
HETATM   24  C24 UNL     1       7.762  24.209  -1.553  1.00  0.00     0.240 C 
HETATM   25  O1  UNL     1       9.120  24.353  -1.228  1.00  0.00    -0.333 OA
HETATM   26  C25 UNL     1       9.629  25.452  -0.587  1.00  0.00     0.096 A 
HETATM   27  C26 UNL     1      10.882  25.420   0.042  1.00  0.00     0.039 A 
HETATM   28  C30 UNL     1       8.911  26.617  -0.551  1.00  0.00     0.066 A 
HETATM   29  C27 UNL     1      11.358  26.535   0.673  1.00  0.00     0.003 A 
HETATM   30  C28 UNL     1      10.647  27.714   0.718  1.00  0.00     0.002 A 
HETATM   31  C29 UNL     1       9.415  27.718   0.089  1.00  0.00     0.032 A 
HETATM   32  N4  UNL     1       7.641  26.663  -1.184  1.00  0.00    -0.346 N 
HETATM   33  C31 UNL     1       7.118  25.495  -1.855  1.00  0.00     0.111 C 
ATOM     34  H4  UNL     1       7.095  27.524  -1.164  1.00  0.00     0.167 HD
HETATM   35  S3  UNL     1       5.872  25.705  -2.875  1.00  0.00    -0.062 SA
ENDBRANCH  19  24
ENDBRANCH  17  19
ENDBRANCH   1  17
BRANCH  14  36
HETATM   36  C13 UNL     1       7.017  14.638   2.044  1.00  0.00     0.105 A 
HETATM   37  C14 UNL     1       6.182  15.327   3.031  1.00  0.00     0.005 A 
HETATM   38  C15 UNL     1       4.928  15.196   3.319  1.00  0.00    -0.028 A 
HETATM   39  C16 UNL     1       4.403  16.019   4.339  1.00  0.00     0.012 A 
HETATM   40  C20 UNL     1       4.065  14.332   2.721  1.00  0.00    -0.020 A 
HETATM   41  C17 UNL     1       3.090  15.978   4.738  1.00  0.00     0.001 A 
HETATM   42  C18 UNL     1       2.237  15.108   4.132  1.00  0.00     0.001 A 
HETATM   43  C19 UNL     1       2.725  14.299   3.138  1.00  0.00     0.012 A 
HETATM   44  C21 UNL     1       4.379  13.495   1.758  1.00  0.00     0.058 A 
HETATM   45  S2  UNL     1       6.031  13.434   1.140  1.00  0.00    -0.127 SA
ENDBRANCH  14  36
TORSDOF 5
ENDMDL
MODEL 5
REMARK VINA RESULT: -9.105727527      2.970     10.686
REMARK  5 active torsions:
REMARK  status: ('A' for Active; 'I' for Inactive)
REMARK    1  A    between atoms: N1_1  and  C1_5 
REMARK    2  A    between atoms: C1_5  and  N2_6 
REMARK    3  A    between atoms: C1_5  and  C24_34 
REMARK    4  A    between atoms: N2_6  and  C2_8 
REMARK    5  A    between atoms: C12_21  and  C13_22 
ROOT
HETATM    1  C2  UNL     1       8.120  18.812   0.256  1.00  0.00     0.147 A 
HETATM    2  N3  UNL     1       8.451  17.860   1.128  1.00  0.00    -0.339 N 
ATOM      3  H3  UNL     1       9.408  17.511   1.180  1.00  0.00     0.168 HD
HETATM    4  C3  UNL     1       7.519  17.379   1.921  1.00  0.00     0.030 A 
HETATM    5  C4  UNL     1       6.253  17.895   1.794  1.00  0.00     0.038 A 
HETATM    6  S1  UNL     1       6.450  19.039   0.554  1.00  0.00    -0.052 SA
HETATM    7  C5  UNL     1       5.349  17.250   2.730  1.00  0.00    -0.019 C 
HETATM    8  C6  UNL     1       4.149  16.897   3.045  1.00  0.00    -0.017 A 
HETATM    9  C7  UNL     1       2.977  17.115   2.333  1.00  0.00     0.013 A 
HETATM   10  C8  UNL     1       1.812  16.552   2.793  1.00  0.00     0.001 A 
HETATM   11  C9  UNL     1       1.827  15.791   3.938  1.00  0.00     0.001 A 
HETATM   12  C10 UNL     1       2.989  15.572   4.649  1.00  0.00     0.012 A 
HETATM   13  C11 UNL     1       4.181  16.120   4.219  1.00  0.00    -0.021 A 
HETATM   14  C12 UNL     1       5.446  16.086   4.683  1.00  0.00    -0.042 C 
HETATM   15  C22 UNL     1       6.312  16.895   3.873  1.00  0.00     0.058 C 
HETATM   16  C23 UNL     1       7.387  16.339   3.029  1.00  0.00     0.072 C 
ENDROOT
BRANCH   1  17
HETATM   17  N2  UNL     1       8.903  19.415  -0.615  1.00  0.00    -0.341 N 
ATOM     18  H2  UNL     1       9.838  19.074  -0.837  1.00  0.00     0.163 HD
BRANCH  17  19
HETATM   19  C1  UNL     1       8.342  20.599  -1.234  1.00  0.00     0.320 C 
BRANCH  19  20
HETATM   20  N1  UNL     1       8.782  20.748  -2.584  1.00  0.00    -0.055 N 
ATOM     21  H13 UNL     1       8.030  20.551  -3.244  1.00  0.00     0.276 HD
ATOM     22  H12 UNL     1       8.944  21.729  -2.816  1.00  0.00     0.276 HD
ATOM     23  H11 UNL     1       9.606  20.180  -2.779  1.00  0.00     0.276 HD
ENDBRANCH  19  20
BRANCH  19  24
HETATM   24  C24 UNL     1       8.773  21.840  -0.455  1.00  0.00     0.240 C 
HETATM   25  O1  UNL     1       7.629  22.585  -0.132  1.00  0.00    -0.333 OA
HETATM   26  C25 UNL     1       7.151  23.608  -0.909  1.00  0.00     0.096 A 
HETATM   27  C26 UNL     1       5.839  24.084  -0.770  1.00  0.00     0.039 A 
HETATM   28  C30 UNL     1       7.960  24.189  -1.848  1.00  0.00     0.066 A 
HETATM   29  C27 UNL     1       5.396  25.105  -1.563  1.00  0.00     0.003 A 
HETATM   30  C28 UNL     1       6.198  25.700  -2.512  1.00  0.00     0.002 A 
HETATM   31  C29 UNL     1       7.487  25.212  -2.628  1.00  0.00     0.032 A 
HETATM   32  N4  UNL     1       9.290  23.717  -1.999  1.00  0.00    -0.346 N 
HETATM   33  C31 UNL     1       9.779  22.637  -1.172  1.00  0.00     0.111 C 
ATOM     34  H4  UNL     1       9.904  24.141  -2.695  1.00  0.00     0.167 HD
HETATM   35  S3  UNL     1      11.384  22.401  -1.109  1.00  0.00    -0.062 SA
ENDBRANCH  19  24
ENDBRANCH  17  19
ENDBRANCH   1  17
BRANCH  14  36
HETATM   36  C13 UNL     1       5.774  15.312   5.937  1.00  0.00     0.105 A 
HETATM   37  C14 UNL     1       6.060  13.924   5.566  1.00  0.00     0.005 A 
HETATM   38  C15 UNL     1       7.115  13.199   5.746  1.00  0.00    -0.028 A 
HETATM   39  C16 UNL     1       7.085  11.872   5.266  1.00  0.00     0.012 A 
HETATM   40  C20 UNL     1       8.259  13.606   6.359  1.00  0.00    -0.020 A 
HETATM   41  C17 UNL     1       8.139  11.001   5.394  1.00  0.00     0.001 A 
HETATM   42  C18 UNL     1       9.279  11.420   6.010  1.00  0.00     0.001 A 
HETATM   43  C19 UNL     1       9.330  12.706   6.483  1.00  0.00     0.012 A 
HETATM   44  C21 UNL     1       8.462  14.802   6.864  1.00  0.00     0.058 A 
HETATM   45  S2  UNL     1       7.197  16.029   6.774  1.00  0.00    -0.127 SA
ENDBRANCH  14  36
TORSDOF 5
ENDMDL
