MODEL 1
REMARK VINA RESULT: -8.657401423      0.000      0.000
REMARK  4 active torsions:
REMARK  status: ('A' for Active; 'I' for Inactive)
REMARK    1  A    between atoms: C23_28  and  C24_29 
REMARK    2  A    between atoms: C24_29  and  O1_30 
REMARK    3  A    between atoms: C24_29  and  N4_32 
REMARK    4  A    between atoms: C27_35  and  N5_36 
ROOT
HETATM    1  C1  UNL     1      11.063  19.183  -1.317  1.00  0.00     0.015 C 
HETATM    2  C2  UNL     1      11.335  18.094  -0.351  1.00  0.00    -0.037 A 
HETATM    3  C3  UNL     1      12.636  17.349  -0.733  1.00  0.00     0.015 C 
HETATM    4  C4  UNL     1      11.260  18.450   1.081  1.00  0.00     0.002 A 
HETATM    5  C5  UNL     1      10.261  19.409   1.619  1.00  0.00     0.015 C 
HETATM    6  C6  UNL     1       9.146  18.460   2.020  1.00  0.00     0.040 C 
HETATM    7  C7  UNL     1       9.688  17.903   3.336  1.00  0.00     0.126 C 
HETATM    8  N1  UNL     1       8.877  18.261   4.483  1.00  0.00    -0.398 N 
ATOM      9  H1  UNL     1       8.756  19.246   4.716  1.00  0.00     0.158 HD
HETATM   10  C8  UNL     1       8.271  17.318   5.258  1.00  0.00     0.085 C 
HETATM   11  C9  UNL     1       7.227  16.350   4.761  1.00  0.00    -0.064 C 
HETATM   12  C10 UNL     1       7.870  15.100   4.248  1.00  0.00     0.037 C 
HETATM   13  C11 UNL     1       7.835  14.851   2.804  1.00  0.00     0.029 C 
HETATM   14  C12 UNL     1       7.499  16.040   1.971  1.00  0.00     0.078 C 
HETATM   15  C13 UNL     1       5.996  15.860   1.721  1.00  0.00     0.035 C 
HETATM   16  C14 UNL     1       5.337  16.090   3.052  1.00  0.00    -0.024 C 
HETATM   17  C15 UNL     1       6.072  16.907   4.059  1.00  0.00     0.046 C 
HETATM   18  C16 UNL     1       4.062  16.860   2.632  1.00  0.00     0.023 C 
HETATM   19  C17 UNL     1       3.189  16.926   3.836  1.00  0.00     0.014 C 
HETATM   20  C18 UNL     1       3.329  15.503   4.304  1.00  0.00     0.021 C 
HETATM   21  C19 UNL     1       2.229  14.775   3.503  1.00  0.00     0.277 C 
HETATM   22  N2  UNL     1       2.979  14.649   2.237  1.00  0.00     0.089 N 
HETATM   23  C20 UNL     1       3.353  15.894   1.669  1.00  0.00     0.277 C 
HETATM   24  C21 UNL     1       4.103  13.912   2.806  1.00  0.00     0.278 C 
HETATM   25  C22 UNL     1       4.650  14.959   3.712  1.00  0.00     0.029 C 
HETATM   26  N3  UNL     1       8.380  16.289   0.945  1.00  0.00    -0.401 N 
ATOM     27  H3  UNL     1       8.592  15.572   0.252  1.00  0.00     0.154 HD
HETATM   28  C23 UNL     1       9.013  17.626   0.874  1.00  0.00     0.101 C 
HETATM   29  C34 UNL     1      10.431  17.327   0.431  1.00  0.00     0.035 A 
ENDROOT
BRANCH  28  30
HETATM   30  C24 UNL     1       8.309  18.159  -0.292  1.00  0.00     0.143 C 
BRANCH  30  31
HETATM   31  O1  UNL     1       8.118  17.184  -1.189  1.00  0.00    -0.347 OA
ATOM     32  H1  UNL     1       7.423  17.431  -1.788  1.00  0.00     0.219 HD
ENDBRANCH  30  31
BRANCH  30  33
HETATM   33  N4  UNL     1       7.781  19.332  -0.752  1.00  0.00    -0.363 N 
HETATM   34  C25 UNL     1       8.064  20.215  -1.841  1.00  0.00     0.126 C 
HETATM   35  C26 UNL     1       8.377  21.632  -1.365  1.00  0.00     0.045 C 
HETATM   36  C27 UNL     1       7.400  22.132  -0.357  1.00  0.00     0.082 C 
HETATM   37  C32 UNL     1       6.198  21.214  -0.417  1.00  0.00     0.045 C 
HETATM   38  C33 UNL     1       6.612  19.867   0.024  1.00  0.00     0.126 C 
BRANCH  36  39
HETATM   39  N5  UNL     1       7.063  23.511  -0.432  1.00  0.00    -0.405 N 
HETATM   40  C28 UNL     1       8.022  24.390  -0.979  1.00  0.00     0.144 C 
HETATM   41  C29 UNL     1       7.737  24.843  -2.386  1.00  0.00     0.251 C 
HETATM   42  N6  UNL     1       6.359  24.790  -2.770  1.00  0.00    -0.072 N 
HETATM   43  C30 UNL     1       5.455  24.915  -1.668  1.00  0.00     0.251 C 
ATOM     44  H62 UNL     1       6.156  25.488  -3.485  1.00  0.00     0.277 HD
ATOM     45  H61 UNL     1       6.165  23.941  -3.302  1.00  0.00     0.277 HD
HETATM   46  C31 UNL     1       5.695  23.768  -0.733  1.00  0.00     0.144 C 
ENDBRANCH  36  39
ENDBRANCH  30  33
ENDBRANCH  28  30
TORSDOF 4
ENDMDL
MODEL 2
REMARK VINA RESULT: -8.426988671      0.964      1.292
REMARK  4 active torsions:
REMARK  status: ('A' for Active; 'I' for Inactive)
REMARK    1  A    between atoms: C23_28  and  C24_29 
REMARK    2  A    between atoms: C24_29  and  O1_30 
REMARK    3  A    between atoms: C24_29  and  N4_32 
REMARK    4  A    between atoms: C27_35  and  N5_36 
ROOT
HETATM    1  C1  UNL     1      11.275  18.367  -0.626  1.00  0.00     0.015 C 
HETATM    2  C2  UNL     1      11.421  17.512   0.574  1.00  0.00    -0.037 A 
HETATM    3  C3  UNL     1      12.771  16.755   0.534  1.00  0.00     0.015 C 
HETATM    4  C4  UNL     1      11.144  18.151   1.877  1.00  0.00     0.002 A 
HETATM    5  C5  UNL     1      10.071  19.160   2.064  1.00  0.00     0.015 C 
HETATM    6  C6  UNL     1       8.920  18.271   2.501  1.00  0.00     0.040 C 
HETATM    7  C7  UNL     1       9.279  18.018   3.965  1.00  0.00     0.126 C 
HETATM    8  N1  UNL     1       8.313  18.572   4.892  1.00  0.00    -0.398 N 
ATOM      9  H1  UNL     1       8.150  19.579   4.896  1.00  0.00     0.158 HD
HETATM   10  C8  UNL     1       7.615  17.786   5.759  1.00  0.00     0.085 C 
HETATM   11  C9  UNL     1       6.661  16.696   5.340  1.00  0.00    -0.064 C 
HETATM   12  C10 UNL     1       7.382  15.394   5.191  1.00  0.00     0.037 C 
HETATM   13  C11 UNL     1       7.551  14.852   3.839  1.00  0.00     0.029 C 
HETATM   14  C12 UNL     1       7.322  15.830   2.739  1.00  0.00     0.078 C 
HETATM   15  C13 UNL     1       5.870  15.544   2.333  1.00  0.00     0.035 C 
HETATM   16  C14 UNL     1       5.029  16.017   3.486  1.00  0.00    -0.024 C 
HETATM   17  C15 UNL     1       5.609  17.051   4.389  1.00  0.00     0.046 C 
HETATM   18  C16 UNL     1       3.817  16.633   2.748  1.00  0.00     0.023 C 
HETATM   19  C17 UNL     1       2.785  16.910   3.783  1.00  0.00     0.014 C 
HETATM   20  C18 UNL     1       2.873  15.621   4.553  1.00  0.00     0.021 C 
HETATM   21  C19 UNL     1       1.903  14.702   3.781  1.00  0.00     0.277 C 
HETATM   22  N2  UNL     1       2.823  14.347   2.682  1.00  0.00     0.089 N 
HETATM   23  C20 UNL     1       3.260  15.463   1.922  1.00  0.00     0.277 C 
HETATM   24  C21 UNL     1       3.865  13.788   3.538  1.00  0.00     0.278 C 
HETATM   25  C22 UNL     1       4.270  15.020   4.270  1.00  0.00     0.029 C 
HETATM   26  N3  UNL     1       8.334  15.897   1.812  1.00  0.00    -0.401 N 
ATOM     27  H3  UNL     1       8.648  15.062   1.318  1.00  0.00     0.154 HD
HETATM   28  C23 UNL     1       8.957  17.214   1.548  1.00  0.00     0.101 C 
HETATM   29  C34 UNL     1      10.425  16.887   1.371  1.00  0.00     0.035 A 
ENDROOT
BRANCH  28  30
HETATM   30  C24 UNL     1       8.416  17.468   0.213  1.00  0.00     0.143 C 
BRANCH  30  31
HETATM   31  O1  UNL     1       8.448  16.342  -0.509  1.00  0.00    -0.347 OA
ATOM     32  H1  UNL     1       7.568  15.995  -0.602  1.00  0.00     0.219 HD
ENDBRANCH  30  31
BRANCH  30  33
HETATM   33  N4  UNL     1       7.886  18.487  -0.528  1.00  0.00    -0.363 N 
HETATM   34  C25 UNL     1       8.056  18.966  -1.865  1.00  0.00     0.126 C 
HETATM   35  C26 UNL     1       8.500  20.427  -1.899  1.00  0.00     0.045 C 
HETATM   36  C27 UNL     1       7.699  21.296  -0.991  1.00  0.00     0.082 C 
HETATM   37  C32 UNL     1       6.457  20.515  -0.618  1.00  0.00     0.045 C 
HETATM   38  C33 UNL     1       6.864  19.336   0.172  1.00  0.00     0.126 C 
BRANCH  36  39
HETATM   39  N5  UNL     1       7.421  22.610  -1.456  1.00  0.00    -0.405 N 
HETATM   40  C28 UNL     1       6.220  23.215  -1.027  1.00  0.00     0.144 C 
HETATM   41  C29 UNL     1       6.384  24.259   0.046  1.00  0.00     0.251 C 
HETATM   42  N6  UNL     1       7.677  24.871   0.100  1.00  0.00    -0.072 N 
HETATM   43  C30 UNL     1       8.360  24.872  -1.157  1.00  0.00     0.251 C 
ATOM     44  H62 UNL     1       7.613  25.817   0.477  1.00  0.00     0.277 HD
ATOM     45  H61 UNL     1       8.251  24.439   0.824  1.00  0.00     0.277 HD
HETATM   46  C31 UNL     1       8.566  23.448  -1.579  1.00  0.00     0.144 C 
ENDBRANCH  36  39
ENDBRANCH  30  33
ENDBRANCH  28  30
TORSDOF 4
ENDMDL
MODEL 3
REMARK VINA RESULT: -8.333698579      1.416      1.848
REMARK  4 active torsions:
REMARK  status: ('A' for Active; 'I' for Inactive)
REMARK    1  A    between atoms: C23_28  and  C24_29 
REMARK    2  A    between atoms: C24_29  and  O1_30 
REMARK    3  A    between atoms: C24_29  and  N4_32 
REMARK    4  A    between atoms: C27_35  and  N5_36 
ROOT
HETATM    1  C1  UNL     1      11.576  19.207  -0.427  1.00  0.00     0.015 C 
HETATM    2  C2  UNL     1      11.412  17.743  -0.582  1.00  0.00    -0.037 A 
HETATM    3  C3  UNL     1      12.153  17.250  -1.848  1.00  0.00     0.015 C 
HETATM    4  C4  UNL     1      11.681  16.919   0.614  1.00  0.00     0.002 A 
HETATM    5  C5  UNL     1      11.324  17.357   1.988  1.00  0.00     0.015 C 
HETATM    6  C6  UNL     1       9.948  16.733   2.135  1.00  0.00     0.040 C 
HETATM    7  C7  UNL     1      10.312  15.277   2.426  1.00  0.00     0.126 C 
HETATM    8  N1  UNL     1       9.905  14.842   3.748  1.00  0.00    -0.398 N 
ATOM      9  H1  UNL     1      10.292  15.314   4.566  1.00  0.00     0.158 HD
HETATM   10  C8  UNL     1       9.021  13.821   3.929  1.00  0.00     0.085 C 
HETATM   11  C9  UNL     1       7.594  13.835   3.442  1.00  0.00    -0.064 C 
HETATM   12  C10 UNL     1       7.507  13.281   2.055  1.00  0.00     0.037 C 
HETATM   13  C11 UNL     1       7.190  14.207   0.963  1.00  0.00     0.029 C 
HETATM   14  C12 UNL     1       7.361  15.649   1.296  1.00  0.00     0.078 C 
HETATM   15  C13 UNL     1       5.933  16.082   1.656  1.00  0.00     0.035 C 
HETATM   16  C14 UNL     1       5.621  15.394   2.955  1.00  0.00    -0.024 C 
HETATM   17  C15 UNL     1       6.766  14.980   3.815  1.00  0.00     0.046 C 
HETATM   18  C16 UNL     1       4.821  16.491   3.696  1.00  0.00     0.023 C 
HETATM   19  C17 UNL     1       4.229  15.846   4.901  1.00  0.00     0.014 C 
HETATM   20  C18 UNL     1       3.735  14.576   4.265  1.00  0.00     0.021 C 
HETATM   21  C19 UNL     1       2.337  14.979   3.751  1.00  0.00     0.277 C 
HETATM   22  N2  UNL     1       2.785  15.661   2.520  1.00  0.00     0.089 N 
HETATM   23  C20 UNL     1       3.634  16.772   2.762  1.00  0.00     0.277 C 
HETATM   24  C21 UNL     1       3.486  14.509   1.961  1.00  0.00     0.278 C 
HETATM   25  C22 UNL     1       4.564  14.360   2.977  1.00  0.00     0.029 C 
HETATM   26  N3  UNL     1       8.129  16.357   0.401  1.00  0.00    -0.401 N 
ATOM     27  H3  UNL     1       7.895  16.373  -0.591  1.00  0.00     0.154 HD
HETATM   28  C23 UNL     1       9.304  17.094   0.917  1.00  0.00     0.101 C 
HETATM   29  C34 UNL     1      10.351  16.898  -0.161  1.00  0.00     0.035 A 
ENDROOT
BRANCH  28  30
HETATM   30  C24 UNL     1       8.805  18.462   0.778  1.00  0.00     0.143 C 
BRANCH  30  31
HETATM   31  O1  UNL     1       9.095  19.162   1.882  1.00  0.00    -0.347 OA
ATOM     32  H1  UNL     1       9.994  18.996   2.140  1.00  0.00     0.219 HD
ENDBRANCH  30  31
BRANCH  30  33
HETATM   33  N4  UNL     1       8.143  19.251  -0.120  1.00  0.00    -0.363 N 
HETATM   34  C25 UNL     1       8.373  19.668  -1.468  1.00  0.00     0.126 C 
HETATM   35  C26 UNL     1       8.429  21.189  -1.597  1.00  0.00     0.045 C 
HETATM   36  C27 UNL     1       7.312  21.870  -0.884  1.00  0.00     0.082 C 
HETATM   37  C32 UNL     1       6.271  20.813  -0.585  1.00  0.00     0.045 C 
HETATM   38  C33 UNL     1       6.849  19.840   0.364  1.00  0.00     0.126 C 
BRANCH  36  39
HETATM   39  N5  UNL     1       6.775  23.029  -1.509  1.00  0.00    -0.405 N 
HETATM   40  C28 UNL     1       5.677  23.660  -0.886  1.00  0.00     0.144 C 
HETATM   41  C29 UNL     1       6.011  24.928  -0.145  1.00  0.00     0.251 C 
HETATM   42  N6  UNL     1       7.195  25.596  -0.595  1.00  0.00    -0.072 N 
HETATM   43  C30 UNL     1       7.507  25.340  -1.967  1.00  0.00     0.251 C 
ATOM     44  H62 UNL     1       7.132  26.598  -0.419  1.00  0.00     0.277 HD
ATOM     45  H61 UNL     1       7.987  25.368   0.005  1.00  0.00     0.277 HD
HETATM   46  C31 UNL     1       7.745  23.869  -2.128  1.00  0.00     0.144 C 
ENDBRANCH  36  39
ENDBRANCH  30  33
ENDBRANCH  28  30
TORSDOF 4
ENDMDL
MODEL 4
REMARK VINA RESULT: -8.262886779      1.317      1.779
REMARK  4 active torsions:
REMARK  status: ('A' for Active; 'I' for Inactive)
REMARK    1  A    between atoms: C23_28  and  C24_29 
REMARK    2  A    between atoms: C24_29  and  O1_30 
REMARK    3  A    between atoms: C24_29  and  N4_32 
REMARK    4  A    between atoms: C27_35  and  N5_36 
ROOT
HETATM    1  C1  UNL     1      10.809  20.121  -2.408  1.00  0.00     0.015 C 
HETATM    2  C2  UNL     1      11.093  18.695  -2.130  1.00  0.00    -0.037 A 
HETATM    3  C3  UNL     1      11.938  18.081  -3.273  1.00  0.00     0.015 C 
HETATM    4  C4  UNL     1      11.607  18.376  -0.782  1.00  0.00     0.002 A 
HETATM    5  C5  UNL     1      11.145  19.080   0.441  1.00  0.00     0.015 C 
HETATM    6  C6  UNL     1      10.023  18.162   0.889  1.00  0.00     0.040 C 
HETATM    7  C7  UNL     1      10.811  17.026   1.541  1.00  0.00     0.126 C 
HETATM    8  N1  UNL     1      10.565  16.906   2.965  1.00  0.00    -0.398 N 
ATOM      9  H1  UNL     1      10.798  17.689   3.576  1.00  0.00     0.158 HD
HETATM   10  C8  UNL     1      10.032  15.777   3.510  1.00  0.00     0.085 C 
HETATM   11  C9  UNL     1       8.663  15.236   3.179  1.00  0.00    -0.064 C 
HETATM   12  C10 UNL     1       8.736  14.295   2.018  1.00  0.00     0.037 C 
HETATM   13  C11 UNL     1       8.147  14.724   0.746  1.00  0.00     0.029 C 
HETATM   14  C12 UNL     1       7.877  16.186   0.643  1.00  0.00     0.078 C 
HETATM   15  C13 UNL     1       6.388  16.279   1.003  1.00  0.00     0.035 C 
HETATM   16  C14 UNL     1       6.308  15.948   2.467  1.00  0.00    -0.024 C 
HETATM   17  C15 UNL     1       7.531  16.154   3.293  1.00  0.00     0.046 C 
HETATM   18  C16 UNL     1       5.220  16.940   2.945  1.00  0.00     0.023 C 
HETATM   19  C17 UNL     1       4.860  16.540   4.333  1.00  0.00     0.014 C 
HETATM   20  C18 UNL     1       4.767  15.053   4.131  1.00  0.00     0.021 C 
HETATM   21  C19 UNL     1       3.308  14.868   3.661  1.00  0.00     0.277 C 
HETATM   22  N2  UNL     1       3.520  15.252   2.251  1.00  0.00     0.089 N 
HETATM   23  C20 UNL     1       3.996  16.579   2.088  1.00  0.00     0.277 C 
HETATM   24  C21 UNL     1       4.532  14.237   1.973  1.00  0.00     0.278 C 
HETATM   25  C22 UNL     1       5.612  14.711   2.881  1.00  0.00     0.029 C 
HETATM   26  N3  UNL     1       8.389  16.785  -0.484  1.00  0.00    -0.401 N 
ATOM     27  H3  UNL     1       8.153  16.438  -1.414  1.00  0.00     0.154 HD
HETATM   28  C23 UNL     1       9.291  17.946  -0.312  1.00  0.00     0.101 C 
HETATM   29  C34 UNL     1      10.339  17.746  -1.388  1.00  0.00     0.035 A 
ENDROOT
BRANCH  28  30
HETATM   30  C24 UNL     1       8.401  19.008  -0.780  1.00  0.00     0.143 C 
BRANCH  30  31
HETATM   31  O1  UNL     1       7.883  18.672  -1.968  1.00  0.00    -0.347 OA
ATOM     32  H1  UNL     1       7.872  19.432  -2.539  1.00  0.00     0.219 HD
ENDBRANCH  30  31
BRANCH  30  33
HETATM   33  N4  UNL     1       7.929  20.229  -0.389  1.00  0.00    -0.363 N 
HETATM   34  C25 UNL     1       6.650  20.753  -0.021  1.00  0.00     0.126 C 
HETATM   35  C26 UNL     1       6.231  21.923  -0.909  1.00  0.00     0.045 C 
HETATM   36  C27 UNL     1       7.319  22.925  -1.095  1.00  0.00     0.082 C 
HETATM   37  C32 UNL     1       8.359  22.647  -0.030  1.00  0.00     0.045 C 
HETATM   38  C33 UNL     1       8.955  21.321  -0.290  1.00  0.00     0.126 C 
BRANCH  36  39
HETATM   39  N5  UNL     1       6.920  24.288  -1.152  1.00  0.00    -0.405 N 
HETATM   40  C28 UNL     1       7.891  25.267  -0.849  1.00  0.00     0.144 C 
HETATM   41  C29 UNL     1       8.457  25.990  -2.042  1.00  0.00     0.251 C 
HETATM   42  N6  UNL     1       7.612  26.002  -3.197  1.00  0.00    -0.072 N 
HETATM   43  C30 UNL     1       6.220  25.897  -2.886  1.00  0.00     0.251 C 
ATOM     44  H62 UNL     1       7.794  26.827  -3.769  1.00  0.00     0.277 HD
ATOM     45  H61 UNL     1       7.891  25.275  -3.856  1.00  0.00     0.277 HD
HETATM   46  C31 UNL     1       5.992  24.589  -2.190  1.00  0.00     0.144 C 
ENDBRANCH  36  39
ENDBRANCH  30  33
ENDBRANCH  28  30
TORSDOF 4
ENDMDL
MODEL 5
REMARK VINA RESULT: -8.132276800      1.451      2.070
REMARK  4 active torsions:
REMARK  status: ('A' for Active; 'I' for Inactive)
REMARK    1  A    between atoms: C23_28  and  C24_29 
REMARK    2  A    between atoms: C24_29  and  O1_30 
REMARK    3  A    between atoms: C24_29  and  N4_32 
REMARK    4  A    between atoms: C27_35  and  N5_36 
ROOT
HETATM    1  C1  UNL     1      12.263  20.203  -2.716  1.00  0.00     0.015 C 
HETATM    2  C2  UNL     1      12.744  19.122  -1.825  1.00  0.00    -0.037 A 
HETATM    3  C3  UNL     1      13.998  18.446  -2.428  1.00  0.00     0.015 C 
HETATM    4  C4  UNL     1      12.890  19.463  -0.395  1.00  0.00     0.002 A 
HETATM    5  C5  UNL     1      11.949  20.367   0.315  1.00  0.00     0.015 C 
HETATM    6  C6  UNL     1      10.963  19.360   0.880  1.00  0.00     0.040 C 
HETATM    7  C7  UNL     1      11.742  18.822   2.080  1.00  0.00     0.126 C 
HETATM    8  N1  UNL     1      11.115  19.130   3.350  1.00  0.00    -0.398 N 
ATOM      9  H1  UNL     1      10.987  20.106   3.616  1.00  0.00     0.158 HD
HETATM   10  C8  UNL     1      10.693  18.152   4.200  1.00  0.00     0.085 C 
HETATM   11  C9  UNL     1       9.630  17.136   3.867  1.00  0.00    -0.064 C 
HETATM   12  C10 UNL     1      10.239  15.924   3.236  1.00  0.00     0.037 C 
HETATM   13  C11 UNL     1       9.977  15.684   1.814  1.00  0.00     0.029 C 
HETATM   14  C12 UNL     1       9.451  16.861   1.067  1.00  0.00     0.078 C 
HETATM   15  C13 UNL     1       7.937  16.607   1.066  1.00  0.00     0.035 C 
HETATM   16  C14 UNL     1       7.497  16.794   2.490  1.00  0.00    -0.024 C 
HETATM   17  C15 UNL     1       8.348  17.639   3.374  1.00  0.00     0.046 C 
HETATM   18  C16 UNL     1       6.134  17.501   2.299  1.00  0.00     0.023 C 
HETATM   19  C17 UNL     1       5.471  17.514   3.631  1.00  0.00     0.014 C 
HETATM   20  C18 UNL     1       5.755  16.097   4.047  1.00  0.00     0.021 C 
HETATM   21  C19 UNL     1       4.574  15.320   3.428  1.00  0.00     0.277 C 
HETATM   22  N2  UNL     1       5.110  15.241   2.054  1.00  0.00     0.089 N 
HETATM   23  C20 UNL     1       5.324  16.508   1.451  1.00  0.00     0.277 C 
HETATM   24  C21 UNL     1       6.347  14.558   2.418  1.00  0.00     0.278 C 
HETATM   25  C22 UNL     1       6.985  15.625   3.237  1.00  0.00     0.029 C 
HETATM   26  N3  UNL     1      10.136  17.161  -0.086  1.00  0.00    -0.401 N 
ATOM     27  H3  UNL     1      10.265  16.460  -0.816  1.00  0.00     0.154 HD
HETATM   28  C23 UNL     1      10.682  18.528  -0.241  1.00  0.00     0.101 C 
HETATM   29  C34 UNL     1      12.020  18.304  -0.916  1.00  0.00     0.035 A 
ENDROOT
BRANCH  28  30
HETATM   30  C24 UNL     1       9.770  19.033  -1.266  1.00  0.00     0.143 C 
BRANCH  30  31
HETATM   31  O1  UNL     1       9.624  18.118  -2.232  1.00  0.00    -0.347 OA
ATOM     32  H1  UNL     1       8.799  17.661  -2.118  1.00  0.00     0.219 HD
ENDBRANCH  30  31
BRANCH  30  33
HETATM   33  N4  UNL     1       9.017  20.139  -1.548  1.00  0.00    -0.363 N 
HETATM   34  C25 UNL     1       9.149  21.261  -2.424  1.00  0.00     0.126 C 
HETATM   35  C26 UNL     1       9.116  22.587  -1.668  1.00  0.00     0.045 C 
HETATM   36  C27 UNL     1       8.005  22.660  -0.678  1.00  0.00     0.082 C 
HETATM   37  C32 UNL     1       7.040  21.543  -1.016  1.00  0.00     0.045 C 
HETATM   38  C33 UNL     1       7.722  20.251  -0.796  1.00  0.00     0.126 C 
BRANCH  36  39
HETATM   39  N5  UNL     1       7.372  23.924  -0.527  1.00  0.00    -0.405 N 
HETATM   40  C28 UNL     1       8.013  25.047  -1.093  1.00  0.00     0.144 C 
HETATM   41  C29 UNL     1       7.401  25.548  -2.375  1.00  0.00     0.251 C 
HETATM   42  N6  UNL     1       6.021  25.212  -2.555  1.00  0.00    -0.072 N 
HETATM   43  C30 UNL     1       5.314  25.024  -1.326  1.00  0.00     0.251 C 
ATOM     44  H62 UNL     1       5.554  25.906  -3.138  1.00  0.00     0.277 HD
ATOM     45  H61 UNL     1       5.925  24.394  -3.156  1.00  0.00     0.277 HD
HETATM   46  C31 UNL     1       5.950  23.885  -0.589  1.00  0.00     0.144 C 
ENDBRANCH  36  39
ENDBRANCH  30  33
ENDBRANCH  28  30
TORSDOF 4
ENDMDL
