MODEL 1
REMARK VINA RESULT: -5.818900964      0.000      0.000
REMARK  3 active torsions:
REMARK  status: ('A' for Active; 'I' for Inactive)
REMARK    1  A    between atoms: C3_3  and  N1_4 
REMARK    2  A    between atoms: N1_4  and  C4_6 
REMARK    3  A    between atoms: C10_12  and  N2_13 
ROOT
HETATM    1  C1  UNL     1       2.002   9.070  30.431  1.00  0.00     0.018 C 
HETATM    2  C2  UNL     1       1.160   8.543  29.744  1.00  0.00    -0.073 C 
HETATM    3  C3  UNL     1       0.105   7.909  28.908  1.00  0.00     0.148 C 
ENDROOT
BRANCH   3   4
HETATM    4  N1  UNL     1      -1.129   8.340  29.411  1.00  0.00    -0.383 N 
ATOM      5  H1  UNL     1      -1.626   7.749  30.076  1.00  0.00     0.160 HD
BRANCH   4   6
HETATM    6  C4  UNL     1      -1.699   9.554  29.029  1.00  0.00     0.036 C 
HETATM    7  C5  UNL     1      -3.135   9.223  28.575  1.00  0.00     0.036 C 
HETATM    8  C6  UNL     1      -3.805  10.547  28.875  1.00  0.00    -0.009 C 
HETATM    9  C7  UNL     1      -3.372  10.751  30.301  1.00  0.00     0.012 C 
HETATM   10  C16 UNL     1      -3.191  11.525  27.912  1.00  0.00     0.036 C 
HETATM   11  C8  UNL     1      -1.857  10.570  30.134  1.00  0.00     0.016 C 
HETATM   12  C9  UNL     1      -1.393  11.912  29.563  1.00  0.00     0.038 C 
HETATM   13  C10 UNL     1      -1.701  11.700  28.077  1.00  0.00     0.035 C 
HETATM   14  C17 UNL     1      -1.068  10.318  27.913  1.00  0.00     0.062 C 
BRANCH  13  15
HETATM   15  N2  UNL     1      -1.206  12.684  27.219  1.00  0.00    -0.384 N 
HETATM   16  C11 UNL     1      -0.318  13.643  27.730  1.00  0.00     0.059 C 
HETATM   17  C12 UNL     1       0.145  14.696  26.812  1.00  0.00     0.044 C 
HETATM   18  C13 UNL     1       0.161  14.402  25.358  1.00  0.00     0.007 C 
HETATM   19  C14 UNL     1      -1.080  13.670  24.979  1.00  0.00     0.020 C 
HETATM   20  C15 UNL     1      -1.096  12.387  25.831  1.00  0.00     0.123 C 
ENDBRANCH  13  15
ENDBRANCH   4   6
ENDBRANCH   3   4
TORSDOF 3
ENDMDL
MODEL 2
REMARK VINA RESULT: -5.767978259      6.903      9.486
REMARK  3 active torsions:
REMARK  status: ('A' for Active; 'I' for Inactive)
REMARK    1  A    between atoms: C3_3  and  N1_4 
REMARK    2  A    between atoms: N1_4  and  C4_6 
REMARK    3  A    between atoms: C10_12  and  N2_13 
ROOT
HETATM    1  C1  UNL     1      -0.633  13.812  24.346  1.00  0.00     0.018 C 
HETATM    2  C2  UNL     1      -1.779  13.583  24.039  1.00  0.00    -0.073 C 
HETATM    3  C3  UNL     1      -3.192  13.326  23.651  1.00  0.00     0.148 C 
ENDROOT
BRANCH   3   4
HETATM    4  N1  UNL     1      -3.734  14.553  23.247  1.00  0.00    -0.383 N 
ATOM      5  H1  UNL     1      -3.239  15.413  23.479  1.00  0.00     0.160 HD
BRANCH   4   6
HETATM    6  C4  UNL     1      -4.931  14.633  22.536  1.00  0.00     0.036 C 
HETATM    7  C5  UNL     1      -6.051  14.668  23.596  1.00  0.00     0.036 C 
HETATM    8  C6  UNL     1      -7.106  15.429  22.821  1.00  0.00    -0.009 C 
HETATM    9  C7  UNL     1      -6.304  16.618  22.369  1.00  0.00     0.012 C 
HETATM   10  C16 UNL     1      -7.509  14.511  21.701  1.00  0.00     0.036 C 
HETATM   11  C8  UNL     1      -5.116  15.890  21.722  1.00  0.00     0.016 C 
HETATM   12  C9  UNL     1      -5.659  15.453  20.360  1.00  0.00     0.038 C 
HETATM   13  C10 UNL     1      -6.386  14.162  20.755  1.00  0.00     0.035 C 
HETATM   14  C17 UNL     1      -5.276  13.529  21.593  1.00  0.00     0.062 C 
BRANCH  13  15
HETATM   15  N2  UNL     1      -6.842  13.384  19.688  1.00  0.00    -0.384 N 
HETATM   16  C11 UNL     1      -6.948  11.996  19.861  1.00  0.00     0.059 C 
HETATM   17  C12 UNL     1      -7.383  11.199  18.702  1.00  0.00     0.044 C 
HETATM   18  C13 UNL     1      -8.214  11.863  17.668  1.00  0.00     0.007 C 
HETATM   19  C14 UNL     1      -7.682  13.227  17.392  1.00  0.00     0.020 C 
HETATM   20  C15 UNL     1      -7.716  13.979  18.735  1.00  0.00     0.123 C 
ENDBRANCH  13  15
ENDBRANCH   4   6
ENDBRANCH   3   4
TORSDOF 3
ENDMDL
MODEL 3
REMARK VINA RESULT: -5.765293650      0.868      1.489
REMARK  3 active torsions:
REMARK  status: ('A' for Active; 'I' for Inactive)
REMARK    1  A    between atoms: C3_3  and  N1_4 
REMARK    2  A    between atoms: N1_4  and  C4_6 
REMARK    3  A    between atoms: C10_12  and  N2_13 
ROOT
HETATM    1  C1  UNL     1       2.013  10.412  31.151  1.00  0.00     0.018 C 
HETATM    2  C2  UNL     1       1.406   9.662  30.424  1.00  0.00    -0.073 C 
HETATM    3  C3  UNL     1       0.636   8.751  29.536  1.00  0.00     0.148 C 
ENDROOT
BRANCH   3   4
HETATM    4  N1  UNL     1      -0.722   8.976  29.796  1.00  0.00    -0.383 N 
ATOM      5  H1  UNL     1      -1.178   8.442  30.535  1.00  0.00     0.160 HD
BRANCH   4   6
HETATM    6  C4  UNL     1      -1.467   9.908  29.076  1.00  0.00     0.036 C 
HETATM    7  C5  UNL     1      -2.834   9.243  28.812  1.00  0.00     0.036 C 
HETATM    8  C6  UNL     1      -3.700  10.480  28.707  1.00  0.00    -0.009 C 
HETATM    9  C7  UNL     1      -3.312  11.188  29.977  1.00  0.00     0.012 C 
HETATM   10  C16 UNL     1      -3.236  11.180  27.460  1.00  0.00     0.036 C 
HETATM   11  C8  UNL     1      -1.786  11.187  29.810  1.00  0.00     0.016 C 
HETATM   12  C9  UNL     1      -1.529  12.331  28.827  1.00  0.00     0.038 C 
HETATM   13  C10 UNL     1      -1.791  11.614  27.497  1.00  0.00     0.035 C 
HETATM   14  C17 UNL     1      -0.954  10.361  27.750  1.00  0.00     0.062 C 
BRANCH  13  15
HETATM   15  N2  UNL     1      -1.447  12.336  26.352  1.00  0.00    -0.384 N 
HETATM   16  C11 UNL     1      -2.326  12.329  25.259  1.00  0.00     0.059 C 
HETATM   17  C12 UNL     1      -1.911  13.059  24.050  1.00  0.00     0.044 C 
HETATM   18  C13 UNL     1      -0.961  14.188  24.204  1.00  0.00     0.007 C 
HETATM   19  C14 UNL     1       0.108  13.819  25.174  1.00  0.00     0.020 C 
HETATM   20  C15 UNL     1      -0.611  13.480  26.493  1.00  0.00     0.123 C 
ENDBRANCH  13  15
ENDBRANCH   4   6
ENDBRANCH   3   4
TORSDOF 3
ENDMDL
MODEL 4
REMARK VINA RESULT: -5.719190359      6.704     10.040
REMARK  3 active torsions:
REMARK  status: ('A' for Active; 'I' for Inactive)
REMARK    1  A    between atoms: C3_3  and  N1_4 
REMARK    2  A    between atoms: N1_4  and  C4_6 
REMARK    3  A    between atoms: C10_12  and  N2_13 
ROOT
HETATM    1  C1  UNL     1      -8.936  20.831  22.922  1.00  0.00     0.018 C 
HETATM    2  C2  UNL     1      -8.869  19.624  22.930  1.00  0.00    -0.073 C 
HETATM    3  C3  UNL     1      -8.761  18.141  22.943  1.00  0.00     0.148 C 
ENDROOT
BRANCH   3   4
HETATM    4  N1  UNL     1      -7.403  17.829  22.793  1.00  0.00    -0.383 N 
ATOM      5  H1  UNL     1      -6.714  18.577  22.859  1.00  0.00     0.160 HD
BRANCH   4   6
HETATM    6  C4  UNL     1      -6.967  16.527  22.556  1.00  0.00     0.036 C 
HETATM    7  C5  UNL     1      -8.210  15.627  22.718  1.00  0.00     0.036 C 
HETATM    8  C6  UNL     1      -7.815  14.487  21.804  1.00  0.00    -0.009 C 
HETATM    9  C7  UNL     1      -7.455  15.251  20.559  1.00  0.00     0.012 C 
HETATM   10  C16 UNL     1      -6.638  13.835  22.474  1.00  0.00     0.036 C 
HETATM   11  C8  UNL     1      -6.463  16.258  21.159  1.00  0.00     0.016 C 
HETATM   12  C9  UNL     1      -5.173  15.448  21.308  1.00  0.00     0.038 C 
HETATM   13  C10 UNL     1      -5.444  14.742  22.642  1.00  0.00     0.035 C 
HETATM   14  C17 UNL     1      -5.913  15.955  23.445  1.00  0.00     0.062 C 
BRANCH  13  15
HETATM   15  N2  UNL     1      -4.355  14.056  23.185  1.00  0.00    -0.384 N 
HETATM   16  C11 UNL     1      -3.276  14.794  23.693  1.00  0.00     0.059 C 
HETATM   17  C12 UNL     1      -2.123  14.040  24.212  1.00  0.00     0.044 C 
HETATM   18  C13 UNL     1      -2.354  12.663  24.713  1.00  0.00     0.007 C 
HETATM   19  C14 UNL     1      -3.279  11.941  23.794  1.00  0.00     0.020 C 
HETATM   20  C15 UNL     1      -4.575  12.770  23.755  1.00  0.00     0.123 C 
ENDBRANCH  13  15
ENDBRANCH   4   6
ENDBRANCH   3   4
TORSDOF 3
ENDMDL
MODEL 5
REMARK VINA RESULT: -5.694025389      1.248      1.352
REMARK  3 active torsions:
REMARK  status: ('A' for Active; 'I' for Inactive)
REMARK    1  A    between atoms: C3_3  and  N1_4 
REMARK    2  A    between atoms: N1_4  and  C4_6 
REMARK    3  A    between atoms: C10_12  and  N2_13 
ROOT
HETATM    1  C1  UNL     1       1.912  10.298  30.805  1.00  0.00     0.018 C 
HETATM    2  C2  UNL     1       0.763   9.924  30.835  1.00  0.00    -0.073 C 
HETATM    3  C3  UNL     1      -0.648   9.455  30.847  1.00  0.00     0.148 C 
ENDROOT
BRANCH   3   4
HETATM    4  N1  UNL     1      -0.976   9.110  29.530  1.00  0.00    -0.383 N 
ATOM      5  H1  UNL     1      -0.650   8.219  29.157  1.00  0.00     0.160 HD
BRANCH   4   6
HETATM    6  C4  UNL     1      -1.734   9.948  28.714  1.00  0.00     0.036 C 
HETATM    7  C5  UNL     1      -2.853   9.065  28.124  1.00  0.00     0.036 C 
HETATM    8  C6  UNL     1      -3.914  10.122  27.897  1.00  0.00    -0.009 C 
HETATM    9  C7  UNL     1      -3.946  10.767  29.256  1.00  0.00     0.012 C 
HETATM   10  C16 UNL     1      -3.359  11.011  26.820  1.00  0.00     0.036 C 
HETATM   11  C8  UNL     1      -2.450  11.070  29.427  1.00  0.00     0.016 C 
HETATM   12  C9  UNL     1      -2.238  12.329  28.584  1.00  0.00     0.038 C 
HETATM   13  C10 UNL     1      -2.072  11.704  27.194  1.00  0.00     0.035 C 
HETATM   14  C17 UNL     1      -1.066  10.613  27.558  1.00  0.00     0.062 C 
BRANCH  13  15
HETATM   15  N2  UNL     1      -1.658  12.584  26.191  1.00  0.00    -0.384 N 
HETATM   16  C11 UNL     1      -0.358  13.109  26.247  1.00  0.00     0.059 C 
HETATM   17  C12 UNL     1       0.030  14.072  25.203  1.00  0.00     0.044 C 
HETATM   18  C13 UNL     1      -0.663  14.003  23.894  1.00  0.00     0.007 C 
HETATM   19  C14 UNL     1      -2.122  13.785  24.106  1.00  0.00     0.020 C 
HETATM   20  C15 UNL     1      -2.246  12.471  24.899  1.00  0.00     0.123 C 
ENDBRANCH  13  15
ENDBRANCH   4   6
ENDBRANCH   3   4
TORSDOF 3
ENDMDL
