MODEL 1
REMARK VINA RESULT: -5.763165568      0.000      0.000
REMARK  3 active torsions:
REMARK  status: ('A' for Active; 'I' for Inactive)
REMARK    1  A    between atoms: C2_2  and  N1_3 
REMARK    2  A    between atoms: C2_2  and  N2_15 
REMARK    3  A    between atoms: N1_3  and  C3_5 
ROOT
HETATM    1  C3  UNL     1      -1.421  11.687  27.074  1.00  0.00     0.028 C 
HETATM    2  C4  UNL     1      -1.102  12.565  28.258  1.00  0.00     0.035 C 
HETATM    3  C5  UNL     1      -1.724  11.976  29.497  1.00  0.00    -0.012 C 
HETATM    4  C6  UNL     1      -1.115  10.626  29.762  1.00  0.00     0.009 C 
HETATM    5  C7  UNL     1      -1.413   9.709  28.608  1.00  0.00    -0.012 C 
HETATM    6  C8  UNL     1      -2.895   9.547  28.364  1.00  0.00     0.009 C 
HETATM    7  C9  UNL     1      -3.473  10.917  28.158  1.00  0.00    -0.012 C 
HETATM    8  C10 UNL     1      -3.208  11.808  29.338  1.00  0.00     0.009 C 
HETATM    9  C11 UNL     1      -2.896  11.482  26.872  1.00  0.00     0.035 C 
HETATM   10  C12 UNL     1      -0.820  10.319  27.369  1.00  0.00     0.035 C 
ENDROOT
BRANCH   1  11
HETATM   11  N1  UNL     1      -0.734  12.181  25.920  1.00  0.00    -0.385 N 
ATOM     12  H1  UNL     1      -0.250  11.563  25.269  1.00  0.00     0.156 HD
BRANCH  11  13
HETATM   13  C2  UNL     1      -0.769  13.595  25.740  1.00  0.00     0.316 C 
HETATM   14  C1  UNL     1      -1.835  13.902  24.719  1.00  0.00     0.066 C 
BRANCH  13  15
HETATM   15  N2  UNL     1       0.529  14.071  25.401  1.00  0.00     0.135 N 
HETATM   16  C13 UNL     1       0.684  14.528  24.054  1.00  0.00     0.304 C 
HETATM   17  C14 UNL     1       1.878  15.465  24.213  1.00  0.00     0.200 C 
HETATM   18  O1  UNL     1       1.814  15.951  25.504  1.00  0.00    -0.361 OA
HETATM   19  C15 UNL     1       1.065  15.075  26.265  1.00  0.00     0.443 C 
ENDBRANCH  13  15
ENDBRANCH  11  13
ENDBRANCH   1  11
TORSDOF 3
ENDMDL
MODEL 2
REMARK VINA RESULT: -5.568919400      0.543      1.703
REMARK  3 active torsions:
REMARK  status: ('A' for Active; 'I' for Inactive)
REMARK    1  A    between atoms: C2_2  and  N1_3 
REMARK    2  A    between atoms: C2_2  and  N2_15 
REMARK    3  A    between atoms: N1_3  and  C3_5 
ROOT
HETATM    1  C3  UNL     1      -1.864  11.667  26.872  1.00  0.00     0.028 C 
HETATM    2  C4  UNL     1      -0.957  10.487  27.114  1.00  0.00     0.035 C 
HETATM    3  C5  UNL     1      -1.285   9.871  28.448  1.00  0.00    -0.012 C 
HETATM    4  C6  UNL     1      -2.697   9.352  28.419  1.00  0.00     0.009 C 
HETATM    5  C7  UNL     1      -3.645  10.496  28.186  1.00  0.00    -0.012 C 
HETATM    6  C8  UNL     1      -3.530  11.568  29.245  1.00  0.00     0.009 C 
HETATM    7  C9  UNL     1      -2.099  12.020  29.280  1.00  0.00    -0.012 C 
HETATM    8  C10 UNL     1      -1.168  10.875  29.560  1.00  0.00     0.009 C 
HETATM    9  C11 UNL     1      -1.789  12.702  27.959  1.00  0.00     0.035 C 
HETATM   10  C12 UNL     1      -3.289  11.129  26.869  1.00  0.00     0.035 C 
ENDROOT
BRANCH   1  11
HETATM   11  N1  UNL     1      -1.632  12.180  25.556  1.00  0.00    -0.385 N 
ATOM     12  H1  UNL     1      -1.636  11.581  24.731  1.00  0.00     0.156 HD
BRANCH  11  13
HETATM   13  C2  UNL     1      -1.394  13.583  25.474  1.00  0.00     0.316 C 
HETATM   14  C1  UNL     1      -2.302  14.141  24.406  1.00  0.00     0.066 C 
BRANCH  13  15
HETATM   15  N2  UNL     1      -0.009  13.826  25.259  1.00  0.00     0.135 N 
HETATM   16  C13 UNL     1       0.332  14.343  23.969  1.00  0.00     0.304 C 
HETATM   17  C14 UNL     1       1.662  15.021  24.283  1.00  0.00     0.200 C 
HETATM   18  O1  UNL     1       1.589  15.415  25.604  1.00  0.00    -0.361 OA
HETATM   19  C15 UNL     1       0.635  14.644  26.238  1.00  0.00     0.443 C 
ENDBRANCH  13  15
ENDBRANCH  11  13
ENDBRANCH   1  11
TORSDOF 3
ENDMDL
MODEL 3
REMARK VINA RESULT: -5.511423814      5.961      8.315
REMARK  3 active torsions:
REMARK  status: ('A' for Active; 'I' for Inactive)
REMARK    1  A    between atoms: C2_2  and  N1_3 
REMARK    2  A    between atoms: C2_2  and  N2_15 
REMARK    3  A    between atoms: N1_3  and  C3_5 
ROOT
HETATM    1  C3  UNL     1      -5.751  14.020  22.506  1.00  0.00     0.028 C 
HETATM    2  C4  UNL     1      -6.911  13.531  23.336  1.00  0.00     0.035 C 
HETATM    3  C5  UNL     1      -7.816  14.690  23.659  1.00  0.00    -0.012 C 
HETATM    4  C6  UNL     1      -8.382  15.246  22.380  1.00  0.00     0.009 C 
HETATM    5  C7  UNL     1      -7.261  15.754  21.517  1.00  0.00    -0.012 C 
HETATM    6  C8  UNL     1      -6.440  16.821  22.203  1.00  0.00     0.009 C 
HETATM    7  C9  UNL     1      -5.939  16.248  23.496  1.00  0.00    -0.012 C 
HETATM    8  C10 UNL     1      -7.073  15.786  24.368  1.00  0.00     0.009 C 
HETATM    9  C11 UNL     1      -4.974  15.122  23.169  1.00  0.00     0.035 C 
HETATM   10  C12 UNL     1      -6.342  14.600  21.228  1.00  0.00     0.035 C 
ENDROOT
BRANCH   1  11
HETATM   11  N1  UNL     1      -4.954  12.901  22.101  1.00  0.00    -0.385 N 
ATOM     12  H1  UNL     1      -4.364  12.926  21.269  1.00  0.00     0.156 HD
BRANCH  11  13
HETATM   13  C2  UNL     1      -5.039  11.750  22.937  1.00  0.00     0.316 C 
HETATM   14  C1  UNL     1      -3.745  11.644  23.706  1.00  0.00     0.066 C 
BRANCH  13  15
HETATM   15  N2  UNL     1      -5.355  10.605  22.151  1.00  0.00     0.135 N 
HETATM   16  C13 UNL     1      -5.369  10.815  20.737  1.00  0.00     0.304 C 
HETATM   17  C14 UNL     1      -5.128   9.392  20.241  1.00  0.00     0.200 C 
HETATM   18  O1  UNL     1      -4.380   8.768  21.219  1.00  0.00    -0.361 OA
HETATM   19  C15 UNL     1      -4.568   9.441  22.410  1.00  0.00     0.443 C 
ENDBRANCH  13  15
ENDBRANCH  11  13
ENDBRANCH   1  11
TORSDOF 3
ENDMDL
MODEL 4
REMARK VINA RESULT: -5.489920548      0.208      1.770
REMARK  3 active torsions:
REMARK  status: ('A' for Active; 'I' for Inactive)
REMARK    1  A    between atoms: C2_2  and  N1_3 
REMARK    2  A    between atoms: C2_2  and  N2_15 
REMARK    3  A    between atoms: N1_3  and  C3_5 
ROOT
HETATM    1  C3  UNL     1      -1.518  11.516  26.970  1.00  0.00     0.028 C 
HETATM    2  C4  UNL     1      -3.017  11.359  26.905  1.00  0.00     0.035 C 
HETATM    3  C5  UNL     1      -3.523  10.852  28.229  1.00  0.00    -0.012 C 
HETATM    4  C6  UNL     1      -3.225  11.871  29.295  1.00  0.00     0.009 C 
HETATM    5  C7  UNL     1      -1.737  12.060  29.403  1.00  0.00    -0.012 C 
HETATM    6  C8  UNL     1      -1.012  10.775  29.728  1.00  0.00     0.009 C 
HETATM    7  C9  UNL     1      -1.377   9.769  28.676  1.00  0.00    -0.012 C 
HETATM    8  C10 UNL     1      -2.863   9.557  28.610  1.00  0.00     0.009 C 
HETATM    9  C11 UNL     1      -0.808  10.248  27.351  1.00  0.00     0.035 C 
HETATM   10  C12 UNL     1      -1.233  12.532  28.069  1.00  0.00     0.035 C 
ENDROOT
BRANCH   1  11
HETATM   11  N1  UNL     1      -1.051  12.107  25.753  1.00  0.00    -0.385 N 
ATOM     12  H1  UNL     1      -0.774  11.546  24.947  1.00  0.00     0.156 HD
BRANCH  11  13
HETATM   13  C2  UNL     1      -0.998  13.532  25.740  1.00  0.00     0.316 C 
HETATM   14  C1  UNL     1      -2.041  14.021  24.767  1.00  0.00     0.066 C 
BRANCH  13  15
HETATM   15  N2  UNL     1       0.328  13.963  25.452  1.00  0.00     0.135 N 
HETATM   16  C13 UNL     1       0.554  14.399  24.109  1.00  0.00     0.304 C 
HETATM   17  C14 UNL     1       1.769  15.300  24.309  1.00  0.00     0.200 C 
HETATM   18  O1  UNL     1       1.665  15.804  25.590  1.00  0.00    -0.361 OA
HETATM   19  C15 UNL     1       0.857  14.960  26.327  1.00  0.00     0.443 C 
ENDBRANCH  13  15
ENDBRANCH  11  13
ENDBRANCH   1  11
TORSDOF 3
ENDMDL
MODEL 5
REMARK VINA RESULT: -5.474195962      5.987      8.302
REMARK  3 active torsions:
REMARK  status: ('A' for Active; 'I' for Inactive)
REMARK    1  A    between atoms: C2_2  and  N1_3 
REMARK    2  A    between atoms: C2_2  and  N2_15 
REMARK    3  A    between atoms: N1_3  and  C3_5 
ROOT
HETATM    1  C3  UNL     1      -5.861  13.935  22.414  1.00  0.00     0.028 C 
HETATM    2  C4  UNL     1      -6.376  14.533  21.129  1.00  0.00     0.035 C 
HETATM    3  C5  UNL     1      -7.237  15.728  21.445  1.00  0.00    -0.012 C 
HETATM    4  C6  UNL     1      -6.398  16.776  22.122  1.00  0.00     0.009 C 
HETATM    5  C7  UNL     1      -5.864  16.229  23.417  1.00  0.00    -0.012 C 
HETATM    6  C8  UNL     1      -6.963  15.787  24.356  1.00  0.00     0.009 C 
HETATM    7  C9  UNL     1      -7.808  14.785  23.626  1.00  0.00    -0.012 C 
HETATM    8  C10 UNL     1      -8.372  15.360  22.358  1.00  0.00     0.009 C 
HETATM    9  C11 UNL     1      -6.958  13.553  23.368  1.00  0.00     0.035 C 
HETATM   10  C12 UNL     1      -5.035  15.016  23.099  1.00  0.00     0.035 C 
ENDROOT
BRANCH   1  11
HETATM   11  N1  UNL     1      -4.951  12.873  22.111  1.00  0.00    -0.385 N 
ATOM     12  H1  UNL     1      -4.265  12.944  21.360  1.00  0.00     0.156 HD
BRANCH  11  13
HETATM   13  C2  UNL     1      -5.066  11.710  22.927  1.00  0.00     0.316 C 
HETATM   14  C1  UNL     1      -3.787  11.574  23.715  1.00  0.00     0.066 C 
BRANCH  13  15
HETATM   15  N2  UNL     1      -5.385  10.583  22.118  1.00  0.00     0.135 N 
HETATM   16  C13 UNL     1      -5.380  10.817  20.708  1.00  0.00     0.304 C 
HETATM   17  C14 UNL     1      -5.148   9.400  20.190  1.00  0.00     0.200 C 
HETATM   18  O1  UNL     1      -4.418   8.751  21.166  1.00  0.00    -0.361 OA
HETATM   19  C15 UNL     1      -4.612   9.406  22.366  1.00  0.00     0.443 C 
ENDBRANCH  13  15
ENDBRANCH  11  13
ENDBRANCH   1  11
TORSDOF 3
ENDMDL
