MODEL 1
REMARK VINA RESULT: -5.606601138      0.000      0.000
REMARK  2 active torsions:
REMARK  status: ('A' for Active; 'I' for Inactive)
REMARK    1  A    between atoms: C6_9  and  O1_10 
REMARK    2  A    between atoms: O1_10  and  C7_11 
ROOT
HETATM    1  C7  UNL     1      -5.358  14.073  22.284  1.00  0.00     0.126 C 
HETATM    2  C8  UNL     1      -6.213  14.114  23.525  1.00  0.00     0.037 C 
HETATM    3  C9  UNL     1      -7.281  15.189  23.455  1.00  0.00    -0.008 C 
HETATM    4  C10 UNL     1      -8.217  14.917  22.318  1.00  0.00     0.010 C 
HETATM    5  C11 UNL     1      -7.831  15.947  21.299  1.00  0.00    -0.013 C 
HETATM    6  C12 UNL     1      -7.597  17.176  22.179  1.00  0.00     0.009 C 
HETATM    7  C13 UNL     1      -6.698  16.558  23.260  1.00  0.00    -0.010 C 
HETATM    8  C14 UNL     1      -5.307  16.482  22.618  1.00  0.00     0.012 C 
HETATM    9  C15 UNL     1      -5.390  15.414  21.558  1.00  0.00     0.015 C 
HETATM   10  C16 UNL     1      -6.544  15.555  20.638  1.00  0.00     0.012 C 
ENDROOT
BRANCH   1  11
HETATM   11  O1  UNL     1      -4.023  13.820  22.568  1.00  0.00    -0.378 OA
BRANCH  11  12
HETATM   12  C6  UNL     1      -3.757  13.621  23.897  1.00  0.00     0.154 C 
HETATM   13  C3  UNL     1      -2.923  12.348  24.051  1.00  0.00     0.215 C 
HETATM   14  C2  UNL     1      -2.484  12.166  25.466  1.00  0.00     0.037 C 
HETATM   15  N1  UNL     1      -1.675  12.811  23.417  1.00  0.00    -0.064 N 
HETATM   16  C1  UNL     1      -1.303  13.131  25.649  1.00  0.00     0.035 C 
HETATM   17  C4  UNL     1      -1.407  13.921  24.349  1.00  0.00     0.189 C 
HETATM   18  C5  UNL     1      -2.701  14.666  24.298  1.00  0.00     0.067 C 
ATOM     19  H12 UNL     1      -0.934  12.122  23.289  1.00  0.00     0.278 HD
ATOM     20  H11 UNL     1      -1.715  13.038  22.423  1.00  0.00     0.278 HD
ENDBRANCH  11  12
ENDBRANCH   1  11
TORSDOF 2
ENDMDL
MODEL 2
REMARK VINA RESULT: -5.347275096      3.272      4.604
REMARK  2 active torsions:
REMARK  status: ('A' for Active; 'I' for Inactive)
REMARK    1  A    between atoms: C6_9  and  O1_10 
REMARK    2  A    between atoms: O1_10  and  C7_11 
ROOT
HETATM    1  C7  UNL     1      -3.780  11.991  24.513  1.00  0.00     0.126 C 
HETATM    2  C8  UNL     1      -4.238  12.635  23.229  1.00  0.00     0.037 C 
HETATM    3  C9  UNL     1      -5.278  11.801  22.505  1.00  0.00    -0.008 C 
HETATM    4  C10 UNL     1      -6.505  11.650  23.351  1.00  0.00     0.010 C 
HETATM    5  C11 UNL     1      -6.428  10.227  23.820  1.00  0.00    -0.013 C 
HETATM    6  C12 UNL     1      -5.945   9.515  22.556  1.00  0.00     0.009 C 
HETATM    7  C13 UNL     1      -4.773  10.429  22.169  1.00  0.00    -0.010 C 
HETATM    8  C14 UNL     1      -3.628  10.016  23.103  1.00  0.00     0.012 C 
HETATM    9  C15 UNL     1      -4.017  10.485  24.480  1.00  0.00     0.015 C 
HETATM   10  C16 UNL     1      -5.389  10.098  24.893  1.00  0.00     0.012 C 
ENDROOT
BRANCH   1  11
HETATM   11  O1  UNL     1      -2.421  12.163  24.737  1.00  0.00    -0.378 OA
BRANCH  11  12
HETATM   12  C6  UNL     1      -2.085  13.386  25.256  1.00  0.00     0.154 C 
HETATM   13  C3  UNL     1      -1.405  13.179  26.611  1.00  0.00     0.215 C 
HETATM   14  C2  UNL     1      -0.890  14.470  27.151  1.00  0.00     0.037 C 
HETATM   15  N1  UNL     1      -0.159  12.539  26.148  1.00  0.00    -0.064 N 
HETATM   16  C1  UNL     1       0.411  14.741  26.380  1.00  0.00     0.035 C 
HETATM   17  C4  UNL     1       0.310  13.658  25.311  1.00  0.00     0.189 C 
HETATM   18  C5  UNL     1      -0.883  13.896  24.444  1.00  0.00     0.067 C 
ATOM     19  H12 UNL     1       0.480  12.194  26.863  1.00  0.00     0.278 HD
ATOM     20  H11 UNL     1      -0.243  11.627  25.700  1.00  0.00     0.278 HD
ENDBRANCH  11  12
ENDBRANCH   1  11
TORSDOF 2
ENDMDL
MODEL 3
REMARK VINA RESULT: -5.344888916      1.134      2.170
REMARK  2 active torsions:
REMARK  status: ('A' for Active; 'I' for Inactive)
REMARK    1  A    between atoms: C6_9  and  O1_10 
REMARK    2  A    between atoms: O1_10  and  C7_11 
ROOT
HETATM    1  C7  UNL     1      -4.370  14.077  22.893  1.00  0.00     0.126 C 
HETATM    2  C8  UNL     1      -5.140  13.324  21.838  1.00  0.00     0.037 C 
HETATM    3  C9  UNL     1      -6.265  14.151  21.245  1.00  0.00    -0.008 C 
HETATM    4  C10 UNL     1      -5.714  15.366  20.564  1.00  0.00     0.010 C 
HETATM    5  C11 UNL     1      -6.073  16.479  21.503  1.00  0.00    -0.013 C 
HETATM    6  C12 UNL     1      -7.486  16.079  21.927  1.00  0.00     0.009 C 
HETATM    7  C13 UNL     1      -7.246  14.605  22.285  1.00  0.00    -0.010 C 
HETATM    8  C14 UNL     1      -6.603  14.639  23.677  1.00  0.00     0.012 C 
HETATM    9  C15 UNL     1      -5.217  15.198  23.487  1.00  0.00     0.015 C 
HETATM   10  C16 UNL     1      -5.167  16.452  22.697  1.00  0.00     0.012 C 
ENDROOT
BRANCH   1  11
HETATM   11  O1  UNL     1      -3.999  13.268  23.958  1.00  0.00    -0.378 OA
BRANCH  11  12
HETATM   12  C6  UNL     1      -2.696  12.846  23.918  1.00  0.00     0.154 C 
HETATM   13  C3  UNL     1      -1.776  14.063  24.036  1.00  0.00     0.215 C 
HETATM   14  C2  UNL     1      -0.348  13.644  24.143  1.00  0.00     0.037 C 
HETATM   15  N1  UNL     1      -2.074  14.442  25.431  1.00  0.00    -0.064 N 
HETATM   16  C1  UNL     1      -0.170  13.189  25.600  1.00  0.00     0.035 C 
HETATM   17  C4  UNL     1      -1.625  13.183  26.052  1.00  0.00     0.189 C 
HETATM   18  C5  UNL     1      -2.406  12.176  25.271  1.00  0.00     0.067 C 
ATOM     19  H12 UNL     1      -1.658  15.305  25.777  1.00  0.00     0.278 HD
ATOM     20  H11 UNL     1      -3.024  14.749  25.636  1.00  0.00     0.278 HD
ENDBRANCH  11  12
ENDBRANCH   1  11
TORSDOF 2
ENDMDL
MODEL 4
REMARK VINA RESULT: -5.344401449      3.556      6.122
REMARK  2 active torsions:
REMARK  status: ('A' for Active; 'I' for Inactive)
REMARK    1  A    between atoms: C6_9  and  O1_10 
REMARK    2  A    between atoms: O1_10  and  C7_11 
ROOT
HETATM    1  C7  UNL     1      -6.955  14.674  20.447  1.00  0.00     0.126 C 
HETATM    2  C8  UNL     1      -5.726  15.531  20.611  1.00  0.00     0.037 C 
HETATM    3  C9  UNL     1      -5.571  16.054  22.026  1.00  0.00    -0.008 C 
HETATM    4  C10 UNL     1      -5.411  14.915  22.986  1.00  0.00     0.010 C 
HETATM    5  C11 UNL     1      -6.734  14.868  23.690  1.00  0.00    -0.013 C 
HETATM    6  C12 UNL     1      -7.030  16.356  23.885  1.00  0.00     0.009 C 
HETATM    7  C13 UNL     1      -6.753  16.867  22.464  1.00  0.00    -0.010 C 
HETATM    8  C14 UNL     1      -8.008  16.499  21.662  1.00  0.00     0.012 C 
HETATM    9  C15 UNL     1      -7.991  15.000  21.518  1.00  0.00     0.015 C 
HETATM   10  C16 UNL     1      -7.770  14.267  22.789  1.00  0.00     0.012 C 
ENDROOT
BRANCH   1  11
HETATM   11  O1  UNL     1      -7.585  14.877  19.227  1.00  0.00    -0.378 OA
BRANCH  11  12
HETATM   12  C6  UNL     1      -8.463  13.886  18.874  1.00  0.00     0.154 C 
HETATM   13  C3  UNL     1      -8.540  13.813  17.348  1.00  0.00     0.215 C 
HETATM   14  C2  UNL     1      -9.373  12.655  16.911  1.00  0.00     0.037 C 
HETATM   15  N1  UNL     1      -7.180  13.315  17.071  1.00  0.00    -0.064 N 
HETATM   16  C1  UNL     1      -8.465  11.425  17.065  1.00  0.00     0.035 C 
HETATM   17  C4  UNL     1      -7.301  12.053  17.823  1.00  0.00     0.189 C 
HETATM   18  C5  UNL     1      -7.758  12.549  19.156  1.00  0.00     0.067 C 
ATOM     19  H12 UNL     1      -6.898  13.249  16.094  1.00  0.00     0.278 HD
ATOM     20  H11 UNL     1      -6.402  13.929  17.314  1.00  0.00     0.278 HD
ENDBRANCH  11  12
ENDBRANCH   1  11
TORSDOF 2
ENDMDL
MODEL 5
REMARK VINA RESULT: -5.325006134      3.724      6.089
REMARK  2 active torsions:
REMARK  status: ('A' for Active; 'I' for Inactive)
REMARK    1  A    between atoms: C6_9  and  O1_10 
REMARK    2  A    between atoms: O1_10  and  C7_11 
ROOT
HETATM    1  C7  UNL     1      -7.198  15.445  20.397  1.00  0.00     0.126 C 
HETATM    2  C8  UNL     1      -8.620  15.430  20.898  1.00  0.00     0.037 C 
HETATM    3  C9  UNL     1      -8.711  15.727  22.382  1.00  0.00    -0.008 C 
HETATM    4  C10 UNL     1      -8.185  17.100  22.672  1.00  0.00     0.010 C 
HETATM    5  C11 UNL     1      -6.861  16.833  23.323  1.00  0.00    -0.013 C 
HETATM    6  C12 UNL     1      -7.196  15.640  24.219  1.00  0.00     0.009 C 
HETATM    7  C13 UNL     1      -7.929  14.747  23.207  1.00  0.00    -0.010 C 
HETATM    8  C14 UNL     1      -6.814  14.092  22.381  1.00  0.00     0.012 C 
HETATM    9  C15 UNL     1      -6.218  15.187  21.536  1.00  0.00     0.015 C 
HETATM   10  C16 UNL     1      -5.859  16.414  22.289  1.00  0.00     0.012 C 
ENDROOT
BRANCH   1  11
HETATM   11  O1  UNL     1      -6.959  14.457  19.452  1.00  0.00    -0.378 OA
BRANCH  11  12
HETATM   12  C6  UNL     1      -8.091  13.861  18.960  1.00  0.00     0.154 C 
HETATM   13  C3  UNL     1      -8.107  14.008  17.437  1.00  0.00     0.215 C 
HETATM   14  C2  UNL     1      -9.245  13.250  16.841  1.00  0.00     0.037 C 
HETATM   15  N1  UNL     1      -6.969  13.130  17.108  1.00  0.00    -0.064 N 
HETATM   16  C1  UNL     1      -8.794  11.782  16.836  1.00  0.00     0.035 C 
HETATM   17  C4  UNL     1      -7.530  11.894  17.682  1.00  0.00     0.189 C 
HETATM   18  C5  UNL     1      -7.872  12.342  19.066  1.00  0.00     0.067 C 
ATOM     19  H12 UNL     1      -6.673  13.098  16.133  1.00  0.00     0.278 HD
ATOM     20  H11 UNL     1      -6.048  13.419  17.439  1.00  0.00     0.278 HD
ENDBRANCH  11  12
ENDBRANCH   1  11
TORSDOF 2
ENDMDL
