MODEL 1
REMARK VINA RESULT: -5.563612625      0.000      0.000
REMARK  3 active torsions:
REMARK  status: ('A' for Active; 'I' for Inactive)
REMARK    1  A    between atoms: C2_2  and  S1_3 
REMARK    2  A    between atoms: S1_3  and  C3_5 
REMARK    3  A    between atoms: C6_8  and  C7_9 
ROOT
HETATM    1  C3  UNL     1       0.017  14.722  25.925  1.00  0.00     0.112 C 
HETATM    2  C4  UNL     1       0.465  14.250  27.290  1.00  0.00     0.022 C 
HETATM    3  C5  UNL     1      -0.679  13.550  27.944  1.00  0.00     0.037 C 
HETATM    4  C6  UNL     1      -1.675  12.958  27.027  1.00  0.00     0.226 C 
HETATM    5  N1  UNL     1      -1.219  12.607  25.730  1.00  0.00     0.090 N 
HETATM    6  C13 UNL     1      -2.381  12.460  24.868  1.00  0.00     0.310 C 
HETATM    7  C14 UNL     1      -0.290  13.486  25.122  1.00  0.00     0.290 C 
ENDROOT
BRANCH   4   8
HETATM    8  C7  UNL     1      -2.336  11.728  27.625  1.00  0.00     0.019 C 
HETATM    9  C8  UNL     1      -1.358  10.593  27.805  1.00  0.00     0.007 C 
HETATM   10  C9  UNL     1      -2.223   9.361  28.110  1.00  0.00     0.000 C 
HETATM   11  C10 UNL     1      -2.826   9.592  29.473  1.00  0.00     0.000 C 
HETATM   12  C11 UNL     1      -3.547  10.876  29.616  1.00  0.00     0.000 C 
HETATM   13  C12 UNL     1      -2.917  12.054  28.976  1.00  0.00     0.007 C 
ENDBRANCH   4   8
BRANCH   1  14
HETATM   14  S1  UNL     1       1.318  15.636  25.135  1.00  0.00     0.044 S 
HETATM   15  O1  UNL     1       2.691  15.544  26.091  1.00  0.00    -0.253 OA
BRANCH  14  16
HETATM   16  C2  UNL     1       1.687  14.982  23.550  1.00  0.00     0.069 C 
HETATM   17  C1  UNL     1       1.222  15.585  22.475  1.00  0.00     0.021 C 
ENDBRANCH  14  16
ENDBRANCH   1  14
TORSDOF 3
ENDMDL
MODEL 2
REMARK VINA RESULT: -5.367275861      4.662      6.639
REMARK  3 active torsions:
REMARK  status: ('A' for Active; 'I' for Inactive)
REMARK    1  A    between atoms: C2_2  and  S1_3 
REMARK    2  A    between atoms: S1_3  and  C3_5 
REMARK    3  A    between atoms: C6_8  and  C7_9 
ROOT
HETATM    1  C3  UNL     1      -5.037  12.459  22.497  1.00  0.00     0.112 C 
HETATM    2  C4  UNL     1      -4.400  11.523  23.501  1.00  0.00     0.022 C 
HETATM    3  C5  UNL     1      -3.049  12.053  23.846  1.00  0.00     0.037 C 
HETATM    4  C6  UNL     1      -2.871  13.509  23.677  1.00  0.00     0.226 C 
HETATM    5  N1  UNL     1      -4.039  14.310  23.768  1.00  0.00     0.090 N 
HETATM    6  C13 UNL     1      -3.749  15.601  23.166  1.00  0.00     0.310 C 
HETATM    7  C14 UNL     1      -5.220  13.779  23.197  1.00  0.00     0.290 C 
ENDROOT
BRANCH   4   8
HETATM    8  C7  UNL     1      -1.856  14.073  24.657  1.00  0.00     0.019 C 
HETATM    9  C8  UNL     1      -1.842  13.310  25.959  1.00  0.00     0.007 C 
HETATM   10  C9  UNL     1      -1.018  14.174  26.924  1.00  0.00     0.000 C 
HETATM   11  C10 UNL     1       0.403  14.138  26.422  1.00  0.00     0.000 C 
HETATM   12  C11 UNL     1       0.561  14.517  25.000  1.00  0.00     0.000 C 
HETATM   13  C12 UNL     1      -0.471  14.006  24.069  1.00  0.00     0.007 C 
ENDBRANCH   4   8
BRANCH   1  14
HETATM   14  S1  UNL     1      -6.617  11.830  21.989  1.00  0.00     0.044 S 
HETATM   15  O1  UNL     1      -7.702  13.104  21.920  1.00  0.00    -0.253 OA
BRANCH  14  16
HETATM   16  C2  UNL     1      -6.526  11.079  20.406  1.00  0.00     0.069 C 
HETATM   17  C1  UNL     1      -5.470  10.357  20.091  1.00  0.00     0.021 C 
ENDBRANCH  14  16
ENDBRANCH   1  14
TORSDOF 3
ENDMDL
MODEL 3
REMARK VINA RESULT: -5.340937583      1.846      2.029
REMARK  3 active torsions:
REMARK  status: ('A' for Active; 'I' for Inactive)
REMARK    1  A    between atoms: C2_2  and  S1_3 
REMARK    2  A    between atoms: S1_3  and  C3_5 
REMARK    3  A    between atoms: C6_8  and  C7_9 
ROOT
HETATM    1  C3  UNL     1       0.328  14.996  24.190  1.00  0.00     0.112 C 
HETATM    2  C4  UNL     1       1.039  14.551  25.448  1.00  0.00     0.022 C 
HETATM    3  C5  UNL     1       0.014  14.087  26.428  1.00  0.00     0.037 C 
HETATM    4  C6  UNL     1      -1.254  13.603  25.846  1.00  0.00     0.226 C 
HETATM    5  N1  UNL     1      -1.196  13.098  24.521  1.00  0.00     0.090 N 
HETATM    6  C13 UNL     1      -2.548  13.081  23.986  1.00  0.00     0.310 C 
HETATM    7  C14 UNL     1      -0.341  13.775  23.619  1.00  0.00     0.290 C 
ENDROOT
BRANCH   4   8
HETATM    8  C7  UNL     1      -1.903  12.537  26.711  1.00  0.00     0.019 C 
HETATM    9  C8  UNL     1      -1.190  11.211  26.605  1.00  0.00     0.007 C 
HETATM   10  C9  UNL     1      -2.129  10.194  27.268  1.00  0.00     0.000 C 
HETATM   11  C10 UNL     1      -2.146  10.525  28.739  1.00  0.00     0.000 C 
HETATM   12  C11 UNL     1      -2.480  11.933  29.048  1.00  0.00     0.000 C 
HETATM   13  C12 UNL     1      -1.884  12.955  28.158  1.00  0.00     0.007 C 
ENDBRANCH   4   8
BRANCH   1  14
HETATM   14  S1  UNL     1       1.498  15.637  23.018  1.00  0.00     0.044 S 
HETATM   15  O1  UNL     1       0.656  16.373  21.770  1.00  0.00    -0.253 OA
BRANCH  14  16
HETATM   16  C2  UNL     1       2.559  16.822  23.758  1.00  0.00     0.069 C 
HETATM   17  C1  UNL     1       3.015  17.825  23.036  1.00  0.00     0.021 C 
ENDBRANCH  14  16
ENDBRANCH   1  14
TORSDOF 3
ENDMDL
MODEL 4
REMARK VINA RESULT: -5.268943966      4.300      6.431
REMARK  3 active torsions:
REMARK  status: ('A' for Active; 'I' for Inactive)
REMARK    1  A    between atoms: C2_2  and  S1_3 
REMARK    2  A    between atoms: S1_3  and  C3_5 
REMARK    3  A    between atoms: C6_8  and  C7_9 
ROOT
HETATM    1  C3  UNL     1      -2.200  13.661  23.881  1.00  0.00     0.112 C 
HETATM    2  C4  UNL     1      -2.853  14.988  24.199  1.00  0.00     0.022 C 
HETATM    3  C5  UNL     1      -4.000  15.183  23.264  1.00  0.00     0.037 C 
HETATM    4  C6  UNL     1      -4.601  13.948  22.723  1.00  0.00     0.226 C 
HETATM    5  N1  UNL     1      -4.460  12.773  23.507  1.00  0.00     0.090 N 
HETATM    6  C13 UNL     1      -4.715  11.626  22.650  1.00  0.00     0.310 C 
HETATM    7  C14 UNL     1      -3.224  12.597  24.174  1.00  0.00     0.290 C 
ENDROOT
BRANCH   4   8
HETATM    8  C7  UNL     1      -6.081  14.121  22.425  1.00  0.00     0.019 C 
HETATM    9  C8  UNL     1      -6.845  14.617  23.628  1.00  0.00     0.007 C 
HETATM   10  C9  UNL     1      -8.326  14.440  23.266  1.00  0.00     0.000 C 
HETATM   11  C10 UNL     1      -8.618  15.431  22.168  1.00  0.00     0.000 C 
HETATM   12  C11 UNL     1      -7.706  15.345  21.006  1.00  0.00     0.000 C 
HETATM   13  C12 UNL     1      -6.275  15.118  21.313  1.00  0.00     0.007 C 
ENDBRANCH   4   8
BRANCH   1  14
HETATM   14  S1  UNL     1      -0.775  13.416  24.912  1.00  0.00     0.044 S 
HETATM   15  O1  UNL     1       0.476  14.366  24.328  1.00  0.00    -0.253 OA
BRANCH  14  16
HETATM   16  C2  UNL     1      -1.104  13.873  26.573  1.00  0.00     0.069 C 
HETATM   17  C1  UNL     1      -0.255  14.652  27.212  1.00  0.00     0.021 C 
ENDBRANCH  14  16
ENDBRANCH   1  14
TORSDOF 3
ENDMDL
MODEL 5
REMARK VINA RESULT: -5.189374145      3.770      6.193
REMARK  3 active torsions:
REMARK  status: ('A' for Active; 'I' for Inactive)
REMARK    1  A    between atoms: C2_2  and  S1_3 
REMARK    2  A    between atoms: S1_3  and  C3_5 
REMARK    3  A    between atoms: C6_8  and  C7_9 
ROOT
HETATM    1  C3  UNL     1      -1.742  13.234  24.540  1.00  0.00     0.112 C 
HETATM    2  C4  UNL     1      -2.351  14.614  24.645  1.00  0.00     0.022 C 
HETATM    3  C5  UNL     1      -3.375  14.758  23.569  1.00  0.00     0.037 C 
HETATM    4  C6  UNL     1      -3.980  13.500  23.089  1.00  0.00     0.226 C 
HETATM    5  N1  UNL     1      -3.992  12.410  23.998  1.00  0.00     0.090 N 
HETATM    6  C13 UNL     1      -4.213  11.191  23.238  1.00  0.00     0.310 C 
HETATM    7  C14 UNL     1      -2.848  12.252  24.818  1.00  0.00     0.290 C 
ENDROOT
BRANCH   4   8
HETATM    8  C7  UNL     1      -5.406  13.704  22.606  1.00  0.00     0.019 C 
HETATM    9  C8  UNL     1      -6.210  14.551  23.562  1.00  0.00     0.007 C 
HETATM   10  C9  UNL     1      -7.668  14.402  23.104  1.00  0.00     0.000 C 
HETATM   11  C10 UNL     1      -7.769  15.095  21.770  1.00  0.00     0.000 C 
HETATM   12  C11 UNL     1      -6.780  14.643  20.766  1.00  0.00     0.000 C 
HETATM   13  C12 UNL     1      -5.409  14.393  21.267  1.00  0.00     0.007 C 
ENDBRANCH   4   8
BRANCH   1  14
HETATM   14  S1  UNL     1      -0.455  13.039  25.748  1.00  0.00     0.044 S 
HETATM   15  O1  UNL     1       0.785  14.104  25.384  1.00  0.00    -0.253 OA
BRANCH  14  16
HETATM   16  C2  UNL     1      -1.041  13.384  27.365  1.00  0.00     0.069 C 
HETATM   17  C1  UNL     1      -1.361  12.388  28.166  1.00  0.00     0.021 C 
ENDBRANCH  14  16
ENDBRANCH   1  14
TORSDOF 3
ENDMDL
