MODEL 1
REMARK VINA RESULT: -6.424500915      0.000      0.000
REMARK  2 active torsions:
REMARK  status: ('A' for Active; 'I' for Inactive)
REMARK       I    between atoms: C1_2  and  N1_3 
REMARK    1  A    between atoms: C1_2  and  C12_15 
REMARK    2  A    between atoms: N1_3  and  C2_5 
ROOT
HETATM    1  C2  UNL     1      -5.187  13.901  22.719  1.00  0.00     0.092 C 
HETATM    2  C3  UNL     1      -6.020  14.780  23.598  1.00  0.00     0.009 C 
HETATM    3  C4  UNL     1      -7.479  14.469  23.266  1.00  0.00     0.011 C 
HETATM    4  C5  UNL     1      -7.739  14.847  21.837  1.00  0.00    -0.013 C 
HETATM    5  C6  UNL     1      -7.431  16.322  21.649  1.00  0.00     0.009 C 
HETATM    6  C7  UNL     1      -5.961  16.583  21.887  1.00  0.00    -0.013 C 
HETATM    7  C8  UNL     1      -5.706  16.213  23.349  1.00  0.00     0.011 C 
HETATM    8  C9  UNL     1      -5.063  15.735  21.047  1.00  0.00     0.011 C 
HETATM    9  C10 UNL     1      -5.384  14.286  21.283  1.00  0.00     0.009 C 
HETATM   10  C11 UNL     1      -6.857  14.085  20.898  1.00  0.00     0.011 C 
ENDROOT
BRANCH   1  11
HETATM   11  N1  UNL     1      -3.809  14.016  23.089  1.00  0.00    -0.354 N 
HETATM   12  C1  UNL     1      -3.161  13.013  23.845  1.00  0.00     0.247 C 
HETATM   13  O1  UNL     1      -3.810  12.006  24.194  1.00  0.00    -0.271 OA
ATOM     14  H1  UNL     1      -3.283  14.841  22.800  1.00  0.00     0.163 HD
BRANCH  12  15
HETATM   15  C12 UNL     1      -1.764  13.163  24.202  1.00  0.00     0.213 C 
HETATM   16  C13 UNL     1      -1.492  13.091  25.691  1.00  0.00     0.043 C 
HETATM   17  C14 UNL     1      -0.052  13.620  25.739  1.00  0.00     0.029 C 
HETATM   18  C15 UNL     1       0.106  14.212  24.346  1.00  0.00     0.168 C 
HETATM   19  O2  UNL     1      -1.193  14.364  23.858  1.00  0.00    -0.376 OA
ENDBRANCH  12  15
ENDBRANCH   1  11
TORSDOF 2
ENDMDL
MODEL 2
REMARK VINA RESULT: -6.297347989      5.377      7.055
REMARK  2 active torsions:
REMARK  status: ('A' for Active; 'I' for Inactive)
REMARK       I    between atoms: C1_2  and  N1_3 
REMARK    1  A    between atoms: C1_2  and  C12_15 
REMARK    2  A    between atoms: N1_3  and  C2_5 
ROOT
HETATM    1  C2  UNL     1      -1.978  12.091  27.315  1.00  0.00     0.092 C 
HETATM    2  C3  UNL     1      -2.066  10.639  26.959  1.00  0.00     0.009 C 
HETATM    3  C4  UNL     1      -3.440  10.160  27.425  1.00  0.00     0.011 C 
HETATM    4  C5  UNL     1      -3.513  10.285  28.919  1.00  0.00    -0.013 C 
HETATM    5  C6  UNL     1      -2.399   9.462  29.542  1.00  0.00     0.009 C 
HETATM    6  C7  UNL     1      -1.051  10.021  29.143  1.00  0.00    -0.013 C 
HETATM    7  C8  UNL     1      -0.976   9.874  27.623  1.00  0.00     0.011 C 
HETATM    8  C9  UNL     1      -0.892  11.471  29.462  1.00  0.00     0.011 C 
HETATM    9  C10 UNL     1      -1.998  12.249  28.807  1.00  0.00     0.009 C 
HETATM   10  C11 UNL     1      -3.320  11.701  29.361  1.00  0.00     0.011 C 
ENDROOT
BRANCH   1  11
HETATM   11  N1  UNL     1      -0.784  12.651  26.762  1.00  0.00    -0.354 N 
HETATM   12  C1  UNL     1      -0.816  13.460  25.603  1.00  0.00     0.247 C 
HETATM   13  O1  UNL     1      -1.913  13.688  25.055  1.00  0.00    -0.271 OA
ATOM     14  H1  UNL     1       0.111  12.463  27.215  1.00  0.00     0.163 HD
BRANCH  12  15
HETATM   15  C12 UNL     1       0.415  14.012  25.070  1.00  0.00     0.213 C 
HETATM   16  C13 UNL     1       0.988  15.153  25.886  1.00  0.00     0.043 C 
HETATM   17  C14 UNL     1       2.028  15.706  24.901  1.00  0.00     0.029 C 
HETATM   18  C15 UNL     1       1.622  15.019  23.605  1.00  0.00     0.168 C 
HETATM   19  O2  UNL     1       0.319  14.567  23.817  1.00  0.00    -0.376 OA
ENDBRANCH  12  15
ENDBRANCH   1  11
TORSDOF 2
ENDMDL
MODEL 3
REMARK VINA RESULT: -6.077686388      1.022      1.358
REMARK  2 active torsions:
REMARK  status: ('A' for Active; 'I' for Inactive)
REMARK       I    between atoms: C1_2  and  N1_3 
REMARK    1  A    between atoms: C1_2  and  C12_15 
REMARK    2  A    between atoms: N1_3  and  C2_5 
ROOT
HETATM    1  C2  UNL     1      -4.976  14.301  22.191  1.00  0.00     0.092 C 
HETATM    2  C3  UNL     1      -6.250  14.014  22.922  1.00  0.00     0.009 C 
HETATM    3  C4  UNL     1      -7.276  13.612  21.864  1.00  0.00     0.011 C 
HETATM    4  C5  UNL     1      -7.509  14.779  20.950  1.00  0.00    -0.013 C 
HETATM    5  C6  UNL     1      -7.993  15.964  21.769  1.00  0.00     0.009 C 
HETATM    6  C7  UNL     1      -6.918  16.402  22.739  1.00  0.00    -0.013 C 
HETATM    7  C8  UNL     1      -6.699  15.215  23.677  1.00  0.00     0.011 C 
HETATM    8  C9  UNL     1      -5.611  16.701  22.081  1.00  0.00     0.011 C 
HETATM    9  C10 UNL     1      -5.158  15.497  21.304  1.00  0.00     0.009 C 
HETATM   10  C11 UNL     1      -6.247  15.199  20.264  1.00  0.00     0.011 C 
ENDROOT
BRANCH   1  11
HETATM   11  N1  UNL     1      -3.921  14.525  23.131  1.00  0.00    -0.354 N 
HETATM   12  C1  UNL     1      -3.181  13.453  23.681  1.00  0.00     0.247 C 
HETATM   13  O1  UNL     1      -3.458  12.287  23.333  1.00  0.00    -0.271 OA
ATOM     14  H1  UNL     1      -3.697  15.481  23.412  1.00  0.00     0.163 HD
BRANCH  12  15
HETATM   15  C12 UNL     1      -2.118  13.718  24.631  1.00  0.00     0.213 C 
HETATM   16  C13 UNL     1      -0.757  13.926  23.999  1.00  0.00     0.043 C 
HETATM   17  C14 UNL     1       0.145  13.827  25.237  1.00  0.00     0.029 C 
HETATM   18  C15 UNL     1      -0.810  13.244  26.269  1.00  0.00     0.168 C 
HETATM   19  O2  UNL     1      -1.871  12.712  25.534  1.00  0.00    -0.376 OA
ENDBRANCH  12  15
ENDBRANCH   1  11
TORSDOF 2
ENDMDL
MODEL 4
REMARK VINA RESULT: -6.042933233      5.282      7.169
REMARK  2 active torsions:
REMARK  status: ('A' for Active; 'I' for Inactive)
REMARK       I    between atoms: C1_2  and  N1_3 
REMARK    1  A    between atoms: C1_2  and  C12_15 
REMARK    2  A    between atoms: N1_3  and  C2_5 
ROOT
HETATM    1  C2  UNL     1      -1.366  12.234  28.117  1.00  0.00     0.092 C 
HETATM    2  C3  UNL     1      -2.849  12.033  28.082  1.00  0.00     0.009 C 
HETATM    3  C4  UNL     1      -3.269  11.650  29.500  1.00  0.00     0.011 C 
HETATM    4  C5  UNL     1      -2.623  10.344  29.859  1.00  0.00    -0.013 C 
HETATM    5  C6  UNL     1      -3.046   9.287  28.852  1.00  0.00     0.009 C 
HETATM    6  C7  UNL     1      -2.530   9.642  27.475  1.00  0.00    -0.013 C 
HETATM    7  C8  UNL     1      -3.205  10.965  27.109  1.00  0.00     0.011 C 
HETATM    8  C9  UNL     1      -1.054   9.866  27.433  1.00  0.00     0.011 C 
HETATM    9  C10 UNL     1      -0.684  10.934  28.424  1.00  0.00     0.009 C 
HETATM   10  C11 UNL     1      -1.130  10.437  29.806  1.00  0.00     0.011 C 
ENDROOT
BRANCH   1  11
HETATM   11  N1  UNL     1      -0.920  12.756  26.862  1.00  0.00    -0.354 N 
HETATM   12  C1  UNL     1      -0.324  14.034  26.762  1.00  0.00     0.247 C 
HETATM   13  O1  UNL     1      -0.185  14.718  27.797  1.00  0.00    -0.271 OA
ATOM     14  H1  UNL     1      -1.035  12.192  26.019  1.00  0.00     0.163 HD
BRANCH  12  15
HETATM   15  C12 UNL     1       0.116  14.531  25.472  1.00  0.00     0.213 C 
HETATM   16  C13 UNL     1      -0.491  13.805  24.289  1.00  0.00     0.043 C 
HETATM   17  C14 UNL     1       0.414  14.313  23.157  1.00  0.00     0.029 C 
HETATM   18  C15 UNL     1       1.559  14.943  23.935  1.00  0.00     0.168 C 
HETATM   19  O2  UNL     1       1.463  14.420  25.226  1.00  0.00    -0.376 OA
ENDBRANCH  12  15
ENDBRANCH   1  11
TORSDOF 2
ENDMDL
MODEL 5
REMARK VINA RESULT: -5.846674882      1.119      1.440
REMARK  2 active torsions:
REMARK  status: ('A' for Active; 'I' for Inactive)
REMARK       I    between atoms: C1_2  and  N1_3 
REMARK    1  A    between atoms: C1_2  and  C12_15 
REMARK    2  A    between atoms: N1_3  and  C2_5 
ROOT
HETATM    1  C2  UNL     1      -5.437  14.001  22.392  1.00  0.00     0.092 C 
HETATM    2  C3  UNL     1      -6.717  14.130  23.158  1.00  0.00     0.009 C 
HETATM    3  C4  UNL     1      -7.839  14.192  22.123  1.00  0.00     0.011 C 
HETATM    4  C5  UNL     1      -7.660  15.429  21.292  1.00  0.00    -0.013 C 
HETATM    5  C6  UNL     1      -7.677  16.646  22.200  1.00  0.00     0.009 C 
HETATM    6  C7  UNL     1      -6.498  16.607  23.147  1.00  0.00    -0.013 C 
HETATM    7  C8  UNL     1      -6.696  15.355  24.003  1.00  0.00     0.011 C 
HETATM    8  C9  UNL     1      -5.183  16.471  22.453  1.00  0.00     0.011 C 
HETATM    9  C10 UNL     1      -5.201  15.244  21.586  1.00  0.00     0.009 C 
HETATM   10  C11 UNL     1      -6.344  15.424  20.578  1.00  0.00     0.011 C 
ENDROOT
BRANCH   1  11
HETATM   11  N1  UNL     1      -4.354  13.770  23.297  1.00  0.00    -0.354 N 
HETATM   12  C1  UNL     1      -3.769  12.491  23.439  1.00  0.00     0.247 C 
HETATM   13  O1  UNL     1      -4.211  11.546  22.756  1.00  0.00    -0.271 OA
ATOM     14  H1  UNL     1      -3.996  14.547  23.854  1.00  0.00     0.163 HD
BRANCH  12  15
HETATM   15  C12 UNL     1      -2.672  12.294  24.368  1.00  0.00     0.213 C 
HETATM   16  C13 UNL     1      -3.077  11.655  25.680  1.00  0.00     0.043 C 
HETATM   17  C14 UNL     1      -1.816  11.911  26.517  1.00  0.00     0.029 C 
HETATM   18  C15 UNL     1      -1.080  12.933  25.662  1.00  0.00     0.168 C 
HETATM   19  O2  UNL     1      -2.039  13.441  24.783  1.00  0.00    -0.376 OA
ENDBRANCH  12  15
ENDBRANCH   1  11
TORSDOF 2
ENDMDL
