MODEL 1
REMARK VINA RESULT: -5.901576355      0.000      0.000
REMARK  11 active torsions:
REMARK  status: ('A' for Active; 'I' for Inactive)
REMARK    1  A    between atoms: C2_2  and  O2_4 
REMARK    2  A    between atoms: O2_4  and  C3_5 
REMARK    3  A    between atoms: C3_5  and  C4_6 
REMARK    4  A    between atoms: C6_8  and  O3_9 
REMARK    5  A    between atoms: C7_11  and  O4_12 
REMARK    6  A    between atoms: C15_22  and  C16_23 
REMARK    7  A    between atoms: C16_23  and  C18_25 
REMARK    8  A    between atoms: C18_25  and  C19_26 
REMARK    9  A    between atoms: C19_26  and  C20_27 
REMARK   10  A    between atoms: C20_27  and  C21_28 
REMARK   11  A    between atoms: C32_41  and  O6_42 
ROOT
HETATM    1  C4  UNL     1      14.862   6.825 -15.679  1.00  0.00     0.039 C 
HETATM    2  C5  UNL     1      15.617   8.165 -15.875  1.00  0.00     0.023 C 
HETATM    3  C6  UNL     1      15.663   6.010 -14.760  1.00  0.00     0.160 C 
HETATM    4  C7  UNL     1      16.711   5.292 -15.499  1.00  0.00     0.156 C 
HETATM    5  C8  UNL     1      16.281   4.460 -16.710  1.00  0.00     0.056 C 
HETATM    6  C9  UNL     1      16.612   3.081 -16.389  1.00  0.00     0.002 C 
HETATM    7  C10 UNL     1      16.619   1.883 -17.164  1.00  0.00     0.018 C 
HETATM    8 CL1  UNL     1      15.093   0.880 -17.197  1.00  0.00    -0.088 Cl
HETATM    9  C11 UNL     1      17.527   1.592 -18.272  1.00  0.00     0.005 C 
HETATM   10  C12 UNL     1      18.837   1.003 -17.695  1.00  0.00     0.022 C 
HETATM   11  C13 UNL     1      16.909   0.346 -18.937  1.00  0.00     0.016 C 
HETATM   12  C14 UNL     1      17.796   0.094 -20.066  1.00  0.00     0.007 C 
HETATM   13  C15 UNL     1      18.361   1.469 -20.414  1.00  0.00     0.002 C 
HETATM   14  C24 UNL     1      17.877   2.458 -19.400  1.00  0.00    -0.006 C 
HETATM   15  C25 UNL     1      19.208   3.145 -18.917  1.00  0.00     0.021 C 
HETATM   16  C26 UNL     1      17.049   3.568 -19.852  1.00  0.00     0.039 C 
HETATM   17  C27 UNL     1      15.652   3.824 -19.569  1.00  0.00     0.175 C 
HETATM   18  O5  UNL     1      14.911   2.983 -20.088  1.00  0.00    -0.288 OA
HETATM   19  C28 UNL     1      14.925   4.841 -18.820  1.00  0.00     0.021 C 
HETATM   20  C29 UNL     1      15.079   6.248 -19.292  1.00  0.00     0.131 C 
HETATM   21  C30 UNL     1      15.968   6.493 -20.463  1.00  0.00     0.057 C 
HETATM   22  F1  UNL     1      13.872   6.857 -19.684  1.00  0.00    -0.238 F 
HETATM   23  C31 UNL     1      15.520   6.966 -18.054  1.00  0.00     0.088 C 
HETATM   24  C32 UNL     1      14.601   6.286 -17.024  1.00  0.00     0.085 C 
HETATM   25  C33 UNL     1      14.970   4.830 -17.290  1.00  0.00     0.028 C 
HETATM   26  C34 UNL     1      13.838   4.022 -16.675  1.00  0.00     0.024 C 
ENDROOT
BRANCH  13  27
HETATM   27  C16 UNL     1      18.327   1.582 -21.860  1.00  0.00    -0.014 C 
HETATM   28  C17 UNL     1      18.995   2.708 -22.557  1.00  0.00     0.010 C 
BRANCH  27  29
HETATM   29  C18 UNL     1      18.313   0.266 -22.631  1.00  0.00     0.005 C 
BRANCH  29  30
HETATM   30  C19 UNL     1      19.588   0.067 -23.421  1.00  0.00     0.001 C 
BRANCH  30  31
HETATM   31  C20 UNL     1      20.172  -1.310 -23.195  1.00  0.00     0.004 C 
BRANCH  31  32
HETATM   32  C21 UNL     1      20.890  -1.428 -21.893  1.00  0.00    -0.023 C 
HETATM   33  C22 UNL     1      22.340  -1.754 -22.186  1.00  0.00     0.009 C 
HETATM   34  C23 UNL     1      20.328  -2.501 -20.995  1.00  0.00     0.009 C 
ENDBRANCH  31  32
ENDBRANCH  30  31
ENDBRANCH  29  30
ENDBRANCH  27  29
ENDBRANCH  13  27
BRANCH   4  35
HETATM   35  O4  UNL     1      17.373   4.494 -14.529  1.00  0.00    -0.392 OA
ATOM     36  H4  UNL     1      16.817   3.733 -14.410  1.00  0.00     0.210 HD
ENDBRANCH   4  35
BRANCH  24  37
HETATM   37  O6  UNL     1      13.329   6.623 -17.370  1.00  0.00    -0.388 OA
ATOM     38  H6  UNL     1      12.803   5.832 -17.354  1.00  0.00     0.210 HD
ENDBRANCH  24  37
BRANCH   3  39
HETATM   39  O3  UNL     1      14.985   5.278 -13.791  1.00  0.00    -0.392 OA
ATOM     40  H3  UNL     1      15.506   4.813 -13.146  1.00  0.00     0.210 HD
ENDBRANCH   3  39
BRANCH   1  41
HETATM   41  C3  UNL     1      13.600   7.313 -14.949  1.00  0.00     0.193 C 
BRANCH  41  42
HETATM   42  O2  UNL     1      12.769   6.203 -14.756  1.00  0.00    -0.321 OA
BRANCH  42  43
HETATM   43  C2  UNL     1      11.382   6.302 -14.886  1.00  0.00     0.254 C 
HETATM   44  C1  UNL     1      10.552   7.082 -13.934  1.00  0.00     0.126 C 
HETATM   45  O1  UNL     1      10.877   5.683 -15.868  1.00  0.00    -0.266 OA
ENDBRANCH  42  43
ENDBRANCH  41  42
ENDBRANCH   1  41
TORSDOF 11
ENDMDL
MODEL 2
REMARK VINA RESULT: -5.877051069      1.547      1.722
REMARK  11 active torsions:
REMARK  status: ('A' for Active; 'I' for Inactive)
REMARK    1  A    between atoms: C2_2  and  O2_4 
REMARK    2  A    between atoms: O2_4  and  C3_5 
REMARK    3  A    between atoms: C3_5  and  C4_6 
REMARK    4  A    between atoms: C6_8  and  O3_9 
REMARK    5  A    between atoms: C7_11  and  O4_12 
REMARK    6  A    between atoms: C15_22  and  C16_23 
REMARK    7  A    between atoms: C16_23  and  C18_25 
REMARK    8  A    between atoms: C18_25  and  C19_26 
REMARK    9  A    between atoms: C19_26  and  C20_27 
REMARK   10  A    between atoms: C20_27  and  C21_28 
REMARK   11  A    between atoms: C32_41  and  O6_42 
ROOT
HETATM    1  C4  UNL     1      14.853   7.751 -15.491  1.00  0.00     0.039 C 
HETATM    2  C5  UNL     1      15.876   8.911 -15.611  1.00  0.00     0.023 C 
HETATM    3  C6  UNL     1      15.353   6.843 -14.454  1.00  0.00     0.160 C 
HETATM    4  C7  UNL     1      16.327   5.903 -15.029  1.00  0.00     0.156 C 
HETATM    5  C8  UNL     1      15.902   5.112 -16.268  1.00  0.00     0.056 C 
HETATM    6  C9  UNL     1      15.911   3.713 -15.876  1.00  0.00     0.002 C 
HETATM    7  C10 UNL     1      15.783   2.500 -16.617  1.00  0.00     0.018 C 
HETATM    8 CL1  UNL     1      14.107   1.807 -16.836  1.00  0.00    -0.088 Cl
HETATM    9  C11 UNL     1      16.751   1.988 -17.585  1.00  0.00     0.005 C 
HETATM   10  C12 UNL     1      17.834   1.187 -16.823  1.00  0.00     0.022 C 
HETATM   11  C13 UNL     1      15.992   0.853 -18.301  1.00  0.00     0.016 C 
HETATM   12  C14 UNL     1      16.950   0.382 -19.294  1.00  0.00     0.007 C 
HETATM   13  C15 UNL     1      17.814   1.605 -19.591  1.00  0.00     0.002 C 
HETATM   14  C24 UNL     1      17.407   2.715 -18.673  1.00  0.00    -0.006 C 
HETATM   15  C25 UNL     1      18.773   3.157 -18.028  1.00  0.00     0.021 C 
HETATM   16  C26 UNL     1      16.879   3.941 -19.258  1.00  0.00     0.039 C 
HETATM   17  C27 UNL     1      15.535   4.474 -19.172  1.00  0.00     0.175 C 
HETATM   18  O5  UNL     1      14.716   3.766 -19.769  1.00  0.00    -0.288 OA
HETATM   19  C28 UNL     1      14.931   5.645 -18.551  1.00  0.00     0.021 C 
HETATM   20  C29 UNL     1      15.418   6.973 -19.028  1.00  0.00     0.131 C 
HETATM   21  C30 UNL     1      16.481   6.986 -20.072  1.00  0.00     0.057 C 
HETATM   22  F1  UNL     1      14.415   7.783 -19.593  1.00  0.00    -0.238 F 
HETATM   23  C31 UNL     1      15.827   7.651 -17.757  1.00  0.00     0.088 C 
HETATM   24  C32 UNL     1      14.668   7.209 -16.847  1.00  0.00     0.085 C 
HETATM   25  C33 UNL     1      14.775   5.698 -17.029  1.00  0.00     0.028 C 
HETATM   26  C34 UNL     1      13.436   5.152 -16.556  1.00  0.00     0.024 C 
ENDROOT
BRANCH  13  27
HETATM   27  C16 UNL     1      17.990   1.654 -21.029  1.00  0.00    -0.014 C 
HETATM   28  C17 UNL     1      18.539   2.860 -21.695  1.00  0.00     0.010 C 
BRANCH  27  29
HETATM   29  C18 UNL     1      18.343   0.331 -21.702  1.00  0.00     0.005 C 
BRANCH  29  30
HETATM   30  C19 UNL     1      19.149   0.544 -22.966  1.00  0.00     0.001 C 
BRANCH  30  31
HETATM   31  C20 UNL     1      19.834  -0.730 -23.407  1.00  0.00     0.004 C 
BRANCH  31  32
HETATM   32  C21 UNL     1      20.149  -1.643 -22.270  1.00  0.00    -0.023 C 
HETATM   33  C22 UNL     1      21.648  -1.625 -22.056  1.00  0.00     0.009 C 
HETATM   34  C23 UNL     1      19.714  -3.068 -22.509  1.00  0.00     0.009 C 
ENDBRANCH  31  32
ENDBRANCH  30  31
ENDBRANCH  29  30
ENDBRANCH  27  29
ENDBRANCH  13  27
BRANCH   4  35
HETATM   35  O4  UNL     1      16.688   5.040 -13.961  1.00  0.00    -0.392 OA
ATOM     36  H4  UNL     1      15.946   4.457 -13.849  1.00  0.00     0.210 HD
ENDBRANCH   4  35
BRANCH  24  37
HETATM   37  O6  UNL     1      13.542   7.767 -17.370  1.00  0.00    -0.388 OA
ATOM     38  H6  UNL     1      13.099   7.103 -17.884  1.00  0.00     0.210 HD
ENDBRANCH  24  37
BRANCH   3  39
HETATM   39  O3  UNL     1      14.426   6.302 -13.571  1.00  0.00    -0.392 OA
ATOM     40  H3  UNL     1      14.392   5.355 -13.493  1.00  0.00     0.210 HD
ENDBRANCH   3  39
BRANCH   1  41
HETATM   41  C3  UNL     1      13.629   8.507 -14.950  1.00  0.00     0.193 C 
BRANCH  41  42
HETATM   42  O2  UNL     1      13.768   9.852 -15.316  1.00  0.00    -0.321 OA
BRANCH  42  43
HETATM   43  C2  UNL     1      12.660  10.628 -15.666  1.00  0.00     0.254 C 
HETATM   44  C1  UNL     1      12.367  11.926 -15.009  1.00  0.00     0.126 C 
HETATM   45  O1  UNL     1      11.922  10.154 -16.578  1.00  0.00    -0.266 OA
ENDBRANCH  42  43
ENDBRANCH  41  42
ENDBRANCH   1  41
TORSDOF 11
ENDMDL
MODEL 3
REMARK VINA RESULT: -5.836864422      1.442      1.645
REMARK  11 active torsions:
REMARK  status: ('A' for Active; 'I' for Inactive)
REMARK    1  A    between atoms: C2_2  and  O2_4 
REMARK    2  A    between atoms: O2_4  and  C3_5 
REMARK    3  A    between atoms: C3_5  and  C4_6 
REMARK    4  A    between atoms: C6_8  and  O3_9 
REMARK    5  A    between atoms: C7_11  and  O4_12 
REMARK    6  A    between atoms: C15_22  and  C16_23 
REMARK    7  A    between atoms: C16_23  and  C18_25 
REMARK    8  A    between atoms: C18_25  and  C19_26 
REMARK    9  A    between atoms: C19_26  and  C20_27 
REMARK   10  A    between atoms: C20_27  and  C21_28 
REMARK   11  A    between atoms: C32_41  and  O6_42 
ROOT
HETATM    1  C4  UNL     1      14.838   7.662 -15.398  1.00  0.00     0.039 C 
HETATM    2  C5  UNL     1      15.859   8.826 -15.490  1.00  0.00     0.023 C 
HETATM    3  C6  UNL     1      15.337   6.733 -14.379  1.00  0.00     0.160 C 
HETATM    4  C7  UNL     1      16.313   5.807 -14.970  1.00  0.00     0.156 C 
HETATM    5  C8  UNL     1      15.893   5.041 -16.227  1.00  0.00     0.056 C 
HETATM    6  C9  UNL     1      15.904   3.634 -15.865  1.00  0.00     0.002 C 
HETATM    7  C10 UNL     1      15.780   2.437 -16.632  1.00  0.00     0.018 C 
HETATM    8 CL1  UNL     1      14.105   1.747 -16.870  1.00  0.00    -0.088 Cl
HETATM    9  C11 UNL     1      16.752   1.947 -17.607  1.00  0.00     0.005 C 
HETATM   10  C12 UNL     1      17.834   1.132 -16.859  1.00  0.00     0.022 C 
HETATM   11  C13 UNL     1      15.997   0.827 -18.350  1.00  0.00     0.016 C 
HETATM   12  C14 UNL     1      16.958   0.378 -19.349  1.00  0.00     0.007 C 
HETATM   13  C15 UNL     1      17.821   1.609 -19.618  1.00  0.00     0.002 C 
HETATM   14  C24 UNL     1      17.409   2.699 -18.678  1.00  0.00    -0.006 C 
HETATM   15  C25 UNL     1      18.773   3.129 -18.020  1.00  0.00     0.021 C 
HETATM   16  C26 UNL     1      16.881   3.936 -19.238  1.00  0.00     0.039 C 
HETATM   17  C27 UNL     1      15.536   4.464 -19.145  1.00  0.00     0.175 C 
HETATM   18  O5  UNL     1      14.720   3.768 -19.759  1.00  0.00    -0.288 OA
HETATM   19  C28 UNL     1      14.928   5.622 -18.502  1.00  0.00     0.021 C 
HETATM   20  C29 UNL     1      15.415   6.960 -18.948  1.00  0.00     0.131 C 
HETATM   21  C30 UNL     1      16.481   6.997 -19.989  1.00  0.00     0.057 C 
HETATM   22  F1  UNL     1      14.412   7.780 -19.500  1.00  0.00    -0.238 F 
HETATM   23  C31 UNL     1      15.819   7.611 -17.662  1.00  0.00     0.088 C 
HETATM   24  C32 UNL     1      14.658   7.149 -16.766  1.00  0.00     0.085 C 
HETATM   25  C33 UNL     1      14.768   5.642 -16.979  1.00  0.00     0.028 C 
HETATM   26  C34 UNL     1      13.429   5.084 -16.522  1.00  0.00     0.024 C 
ENDROOT
BRANCH  13  27
HETATM   27  C16 UNL     1      18.001   1.688 -21.055  1.00  0.00    -0.014 C 
HETATM   28  C17 UNL     1      18.629   2.875 -21.685  1.00  0.00     0.010 C 
BRANCH  27  29
HETATM   29  C18 UNL     1      18.267   0.366 -21.767  1.00  0.00     0.005 C 
BRANCH  29  30
HETATM   30  C19 UNL     1      19.144   0.553 -22.986  1.00  0.00     0.001 C 
BRANCH  30  31
HETATM   31  C20 UNL     1      19.790  -0.747 -23.410  1.00  0.00     0.004 C 
BRANCH  31  32
HETATM   32  C21 UNL     1      20.068  -1.657 -22.261  1.00  0.00    -0.023 C 
HETATM   33  C22 UNL     1      21.557  -1.624 -21.987  1.00  0.00     0.009 C 
HETATM   34  C23 UNL     1      19.658  -3.086 -22.517  1.00  0.00     0.009 C 
ENDBRANCH  31  32
ENDBRANCH  30  31
ENDBRANCH  29  30
ENDBRANCH  27  29
ENDBRANCH  13  27
BRANCH   4  35
HETATM   35  O4  UNL     1      16.673   4.922 -13.920  1.00  0.00    -0.392 OA
ATOM     36  H4  UNL     1      17.608   4.788 -14.015  1.00  0.00     0.210 HD
ENDBRANCH   4  35
BRANCH  24  37
HETATM   37  O6  UNL     1      13.533   7.716 -17.280  1.00  0.00    -0.388 OA
ATOM     38  H6  UNL     1      13.777   8.187 -18.067  1.00  0.00     0.210 HD
ENDBRANCH  24  37
BRANCH   3  39
HETATM   39  O3  UNL     1      14.408   6.172 -13.510  1.00  0.00    -0.392 OA
ATOM     40  H3  UNL     1      14.093   6.711 -12.794  1.00  0.00     0.210 HD
ENDBRANCH   3  39
BRANCH   1  41
HETATM   41  C3  UNL     1      13.611   8.404 -14.844  1.00  0.00     0.193 C 
BRANCH  41  42
HETATM   42  O2  UNL     1      14.036   9.157 -13.742  1.00  0.00    -0.321 OA
BRANCH  42  43
HETATM   43  C2  UNL     1      13.225   9.319 -12.617  1.00  0.00     0.254 C 
HETATM   44  C1  UNL     1      12.589  10.618 -12.282  1.00  0.00     0.126 C 
HETATM   45  O1  UNL     1      13.066   8.289 -11.899  1.00  0.00    -0.266 OA
ENDBRANCH  42  43
ENDBRANCH  41  42
ENDBRANCH   1  41
TORSDOF 11
ENDMDL
MODEL 4
REMARK VINA RESULT: -5.774785731      1.118      1.759
REMARK  11 active torsions:
REMARK  status: ('A' for Active; 'I' for Inactive)
REMARK    1  A    between atoms: C2_2  and  O2_4 
REMARK    2  A    between atoms: O2_4  and  C3_5 
REMARK    3  A    between atoms: C3_5  and  C4_6 
REMARK    4  A    between atoms: C6_8  and  O3_9 
REMARK    5  A    between atoms: C7_11  and  O4_12 
REMARK    6  A    between atoms: C15_22  and  C16_23 
REMARK    7  A    between atoms: C16_23  and  C18_25 
REMARK    8  A    between atoms: C18_25  and  C19_26 
REMARK    9  A    between atoms: C19_26  and  C20_27 
REMARK   10  A    between atoms: C20_27  and  C21_28 
REMARK   11  A    between atoms: C32_41  and  O6_42 
ROOT
HETATM    1  C4  UNL     1      14.990   7.292 -15.597  1.00  0.00     0.039 C 
HETATM    2  C5  UNL     1      15.917   8.524 -15.759  1.00  0.00     0.023 C 
HETATM    3  C6  UNL     1      15.615   6.412 -14.603  1.00  0.00     0.160 C 
HETATM    4  C7  UNL     1      16.618   5.552 -15.246  1.00  0.00     0.156 C 
HETATM    5  C8  UNL     1      16.179   4.743 -16.469  1.00  0.00     0.056 C 
HETATM    6  C9  UNL     1      16.313   3.345 -16.098  1.00  0.00     0.002 C 
HETATM    7  C10 UNL     1      16.230   2.133 -16.846  1.00  0.00     0.018 C 
HETATM    8 CL1  UNL     1      14.598   1.322 -16.977  1.00  0.00    -0.088 Cl
HETATM    9  C11 UNL     1      17.174   1.702 -17.876  1.00  0.00     0.005 C 
HETATM   10  C12 UNL     1      18.355   0.976 -17.189  1.00  0.00     0.022 C 
HETATM   11  C13 UNL     1      16.458   0.522 -18.562  1.00  0.00     0.016 C 
HETATM   12  C14 UNL     1      17.387   0.132 -19.615  1.00  0.00     0.007 C 
HETATM   13  C15 UNL     1      18.142   1.418 -19.946  1.00  0.00     0.002 C 
HETATM   14  C24 UNL     1      17.710   2.487 -18.990  1.00  0.00    -0.006 C 
HETATM   15  C25 UNL     1      19.076   3.021 -18.420  1.00  0.00     0.021 C 
HETATM   16  C26 UNL     1      17.061   3.676 -19.526  1.00  0.00     0.039 C 
HETATM   17  C27 UNL     1      15.689   4.108 -19.355  1.00  0.00     0.175 C 
HETATM   18  O5  UNL     1      14.890   3.348 -19.914  1.00  0.00    -0.288 OA
HETATM   19  C28 UNL     1      15.040   5.226 -18.685  1.00  0.00     0.021 C 
HETATM   20  C29 UNL     1      15.401   6.590 -19.170  1.00  0.00     0.131 C 
HETATM   21  C30 UNL     1      16.397   6.692 -20.274  1.00  0.00     0.057 C 
HETATM   22  F1  UNL     1      14.310   7.330 -19.666  1.00  0.00    -0.238 F 
HETATM   23  C31 UNL     1      15.834   7.284 -17.916  1.00  0.00     0.088 C 
HETATM   24  C32 UNL     1      14.765   6.751 -16.947  1.00  0.00     0.085 C 
HETATM   25  C33 UNL     1      14.970   5.253 -17.155  1.00  0.00     0.028 C 
HETATM   26  C34 UNL     1      13.705   4.607 -16.613  1.00  0.00     0.024 C 
ENDROOT
BRANCH  13  27
HETATM   27  C16 UNL     1      18.229   1.493 -21.391  1.00  0.00    -0.014 C 
HETATM   28  C17 UNL     1      18.699   2.726 -22.069  1.00  0.00     0.010 C 
BRANCH  27  29
HETATM   29  C18 UNL     1      18.582   0.192 -22.105  1.00  0.00     0.005 C 
BRANCH  29  30
HETATM   30  C19 UNL     1      19.263   0.450 -23.432  1.00  0.00     0.001 C 
BRANCH  30  31
HETATM   31  C20 UNL     1      18.383   0.048 -24.595  1.00  0.00     0.004 C 
BRANCH  31  32
HETATM   32  C21 UNL     1      18.339   1.080 -25.672  1.00  0.00    -0.023 C 
HETATM   33  C22 UNL     1      19.676   1.791 -25.694  1.00  0.00     0.009 C 
HETATM   34  C23 UNL     1      17.252   2.106 -25.471  1.00  0.00     0.009 C 
ENDBRANCH  31  32
ENDBRANCH  30  31
ENDBRANCH  29  30
ENDBRANCH  27  29
ENDBRANCH  13  27
BRANCH   4  35
HETATM   35  O4  UNL     1      17.103   4.707 -14.212  1.00  0.00    -0.392 OA
ATOM     36  H4  UNL     1      17.968   4.437 -14.496  1.00  0.00     0.210 HD
ENDBRANCH   4  35
BRANCH  24  37
HETATM   37  O6  UNL     1      13.573   7.229 -17.395  1.00  0.00    -0.388 OA
ATOM     38  H6  UNL     1      13.696   7.527 -18.289  1.00  0.00     0.210 HD
ENDBRANCH  24  37
BRANCH   3  39
HETATM   39  O3  UNL     1      14.782   5.796 -13.675  1.00  0.00    -0.392 OA
ATOM     40  H3  UNL     1      15.193   5.351 -12.942  1.00  0.00     0.210 HD
ENDBRANCH   3  39
BRANCH   1  41
HETATM   41  C3  UNL     1      13.748   7.951 -14.975  1.00  0.00     0.193 C 
BRANCH  41  42
HETATM   42  O2  UNL     1      12.773   6.956 -14.827  1.00  0.00    -0.321 OA
BRANCH  42  43
HETATM   43  C2  UNL     1      11.413   7.248 -14.951  1.00  0.00     0.254 C 
HETATM   44  C1  UNL     1      10.633   7.864 -13.849  1.00  0.00     0.126 C 
HETATM   45  O1  UNL     1      10.886   6.952 -16.064  1.00  0.00    -0.266 OA
ENDBRANCH  42  43
ENDBRANCH  41  42
ENDBRANCH   1  41
TORSDOF 11
ENDMDL
MODEL 5
REMARK VINA RESULT: -5.760709748      1.507      2.173
REMARK  11 active torsions:
REMARK  status: ('A' for Active; 'I' for Inactive)
REMARK    1  A    between atoms: C2_2  and  O2_4 
REMARK    2  A    between atoms: O2_4  and  C3_5 
REMARK    3  A    between atoms: C3_5  and  C4_6 
REMARK    4  A    between atoms: C6_8  and  O3_9 
REMARK    5  A    between atoms: C7_11  and  O4_12 
REMARK    6  A    between atoms: C15_22  and  C16_23 
REMARK    7  A    between atoms: C16_23  and  C18_25 
REMARK    8  A    between atoms: C18_25  and  C19_26 
REMARK    9  A    between atoms: C19_26  and  C20_27 
REMARK   10  A    between atoms: C20_27  and  C21_28 
REMARK   11  A    between atoms: C32_41  and  O6_42 
ROOT
HETATM    1  C4  UNL     1      15.010   7.382 -15.497  1.00  0.00     0.039 C 
HETATM    2  C5  UNL     1      15.979   8.583 -15.649  1.00  0.00     0.023 C 
HETATM    3  C6  UNL     1      15.594   6.484 -14.494  1.00  0.00     0.160 C 
HETATM    4  C7  UNL     1      16.576   5.590 -15.124  1.00  0.00     0.156 C 
HETATM    5  C8  UNL     1      16.126   4.795 -16.352  1.00  0.00     0.056 C 
HETATM    6  C9  UNL     1      16.209   3.393 -15.977  1.00  0.00     0.002 C 
HETATM    7  C10 UNL     1      16.096   2.183 -16.725  1.00  0.00     0.018 C 
HETATM    8 CL1  UNL     1      14.440   1.426 -16.875  1.00  0.00    -0.088 Cl
HETATM    9  C11 UNL     1      17.038   1.721 -17.743  1.00  0.00     0.005 C 
HETATM   10  C12 UNL     1      18.186   0.957 -17.041  1.00  0.00     0.022 C 
HETATM   11  C13 UNL     1      16.292   0.563 -18.437  1.00  0.00     0.016 C 
HETATM   12  C14 UNL     1      17.220   0.141 -19.478  1.00  0.00     0.007 C 
HETATM   13  C15 UNL     1      18.020   1.401 -19.800  1.00  0.00     0.002 C 
HETATM   14  C24 UNL     1      17.612   2.485 -18.852  1.00  0.00    -0.006 C 
HETATM   15  C25 UNL     1      18.988   2.975 -18.265  1.00  0.00     0.021 C 
HETATM   16  C26 UNL     1      17.009   3.694 -19.397  1.00  0.00     0.039 C 
HETATM   17  C27 UNL     1      15.650   4.171 -19.243  1.00  0.00     0.175 C 
HETATM   18  O5  UNL     1      14.834   3.437 -19.810  1.00  0.00    -0.288 OA
HETATM   19  C28 UNL     1      15.029   5.311 -18.581  1.00  0.00     0.021 C 
HETATM   20  C29 UNL     1      15.441   6.662 -19.064  1.00  0.00     0.131 C 
HETATM   21  C30 UNL     1      16.453   6.729 -20.156  1.00  0.00     0.057 C 
HETATM   22  F1  UNL     1      14.381   7.436 -19.574  1.00  0.00    -0.238 F 
HETATM   23  C31 UNL     1      15.881   7.343 -17.805  1.00  0.00     0.088 C 
HETATM   24  C32 UNL     1      14.784   6.846 -16.849  1.00  0.00     0.085 C 
HETATM   25  C33 UNL     1      14.943   5.342 -17.053  1.00  0.00     0.028 C 
HETATM   26  C34 UNL     1      13.650   4.738 -16.526  1.00  0.00     0.024 C 
ENDROOT
BRANCH  13  27
HETATM   27  C16 UNL     1      18.127   1.471 -21.245  1.00  0.00    -0.014 C 
HETATM   28  C17 UNL     1      18.605   2.703 -21.921  1.00  0.00     0.010 C 
BRANCH  27  29
HETATM   29  C18 UNL     1      18.492   0.169 -21.950  1.00  0.00     0.005 C 
BRANCH  29  30
HETATM   30  C19 UNL     1      19.190   0.422 -23.269  1.00  0.00     0.001 C 
BRANCH  30  31
HETATM   31  C20 UNL     1      18.306   0.060 -24.442  1.00  0.00     0.004 C 
BRANCH  31  32
HETATM   32  C21 UNL     1      18.342   1.080 -25.530  1.00  0.00    -0.023 C 
HETATM   33  C22 UNL     1      19.686   1.775 -25.477  1.00  0.00     0.009 C 
HETATM   34  C23 UNL     1      17.258   2.122 -25.408  1.00  0.00     0.009 C 
ENDBRANCH  31  32
ENDBRANCH  30  31
ENDBRANCH  29  30
ENDBRANCH  27  29
ENDBRANCH  13  27
BRANCH   4  35
HETATM   35  O4  UNL     1      17.021   4.732 -14.084  1.00  0.00    -0.392 OA
ATOM     36  H4  UNL     1      17.822   5.126 -13.761  1.00  0.00     0.210 HD
ENDBRANCH   4  35
BRANCH  24  37
HETATM   37  O6  UNL     1      13.613   7.363 -17.312  1.00  0.00    -0.388 OA
ATOM     38  H6  UNL     1      13.758   8.280 -17.511  1.00  0.00     0.210 HD
ENDBRANCH  24  37
BRANCH   3  39
HETATM   39  O3  UNL     1      14.731   5.897 -13.575  1.00  0.00    -0.392 OA
ATOM     40  H3  UNL     1      14.679   4.948 -13.564  1.00  0.00     0.210 HD
ENDBRANCH   3  39
BRANCH   1  41
HETATM   41  C3  UNL     1      13.783   8.082 -14.890  1.00  0.00     0.193 C 
BRANCH  41  42
HETATM   42  O2  UNL     1      13.848   9.433 -15.252  1.00  0.00    -0.321 OA
BRANCH  42  43
HETATM   43  C2  UNL     1      12.693  10.169 -15.525  1.00  0.00     0.254 C 
HETATM   44  C1  UNL     1      12.383  11.441 -14.826  1.00  0.00     0.126 C 
HETATM   45  O1  UNL     1      11.926   9.683 -16.406  1.00  0.00    -0.266 OA
ENDBRANCH  42  43
ENDBRANCH  41  42
ENDBRANCH   1  41
TORSDOF 11
ENDMDL
