MODEL 1
REMARK VINA RESULT: -2.340262366      0.000      0.000
REMARK  5 active torsions:
REMARK  status: ('A' for Active; 'I' for Inactive)
REMARK    1  A    between atoms: C2_2  and  N1_4 
REMARK    2  A    between atoms: N2_7  and  C6_8 
REMARK    3  A    between atoms: C7_11  and  N4_12 
REMARK    4  A    between atoms: N4_12  and  C8_14 
REMARK    5  A    between atoms: C16_22  and  C17_23 
ROOT
HETATM    1  C6  UNL     1      23.651  -0.038 -11.684  1.00  0.00     0.682 A 
HETATM    2  N3  UNL     1      24.246   0.176 -10.481  1.00  0.00    -0.177 N 
ATOM      3  H3  UNL     1      23.701  -0.003  -9.638  1.00  0.00     0.185 HD
HETATM    4  C7  UNL     1      25.504   0.609 -10.338  1.00  0.00     0.119 A 
HETATM    5  C15 UNL     1      26.237   0.851 -11.471  1.00  0.00     0.083 A 
HETATM    6  C16 UNL     1      25.677   0.649 -12.705  1.00  0.00     0.136 A 
HETATM    7  N5  UNL     1      24.402   0.211 -12.769  1.00  0.00    -0.186 N 
ATOM      8  H5  UNL     1      23.988   0.062 -13.689  1.00  0.00     0.184 HD
ENDROOT
BRANCH   1   9
HETATM    9  N2  UNL     1      22.322  -0.509 -11.756  1.00  0.00    -0.211 N 
HETATM   10  C5  UNL     1      21.156   0.278 -11.985  1.00  0.00     0.185 C 
HETATM   11  C4  UNL     1      20.178   0.083 -10.844  1.00  0.00     0.079 C 
HETATM   12  N1  UNL     1      20.028  -1.277 -10.540  1.00  0.00    -0.386 N 
HETATM   13  C19 UNL     1      20.645  -2.231 -11.390  1.00  0.00     0.143 C 
HETATM   14  C18 UNL     1      22.124  -1.961 -11.596  1.00  0.00     0.161 C 
BRANCH  12  15
HETATM   15  C2  UNL     1      18.970  -1.695  -9.710  1.00  0.00     0.075 C 
HETATM   16  C1  UNL     1      18.417  -0.589  -8.872  1.00  0.00     0.032 C 
HETATM   17  C3  UNL     1      17.836  -2.372 -10.463  1.00  0.00     0.032 C 
ENDBRANCH  12  15
ENDBRANCH   1   9
BRANCH   4  18
HETATM   18  N4  UNL     1      25.913   0.767  -9.149  1.00  0.00    -0.371 N 
ATOM     19  H4  UNL     1      25.626   1.650  -8.727  1.00  0.00     0.161 HD
BRANCH  18  20
HETATM   20  C8  UNL     1      26.689  -0.048  -8.299  1.00  0.00     0.083 C 
HETATM   21  C9  UNL     1      28.095   0.374  -8.046  1.00  0.00     0.025 C 
HETATM   22  C10 UNL     1      28.401   0.097  -6.568  1.00  0.00     0.002 C 
HETATM   23  C11 UNL     1      29.074  -1.260  -6.517  1.00  0.00     0.000 C 
HETATM   24  C12 UNL     1      28.143  -2.346  -6.990  1.00  0.00     0.000 C 
HETATM   25  C13 UNL     1      27.844  -2.299  -8.450  1.00  0.00     0.002 C 
HETATM   26  C14 UNL     1      26.692  -1.457  -8.852  1.00  0.00     0.025 C 
ENDBRANCH  18  20
ENDBRANCH   4  18
BRANCH   6  27
HETATM   27  C17 UNL     1      26.427   0.888 -13.985  1.00  0.00     0.433 C 
HETATM   28  F1  UNL     1      26.905  -0.376 -14.361  1.00  0.00    -0.165 F 
HETATM   29  F2  UNL     1      27.486   1.727 -13.817  1.00  0.00    -0.165 F 
HETATM   30  F3  UNL     1      25.557   1.277 -14.965  1.00  0.00    -0.165 F 
ENDBRANCH   6  27
TORSDOF 5
ENDMDL
MODEL 2
REMARK VINA RESULT: -1.142999326      0.389      1.206
REMARK  5 active torsions:
REMARK  status: ('A' for Active; 'I' for Inactive)
REMARK    1  A    between atoms: C2_2  and  N1_4 
REMARK    2  A    between atoms: N2_7  and  C6_8 
REMARK    3  A    between atoms: C7_11  and  N4_12 
REMARK    4  A    between atoms: N4_12  and  C8_14 
REMARK    5  A    between atoms: C16_22  and  C17_23 
ROOT
HETATM    1  C6  UNL     1      23.839  -0.006 -11.794  1.00  0.00     0.682 A 
HETATM    2  N3  UNL     1      24.488   0.212 -10.621  1.00  0.00    -0.177 N 
ATOM      3  H3  UNL     1      23.986   0.028  -9.753  1.00  0.00     0.185 HD
HETATM    4  C7  UNL     1      25.748   0.655 -10.537  1.00  0.00     0.119 A 
HETATM    5  C15 UNL     1      26.424   0.905 -11.703  1.00  0.00     0.083 A 
HETATM    6  C16 UNL     1      25.809   0.699 -12.909  1.00  0.00     0.136 A 
HETATM    7  N5  UNL     1      24.536   0.251 -12.913  1.00  0.00    -0.186 N 
ATOM      8  H5  UNL     1      24.080   0.099 -13.812  1.00  0.00     0.184 HD
ENDROOT
BRANCH   1   9
HETATM    9  N2  UNL     1      22.512  -0.488 -11.804  1.00  0.00    -0.211 N 
HETATM   10  C5  UNL     1      21.344   0.254 -12.141  1.00  0.00     0.185 C 
HETATM   11  C4  UNL     1      20.363   0.214 -10.986  1.00  0.00     0.079 C 
HETATM   12  N1  UNL     1      20.218  -1.093 -10.499  1.00  0.00    -0.386 N 
HETATM   13  C19 UNL     1      20.841  -2.151 -11.209  1.00  0.00     0.143 C 
HETATM   14  C18 UNL     1      22.320  -1.906 -11.447  1.00  0.00     0.161 C 
BRANCH  12  15
HETATM   15  C2  UNL     1      19.160  -1.398  -9.622  1.00  0.00     0.075 C 
HETATM   16  C1  UNL     1      18.574  -0.185  -8.975  1.00  0.00     0.032 C 
HETATM   17  C3  UNL     1      18.049  -2.212 -10.268  1.00  0.00     0.032 C 
ENDBRANCH  12  15
ENDBRANCH   1   9
BRANCH   4  18
HETATM   18  N4  UNL     1      26.211   0.816  -9.368  1.00  0.00    -0.371 N 
ATOM     19  H4  UNL     1      25.892   1.669  -8.910  1.00  0.00     0.161 HD
BRANCH  18  20
HETATM   20  C8  UNL     1      27.085   0.037  -8.581  1.00  0.00     0.083 C 
HETATM   21  C9  UNL     1      26.556  -1.246  -8.040  1.00  0.00     0.025 C 
HETATM   22  C10 UNL     1      27.683  -2.285  -8.134  1.00  0.00     0.002 C 
HETATM   23  C11 UNL     1      28.366  -2.297  -6.782  1.00  0.00     0.000 C 
HETATM   24  C12 UNL     1      29.011  -0.968  -6.487  1.00  0.00     0.000 C 
HETATM   25  C13 UNL     1      28.042   0.137  -6.236  1.00  0.00     0.002 C 
HETATM   26  C14 UNL     1      27.584   0.885  -7.431  1.00  0.00     0.025 C 
ENDBRANCH  18  20
ENDBRANCH   4  18
BRANCH   6  27
HETATM   27  C17 UNL     1      26.495   0.946 -14.222  1.00  0.00     0.433 C 
HETATM   28  F1  UNL     1      26.996  -0.307 -14.605  1.00  0.00    -0.165 F 
HETATM   29  F2  UNL     1      27.533   1.819 -14.110  1.00  0.00    -0.165 F 
HETATM   30  F3  UNL     1      25.572   1.297 -15.168  1.00  0.00    -0.165 F 
ENDBRANCH   6  27
TORSDOF 5
ENDMDL
MODEL 3
REMARK VINA RESULT: -0.404074893      1.402      2.268
REMARK  5 active torsions:
REMARK  status: ('A' for Active; 'I' for Inactive)
REMARK    1  A    between atoms: C2_2  and  N1_4 
REMARK    2  A    between atoms: N2_7  and  C6_8 
REMARK    3  A    between atoms: C7_11  and  N4_12 
REMARK    4  A    between atoms: N4_12  and  C8_14 
REMARK    5  A    between atoms: C16_22  and  C17_23 
ROOT
HETATM    1  C6  UNL     1      22.425  -0.278 -10.572  1.00  0.00     0.682 A 
HETATM    2  N3  UNL     1      23.258  -0.640  -9.562  1.00  0.00    -0.177 N 
ATOM      3  H3  UNL     1      22.846  -1.040  -8.720  1.00  0.00     0.185 HD
HETATM    4  C7  UNL     1      24.589  -0.505  -9.609  1.00  0.00     0.119 A 
HETATM    5  C15 UNL     1      25.145   0.032 -10.741  1.00  0.00     0.083 A 
HETATM    6  C16 UNL     1      24.342   0.412 -11.784  1.00  0.00     0.136 A 
HETATM    7  N5  UNL     1      23.009   0.244 -11.663  1.00  0.00    -0.186 N 
ATOM      8  H5  UNL     1      22.413   0.528 -12.441  1.00  0.00     0.184 HD
ENDROOT
BRANCH   1   9
HETATM    9  N2  UNL     1      21.031  -0.464 -10.456  1.00  0.00    -0.211 N 
HETATM   10  C5  UNL     1      20.365  -1.319  -9.530  1.00  0.00     0.185 C 
HETATM   11  C4  UNL     1      19.496  -2.307 -10.283  1.00  0.00     0.079 C 
HETATM   12  N1  UNL     1      18.740  -1.657 -11.269  1.00  0.00    -0.386 N 
HETATM   13  C19 UNL     1      18.768  -0.240 -11.317  1.00  0.00     0.143 C 
HETATM   14  C18 UNL     1      20.178   0.316 -11.371  1.00  0.00     0.161 C 
BRANCH  12  15
HETATM   15  C2  UNL     1      17.672  -2.334 -11.890  1.00  0.00     0.075 C 
HETATM   16  C1  UNL     1      18.118  -3.520 -12.681  1.00  0.00     0.032 C 
HETATM   17  C3  UNL     1      16.575  -2.755 -10.925  1.00  0.00     0.032 C 
ENDBRANCH  12  15
ENDBRANCH   1   9
BRANCH   4  18
HETATM   18  N4  UNL     1      25.229  -0.884  -8.582  1.00  0.00    -0.371 N 
ATOM     19  H4  UNL     1      24.694  -1.491  -7.961  1.00  0.00     0.161 HD
BRANCH  18  20
HETATM   20  C8  UNL     1      26.541  -0.624  -8.137  1.00  0.00     0.083 C 
HETATM   21  C9  UNL     1      27.576  -0.364  -9.176  1.00  0.00     0.025 C 
HETATM   22  C10 UNL     1      28.487   0.755  -8.649  1.00  0.00     0.002 C 
HETATM   23  C11 UNL     1      29.677   0.071  -8.008  1.00  0.00     0.000 C 
HETATM   24  C12 UNL     1      29.254  -0.753  -6.820  1.00  0.00     0.000 C 
HETATM   25  C13 UNL     1      28.463  -1.967  -7.172  1.00  0.00     0.002 C 
HETATM   26  C14 UNL     1      26.995  -1.781  -7.272  1.00  0.00     0.025 C 
ENDBRANCH  18  20
ENDBRANCH   4  18
BRANCH   6  27
HETATM   27  C17 UNL     1      24.887   0.999 -13.054  1.00  0.00     0.433 C 
HETATM   28  F1  UNL     1      25.751   2.021 -12.635  1.00  0.00    -0.165 F 
HETATM   29  F2  UNL     1      23.913   1.540 -13.837  1.00  0.00    -0.165 F 
HETATM   30  F3  UNL     1      25.667   0.075 -13.694  1.00  0.00    -0.165 F 
ENDBRANCH   6  27
TORSDOF 5
ENDMDL
MODEL 4
REMARK VINA RESULT: -0.047051175      1.064      1.522
REMARK  5 active torsions:
REMARK  status: ('A' for Active; 'I' for Inactive)
REMARK    1  A    between atoms: C2_2  and  N1_4 
REMARK    2  A    between atoms: N2_7  and  C6_8 
REMARK    3  A    between atoms: C7_11  and  N4_12 
REMARK    4  A    between atoms: N4_12  and  C8_14 
REMARK    5  A    between atoms: C16_22  and  C17_23 
ROOT
HETATM    1  C6  UNL     1      23.054  -0.525 -11.401  1.00  0.00     0.682 A 
HETATM    2  N3  UNL     1      23.772  -0.852 -10.296  1.00  0.00    -0.177 N 
ATOM      3  H3  UNL     1      23.285  -1.310  -9.525  1.00  0.00     0.185 HD
HETATM    4  C7  UNL     1      25.080  -0.610 -10.157  1.00  0.00     0.119 A 
HETATM    5  C15 UNL     1      25.737   0.005 -11.192  1.00  0.00     0.083 A 
HETATM    6  C16 UNL     1      25.052   0.353 -12.326  1.00  0.00     0.136 A 
HETATM    7  N5  UNL     1      23.733   0.076 -12.392  1.00  0.00    -0.186 N 
ATOM      8  H5  UNL     1      23.226   0.337 -13.237  1.00  0.00     0.184 HD
ENDROOT
BRANCH   1   9
HETATM    9  N2  UNL     1      21.677  -0.825 -11.480  1.00  0.00    -0.211 N 
HETATM   10  C5  UNL     1      20.601   0.103 -11.376  1.00  0.00     0.185 C 
HETATM   11  C4  UNL     1      19.676  -0.314 -10.249  1.00  0.00     0.079 C 
HETATM   12  N1  UNL     1      19.385  -1.684 -10.323  1.00  0.00    -0.386 N 
HETATM   13  C19 UNL     1      19.833  -2.410 -11.456  1.00  0.00     0.143 C 
HETATM   14  C18 UNL     1      21.318  -2.236 -11.713  1.00  0.00     0.161 C 
BRANCH  12  15
HETATM   15  C2  UNL     1      18.337  -2.218  -9.549  1.00  0.00     0.075 C 
HETATM   16  C1  UNL     1      17.936  -1.325  -8.420  1.00  0.00     0.032 C 
HETATM   17  C3  UNL     1      17.106  -2.586 -10.363  1.00  0.00     0.032 C 
ENDBRANCH  12  15
ENDBRANCH   1   9
BRANCH   4  18
HETATM   18  N4  UNL     1      25.607  -0.970  -9.061  1.00  0.00    -0.371 N 
ATOM     19  H4  UNL     1      24.967  -1.458  -8.436  1.00  0.00     0.161 HD
BRANCH  18  20
HETATM   20  C8  UNL     1      26.910  -0.821  -8.544  1.00  0.00     0.083 C 
HETATM   21  C9  UNL     1      27.046  -0.172  -7.211  1.00  0.00     0.025 C 
HETATM   22  C10 UNL     1      28.146  -0.919  -6.444  1.00  0.00     0.002 C 
HETATM   23  C11 UNL     1      29.426  -0.139  -6.664  1.00  0.00     0.000 C 
HETATM   24  C12 UNL     1      29.819  -0.139  -8.118  1.00  0.00     0.000 C 
HETATM   25  C13 UNL     1      28.916   0.662  -8.993  1.00  0.00     0.002 C 
HETATM   26  C14 UNL     1      27.744  -0.054  -9.549  1.00  0.00     0.025 C 
ENDBRANCH  18  20
ENDBRANCH   4  18
BRANCH   6  27
HETATM   27  C17 UNL     1      25.712   1.023 -13.498  1.00  0.00     0.433 C 
HETATM   28  F1  UNL     1      26.531   2.010 -12.932  1.00  0.00    -0.165 F 
HETATM   29  F2  UNL     1      24.814   1.619 -14.329  1.00  0.00    -0.165 F 
HETATM   30  F3  UNL     1      26.549   0.140 -14.124  1.00  0.00    -0.165 F 
ENDBRANCH   6  27
TORSDOF 5
ENDMDL
MODEL 5
REMARK VINA RESULT: 0.794321791      1.151      6.777
REMARK  5 active torsions:
REMARK  status: ('A' for Active; 'I' for Inactive)
REMARK    1  A    between atoms: C2_2  and  N1_4 
REMARK    2  A    between atoms: N2_7  and  C6_8 
REMARK    3  A    between atoms: C7_11  and  N4_12 
REMARK    4  A    between atoms: N4_12  and  C8_14 
REMARK    5  A    between atoms: C16_22  and  C17_23 
ROOT
HETATM    1  C6  UNL     1      25.349   0.408 -10.708  1.00  0.00     0.682 A 
HETATM    2  N3  UNL     1      24.002   0.392 -10.883  1.00  0.00    -0.177 N 
ATOM      3  H3  UNL     1      23.411   0.300 -10.057  1.00  0.00     0.185 HD
HETATM    4  C7  UNL     1      23.403   0.491 -12.076  1.00  0.00     0.119 A 
HETATM    5  C15 UNL     1      24.195   0.616 -13.188  1.00  0.00     0.083 A 
HETATM    6  C16 UNL     1      25.559   0.636 -13.059  1.00  0.00     0.136 A 
HETATM    7  N5  UNL     1      26.089   0.531 -11.822  1.00  0.00    -0.186 N 
ATOM      8  H5  UNL     1      27.104   0.546 -11.729  1.00  0.00     0.184 HD
ENDROOT
BRANCH   1   9
HETATM    9  N2  UNL     1      25.908   0.313  -9.416  1.00  0.00    -0.211 N 
HETATM   10  C5  UNL     1      26.819   1.231  -8.819  1.00  0.00     0.185 C 
HETATM   11  C4  UNL     1      28.081   0.499  -8.405  1.00  0.00     0.079 C 
HETATM   12  N1  UNL     1      27.770  -0.687  -7.724  1.00  0.00    -0.386 N 
HETATM   13  C19 UNL     1      26.414  -0.942  -7.396  1.00  0.00     0.143 C 
HETATM   14  C18 UNL     1      25.492  -0.840  -8.597  1.00  0.00     0.161 C 
BRANCH  12  15
HETATM   15  C2  UNL     1      28.778  -1.370  -7.017  1.00  0.00     0.075 C 
HETATM   16  C1  UNL     1      29.119  -0.718  -5.717  1.00  0.00     0.032 C 
HETATM   17  C3  UNL     1      28.464  -2.839  -6.777  1.00  0.00     0.032 C 
ENDBRANCH  12  15
ENDBRANCH   1   9
BRANCH   4  18
HETATM   18  N4  UNL     1      22.136   0.453 -12.075  1.00  0.00    -0.371 N 
ATOM     19  H4  UNL     1      21.705   1.014 -12.810  1.00  0.00     0.161 HD
BRANCH  18  20
HETATM   20  C8  UNL     1      21.210  -0.217 -11.250  1.00  0.00     0.083 C 
HETATM   21  C9  UNL     1      20.346  -1.247 -11.890  1.00  0.00     0.025 C 
HETATM   22  C10 UNL     1      20.214  -2.416 -10.904  1.00  0.00     0.002 C 
HETATM   23  C11 UNL     1      18.927  -2.188 -10.138  1.00  0.00     0.000 C 
HETATM   24  C12 UNL     1      19.000  -0.924  -9.321  1.00  0.00     0.000 C 
HETATM   25  C13 UNL     1      19.001   0.327 -10.132  1.00  0.00     0.002 C 
HETATM   26  C14 UNL     1      20.329   0.813 -10.576  1.00  0.00     0.025 C 
ENDBRANCH  18  20
ENDBRANCH   4  18
BRANCH   6  27
HETATM   27  C17 UNL     1      26.483   0.776 -14.235  1.00  0.00     0.433 C 
HETATM   28  F1  UNL     1      27.483   1.658 -13.801  1.00  0.00    -0.165 F 
HETATM   29  F2  UNL     1      25.863   1.314 -15.321  1.00  0.00    -0.165 F 
HETATM   30  F3  UNL     1      27.103  -0.418 -14.481  1.00  0.00    -0.165 F 
ENDBRANCH   6  27
TORSDOF 5
ENDMDL
