MODEL 1
REMARK VINA RESULT: -4.969707697      0.000      0.000
REMARK  4 active torsions:
REMARK  status: ('A' for Active; 'I' for Inactive)
REMARK    1  A    between atoms: C1_2  and  C2_5 
REMARK    2  A    between atoms: C2_5  and  C3_6 
REMARK    3  A    between atoms: C3_6  and  C4_7 
REMARK    4  A    between atoms: N1_10  and  C7_11 
ROOT
HETATM    1  C7  UNL     1      23.995  -0.197 -11.747  1.00  0.00     0.114 A 
HETATM    2  N2  UNL     1      24.469   0.385 -12.878  1.00  0.00    -0.338 N 
ATOM      3  H2  UNL     1      23.848   0.448 -13.684  1.00  0.00     0.168 HD
HETATM    4  C8  UNL     1      25.712   0.882 -12.991  1.00  0.00     0.182 A 
HETATM    5  N3  UNL     1      26.520   0.789 -11.914  1.00  0.00    -0.354 N 
ATOM      6  H3  UNL     1      27.468   1.161 -11.983  1.00  0.00     0.166 HD
HETATM    7  C9  UNL     1      26.134   0.231 -10.762  1.00  0.00     0.032 A 
HETATM    8  C10 UNL     1      24.860  -0.273 -10.659  1.00  0.00     0.026 A 
HETATM    9  C11 UNL     1      24.350  -0.911  -9.412  1.00  0.00     0.158 C 
HETATM   10  N4  UNL     1      25.369  -1.291  -8.488  1.00  0.00    -0.416 N 
ATOM     11  H4  UNL     1      25.153  -1.574  -7.531  1.00  0.00     0.153 HD
HETATM   12  C12 UNL     1      26.708  -1.250  -8.984  1.00  0.00     0.130 C 
HETATM   13  C13 UNL     1      27.024   0.128  -9.584  1.00  0.00     0.022 C 
HETATM   14  C14 UNL     1      26.699   1.188  -8.555  1.00  0.00     0.044 C 
HETATM   15  C15 UNL     1      27.517   0.907  -7.317  1.00  0.00     0.168 C 
HETATM   16  O1  UNL     1      28.795   0.454  -7.633  1.00  0.00    -0.391 OA
HETATM   17  C16 UNL     1      29.243   0.942  -8.854  1.00  0.00     0.168 C 
HETATM   18  C17 UNL     1      28.486   0.196  -9.943  1.00  0.00     0.044 C 
ENDROOT
BRANCH   1  19
HETATM   19  N1  UNL     1      22.669  -0.689 -11.725  1.00  0.00    -0.367 N 
HETATM   20  C6  UNL     1      22.291  -2.069 -11.525  1.00  0.00     0.125 C 
HETATM   21  C5  UNL     1      21.225  -2.202 -10.463  1.00  0.00     0.024 C 
HETATM   22  C4  UNL     1      20.066  -1.276 -10.642  1.00  0.00    -0.011 C 
HETATM   23  C19 UNL     1      20.248  -0.466 -11.925  1.00  0.00     0.024 C 
HETATM   24  C18 UNL     1      21.583   0.250 -11.921  1.00  0.00     0.125 C 
BRANCH  22  25
HETATM   25  C3  UNL     1      19.948  -0.374  -9.457  1.00  0.00     0.013 C 
BRANCH  25  26
HETATM   26  C2  UNL     1      18.713   0.450  -9.363  1.00  0.00     0.117 C 
BRANCH  26  27
HETATM   27  C1  UNL     1      18.780   1.825  -9.944  1.00  0.00     0.387 C 
HETATM   28  F1  UNL     1      20.138   2.166 -10.116  1.00  0.00    -0.171 F 
HETATM   29  F2  UNL     1      18.215   1.879 -11.201  1.00  0.00    -0.171 F 
HETATM   30  F3  UNL     1      18.286   2.817  -9.101  1.00  0.00    -0.171 F 
ENDBRANCH  26  27
ENDBRANCH  25  26
ENDBRANCH  22  25
ENDBRANCH   1  19
TORSDOF 4
ENDMDL
MODEL 2
REMARK VINA RESULT: -3.700986654      0.912      1.015
REMARK  4 active torsions:
REMARK  status: ('A' for Active; 'I' for Inactive)
REMARK    1  A    between atoms: C1_2  and  C2_5 
REMARK    2  A    between atoms: C2_5  and  C3_6 
REMARK    3  A    between atoms: C3_6  and  C4_7 
REMARK    4  A    between atoms: N1_10  and  C7_11 
ROOT
HETATM    1  C7  UNL     1      23.419  -0.546 -11.312  1.00  0.00     0.114 A 
HETATM    2  N2  UNL     1      23.435   0.294 -12.378  1.00  0.00    -0.338 N 
ATOM      3  H2  UNL     1      22.622   0.308 -12.993  1.00  0.00     0.168 HD
HETATM    4  C8  UNL     1      24.465   1.107 -12.665  1.00  0.00     0.182 A 
HETATM    5  N3  UNL     1      25.534   1.075 -11.841  1.00  0.00    -0.354 N 
ATOM      6  H3  UNL     1      26.325   1.685 -12.045  1.00  0.00     0.166 HD
HETATM    7  C9  UNL     1      25.600   0.277 -10.770  1.00  0.00     0.032 A 
HETATM    8  C10 UNL     1      24.540  -0.550 -10.486  1.00  0.00     0.026 A 
HETATM    9  C11 UNL     1      24.534  -1.469  -9.313  1.00  0.00     0.158 C 
HETATM   10  N4  UNL     1      25.820  -1.699  -8.740  1.00  0.00    -0.416 N 
ATOM     11  H4  UNL     1      25.936  -2.162  -7.838  1.00  0.00     0.153 HD
HETATM   12  C12 UNL     1      26.936  -1.242  -9.508  1.00  0.00     0.130 C 
HETATM   13  C13 UNL     1      26.775   0.242  -9.870  1.00  0.00     0.022 C 
HETATM   14  C14 UNL     1      26.518   1.023  -8.601  1.00  0.00     0.044 C 
HETATM   15  C15 UNL     1      27.680   0.790  -7.663  1.00  0.00     0.168 C 
HETATM   16  O1  UNL     1      28.892   0.734  -8.346  1.00  0.00    -0.391 OA
HETATM   17  C16 UNL     1      28.879   1.491  -9.510  1.00  0.00     0.168 C 
HETATM   18  C17 UNL     1      28.036   0.737 -10.529  1.00  0.00     0.044 C 
ENDROOT
BRANCH   1  19
HETATM   19  N1  UNL     1      22.286  -1.364 -11.091  1.00  0.00    -0.367 N 
HETATM   20  C6  UNL     1      21.960  -2.026  -9.851  1.00  0.00     0.125 C 
HETATM   21  C5  UNL     1      20.528  -1.769  -9.446  1.00  0.00     0.024 C 
HETATM   22  C4  UNL     1      19.534  -2.003 -10.537  1.00  0.00    -0.011 C 
HETATM   23  C19 UNL     1      20.252  -2.517 -11.785  1.00  0.00     0.024 C 
HETATM   24  C18 UNL     1      21.363  -1.572 -12.190  1.00  0.00     0.125 C 
BRANCH  22  25
HETATM   25  C3  UNL     1      18.794  -0.739 -10.832  1.00  0.00     0.013 C 
BRANCH  25  26
HETATM   26  C2  UNL     1      18.878   0.341  -9.813  1.00  0.00     0.117 C 
BRANCH  26  27
HETATM   27  C1  UNL     1      19.095   1.728 -10.323  1.00  0.00     0.387 C 
HETATM   28  F1  UNL     1      20.484   1.942 -10.442  1.00  0.00    -0.171 F 
HETATM   29  F2  UNL     1      18.578   1.896 -11.590  1.00  0.00    -0.171 F 
HETATM   30  F3  UNL     1      18.674   2.724  -9.446  1.00  0.00    -0.171 F 
ENDBRANCH  26  27
ENDBRANCH  25  26
ENDBRANCH  22  25
ENDBRANCH   1  19
TORSDOF 4
ENDMDL
MODEL 3
REMARK VINA RESULT: -3.466527689      1.282      2.520
REMARK  4 active torsions:
REMARK  status: ('A' for Active; 'I' for Inactive)
REMARK    1  A    between atoms: C1_2  and  C2_5 
REMARK    2  A    between atoms: C2_5  and  C3_6 
REMARK    3  A    between atoms: C3_6  and  C4_7 
REMARK    4  A    between atoms: N1_10  and  C7_11 
ROOT
HETATM    1  C7  UNL     1      23.354  -0.816 -10.011  1.00  0.00     0.114 A 
HETATM    2  N2  UNL     1      23.383  -1.196  -8.709  1.00  0.00    -0.338 N 
ATOM      3  H2  UNL     1      22.537  -1.592  -8.303  1.00  0.00     0.168 HD
HETATM    4  C8  UNL     1      24.469  -1.077  -7.927  1.00  0.00     0.182 A 
HETATM    5  N3  UNL     1      25.581  -0.549  -8.479  1.00  0.00    -0.354 N 
ATOM      6  H3  UNL     1      26.414  -0.451  -7.899  1.00  0.00     0.166 HD
HETATM    7  C9  UNL     1      25.638  -0.149  -9.754  1.00  0.00     0.032 A 
HETATM    8  C10 UNL     1      24.522  -0.277 -10.544  1.00  0.00     0.026 A 
HETATM    9  C11 UNL     1      24.501   0.145 -11.974  1.00  0.00     0.158 C 
HETATM   10  N4  UNL     1      25.571   1.012 -12.346  1.00  0.00    -0.416 N 
ATOM     11  H4  UNL     1      25.774   1.233 -13.322  1.00  0.00     0.153 HD
HETATM   12  C12 UNL     1      26.340   1.553 -11.269  1.00  0.00     0.130 C 
HETATM   13  C13 UNL     1      26.859   0.433 -10.356  1.00  0.00     0.022 C 
HETATM   14  C14 UNL     1      27.589  -0.583 -11.207  1.00  0.00     0.044 C 
HETATM   15  C15 UNL     1      28.710   0.128 -11.928  1.00  0.00     0.168 C 
HETATM   16  O1  UNL     1      29.314   1.091 -11.123  1.00  0.00    -0.391 OA
HETATM   17  C16 UNL     1      29.238   0.776  -9.772  1.00  0.00     0.168 C 
HETATM   18  C17 UNL     1      27.800   1.014  -9.334  1.00  0.00     0.044 C 
ENDROOT
BRANCH   1  19
HETATM   19  N1  UNL     1      22.162  -0.983 -10.755  1.00  0.00    -0.367 N 
HETATM   20  C6  UNL     1      21.664  -2.238 -11.268  1.00  0.00     0.125 C 
HETATM   21  C5  UNL     1      20.210  -2.441 -10.912  1.00  0.00     0.024 C 
HETATM   22  C4  UNL     1      19.336  -1.271 -11.223  1.00  0.00    -0.011 C 
HETATM   23  C19 UNL     1      20.163  -0.175 -11.895  1.00  0.00     0.024 C 
HETATM   24  C18 UNL     1      21.361   0.190 -11.043  1.00  0.00     0.125 C 
BRANCH  22  25
HETATM   25  C3  UNL     1      18.701  -0.763  -9.969  1.00  0.00     0.013 C 
BRANCH  25  26
HETATM   26  C2  UNL     1      19.308   0.448  -9.354  1.00  0.00     0.117 C 
BRANCH  26  27
HETATM   27  C1  UNL     1      18.708   1.763  -9.731  1.00  0.00     0.387 C 
HETATM   28  F1  UNL     1      19.745   2.610 -10.175  1.00  0.00    -0.171 F 
HETATM   29  F2  UNL     1      17.837   1.645 -10.794  1.00  0.00    -0.171 F 
HETATM   30  F3  UNL     1      18.143   2.453  -8.661  1.00  0.00    -0.171 F 
ENDBRANCH  26  27
ENDBRANCH  25  26
ENDBRANCH  22  25
ENDBRANCH   1  19
TORSDOF 4
ENDMDL
MODEL 4
REMARK VINA RESULT: -3.333747323      3.810      7.051
REMARK  4 active torsions:
REMARK  status: ('A' for Active; 'I' for Inactive)
REMARK    1  A    between atoms: C1_2  and  C2_5 
REMARK    2  A    between atoms: C2_5  and  C3_6 
REMARK    3  A    between atoms: C3_6  and  C4_7 
REMARK    4  A    between atoms: N1_10  and  C7_11 
ROOT
HETATM    1  C7  UNL     1      25.716   1.069 -11.236  1.00  0.00     0.114 A 
HETATM    2  N2  UNL     1      25.738   1.455 -12.537  1.00  0.00    -0.338 N 
ATOM      3  H2  UNL     1      26.569   1.934 -12.884  1.00  0.00     0.168 HD
HETATM    4  C8  UNL     1      24.725   1.239 -13.392  1.00  0.00     0.182 A 
HETATM    5  N3  UNL     1      23.633   0.605 -12.916  1.00  0.00    -0.354 N 
ATOM      6  H3  UNL     1      22.853   0.434 -13.551  1.00  0.00     0.166 HD
HETATM    7  C9  UNL     1      23.528   0.192 -11.649  1.00  0.00     0.032 A 
HETATM    8  C10 UNL     1      24.572   0.418 -10.784  1.00  0.00     0.026 A 
HETATM    9  C11 UNL     1      24.536  -0.009  -9.357  1.00  0.00     0.158 C 
HETATM   10  N4  UNL     1      23.231  -0.321  -8.870  1.00  0.00    -0.416 N 
ATOM     11  H4  UNL     1      23.085  -0.788  -7.974  1.00  0.00     0.153 HD
HETATM   12  C12 UNL     1      22.142   0.063  -9.713  1.00  0.00     0.130 C 
HETATM   13  C13 UNL     1      22.327  -0.500 -11.129  1.00  0.00     0.022 C 
HETATM   14  C14 UNL     1      22.554  -1.992 -11.029  1.00  0.00     0.044 C 
HETATM   15  C15 UNL     1      21.364  -2.602 -10.326  1.00  0.00     0.168 C 
HETATM   16  O1  UNL     1      20.171  -1.990 -10.703  1.00  0.00    -0.391 OA
HETATM   17  C16 UNL     1      20.225  -1.476 -11.993  1.00  0.00     0.168 C 
HETATM   18  C17 UNL     1      21.090  -0.225 -11.944  1.00  0.00     0.044 C 
ENDROOT
BRANCH   1  19
HETATM   19  N1  UNL     1      26.835   1.340 -10.414  1.00  0.00    -0.367 N 
HETATM   20  C6  UNL     1      27.115   2.602  -9.770  1.00  0.00     0.125 C 
HETATM   21  C5  UNL     1      27.425   2.417  -8.303  1.00  0.00     0.024 C 
HETATM   22  C4  UNL     1      28.437   1.355  -8.022  1.00  0.00    -0.011 C 
HETATM   23  C19 UNL     1      28.948   0.770  -9.338  1.00  0.00     0.024 C 
HETATM   24  C18 UNL     1      27.796   0.278 -10.189  1.00  0.00     0.125 C 
BRANCH  22  25
HETATM   25  C3  UNL     1      27.834   0.289  -7.167  1.00  0.00     0.013 C 
BRANCH  25  26
HETATM   26  C2  UNL     1      28.440  -1.066  -7.257  1.00  0.00     0.117 C 
BRANCH  26  27
HETATM   27  C1  UNL     1      27.537  -2.176  -7.687  1.00  0.00     0.387 C 
HETATM   28  F1  UNL     1      27.918  -3.347  -6.998  1.00  0.00    -0.171 F 
HETATM   29  F2  UNL     1      26.226  -1.939  -7.330  1.00  0.00    -0.171 F 
HETATM   30  F3  UNL     1      27.664  -2.518  -9.031  1.00  0.00    -0.171 F 
ENDBRANCH  26  27
ENDBRANCH  25  26
ENDBRANCH  22  25
ENDBRANCH   1  19
TORSDOF 4
ENDMDL
MODEL 5
REMARK VINA RESULT: -2.946008233      1.985      2.731
REMARK  4 active torsions:
REMARK  status: ('A' for Active; 'I' for Inactive)
REMARK    1  A    between atoms: C1_2  and  C2_5 
REMARK    2  A    between atoms: C2_5  and  C3_6 
REMARK    3  A    between atoms: C3_6  and  C4_7 
REMARK    4  A    between atoms: N1_10  and  C7_11 
ROOT
HETATM    1  C7  UNL     1      23.542  -0.227 -10.939  1.00  0.00     0.114 A 
HETATM    2  N2  UNL     1      23.735   0.159 -12.225  1.00  0.00    -0.338 N 
ATOM      3  H2  UNL     1      22.931   0.166 -12.852  1.00  0.00     0.168 HD
HETATM    4  C8  UNL     1      24.928   0.532 -12.716  1.00  0.00     0.182 A 
HETATM    5  N3  UNL     1      25.982   0.515 -11.873  1.00  0.00    -0.354 N 
ATOM      6  H3  UNL     1      26.896   0.794 -12.229  1.00  0.00     0.166 HD
HETATM    7  C9  UNL     1      25.879   0.149 -10.591  1.00  0.00     0.032 A 
HETATM    8  C10 UNL     1      24.653  -0.230 -10.101  1.00  0.00     0.026 A 
HETATM    9  C11 UNL     1      24.453  -0.653  -8.686  1.00  0.00     0.158 C 
HETATM   10  N4  UNL     1      25.657  -0.991  -7.998  1.00  0.00    -0.416 N 
ATOM     11  H4  UNL     1      25.682  -1.126  -6.986  1.00  0.00     0.153 HD
HETATM   12  C12 UNL     1      26.823  -1.127  -8.812  1.00  0.00     0.130 C 
HETATM   13  C13 UNL     1      27.038   0.128  -9.670  1.00  0.00     0.022 C 
HETATM   14  C14 UNL     1      27.038   1.338  -8.762  1.00  0.00     0.044 C 
HETATM   15  C15 UNL     1      28.134   1.156  -7.738  1.00  0.00     0.168 C 
HETATM   16  O1  UNL     1      29.265   0.561  -8.291  1.00  0.00    -0.391 OA
HETATM   17  C16 UNL     1      29.405   0.845  -9.643  1.00  0.00     0.168 C 
HETATM   18  C17 UNL     1      28.359   0.027 -10.387  1.00  0.00     0.044 C 
ENDROOT
BRANCH   1  19
HETATM   19  N1  UNL     1      22.245  -0.601 -10.515  1.00  0.00    -0.367 N 
HETATM   20  C6  UNL     1      21.110   0.286 -10.411  1.00  0.00     0.125 C 
HETATM   21  C5  UNL     1      19.894  -0.291 -11.096  1.00  0.00     0.024 C 
HETATM   22  C4  UNL     1      19.593  -1.705 -10.720  1.00  0.00    -0.011 C 
HETATM   23  C19 UNL     1      20.591  -2.178  -9.663  1.00  0.00     0.024 C 
HETATM   24  C18 UNL     1      22.013  -1.983 -10.144  1.00  0.00     0.125 C 
BRANCH  22  25
HETATM   25  C3  UNL     1      19.649  -2.577 -11.931  1.00  0.00     0.013 C 
BRANCH  25  26
HETATM   26  C2  UNL     1      18.390  -3.265 -12.321  1.00  0.00     0.117 C 
BRANCH  26  27
HETATM   27  C1  UNL     1      17.120  -2.504 -12.116  1.00  0.00     0.387 C 
HETATM   28  F1  UNL     1      16.213  -2.879 -13.130  1.00  0.00    -0.171 F 
HETATM   29  F2  UNL     1      16.511  -2.834 -10.924  1.00  0.00    -0.171 F 
HETATM   30  F3  UNL     1      17.256  -1.128 -12.276  1.00  0.00    -0.171 F 
ENDBRANCH  26  27
ENDBRANCH  25  26
ENDBRANCH  22  25
ENDBRANCH   1  19
TORSDOF 4
ENDMDL
