MODEL 1
REMARK VINA RESULT: -6.904367854      0.000      0.000
REMARK  5 active torsions:
REMARK  status: ('A' for Active; 'I' for Inactive)
REMARK    1  A    between atoms: C2_2  and  C3_3 
REMARK    2  A    between atoms: C3_3  and  O2_5 
REMARK    3  A    between atoms: O2_5  and  C4_6 
REMARK    4  A    between atoms: C4_6  and  C5_7 
REMARK       I    between atoms: C5_7  and  N1_9 
REMARK    5  A    between atoms: N1_9  and  C6_11 
ROOT
HETATM    1  C4  UNL     1      25.346   1.769 -12.087  1.00  0.00     0.281 C 
ENDROOT
BRANCH   1   2
HETATM    2  O2  UNL     1      24.578   1.003 -11.198  1.00  0.00    -0.311 OA
BRANCH   2   3
HETATM    3  C3  UNL     1      23.787  -0.067 -11.493  1.00  0.00     0.267 C 
HETATM    4  O1  UNL     1      23.932  -0.632 -12.606  1.00  0.00    -0.264 OA
BRANCH   3   5
HETATM    5  C2  UNL     1      22.749  -0.622 -10.578  1.00  0.00     0.047 C 
HETATM    6  C1  UNL     1      23.437  -0.941  -9.270  1.00  0.00     0.026 C 
HETATM    7  C8  UNL     1      21.592   0.323 -10.417  1.00  0.00     0.022 C 
HETATM    8  C9  UNL     1      20.453  -0.283 -11.239  1.00  0.00     0.043 C 
HETATM    9  C10 UNL     1      20.678  -1.767 -10.983  1.00  0.00     0.114 C 
HETATM   10 CL1  UNL     1      20.215  -2.183  -9.330  1.00  0.00    -0.102 Cl
HETATM   11 CL2  UNL     1      19.753  -2.772 -12.120  1.00  0.00    -0.102 Cl
HETATM   12  C11 UNL     1      22.164  -1.887 -11.188  1.00  0.00     0.061 C 
ENDBRANCH   3   5
ENDBRANCH   2   3
ENDBRANCH   1   2
BRANCH   1  13
HETATM   13  C5  UNL     1      26.502   1.084 -12.666  1.00  0.00     0.247 C 
HETATM   14  O3  UNL     1      26.601   1.109 -13.946  1.00  0.00    -0.271 OA
HETATM   15  N1  UNL     1      27.506   0.407 -11.974  1.00  0.00    -0.305 N 
ATOM     16  H1  UNL     1      28.322   0.113 -12.512  1.00  0.00     0.171 HD
BRANCH  15  17
HETATM   17  C6  UNL     1      27.501   0.118 -10.720  1.00  0.00     0.161 A 
HETATM   18  N2  UNL     1      27.584   1.055  -9.779  1.00  0.00    -0.303 N 
HETATM   19  S1  UNL     1      27.564   0.501  -8.221  1.00  0.00     0.038 SA
ATOM     20  H2  UNL     1      27.655   2.048 -10.003  1.00  0.00     0.176 HD
HETATM   21  C7  UNL     1      27.436  -1.192  -8.273  1.00  0.00     0.274 A 
HETATM   22  O4  UNL     1      27.389  -1.998  -7.328  1.00  0.00    -0.271 OA
HETATM   23  S2  UNL     1      27.399  -1.380  -9.957  1.00  0.00    -0.002 SA
ENDBRANCH  15  17
ENDBRANCH   1  13
TORSDOF 5
ENDMDL
MODEL 2
REMARK VINA RESULT: -6.835584581      1.300      1.686
REMARK  5 active torsions:
REMARK  status: ('A' for Active; 'I' for Inactive)
REMARK    1  A    between atoms: C2_2  and  C3_3 
REMARK    2  A    between atoms: C3_3  and  O2_5 
REMARK    3  A    between atoms: O2_5  and  C4_6 
REMARK    4  A    between atoms: C4_6  and  C5_7 
REMARK       I    between atoms: C5_7  and  N1_9 
REMARK    5  A    between atoms: N1_9  and  C6_11 
ROOT
HETATM    1  C4  UNL     1      24.939   1.080 -12.659  1.00  0.00     0.281 C 
ENDROOT
BRANCH   1   2
HETATM    2  O2  UNL     1      24.040   0.053 -12.341  1.00  0.00    -0.311 OA
BRANCH   2   3
HETATM    3  C3  UNL     1      23.436  -0.182 -11.141  1.00  0.00     0.267 C 
HETATM    4  O1  UNL     1      24.052   0.127 -10.091  1.00  0.00    -0.264 OA
BRANCH   3   5
HETATM    5  C2  UNL     1      22.082  -0.785 -10.987  1.00  0.00     0.047 C 
HETATM    6  C1  UNL     1      22.186  -2.229 -11.423  1.00  0.00     0.026 C 
HETATM    7  C8  UNL     1      21.565  -0.631  -9.585  1.00  0.00     0.022 C 
HETATM    8  C9  UNL     1      20.503   0.467  -9.658  1.00  0.00     0.043 C 
HETATM    9  C10 UNL     1      19.876   0.163 -11.012  1.00  0.00     0.114 C 
HETATM   10 CL1  UNL     1      18.898  -1.305 -10.921  1.00  0.00    -0.102 Cl
HETATM   11 CL2  UNL     1      18.861   1.509 -11.577  1.00  0.00    -0.102 Cl
HETATM   12  C11 UNL     1      21.094  -0.037 -11.872  1.00  0.00     0.061 C 
ENDBRANCH   3   5
ENDBRANCH   2   3
ENDBRANCH   1   2
BRANCH   1  13
HETATM   13  C5  UNL     1      26.263   0.639 -13.102  1.00  0.00     0.247 C 
HETATM   14  O3  UNL     1      26.452   0.580 -14.370  1.00  0.00    -0.271 OA
HETATM   15  N1  UNL     1      27.337   0.277 -12.290  1.00  0.00    -0.305 N 
ATOM     16  H1  UNL     1      28.238   0.139 -12.750  1.00  0.00     0.171 HD
BRANCH  15  17
HETATM   17  C6  UNL     1      27.301   0.101 -11.017  1.00  0.00     0.161 A 
HETATM   18  N2  UNL     1      27.192   1.118 -10.165  1.00  0.00    -0.303 N 
HETATM   19  S1  UNL     1      27.162   0.705  -8.564  1.00  0.00     0.038 SA
ATOM     20  H2  UNL     1      27.132   2.087 -10.479  1.00  0.00     0.176 HD
HETATM   21  C7  UNL     1      27.284  -0.986  -8.461  1.00  0.00     0.274 A 
HETATM   22  O4  UNL     1      27.299  -1.704  -7.448  1.00  0.00    -0.271 OA
HETATM   23  S2  UNL     1      27.373  -1.324 -10.120  1.00  0.00    -0.002 SA
ENDBRANCH  15  17
ENDBRANCH   1  13
TORSDOF 5
ENDMDL
MODEL 3
REMARK VINA RESULT: -6.804489387      1.557      1.976
REMARK  5 active torsions:
REMARK  status: ('A' for Active; 'I' for Inactive)
REMARK    1  A    between atoms: C2_2  and  C3_3 
REMARK    2  A    between atoms: C3_3  and  O2_5 
REMARK    3  A    between atoms: O2_5  and  C4_6 
REMARK    4  A    between atoms: C4_6  and  C5_7 
REMARK       I    between atoms: C5_7  and  N1_9 
REMARK    5  A    between atoms: N1_9  and  C6_11 
ROOT
HETATM    1  C4  UNL     1      24.901   1.250 -12.527  1.00  0.00     0.281 C 
ENDROOT
BRANCH   1   2
HETATM    2  O2  UNL     1      24.023   0.186 -12.274  1.00  0.00    -0.311 OA
BRANCH   2   3
HETATM    3  C3  UNL     1      23.466  -0.166 -11.081  1.00  0.00     0.267 C 
HETATM    4  O1  UNL     1      24.128   0.025 -10.031  1.00  0.00    -0.264 OA
BRANCH   3   5
HETATM    5  C2  UNL     1      22.110  -0.767 -10.933  1.00  0.00     0.047 C 
HETATM    6  C1  UNL     1      22.218  -2.216 -11.351  1.00  0.00     0.026 C 
HETATM    7  C8  UNL     1      21.580  -0.597  -9.537  1.00  0.00     0.022 C 
HETATM    8  C9  UNL     1      20.519   0.501  -9.634  1.00  0.00     0.043 C 
HETATM    9  C10 UNL     1      19.904   0.181 -10.990  1.00  0.00     0.114 C 
HETATM   10 CL1  UNL     1      18.925  -1.286 -10.892  1.00  0.00    -0.102 Cl
HETATM   11 CL2  UNL     1      18.895   1.520 -11.580  1.00  0.00    -0.102 Cl
HETATM   12  C11 UNL     1      21.131  -0.029 -11.835  1.00  0.00     0.061 C 
ENDBRANCH   3   5
ENDBRANCH   2   3
ENDBRANCH   1   2
BRANCH   1  13
HETATM   13  C5  UNL     1      26.210   0.868 -13.058  1.00  0.00     0.247 C 
HETATM   14  O3  UNL     1      26.352   0.930 -14.333  1.00  0.00    -0.271 OA
HETATM   15  N1  UNL     1      27.318   0.445 -12.325  1.00  0.00    -0.305 N 
ATOM     16  H1  UNL     1      28.201   0.361 -12.829  1.00  0.00     0.171 HD
BRANCH  15  17
HETATM   17  C6  UNL     1      27.333   0.150 -11.073  1.00  0.00     0.161 A 
HETATM   18  N2  UNL     1      27.159  -1.097 -10.639  1.00  0.00    -0.303 N 
HETATM   19  S1  UNL     1      27.207  -1.290  -8.997  1.00  0.00     0.038 SA
ATOM     20  H2  UNL     1      27.006  -1.879 -11.275  1.00  0.00     0.176 HD
HETATM   21  C7  UNL     1      27.479   0.236  -8.301  1.00  0.00     0.274 A 
HETATM   22  O4  UNL     1      27.583   0.535  -7.100  1.00  0.00    -0.271 OA
HETATM   23  S2  UNL     1      27.552   1.144  -9.730  1.00  0.00    -0.002 SA
ENDBRANCH  15  17
ENDBRANCH   1  13
TORSDOF 5
ENDMDL
MODEL 4
REMARK VINA RESULT: -6.605172473      1.845      2.240
REMARK  5 active torsions:
REMARK  status: ('A' for Active; 'I' for Inactive)
REMARK    1  A    between atoms: C2_2  and  C3_3 
REMARK    2  A    between atoms: C3_3  and  O2_5 
REMARK    3  A    between atoms: O2_5  and  C4_6 
REMARK    4  A    between atoms: C4_6  and  C5_7 
REMARK       I    between atoms: C5_7  and  N1_9 
REMARK    5  A    between atoms: N1_9  and  C6_11 
ROOT
HETATM    1  C4  UNL     1      24.451  -0.041 -12.162  1.00  0.00     0.281 C 
ENDROOT
BRANCH   1   2
HETATM    2  O2  UNL     1      23.551   0.438 -11.199  1.00  0.00    -0.311 OA
BRANCH   2   3
HETATM    3  C3  UNL     1      22.791  -0.292 -10.335  1.00  0.00     0.267 C 
HETATM    4  O1  UNL     1      23.230  -0.493  -9.175  1.00  0.00    -0.264 OA
BRANCH   3   5
HETATM    5  C2  UNL     1      21.461  -0.875 -10.672  1.00  0.00     0.047 C 
HETATM    6  C1  UNL     1      21.717  -2.194 -11.365  1.00  0.00     0.026 C 
HETATM    7  C8  UNL     1      20.593  -1.011  -9.454  1.00  0.00     0.022 C 
HETATM    8  C9  UNL     1      19.556   0.108  -9.564  1.00  0.00     0.043 C 
HETATM    9  C10 UNL     1      19.312   0.119 -11.067  1.00  0.00     0.114 C 
HETATM   10 CL1  UNL     1      18.386  -1.304 -11.551  1.00  0.00    -0.102 Cl
HETATM   11 CL2  UNL     1      18.441   1.584 -11.575  1.00  0.00    -0.102 Cl
HETATM   12  C11 UNL     1      20.718   0.074 -11.601  1.00  0.00     0.061 C 
ENDBRANCH   3   5
ENDBRANCH   2   3
ENDBRANCH   1   2
BRANCH   1  13
HETATM   13  C5  UNL     1      25.339   0.965 -12.745  1.00  0.00     0.247 C 
HETATM   14  O3  UNL     1      25.238   1.155 -14.010  1.00  0.00    -0.271 OA
HETATM   15  N1  UNL     1      26.283   1.738 -12.069  1.00  0.00    -0.305 N 
ATOM     16  H1  UNL     1      26.716   2.500 -12.591  1.00  0.00     0.171 HD
BRANCH  15  17
HETATM   17  C6  UNL     1      26.660   1.581 -10.849  1.00  0.00     0.161 A 
HETATM   18  N2  UNL     1      26.600   2.569  -9.958  1.00  0.00    -0.303 N 
HETATM   19  S1  UNL     1      27.127   2.187  -8.438  1.00  0.00     0.038 SA
ATOM     20  H2  UNL     1      26.253   3.497 -10.197  1.00  0.00     0.176 HD
HETATM   21  C7  UNL     1      27.618   0.561  -8.451  1.00  0.00     0.274 A 
HETATM   22  O4  UNL     1      28.077  -0.120  -7.518  1.00  0.00    -0.271 OA
HETATM   23  S2  UNL     1      27.282   0.219 -10.076  1.00  0.00    -0.002 SA
ENDBRANCH  15  17
ENDBRANCH   1  13
TORSDOF 5
ENDMDL
MODEL 5
REMARK VINA RESULT: -6.588748091      1.625      2.058
REMARK  5 active torsions:
REMARK  status: ('A' for Active; 'I' for Inactive)
REMARK    1  A    between atoms: C2_2  and  C3_3 
REMARK    2  A    between atoms: C3_3  and  O2_5 
REMARK    3  A    between atoms: O2_5  and  C4_6 
REMARK    4  A    between atoms: C4_6  and  C5_7 
REMARK       I    between atoms: C5_7  and  N1_9 
REMARK    5  A    between atoms: N1_9  and  C6_11 
ROOT
HETATM    1  C4  UNL     1      24.418  -0.063 -12.250  1.00  0.00     0.281 C 
ENDROOT
BRANCH   1   2
HETATM    2  O2  UNL     1      23.552   0.427 -11.262  1.00  0.00    -0.311 OA
BRANCH   2   3
HETATM    3  C3  UNL     1      22.800  -0.295 -10.383  1.00  0.00     0.267 C 
HETATM    4  O1  UNL     1      23.251  -0.488  -9.227  1.00  0.00    -0.264 OA
BRANCH   3   5
HETATM    5  C2  UNL     1      21.465  -0.877 -10.701  1.00  0.00     0.047 C 
HETATM    6  C1  UNL     1      21.710  -2.199 -11.391  1.00  0.00     0.026 C 
HETATM    7  C8  UNL     1      20.611  -1.005  -9.472  1.00  0.00     0.022 C 
HETATM    8  C9  UNL     1      19.575   0.116  -9.576  1.00  0.00     0.043 C 
HETATM    9  C10 UNL     1      19.313   0.120 -11.076  1.00  0.00     0.114 C 
HETATM   10 CL1  UNL     1      18.379  -1.304 -11.542  1.00  0.00    -0.102 Cl
HETATM   11 CL2  UNL     1      18.439   1.584 -11.580  1.00  0.00    -0.102 Cl
HETATM   12  C11 UNL     1      20.712   0.069 -11.627  1.00  0.00     0.061 C 
ENDBRANCH   3   5
ENDBRANCH   2   3
ENDBRANCH   1   2
BRANCH   1  13
HETATM   13  C5  UNL     1      25.673   0.674 -12.404  1.00  0.00     0.247 C 
HETATM   14  O3  UNL     1      25.847   1.281 -13.522  1.00  0.00    -0.271 OA
HETATM   15  N1  UNL     1      26.697   0.785 -11.465  1.00  0.00    -0.305 N 
ATOM     16  H1  UNL     1      27.438   1.457 -11.666  1.00  0.00     0.171 HD
BRANCH  15  17
HETATM   17  C6  UNL     1      26.797   0.120 -10.368  1.00  0.00     0.161 A 
HETATM   18  N2  UNL     1      26.192   0.509  -9.248  1.00  0.00    -0.303 N 
HETATM   19  S1  UNL     1      26.432  -0.467  -7.935  1.00  0.00     0.038 SA
ATOM     20  H2  UNL     1      25.620   1.352  -9.203  1.00  0.00     0.176 HD
HETATM   21  C7  UNL     1      27.433  -1.752  -8.418  1.00  0.00     0.274 A 
HETATM   22  O4  UNL     1      27.855  -2.706  -7.742  1.00  0.00    -0.271 OA
HETATM   23  S2  UNL     1      27.638  -1.303 -10.039  1.00  0.00    -0.002 SA
ENDBRANCH  15  17
ENDBRANCH   1  13
TORSDOF 5
ENDMDL
