MODEL 1
REMARK VINA RESULT: -4.537872061      0.000      0.000
REMARK  3 active torsions:
REMARK  status: ('A' for Active; 'I' for Inactive)
REMARK    1  A    between atoms: O1_1  and  C1_3 
REMARK    2  A    between atoms: C1_3  and  N1_4 
REMARK    3  A    between atoms: N3_9  and  O2_10 
ROOT
HETATM    1  N1  UNL     1      83.436 -21.920  20.570  1.00  0.00    -0.237 N 
HETATM    2  C2  UNL     1      82.859 -20.766  20.962  1.00  0.00     0.135 A 
HETATM    3  C3  UNL     1      82.621 -20.074  19.796  1.00  0.00     0.130 A 
HETATM    4  N2  UNL     1      83.057 -20.822  18.741  1.00  0.00    -0.269 N 
ATOM      5  H2  UNL     1      83.014 -20.568  17.754  1.00  0.00     0.190 HD
HETATM    6  N3  UNL     1      83.548 -21.940  19.246  1.00  0.00    -0.091 N 
ENDROOT
BRANCH   1   7
HETATM    7  C1  UNL     1      83.888 -23.016  21.426  1.00  0.00     0.316 C 
BRANCH   7   8
HETATM    8  O1  UNL     1      85.207 -23.285  21.085  1.00  0.00    -0.380 OA
ATOM      9  H1  UNL     1      85.273 -24.222  20.942  1.00  0.00     0.211 HD
ENDBRANCH   7   8
ENDBRANCH   1   7
BRANCH   6  10
HETATM   10  O2  UNL     1      84.089 -22.960  18.501  1.00  0.00    -0.253 OA
ATOM     11  H2  UNL     1      83.666 -23.787  18.302  1.00  0.00     0.248 HD
ENDBRANCH   6  10
TORSDOF 3
ENDMDL
MODEL 2
REMARK VINA RESULT: -4.071032477      1.853      2.769
REMARK  3 active torsions:
REMARK  status: ('A' for Active; 'I' for Inactive)
REMARK    1  A    between atoms: O1_1  and  C1_3 
REMARK    2  A    between atoms: C1_3  and  N1_4 
REMARK    3  A    between atoms: N3_9  and  O2_10 
ROOT
HETATM    1  N1  UNL     1      82.373 -21.743  19.864  1.00  0.00    -0.237 N 
HETATM    2  C2  UNL     1      81.061 -21.562  19.610  1.00  0.00     0.135 A 
HETATM    3  C3  UNL     1      80.427 -21.847  20.798  1.00  0.00     0.130 A 
HETATM    4  N2  UNL     1      81.365 -22.191  21.728  1.00  0.00    -0.269 N 
ATOM      5  H2  UNL     1      81.193 -22.453  22.699  1.00  0.00     0.190 HD
HETATM    6  N3  UNL     1      82.540 -22.117  21.128  1.00  0.00    -0.091 N 
ENDROOT
BRANCH   1   7
HETATM    7  C1  UNL     1      83.484 -21.568  18.930  1.00  0.00     0.316 C 
BRANCH   7   8
HETATM    8  O1  UNL     1      84.019 -22.826  18.688  1.00  0.00    -0.380 OA
ATOM      9  H1  UNL     1      83.331 -23.353  18.300  1.00  0.00     0.211 HD
ENDBRANCH   7   8
ENDBRANCH   1   7
BRANCH   6  10
HETATM   10  O2  UNL     1      83.743 -22.390  21.733  1.00  0.00    -0.253 OA
ATOM     11  H2  UNL     1      84.072 -21.979  22.524  1.00  0.00     0.248 HD
ENDBRANCH   6  10
TORSDOF 3
ENDMDL
MODEL 3
REMARK VINA RESULT: -4.040897324      1.898      2.765
REMARK  3 active torsions:
REMARK  status: ('A' for Active; 'I' for Inactive)
REMARK    1  A    between atoms: O1_1  and  C1_3 
REMARK    2  A    between atoms: C1_3  and  N1_4 
REMARK    3  A    between atoms: N3_9  and  O2_10 
ROOT
HETATM    1  N1  UNL     1      82.499 -20.632  20.006  1.00  0.00    -0.237 N 
HETATM    2  C2  UNL     1      81.404 -19.846  19.963  1.00  0.00     0.135 A 
HETATM    3  C3  UNL     1      80.852 -19.937  21.221  1.00  0.00     0.130 A 
HETATM    4  N2  UNL     1      81.622 -20.768  21.982  1.00  0.00    -0.269 N 
ATOM      5  H2  UNL     1      81.461 -21.026  22.956  1.00  0.00     0.190 HD
HETATM    6  N3  UNL     1      82.617 -21.174  21.213  1.00  0.00    -0.091 N 
ENDROOT
BRANCH   1   7
HETATM    7  C1  UNL     1      83.447 -20.884  18.921  1.00  0.00     0.316 C 
BRANCH   7   8
HETATM    8  O1  UNL     1      83.502 -22.259  18.736  1.00  0.00    -0.380 OA
ATOM      9  H1  UNL     1      84.257 -22.438  18.189  1.00  0.00     0.211 HD
ENDBRANCH   7   8
ENDBRANCH   1   7
BRANCH   6  10
HETATM   10  O2  UNL     1      83.615 -22.029  21.616  1.00  0.00    -0.253 OA
ATOM     11  H2  UNL     1      83.542 -22.974  21.685  1.00  0.00     0.248 HD
ENDBRANCH   6  10
TORSDOF 3
ENDMDL
MODEL 4
REMARK VINA RESULT: -4.029343340      3.332      3.739
REMARK  3 active torsions:
REMARK  status: ('A' for Active; 'I' for Inactive)
REMARK    1  A    between atoms: O1_1  and  C1_3 
REMARK    2  A    between atoms: C1_3  and  N1_4 
REMARK    3  A    between atoms: N3_9  and  O2_10 
ROOT
HETATM    1  N1  UNL     1      82.272 -18.526  20.961  1.00  0.00    -0.237 N 
HETATM    2  C2  UNL     1      81.877 -17.272  21.262  1.00  0.00     0.135 A 
HETATM    3  C3  UNL     1      82.802 -16.453  20.656  1.00  0.00     0.130 A 
HETATM    4  N2  UNL     1      83.723 -17.228  20.012  1.00  0.00    -0.269 N 
ATOM      5  H2  UNL     1      84.527 -16.900  19.476  1.00  0.00     0.190 HD
HETATM    6  N3  UNL     1      83.372 -18.484  20.217  1.00  0.00    -0.091 N 
ENDROOT
BRANCH   1   7
HETATM    7  C1  UNL     1      81.627 -19.775  21.364  1.00  0.00     0.316 C 
BRANCH   7   8
HETATM    8  O1  UNL     1      82.590 -20.547  22.000  1.00  0.00    -0.380 OA
ATOM      9  H1  UNL     1      82.237 -21.425  22.081  1.00  0.00     0.211 HD
ENDBRANCH   7   8
ENDBRANCH   1   7
BRANCH   6  10
HETATM   10  O2  UNL     1      84.052 -19.574  19.727  1.00  0.00    -0.253 OA
ATOM     11  H2  UNL     1      84.676 -20.103  20.211  1.00  0.00     0.248 HD
ENDBRANCH   6  10
TORSDOF 3
ENDMDL
MODEL 5
REMARK VINA RESULT: -3.940077783      1.713      2.034
REMARK  3 active torsions:
REMARK  status: ('A' for Active; 'I' for Inactive)
REMARK    1  A    between atoms: O1_1  and  C1_3 
REMARK    2  A    between atoms: C1_3  and  N1_4 
REMARK    3  A    between atoms: N3_9  and  O2_10 
ROOT
HETATM    1  N1  UNL     1      82.874 -21.116  19.983  1.00  0.00    -0.237 N 
HETATM    2  C2  UNL     1      83.108 -19.900  20.517  1.00  0.00     0.135 A 
HETATM    3  C3  UNL     1      81.979 -19.165  20.237  1.00  0.00     0.130 A 
HETATM    4  N2  UNL     1      81.100 -19.951  19.548  1.00  0.00    -0.269 N 
ATOM      5  H2  UNL     1      80.179 -19.678  19.205  1.00  0.00     0.190 HD
HETATM    6  N3  UNL     1      81.676 -21.132  19.410  1.00  0.00    -0.091 N 
ENDROOT
BRANCH   1   7
HETATM    7  C1  UNL     1      83.765 -22.275  20.004  1.00  0.00     0.316 C 
BRANCH   7   8
HETATM    8  O1  UNL     1      83.864 -22.739  18.700  1.00  0.00    -0.380 OA
ATOM      9  H1  UNL     1      83.327 -22.173  18.159  1.00  0.00     0.211 HD
ENDBRANCH   7   8
ENDBRANCH   1   7
BRANCH   6  10
HETATM   10  O2  UNL     1      81.107 -22.205  18.767  1.00  0.00    -0.253 OA
ATOM     11  H2  UNL     1      80.543 -22.160  18.003  1.00  0.00     0.248 HD
ENDBRANCH   6  10
TORSDOF 3
ENDMDL
