MODEL 1
REMARK VINA RESULT: -4.880417342      0.000      0.000
REMARK  2 active torsions:
REMARK  status: ('A' for Active; 'I' for Inactive)
REMARK    1  A    between atoms: O1_2  and  N1_3 
REMARK    2  A    between atoms: N4_7  and  O2_8 
ROOT
HETATM    1  N1  UNL     1      83.358 -19.881  19.874  1.00  0.00    -0.058 N 
HETATM    2  N2  UNL     1      83.191 -20.651  20.960  1.00  0.00     0.044 NA
HETATM    3  N3  UNL     1      83.463 -21.910  20.607  1.00  0.00    -0.179 N 
ATOM      4  H3  UNL     1      83.420 -22.718  21.228  1.00  0.00     0.210 HD
HETATM    5  N4  UNL     1      83.795 -21.947  19.331  1.00  0.00    -0.064 N 
HETATM    6  N5  UNL     1      83.718 -20.691  18.920  1.00  0.00    -0.159 N 
ATOM      7  H5  UNL     1      83.918 -20.392  17.966  1.00  0.00     0.216 HD
ENDROOT
BRANCH   1   8
HETATM    8  O1  UNL     1      83.162 -18.515  19.867  1.00  0.00    -0.249 OA
HETATM    9  C1  UNL     1      83.186 -17.874  21.145  1.00  0.00     0.241 C 
ENDBRANCH   1   8
BRANCH   5  10
HETATM   10  O2  UNL     1      84.137 -23.080  18.633  1.00  0.00    -0.251 OA
ATOM     11  H2  UNL     1      83.596 -23.504  17.977  1.00  0.00     0.248 HD
ENDBRANCH   5  10
TORSDOF 2
ENDMDL
MODEL 2
REMARK VINA RESULT: -4.820503282      1.614      2.017
REMARK  2 active torsions:
REMARK  status: ('A' for Active; 'I' for Inactive)
REMARK    1  A    between atoms: O1_2  and  N1_3 
REMARK    2  A    between atoms: N4_7  and  O2_8 
ROOT
HETATM    1  N1  UNL     1      82.882 -20.874  20.917  1.00  0.00    -0.058 N 
HETATM    2  N2  UNL     1      83.446 -20.037  20.033  1.00  0.00     0.044 NA
HETATM    3  N3  UNL     1      83.977 -20.780  19.057  1.00  0.00    -0.179 N 
ATOM      4  H3  UNL     1      84.474 -20.416  18.244  1.00  0.00     0.210 HD
HETATM    5  N4  UNL     1      83.759 -22.056  19.309  1.00  0.00    -0.064 N 
HETATM    6  N5  UNL     1      83.090 -22.071  20.450  1.00  0.00    -0.159 N 
ATOM      7  H5  UNL     1      82.773 -22.924  20.912  1.00  0.00     0.216 HD
ENDROOT
BRANCH   1   8
HETATM    8  O1  UNL     1      82.235 -20.454  22.062  1.00  0.00    -0.249 OA
HETATM    9  C1  UNL     1      80.861 -20.091  21.906  1.00  0.00     0.241 C 
ENDBRANCH   1   8
BRANCH   5  10
HETATM   10  O2  UNL     1      84.166 -23.101  18.515  1.00  0.00    -0.251 OA
ATOM     11  H2  UNL     1      83.749 -23.366  17.703  1.00  0.00     0.248 HD
ENDBRANCH   5  10
TORSDOF 2
ENDMDL
MODEL 3
REMARK VINA RESULT: -4.479436318      0.954      1.135
REMARK  2 active torsions:
REMARK  status: ('A' for Active; 'I' for Inactive)
REMARK    1  A    between atoms: O1_2  and  N1_3 
REMARK    2  A    between atoms: N4_7  and  O2_8 
ROOT
HETATM    1  N1  UNL     1      83.125 -19.552  19.494  1.00  0.00    -0.058 N 
HETATM    2  N2  UNL     1      81.905 -20.097  19.369  1.00  0.00     0.044 NA
HETATM    3  N3  UNL     1      82.070 -21.383  19.047  1.00  0.00    -0.179 N 
ATOM      4  H3  UNL     1      81.316 -22.051  18.887  1.00  0.00     0.210 HD
HETATM    5  N4  UNL     1      83.358 -21.654  18.968  1.00  0.00    -0.064 N 
HETATM    6  N5  UNL     1      83.967 -20.513  19.246  1.00  0.00    -0.159 N 
ATOM      7  H5  UNL     1      84.980 -20.399  19.265  1.00  0.00     0.216 HD
ENDROOT
BRANCH   1   8
HETATM    8  O1  UNL     1      83.341 -18.229  19.821  1.00  0.00    -0.249 OA
HETATM    9  C1  UNL     1      83.004 -17.853  21.159  1.00  0.00     0.241 C 
ENDBRANCH   1   8
BRANCH   5  10
HETATM   10  O2  UNL     1      83.892 -22.882  18.658  1.00  0.00    -0.251 OA
ATOM     11  H2  UNL     1      84.591 -23.033  18.032  1.00  0.00     0.248 HD
ENDBRANCH   5  10
TORSDOF 2
ENDMDL
MODEL 4
REMARK VINA RESULT: -4.443803912      2.799      3.070
REMARK  2 active torsions:
REMARK  status: ('A' for Active; 'I' for Inactive)
REMARK    1  A    between atoms: O1_2  and  N1_3 
REMARK    2  A    between atoms: N4_7  and  O2_8 
ROOT
HETATM    1  N1  UNL     1      82.287 -21.845  20.150  1.00  0.00    -0.058 N 
HETATM    2  N2  UNL     1      83.135 -22.064  19.134  1.00  0.00     0.044 NA
HETATM    3  N3  UNL     1      84.257 -22.574  19.650  1.00  0.00    -0.179 N 
ATOM      4  H3  UNL     1      85.083 -22.841  19.114  1.00  0.00     0.210 HD
HETATM    5  N4  UNL     1      84.131 -22.680  20.958  1.00  0.00    -0.064 N 
HETATM    6  N5  UNL     1      82.917 -22.225  21.224  1.00  0.00    -0.159 N 
ATOM      7  H5  UNL     1      82.520 -22.177  22.162  1.00  0.00     0.216 HD
ENDROOT
BRANCH   1   8
HETATM    8  O1  UNL     1      81.022 -21.318  19.988  1.00  0.00    -0.249 OA
HETATM    9  C1  UNL     1      80.355 -21.655  18.769  1.00  0.00     0.241 C 
ENDBRANCH   1   8
BRANCH   5  10
HETATM   10  O2  UNL     1      85.092 -23.167  21.810  1.00  0.00    -0.251 OA
ATOM     11  H2  UNL     1      85.258 -24.088  21.981  1.00  0.00     0.248 HD
ENDBRANCH   5  10
TORSDOF 2
ENDMDL
MODEL 5
REMARK VINA RESULT: -4.440413179      1.730      1.977
REMARK  2 active torsions:
REMARK  status: ('A' for Active; 'I' for Inactive)
REMARK    1  A    between atoms: O1_2  and  N1_3 
REMARK    2  A    between atoms: N4_7  and  O2_8 
ROOT
HETATM    1  N1  UNL     1      81.784 -20.195  19.280  1.00  0.00    -0.058 N 
HETATM    2  N2  UNL     1      82.986 -19.598  19.304  1.00  0.00     0.044 NA
HETATM    3  N3  UNL     1      83.909 -20.543  19.104  1.00  0.00    -0.179 N 
ATOM      4  H3  UNL     1      84.916 -20.384  19.072  1.00  0.00     0.210 HD
HETATM    5  N4  UNL     1      83.316 -21.711  18.956  1.00  0.00    -0.064 N 
HETATM    6  N5  UNL     1      82.023 -21.457  19.070  1.00  0.00    -0.159 N 
ATOM      7  H5  UNL     1      81.296 -22.169  19.002  1.00  0.00     0.216 HD
ENDROOT
BRANCH   1   8
HETATM    8  O1  UNL     1      80.593 -19.521  19.454  1.00  0.00    -0.249 OA
HETATM    9  C1  UNL     1      80.478 -18.755  20.657  1.00  0.00     0.241 C 
ENDBRANCH   1   8
BRANCH   5  10
HETATM   10  O2  UNL     1      83.961 -22.904  18.733  1.00  0.00    -0.251 OA
ATOM     11  H2  UNL     1      84.590 -23.305  19.321  1.00  0.00     0.248 HD
ENDBRANCH   5  10
TORSDOF 2
ENDMDL
