MODEL 1
REMARK VINA RESULT: -4.336649192      0.000      0.000
REMARK  1 active torsions:
REMARK  status: ('A' for Active; 'I' for Inactive)
REMARK    1  A    between atoms: N5_9  and  C2_10 
ROOT
HETATM    1  C1  UNL     1      80.314 -17.936  21.437  1.00  0.00     0.204 C 
HETATM    2  N1  UNL     1      81.614 -17.702  20.843  1.00  0.00    -0.198 N 
HETATM    3  N2  UNL     1      82.106 -16.548  20.439  1.00  0.00    -0.209 N 
ATOM      4  H2  UNL     1      81.631 -15.646  20.491  1.00  0.00     0.211 HD
HETATM    5  N3  UNL     1      83.312 -16.755  19.959  1.00  0.00    -0.210 N 
ATOM      6  H3  UNL     1      83.934 -16.045  19.574  1.00  0.00     0.211 HD
HETATM    7  N4  UNL     1      83.571 -18.024  20.062  1.00  0.00    -0.202 N 
ATOM      8  H4  UNL     1      84.433 -18.486  19.771  1.00  0.00     0.212 HD
HETATM    9  N5  UNL     1      82.523 -18.610  20.607  1.00  0.00    -0.136 N 
ENDROOT
BRANCH   9  10
HETATM   10  C2  UNL     1      82.429 -20.000  20.881  1.00  0.00     0.397 C 
HETATM   11  O1  UNL     1      82.677 -20.480  22.016  1.00  0.00    -0.280 OA
ENDBRANCH   9  10
TORSDOF 1
ENDMDL
MODEL 2
REMARK VINA RESULT: -4.182699639      2.741      3.374
REMARK  1 active torsions:
REMARK  status: ('A' for Active; 'I' for Inactive)
REMARK    1  A    between atoms: N5_9  and  C2_10 
ROOT
HETATM    1  C1  UNL     1      82.152 -20.016  21.603  1.00  0.00     0.204 C 
HETATM    2  N1  UNL     1      82.793 -20.487  20.392  1.00  0.00    -0.198 N 
HETATM    3  N2  UNL     1      82.868 -19.857  19.237  1.00  0.00    -0.209 N 
ATOM      4  H2  UNL     1      82.480 -18.935  19.033  1.00  0.00     0.211 HD
HETATM    5  N3  UNL     1      83.528 -20.617  18.391  1.00  0.00    -0.210 N 
ATOM      6  H3  UNL     1      83.741 -20.388  17.420  1.00  0.00     0.211 HD
HETATM    7  N4  UNL     1      83.862 -21.709  19.011  1.00  0.00    -0.202 N 
ATOM      8  H4  UNL     1      84.383 -22.489  18.612  1.00  0.00     0.212 HD
HETATM    9  N5  UNL     1      83.408 -21.630  20.246  1.00  0.00    -0.136 N 
ENDROOT
BRANCH   9  10
HETATM   10  C2  UNL     1      83.577 -22.638  21.232  1.00  0.00     0.397 C 
HETATM   11  O1  UNL     1      84.708 -22.966  21.671  1.00  0.00    -0.280 OA
ENDBRANCH   9  10
TORSDOF 1
ENDMDL
MODEL 3
REMARK VINA RESULT: -4.149282195      1.530      2.078
REMARK  1 active torsions:
REMARK  status: ('A' for Active; 'I' for Inactive)
REMARK    1  A    between atoms: N5_9  and  C2_10 
ROOT
HETATM    1  C1  UNL     1      82.268 -16.407  21.596  1.00  0.00     0.204 C 
HETATM    2  N1  UNL     1      81.433 -17.312  20.833  1.00  0.00    -0.198 N 
HETATM    3  N2  UNL     1      80.330 -17.011  20.177  1.00  0.00    -0.209 N 
ATOM      4  H2  UNL     1      79.906 -16.085  20.115  1.00  0.00     0.211 HD
HETATM    5  N3  UNL     1      79.869 -18.107  19.616  1.00  0.00    -0.210 N 
ATOM      6  H3  UNL     1      79.027 -18.180  19.044  1.00  0.00     0.211 HD
HETATM    7  N4  UNL     1      80.674 -19.081  19.917  1.00  0.00    -0.202 N 
ATOM      8  H4  UNL     1      80.576 -20.053  19.624  1.00  0.00     0.212 HD
HETATM    9  N5  UNL     1      81.640 -18.591  20.669  1.00  0.00    -0.136 N 
ENDROOT
BRANCH   9  10
HETATM   10  C2  UNL     1      82.715 -19.354  21.197  1.00  0.00     0.397 C 
HETATM   11  O1  UNL     1      82.531 -20.338  21.958  1.00  0.00    -0.280 OA
ENDBRANCH   9  10
TORSDOF 1
ENDMDL
MODEL 4
REMARK VINA RESULT: -4.086134952      2.734      3.363
REMARK  1 active torsions:
REMARK  status: ('A' for Active; 'I' for Inactive)
REMARK    1  A    between atoms: N5_9  and  C2_10 
ROOT
HETATM    1  C1  UNL     1      81.058 -15.235  23.118  1.00  0.00     0.204 C 
HETATM    2  N1  UNL     1      80.512 -16.012  22.024  1.00  0.00    -0.198 N 
HETATM    3  N2  UNL     1      79.240 -16.263  21.787  1.00  0.00    -0.209 N 
ATOM      4  H2  UNL     1      78.453 -15.941  22.350  1.00  0.00     0.211 HD
HETATM    5  N3  UNL     1      79.158 -17.001  20.702  1.00  0.00    -0.210 N 
ATOM      6  H3  UNL     1      78.298 -17.350  20.278  1.00  0.00     0.211 HD
HETATM    7  N4  UNL     1      80.364 -17.208  20.266  1.00  0.00    -0.202 N 
ATOM      8  H4  UNL     1      80.619 -17.747  19.438  1.00  0.00     0.212 HD
HETATM    9  N5  UNL     1      81.201 -16.597  21.081  1.00  0.00    -0.136 N 
ENDROOT
BRANCH   9  10
HETATM   10  C2  UNL     1      82.613 -16.595  20.932  1.00  0.00     0.397 C 
HETATM   11  O1  UNL     1      83.176 -16.905  19.851  1.00  0.00    -0.280 OA
ENDBRANCH   9  10
TORSDOF 1
ENDMDL
MODEL 5
REMARK VINA RESULT: -4.085741068      2.558      3.147
REMARK  1 active torsions:
REMARK  status: ('A' for Active; 'I' for Inactive)
REMARK    1  A    between atoms: N5_9  and  C2_10 
ROOT
HETATM    1  C1  UNL     1      82.588 -19.313  21.291  1.00  0.00     0.204 C 
HETATM    2  N1  UNL     1      81.761 -19.575  20.130  1.00  0.00    -0.198 N 
HETATM    3  N2  UNL     1      80.579 -19.058  19.866  1.00  0.00    -0.209 N 
ATOM      4  H2  UNL     1      80.074 -18.391  20.451  1.00  0.00     0.211 HD
HETATM    5  N3  UNL     1      80.158 -19.547  18.720  1.00  0.00    -0.210 N 
ATOM      6  H3  UNL     1      79.274 -19.326  18.262  1.00  0.00     0.211 HD
HETATM    7  N4  UNL     1      81.068 -20.359  18.274  1.00  0.00    -0.202 N 
ATOM      8  H4  UNL     1      81.024 -20.890  17.403  1.00  0.00     0.212 HD
HETATM    9  N5  UNL     1      82.058 -20.378  19.144  1.00  0.00    -0.136 N 
ENDROOT
BRANCH   9  10
HETATM   10  C2  UNL     1      83.240 -21.153  19.003  1.00  0.00     0.397 C 
HETATM   11  O1  UNL     1      83.211 -22.401  18.854  1.00  0.00    -0.280 OA
ENDBRANCH   9  10
TORSDOF 1
ENDMDL
