MODEL 1
REMARK VINA RESULT: -5.128484581      0.000      0.000
REMARK  3 active torsions:
REMARK  status: ('A' for Active; 'I' for Inactive)
REMARK    1  A    between atoms: C2_2  and  O1_3 
REMARK    2  A    between atoms: O1_3  and  N1_4 
REMARK    3  A    between atoms: N4_9  and  O2_10 
ROOT
HETATM    1  N1  UNL     1      83.262 -19.882  19.881  1.00  0.00    -0.058 N 
HETATM    2  N2  UNL     1      82.936 -20.616  20.900  1.00  0.00    -0.181 N 
ATOM      3  H2  UNL     1      82.542 -20.281  21.779  1.00  0.00     0.214 HD
HETATM    4  N3  UNL     1      83.203 -21.866  20.596  1.00  0.00    -0.181 N 
ATOM      5  H3  UNL     1      83.052 -22.672  21.203  1.00  0.00     0.214 HD
HETATM    6  N4  UNL     1      83.699 -21.903  19.376  1.00  0.00    -0.060 N 
HETATM    7  N5  UNL     1      83.736 -20.661  18.930  1.00  0.00    -0.156 N 
ATOM      8  H5  UNL     1      84.070 -20.359  18.015  1.00  0.00     0.217 HD
ENDROOT
BRANCH   1   9
HETATM    9  O1  UNL     1      83.176 -18.512  19.701  1.00  0.00    -0.242 OA
BRANCH   9  10
HETATM   10  C2  UNL     1      83.538 -17.693  20.801  1.00  0.00     0.201 C 
HETATM   11  C1  UNL     1      82.592 -16.532  20.966  1.00  0.00     0.036 C 
ENDBRANCH   9  10
ENDBRANCH   1   9
BRANCH   6  12
HETATM   12  O2  UNL     1      84.118 -23.004  18.652  1.00  0.00    -0.251 OA
ATOM     13  H2  UNL     1      84.673 -23.028  17.881  1.00  0.00     0.248 HD
ENDBRANCH   6  12
TORSDOF 3
ENDMDL
MODEL 2
REMARK VINA RESULT: -4.743420746      2.027      2.338
REMARK  3 active torsions:
REMARK  status: ('A' for Active; 'I' for Inactive)
REMARK    1  A    between atoms: C2_2  and  O1_3 
REMARK    2  A    between atoms: O1_3  and  N1_4 
REMARK    3  A    between atoms: N4_9  and  O2_10 
ROOT
HETATM    1  N1  UNL     1      82.861 -20.724  20.804  1.00  0.00    -0.058 N 
HETATM    2  N2  UNL     1      83.364 -19.933  19.907  1.00  0.00    -0.181 N 
ATOM      3  H2  UNL     1      83.347 -18.914  19.927  1.00  0.00     0.214 HD
HETATM    4  N3  UNL     1      83.898 -20.681  18.967  1.00  0.00    -0.181 N 
ATOM      5  H3  UNL     1      84.369 -20.339  18.129  1.00  0.00     0.214 HD
HETATM    6  N4  UNL     1      83.723 -21.946  19.289  1.00  0.00    -0.060 N 
HETATM    7  N5  UNL     1      83.074 -21.972  20.439  1.00  0.00    -0.156 N 
ATOM      8  H5  UNL     1      82.789 -22.806  20.951  1.00  0.00     0.217 HD
ENDROOT
BRANCH   1   9
HETATM    9  O1  UNL     1      82.195 -20.432  21.981  1.00  0.00    -0.242 OA
BRANCH   9  10
HETATM   10  C2  UNL     1      80.782 -20.330  21.914  1.00  0.00     0.201 C 
HETATM   11  C1  UNL     1      80.338 -18.920  21.625  1.00  0.00     0.036 C 
ENDBRANCH   9  10
ENDBRANCH   1   9
BRANCH   6  12
HETATM   12  O2  UNL     1      84.121 -23.073  18.594  1.00  0.00    -0.251 OA
ATOM     13  H2  UNL     1      83.582 -23.703  18.130  1.00  0.00     0.248 HD
ENDBRANCH   6  12
TORSDOF 3
ENDMDL
MODEL 3
REMARK VINA RESULT: -4.622647292      1.421      1.679
REMARK  3 active torsions:
REMARK  status: ('A' for Active; 'I' for Inactive)
REMARK    1  A    between atoms: C2_2  and  O1_3 
REMARK    2  A    between atoms: O1_3  and  N1_4 
REMARK    3  A    between atoms: N4_9  and  O2_10 
ROOT
HETATM    1  N1  UNL     1      83.138 -19.551  19.461  1.00  0.00    -0.058 N 
HETATM    2  N2  UNL     1      83.998 -20.488  19.211  1.00  0.00    -0.181 N 
ATOM      3  H2  UNL     1      85.013 -20.391  19.224  1.00  0.00     0.214 HD
HETATM    4  N3  UNL     1      83.328 -21.585  18.938  1.00  0.00    -0.181 N 
ATOM      5  H3  UNL     1      83.736 -22.490  18.701  1.00  0.00     0.214 HD
HETATM    6  N4  UNL     1      82.040 -21.320  19.020  1.00  0.00    -0.060 N 
HETATM    7  N5  UNL     1      81.922 -20.046  19.348  1.00  0.00    -0.156 N 
ATOM      8  H5  UNL     1      81.049 -19.538  19.489  1.00  0.00     0.217 HD
ENDROOT
BRANCH   1   9
HETATM    9  O1  UNL     1      83.334 -18.223  19.799  1.00  0.00    -0.242 OA
BRANCH   9  10
HETATM   10  C2  UNL     1      83.101 -17.860  21.150  1.00  0.00     0.201 C 
HETATM   11  C1  UNL     1      82.578 -16.451  21.266  1.00  0.00     0.036 C 
ENDBRANCH   9  10
ENDBRANCH   1   9
BRANCH   6  12
HETATM   12  O2  UNL     1      80.972 -22.173  18.815  1.00  0.00    -0.251 OA
ATOM     13  H2  UNL     1      80.149 -22.215  19.288  1.00  0.00     0.248 HD
ENDBRANCH   6  12
TORSDOF 3
ENDMDL
MODEL 4
REMARK VINA RESULT: -4.585102228      1.065      1.588
REMARK  3 active torsions:
REMARK  status: ('A' for Active; 'I' for Inactive)
REMARK    1  A    between atoms: C2_2  and  O1_3 
REMARK    2  A    between atoms: O1_3  and  N1_4 
REMARK    3  A    between atoms: N4_9  and  O2_10 
ROOT
HETATM    1  N1  UNL     1      83.257 -19.834  19.757  1.00  0.00    -0.058 N 
HETATM    2  N2  UNL     1      83.787 -20.660  18.909  1.00  0.00    -0.181 N 
ATOM      3  H2  UNL     1      84.092 -20.435  17.962  1.00  0.00     0.214 HD
HETATM    4  N3  UNL     1      83.860 -21.837  19.489  1.00  0.00    -0.181 N 
ATOM      5  H3  UNL     1      84.233 -22.688  19.065  1.00  0.00     0.214 HD
HETATM    6  N4  UNL     1      83.370 -21.735  20.707  1.00  0.00    -0.060 N 
HETATM    7  N5  UNL     1      82.993 -20.480  20.874  1.00  0.00    -0.156 N 
ATOM      8  H5  UNL     1      82.574 -20.084  21.715  1.00  0.00     0.217 HD
ENDROOT
BRANCH   1   9
HETATM    9  O1  UNL     1      82.969 -18.486  19.632  1.00  0.00    -0.242 OA
BRANCH   9  10
HETATM   10  C2  UNL     1      83.571 -17.607  20.570  1.00  0.00     0.201 C 
HETATM   11  C1  UNL     1      82.657 -16.465  20.930  1.00  0.00     0.036 C 
ENDBRANCH   9  10
ENDBRANCH   1   9
BRANCH   6  12
HETATM   12  O2  UNL     1      83.249 -22.720  21.670  1.00  0.00    -0.251 OA
ATOM     13  H2  UNL     1      83.660 -23.576  21.694  1.00  0.00     0.248 HD
ENDBRANCH   6  12
TORSDOF 3
ENDMDL
MODEL 5
REMARK VINA RESULT: -4.548293493      2.138      2.373
REMARK  3 active torsions:
REMARK  status: ('A' for Active; 'I' for Inactive)
REMARK    1  A    between atoms: C2_2  and  O1_3 
REMARK    2  A    between atoms: O1_3  and  N1_4 
REMARK    3  A    between atoms: N4_9  and  O2_10 
ROOT
HETATM    1  N1  UNL     1      81.857 -20.139  19.321  1.00  0.00    -0.058 N 
HETATM    2  N2  UNL     1      83.017 -19.560  19.353  1.00  0.00    -0.181 N 
ATOM      3  H2  UNL     1      83.190 -18.569  19.517  1.00  0.00     0.214 HD
HETATM    4  N3  UNL     1      83.931 -20.480  19.136  1.00  0.00    -0.181 N 
ATOM      5  H3  UNL     1      84.939 -20.323  19.102  1.00  0.00     0.214 HD
HETATM    6  N4  UNL     1      83.327 -21.639  18.968  1.00  0.00    -0.060 N 
HETATM    7  N5  UNL     1      82.029 -21.424  19.085  1.00  0.00    -0.156 N 
ATOM      8  H5  UNL     1      81.293 -22.125  19.006  1.00  0.00     0.217 HD
ENDROOT
BRANCH   1   9
HETATM    9  O1  UNL     1      80.589 -19.612  19.491  1.00  0.00    -0.242 OA
BRANCH   9  10
HETATM   10  C2  UNL     1      80.349 -18.882  20.684  1.00  0.00     0.201 C 
HETATM   11  C1  UNL     1      80.290 -19.786  21.888  1.00  0.00     0.036 C 
ENDBRANCH   9  10
ENDBRANCH   1   9
BRANCH   6  12
HETATM   12  O2  UNL     1      83.893 -22.874  18.717  1.00  0.00    -0.251 OA
ATOM     13  H2  UNL     1      84.641 -23.081  18.169  1.00  0.00     0.248 HD
ENDBRANCH   6  12
TORSDOF 3
ENDMDL
