MODEL 1
REMARK VINA RESULT: -4.207575840      0.000      0.000
REMARK  3 active torsions:
REMARK  status: ('A' for Active; 'I' for Inactive)
REMARK    1  A    between atoms: N3_6  and  C3_7 
REMARK    2  A    between atoms: C3_7  and  O1_8 
REMARK    3  A    between atoms: O1_8  and  O2_9 
ROOT
HETATM    1  C1  UNL     1      80.462 -22.141  20.558  1.00  0.00     0.140 C 
HETATM    2  N1  UNL     1      81.328 -21.986  19.436  1.00  0.00    -0.198 NA
HETATM    3  C2  UNL     1      81.185 -20.820  18.631  1.00  0.00     0.255 A 
HETATM    4  N2  UNL     1      82.568 -20.591  18.990  1.00  0.00    -0.307 N 
ATOM      5  H2  UNL     1      83.240 -19.858  18.764  1.00  0.00     0.183 HD
HETATM    6  N3  UNL     1      82.628 -21.631  19.682  1.00  0.00    -0.229 N 
ENDROOT
BRANCH   6   7
HETATM    7  C3  UNL     1      83.662 -22.260  20.465  1.00  0.00     0.372 C 
BRANCH   7   8
HETATM    8  O1  UNL     1      84.483 -23.029  19.663  1.00  0.00    -0.221 OA
BRANCH   8   9
HETATM    9  O2  UNL     1      84.037 -23.016  18.418  1.00  0.00    -0.249 OA
ATOM     10  H2  UNL     1      83.676 -23.865  18.194  1.00  0.00     0.253 HD
ENDBRANCH   8   9
ENDBRANCH   7   8
ENDBRANCH   6   7
TORSDOF 3
ENDMDL
MODEL 2
REMARK VINA RESULT: -4.100096418      1.916      2.476
REMARK  3 active torsions:
REMARK  status: ('A' for Active; 'I' for Inactive)
REMARK    1  A    between atoms: N3_6  and  C3_7 
REMARK    2  A    between atoms: C3_7  and  O1_8 
REMARK    3  A    between atoms: O1_8  and  O2_9 
ROOT
HETATM    1  C1  UNL     1      83.289 -19.088  20.188  1.00  0.00     0.140 C 
HETATM    2  N1  UNL     1      83.035 -20.033  21.226  1.00  0.00    -0.198 NA
HETATM    3  C2  UNL     1      81.727 -20.078  21.788  1.00  0.00     0.255 A 
HETATM    4  N2  UNL     1      81.751 -21.455  21.342  1.00  0.00    -0.307 N 
ATOM      5  H2  UNL     1      81.081 -22.221  21.393  1.00  0.00     0.183 HD
HETATM    6  N3  UNL     1      82.904 -21.348  20.867  1.00  0.00    -0.229 N 
ENDROOT
BRANCH   6   7
HETATM    7  C3  UNL     1      83.799 -22.251  20.188  1.00  0.00     0.372 C 
BRANCH   7   8
HETATM    8  O1  UNL     1      83.374 -22.476  18.892  1.00  0.00    -0.221 OA
BRANCH   8   9
HETATM    9  O2  UNL     1      84.256 -23.228  18.253  1.00  0.00    -0.249 OA
ATOM     10  H2  UNL     1      83.808 -23.910  17.767  1.00  0.00     0.253 HD
ENDBRANCH   8   9
ENDBRANCH   7   8
ENDBRANCH   6   7
TORSDOF 3
ENDMDL
MODEL 3
REMARK VINA RESULT: -4.070186484      2.333      2.844
REMARK  3 active torsions:
REMARK  status: ('A' for Active; 'I' for Inactive)
REMARK    1  A    between atoms: N3_6  and  C3_7 
REMARK    2  A    between atoms: C3_7  and  O1_8 
REMARK    3  A    between atoms: O1_8  and  O2_9 
ROOT
HETATM    1  C1  UNL     1      83.304 -19.408  20.077  1.00  0.00     0.140 C 
HETATM    2  N1  UNL     1      82.936 -20.151  21.237  1.00  0.00    -0.198 NA
HETATM    3  C2  UNL     1      81.569 -20.137  21.639  1.00  0.00     0.255 A 
HETATM    4  N2  UNL     1      81.665 -21.571  21.467  1.00  0.00    -0.307 N 
ATOM      5  H2  UNL     1      81.003 -22.338  21.584  1.00  0.00     0.183 HD
HETATM    6  N3  UNL     1      82.866 -21.514  21.122  1.00  0.00    -0.229 N 
ENDROOT
BRANCH   6   7
HETATM    7  C3  UNL     1      83.849 -22.496  20.737  1.00  0.00     0.372 C 
BRANCH   7   8
HETATM    8  O1  UNL     1      84.208 -23.278  21.818  1.00  0.00    -0.221 OA
BRANCH   8   9
HETATM    9  O2  UNL     1      85.518 -23.227  21.996  1.00  0.00    -0.249 OA
ATOM     10  H2  UNL     1      85.719 -22.720  22.774  1.00  0.00     0.253 HD
ENDBRANCH   8   9
ENDBRANCH   7   8
ENDBRANCH   6   7
TORSDOF 3
ENDMDL
MODEL 4
REMARK VINA RESULT: -3.995560035      2.269      2.769
REMARK  3 active torsions:
REMARK  status: ('A' for Active; 'I' for Inactive)
REMARK    1  A    between atoms: N3_6  and  C3_7 
REMARK    2  A    between atoms: C3_7  and  O1_8 
REMARK    3  A    between atoms: O1_8  and  O2_9 
ROOT
HETATM    1  C1  UNL     1      83.647 -17.984  20.478  1.00  0.00     0.140 C 
HETATM    2  N1  UNL     1      82.747 -19.067  20.702  1.00  0.00    -0.198 NA
HETATM    3  C2  UNL     1      81.349 -18.794  20.685  1.00  0.00     0.255 A 
HETATM    4  N2  UNL     1      81.329 -19.766  19.614  1.00  0.00    -0.307 N 
ATOM      5  H2  UNL     1      80.588 -20.148  19.026  1.00  0.00     0.183 HD
HETATM    6  N3  UNL     1      82.563 -19.961  19.680  1.00  0.00    -0.229 N 
ENDROOT
BRANCH   6   7
HETATM    7  C3  UNL     1      83.488 -20.805  18.966  1.00  0.00     0.372 C 
BRANCH   7   8
HETATM    8  O1  UNL     1      83.019 -22.103  18.906  1.00  0.00    -0.221 OA
BRANCH   8   9
HETATM    9  O2  UNL     1      84.006 -22.924  18.588  1.00  0.00    -0.249 OA
ATOM     10  H2  UNL     1      84.595 -23.024  19.327  1.00  0.00     0.253 HD
ENDBRANCH   8   9
ENDBRANCH   7   8
ENDBRANCH   6   7
TORSDOF 3
ENDMDL
MODEL 5
REMARK VINA RESULT: -3.951170045      1.791      2.115
REMARK  3 active torsions:
REMARK  status: ('A' for Active; 'I' for Inactive)
REMARK    1  A    between atoms: N3_6  and  C3_7 
REMARK    2  A    between atoms: C3_7  and  O1_8 
REMARK    3  A    between atoms: O1_8  and  O2_9 
ROOT
HETATM    1  C1  UNL     1      80.276 -20.078  19.266  1.00  0.00     0.140 C 
HETATM    2  N1  UNL     1      81.437 -19.490  19.851  1.00  0.00    -0.198 NA
HETATM    3  C2  UNL     1      81.460 -19.310  21.263  1.00  0.00     0.255 A 
HETATM    4  N2  UNL     1      82.637 -20.150  21.195  1.00  0.00    -0.307 N 
ATOM      5  H2  UNL     1      83.284 -20.510  21.896  1.00  0.00     0.183 HD
HETATM    6  N3  UNL     1      82.559 -20.268  19.952  1.00  0.00    -0.229 N 
ENDROOT
BRANCH   6   7
HETATM    7  C3  UNL     1      83.341 -20.959  18.957  1.00  0.00     0.372 C 
BRANCH   7   8
HETATM    8  O1  UNL     1      83.063 -22.312  18.970  1.00  0.00    -0.221 OA
BRANCH   8   9
HETATM    9  O2  UNL     1      84.119 -22.993  18.557  1.00  0.00    -0.249 OA
ATOM     10  H2  UNL     1      83.997 -23.918  18.735  1.00  0.00     0.253 HD
ENDBRANCH   8   9
ENDBRANCH   7   8
ENDBRANCH   6   7
TORSDOF 3
ENDMDL
