MODEL 1
REMARK VINA RESULT: -6.831405920      0.000      0.000
REMARK  12 active torsions:
REMARK  status: ('A' for Active; 'I' for Inactive)
REMARK    1  A    between atoms: C2_2  and  C3_3 
REMARK    2  A    between atoms: C3_3  and  C4_4 
REMARK    3  A    between atoms: C4_4  and  N1_5 
REMARK    4  A    between atoms: N1_5  and  C5_8 
REMARK    5  A    between atoms: C5_8  and  C7_10 
REMARK    6  A    between atoms: C7_10  and  C8_11 
REMARK    7  A    between atoms: C7_10  and  N2_18 
REMARK    8  A    between atoms: C9_12  and  C10_13 
REMARK    9  A    between atoms: N2_18  and  C15_20 
REMARK   10  A    between atoms: C15_20  and  O1_21 
REMARK   11  A    between atoms: C15_20  and  C16_23 
REMARK   12  A    between atoms: C18_29  and  O3_30 
ROOT
HETATM    1  C7  UNL     1      -7.072  -0.473   0.496  1.00  0.00     0.189 C 
ENDROOT
BRANCH   1   2
HETATM    2  C5  UNL     1      -7.018  -1.886   0.971  1.00  0.00     0.216 C 
HETATM    3  C6  UNL     1      -7.617  -2.913   0.084  1.00  0.00     0.043 C 
BRANCH   2   4
HETATM    4  N1  UNL     1      -5.622  -2.271   1.222  1.00  0.00    -0.068 N 
ATOM      5  H12 UNL     1      -5.446  -2.452   2.210  1.00  0.00     0.277 HD
ATOM      6  H11 UNL     1      -4.981  -1.488   1.098  1.00  0.00     0.277 HD
BRANCH   4   7
HETATM    7  C4  UNL     1      -5.262  -3.415   0.382  1.00  0.00     0.233 C 
BRANCH   7   8
HETATM    8  C3  UNL     1      -3.810  -3.206  -0.017  1.00  0.00     0.027 C 
BRANCH   8   9
HETATM    9  C2  UNL     1      -2.884  -4.110   0.724  1.00  0.00    -0.003 C 
HETATM   10  C1  UNL     1      -1.558  -3.510   1.080  1.00  0.00     0.005 C 
ENDBRANCH   8   9
ENDBRANCH   7   8
ENDBRANCH   4   7
ENDBRANCH   2   4
ENDBRANCH   1   2
BRANCH   1  11
HETATM   11  C8  UNL     1      -8.489  -0.085   0.272  1.00  0.00    -0.079 C 
HETATM   12  C9  UNL     1      -9.629   0.245   0.079  1.00  0.00    -0.100 C 
BRANCH  12  13
HETATM   13  C10 UNL     1     -11.019   0.674  -0.159  1.00  0.00     0.065 C 
HETATM   14  C11 UNL     1     -11.026   2.176   0.006  1.00  0.00     0.017 C 
HETATM   15  C12 UNL     1     -12.241   2.614  -0.786  1.00  0.00     0.001 C 
HETATM   16  C13 UNL     1     -12.590   1.461  -1.707  1.00  0.00     0.001 C 
HETATM   17  C14 UNL     1     -11.407   0.524  -1.611  1.00  0.00     0.017 C 
ENDBRANCH  12  13
ENDBRANCH   1  11
BRANCH   1  18
HETATM   18  N2  UNL     1      -6.217  -0.091  -0.541  1.00  0.00    -0.376 N 
ATOM     19  H2  UNL     1      -5.291   0.267  -0.305  1.00  0.00     0.157 HD
BRANCH  18  20
HETATM   20  C15 UNL     1      -6.581  -0.180  -1.888  1.00  0.00     0.260 C 
BRANCH  20  21
HETATM   21  O1  UNL     1      -6.756   1.022  -2.554  1.00  0.00    -0.372 OA
ATOM     22  H1  UNL     1      -6.727   0.984  -3.503  1.00  0.00     0.212 HD
ENDBRANCH  20  21
BRANCH  20  23
HETATM   23  C16 UNL     1      -5.394  -0.817  -2.584  1.00  0.00     0.086 A 
HETATM   24  S1  UNL     1      -5.311  -2.339  -3.347  1.00  0.00    -0.025 SA
HETATM   25  C17 UNL     1      -3.688  -2.277  -3.852  1.00  0.00     0.290 A 
HETATM   26  O2  UNL     1      -2.999  -3.147  -4.499  1.00  0.00    -0.260 OA
HETATM   27  N3  UNL     1      -3.276  -1.087  -3.412  1.00  0.00    -0.297 N 
HETATM   28  C18 UNL     1      -4.128  -0.330  -2.766  1.00  0.00     0.161 A 
ATOM     29  H3  UNL     1      -2.319  -0.773  -3.574  1.00  0.00     0.171 HD
BRANCH  28  30
HETATM   30  O3  UNL     1      -3.804   0.960  -2.249  1.00  0.00    -0.345 OA
ATOM     31  H3  UNL     1      -3.030   1.404  -2.574  1.00  0.00     0.219 HD
ENDBRANCH  28  30
ENDBRANCH  20  23
ENDBRANCH  18  20
ENDBRANCH   1  18
TORSDOF 12
ENDMDL
MODEL 2
REMARK VINA RESULT: -6.721296759      3.321      7.002
REMARK  12 active torsions:
REMARK  status: ('A' for Active; 'I' for Inactive)
REMARK    1  A    between atoms: C2_2  and  C3_3 
REMARK    2  A    between atoms: C3_3  and  C4_4 
REMARK    3  A    between atoms: C4_4  and  N1_5 
REMARK    4  A    between atoms: N1_5  and  C5_8 
REMARK    5  A    between atoms: C5_8  and  C7_10 
REMARK    6  A    between atoms: C7_10  and  C8_11 
REMARK    7  A    between atoms: C7_10  and  N2_18 
REMARK    8  A    between atoms: C9_12  and  C10_13 
REMARK    9  A    between atoms: N2_18  and  C15_20 
REMARK   10  A    between atoms: C15_20  and  O1_21 
REMARK   11  A    between atoms: C15_20  and  C16_23 
REMARK   12  A    between atoms: C18_29  and  O3_30 
ROOT
HETATM    1  C7  UNL     1      -6.656  -0.020  -0.418  1.00  0.00     0.189 C 
ENDROOT
BRANCH   1   2
HETATM    2  C5  UNL     1      -7.070  -0.403  -1.799  1.00  0.00     0.216 C 
HETATM    3  C6  UNL     1      -6.375   0.278  -2.919  1.00  0.00     0.043 C 
BRANCH   2   4
HETATM    4  N1  UNL     1      -6.902  -1.852  -1.983  1.00  0.00    -0.068 N 
ATOM      5  H12 UNL     1      -7.782  -2.356  -1.873  1.00  0.00     0.277 HD
ATOM      6  H11 UNL     1      -6.390  -2.278  -1.212  1.00  0.00     0.277 HD
BRANCH   4   7
HETATM    7  C4  UNL     1      -6.273  -2.120  -3.277  1.00  0.00     0.233 C 
BRANCH   7   8
HETATM    8  C3  UNL     1      -5.137  -3.091  -3.001  1.00  0.00     0.027 C 
BRANCH   8   9
HETATM    9  C2  UNL     1      -3.814  -2.549  -3.421  1.00  0.00    -0.003 C 
HETATM   10  C1  UNL     1      -3.207  -1.550  -2.482  1.00  0.00     0.005 C 
ENDBRANCH   8   9
ENDBRANCH   7   8
ENDBRANCH   4   7
ENDBRANCH   2   4
ENDBRANCH   1   2
BRANCH   1  11
HETATM   11  C8  UNL     1      -5.884  -1.135   0.189  1.00  0.00    -0.079 C 
HETATM   12  C9  UNL     1      -5.242  -2.031   0.672  1.00  0.00    -0.100 C 
BRANCH  12  13
HETATM   13  C10 UNL     1      -4.441  -3.128   1.242  1.00  0.00     0.065 C 
HETATM   14  C11 UNL     1      -4.130  -4.059   0.093  1.00  0.00     0.017 C 
HETATM   15  C12 UNL     1      -2.889  -4.793   0.556  1.00  0.00     0.001 C 
HETATM   16  C13 UNL     1      -2.299  -3.968   1.684  1.00  0.00     0.001 C 
HETATM   17  C14 UNL     1      -3.060  -2.661   1.638  1.00  0.00     0.017 C 
ENDBRANCH  12  13
ENDBRANCH   1  11
BRANCH   1  18
HETATM   18  N2  UNL     1      -7.619   0.523   0.435  1.00  0.00    -0.376 N 
ATOM     19  H2  UNL     1      -7.376   1.343   0.989  1.00  0.00     0.157 HD
BRANCH  18  20
HETATM   20  C15 UNL     1      -8.904  -0.016   0.558  1.00  0.00     0.260 C 
BRANCH  20  21
HETATM   21  O1  UNL     1      -9.293  -0.381   1.837  1.00  0.00    -0.372 OA
ATOM     22  H1  UNL     1      -9.192  -1.299   2.059  1.00  0.00     0.212 HD
ENDBRANCH  20  21
BRANCH  20  23
HETATM   23  C16 UNL     1      -9.850   1.113   0.195  1.00  0.00     0.086 A 
HETATM   24  S1  UNL     1     -11.070   1.122  -0.995  1.00  0.00    -0.025 SA
HETATM   25  C17 UNL     1     -11.639   2.708  -0.757  1.00  0.00     0.290 A 
HETATM   26  O2  UNL     1     -12.580   3.340  -1.361  1.00  0.00    -0.260 OA
HETATM   27  N3  UNL     1     -10.864   3.165   0.229  1.00  0.00    -0.297 N 
HETATM   28  C18 UNL     1      -9.949   2.369   0.726  1.00  0.00     0.161 A 
ATOM     29  H3  UNL     1     -10.981   4.113   0.588  1.00  0.00     0.171 HD
BRANCH  28  30
HETATM   30  O3  UNL     1      -9.064   2.745   1.780  1.00  0.00    -0.345 OA
ATOM     31  H3  UNL     1      -8.843   3.663   1.889  1.00  0.00     0.219 HD
ENDBRANCH  28  30
ENDBRANCH  20  23
ENDBRANCH  18  20
ENDBRANCH   1  18
TORSDOF 12
ENDMDL
MODEL 3
REMARK VINA RESULT: -6.652766202      2.823      5.340
REMARK  12 active torsions:
REMARK  status: ('A' for Active; 'I' for Inactive)
REMARK    1  A    between atoms: C2_2  and  C3_3 
REMARK    2  A    between atoms: C3_3  and  C4_4 
REMARK    3  A    between atoms: C4_4  and  N1_5 
REMARK    4  A    between atoms: N1_5  and  C5_8 
REMARK    5  A    between atoms: C5_8  and  C7_10 
REMARK    6  A    between atoms: C7_10  and  C8_11 
REMARK    7  A    between atoms: C7_10  and  N2_18 
REMARK    8  A    between atoms: C9_12  and  C10_13 
REMARK    9  A    between atoms: N2_18  and  C15_20 
REMARK   10  A    between atoms: C15_20  and  O1_21 
REMARK   11  A    between atoms: C15_20  and  C16_23 
REMARK   12  A    between atoms: C18_29  and  O3_30 
ROOT
HETATM    1  C7  UNL     1      -5.357  -1.913  -2.597  1.00  0.00     0.189 C 
ENDROOT
BRANCH   1   2
HETATM    2  C5  UNL     1      -4.162  -1.029  -2.476  1.00  0.00     0.216 C 
HETATM    3  C6  UNL     1      -2.856  -1.609  -2.875  1.00  0.00     0.043 C 
BRANCH   2   4
HETATM    4  N1  UNL     1      -4.369   0.193  -3.267  1.00  0.00    -0.068 N 
ATOM      5  H12 UNL     1      -5.355   0.357  -3.469  1.00  0.00     0.277 HD
ATOM      6  H11 UNL     1      -4.036   0.089  -4.225  1.00  0.00     0.277 HD
BRANCH   4   7
HETATM    7  C4  UNL     1      -3.750   1.335  -2.590  1.00  0.00     0.233 C 
BRANCH   7   8
HETATM    8  C3  UNL     1      -3.010   2.113  -3.665  1.00  0.00     0.027 C 
BRANCH   8   9
HETATM    9  C2  UNL     1      -3.468   3.529  -3.756  1.00  0.00    -0.003 C 
HETATM   10  C1  UNL     1      -4.878   3.714  -4.227  1.00  0.00     0.005 C 
ENDBRANCH   8   9
ENDBRANCH   7   8
ENDBRANCH   4   7
ENDBRANCH   2   4
ENDBRANCH   1   2
BRANCH   1  11
HETATM   11  C8  UNL     1      -6.570  -1.157  -2.191  1.00  0.00    -0.079 C 
HETATM   12  C9  UNL     1      -7.540  -0.531  -1.854  1.00  0.00    -0.100 C 
BRANCH  12  13
HETATM   13  C10 UNL     1      -8.717   0.242  -1.419  1.00  0.00     0.065 C 
HETATM   14  C11 UNL     1      -9.858  -0.746  -1.333  1.00  0.00     0.017 C 
HETATM   15  C12 UNL     1     -10.823  -0.089  -0.369  1.00  0.00     0.001 C 
HETATM   16  C13 UNL     1     -10.031   0.964   0.381  1.00  0.00     0.001 C 
HETATM   17  C14 UNL     1      -8.589   0.685   0.019  1.00  0.00     0.017 C 
ENDBRANCH  12  13
ENDBRANCH   1  11
BRANCH   1  18
HETATM   18  N2  UNL     1      -5.288  -3.196  -2.048  1.00  0.00    -0.376 N 
ATOM     19  H2  UNL     1      -4.635  -3.867  -2.452  1.00  0.00     0.157 HD
BRANCH  18  20
HETATM   20  C15 UNL     1      -6.079  -3.596  -0.967  1.00  0.00     0.260 C 
BRANCH  20  21
HETATM   21  O1  UNL     1      -6.148  -4.959  -0.730  1.00  0.00    -0.372 OA
ATOM     22  H1  UNL     1      -5.364  -5.363  -0.376  1.00  0.00     0.212 HD
ENDBRANCH  20  21
BRANCH  20  23
HETATM   23  C16 UNL     1      -5.387  -3.043   0.264  1.00  0.00     0.086 A 
HETATM   24  S1  UNL     1      -5.843  -1.708   1.220  1.00  0.00    -0.025 SA
HETATM   25  C17 UNL     1      -4.580  -1.771   2.357  1.00  0.00     0.290 A 
HETATM   26  O2  UNL     1      -4.349  -1.012   3.367  1.00  0.00    -0.260 OA
HETATM   27  N3  UNL     1      -3.858  -2.818   1.954  1.00  0.00    -0.297 N 
HETATM   28  C18 UNL     1      -4.252  -3.478   0.892  1.00  0.00     0.161 A 
ATOM     29  H3  UNL     1      -3.018  -3.099   2.460  1.00  0.00     0.171 HD
BRANCH  28  30
HETATM   30  O3  UNL     1      -3.563  -4.612   0.367  1.00  0.00    -0.345 OA
ATOM     31  H3  UNL     1      -2.616  -4.644   0.430  1.00  0.00     0.219 HD
ENDBRANCH  28  30
ENDBRANCH  20  23
ENDBRANCH  18  20
ENDBRANCH   1  18
TORSDOF 12
ENDMDL
MODEL 4
REMARK VINA RESULT: -6.533499423      2.348      2.714
REMARK  12 active torsions:
REMARK  status: ('A' for Active; 'I' for Inactive)
REMARK    1  A    between atoms: C2_2  and  C3_3 
REMARK    2  A    between atoms: C3_3  and  C4_4 
REMARK    3  A    between atoms: C4_4  and  N1_5 
REMARK    4  A    between atoms: N1_5  and  C5_8 
REMARK    5  A    between atoms: C5_8  and  C7_10 
REMARK    6  A    between atoms: C7_10  and  C8_11 
REMARK    7  A    between atoms: C7_10  and  N2_18 
REMARK    8  A    between atoms: C9_12  and  C10_13 
REMARK    9  A    between atoms: N2_18  and  C15_20 
REMARK   10  A    between atoms: C15_20  and  O1_21 
REMARK   11  A    between atoms: C15_20  and  C16_23 
REMARK   12  A    between atoms: C18_29  and  O3_30 
ROOT
HETATM    1  C7  UNL     1      -6.138  -0.981   0.256  1.00  0.00     0.189 C 
ENDROOT
BRANCH   1   2
HETATM    2  C5  UNL     1      -6.007  -2.059   1.279  1.00  0.00     0.216 C 
HETATM    3  C6  UNL     1      -6.617  -3.371   0.950  1.00  0.00     0.043 C 
BRANCH   2   4
HETATM    4  N1  UNL     1      -4.586  -2.288   1.578  1.00  0.00    -0.068 N 
ATOM      5  H12 UNL     1      -4.357  -2.063   2.546  1.00  0.00     0.277 HD
ATOM      6  H11 UNL     1      -3.984  -1.605   1.120  1.00  0.00     0.277 HD
BRANCH   4   7
HETATM    7  C4  UNL     1      -4.220  -3.663   1.232  1.00  0.00     0.233 C 
BRANCH   7   8
HETATM    8  C3  UNL     1      -3.082  -3.559   0.230  1.00  0.00     0.027 C 
BRANCH   8   9
HETATM    9  C2  UNL     1      -1.799  -3.153   0.871  1.00  0.00    -0.003 C 
HETATM   10  C1  UNL     1      -1.373  -3.996   2.035  1.00  0.00     0.005 C 
ENDBRANCH   8   9
ENDBRANCH   7   8
ENDBRANCH   4   7
ENDBRANCH   2   4
ENDBRANCH   1   2
BRANCH   1  11
HETATM   11  C8  UNL     1      -7.499  -0.391   0.337  1.00  0.00    -0.079 C 
HETATM   12  C9  UNL     1      -8.608   0.072   0.391  1.00  0.00    -0.100 C 
BRANCH  12  13
HETATM   13  C10 UNL     1      -9.971   0.630   0.433  1.00  0.00     0.065 C 
HETATM   14  C11 UNL     1      -9.816   2.082   0.824  1.00  0.00     0.017 C 
HETATM   15  C12 UNL     1     -11.082   2.727   0.300  1.00  0.00     0.001 C 
HETATM   16  C13 UNL     1     -11.660   1.769  -0.724  1.00  0.00     0.001 C 
HETATM   17  C14 UNL     1     -10.566   0.749  -0.950  1.00  0.00     0.017 C 
ENDBRANCH  12  13
ENDBRANCH   1  11
BRANCH   1  18
HETATM   18  N2  UNL     1      -5.724  -1.255  -1.050  1.00  0.00    -0.376 N 
ATOM     19  H2  UNL     1      -4.772  -1.589  -1.202  1.00  0.00     0.157 HD
BRANCH  18  20
HETATM   20  C15 UNL     1      -6.563  -1.089  -2.156  1.00  0.00     0.260 C 
BRANCH  20  21
HETATM   21  O1  UNL     1      -5.960  -0.635  -3.318  1.00  0.00    -0.372 OA
ATOM     22  H1  UNL     1      -5.569   0.230  -3.276  1.00  0.00     0.212 HD
ENDBRANCH  20  21
BRANCH  20  23
HETATM   23  C16 UNL     1      -7.041  -2.484  -2.511  1.00  0.00     0.086 A 
HETATM   24  S1  UNL     1      -8.601  -3.144  -2.318  1.00  0.00    -0.025 SA
HETATM   25  C17 UNL     1      -8.295  -4.695  -2.943  1.00  0.00     0.290 A 
HETATM   26  O2  UNL     1      -9.089  -5.696  -3.077  1.00  0.00    -0.260 OA
HETATM   27  N3  UNL     1      -7.003  -4.642  -3.274  1.00  0.00    -0.297 N 
HETATM   28  C18 UNL     1      -6.349  -3.526  -3.063  1.00  0.00     0.161 A 
ATOM     29  H3  UNL     1      -6.535  -5.451  -3.683  1.00  0.00     0.171 HD
BRANCH  28  30
HETATM   30  O3  UNL     1      -4.968  -3.350  -3.375  1.00  0.00    -0.345 OA
ATOM     31  H3  UNL     1      -4.316  -3.788  -2.842  1.00  0.00     0.219 HD
ENDBRANCH  28  30
ENDBRANCH  20  23
ENDBRANCH  18  20
ENDBRANCH   1  18
TORSDOF 12
ENDMDL
MODEL 5
REMARK VINA RESULT: -6.498755328      1.504      2.332
REMARK  12 active torsions:
REMARK  status: ('A' for Active; 'I' for Inactive)
REMARK    1  A    between atoms: C2_2  and  C3_3 
REMARK    2  A    between atoms: C3_3  and  C4_4 
REMARK    3  A    between atoms: C4_4  and  N1_5 
REMARK    4  A    between atoms: N1_5  and  C5_8 
REMARK    5  A    between atoms: C5_8  and  C7_10 
REMARK    6  A    between atoms: C7_10  and  C8_11 
REMARK    7  A    between atoms: C7_10  and  N2_18 
REMARK    8  A    between atoms: C9_12  and  C10_13 
REMARK    9  A    between atoms: N2_18  and  C15_20 
REMARK   10  A    between atoms: C15_20  and  O1_21 
REMARK   11  A    between atoms: C15_20  and  C16_23 
REMARK   12  A    between atoms: C18_29  and  O3_30 
ROOT
HETATM    1  C7  UNL     1      -7.519  -2.249  -0.802  1.00  0.00     0.189 C 
ENDROOT
BRANCH   1   2
HETATM    2  C5  UNL     1      -7.666  -3.501  -0.005  1.00  0.00     0.216 C 
HETATM    3  C6  UNL     1      -8.532  -4.561  -0.577  1.00  0.00     0.043 C 
BRANCH   2   4
HETATM    4  N1  UNL     1      -6.342  -4.089   0.242  1.00  0.00    -0.068 N 
ATOM      5  H12 UNL     1      -5.948  -4.514  -0.598  1.00  0.00     0.277 HD
ATOM      6  H11 UNL     1      -6.398  -4.928   0.820  1.00  0.00     0.277 HD
BRANCH   4   7
HETATM    7  C4  UNL     1      -5.449  -3.083   0.819  1.00  0.00     0.233 C 
BRANCH   7   8
HETATM    8  C3  UNL     1      -4.091  -3.303   0.175  1.00  0.00     0.027 C 
BRANCH   8   9
HETATM    9  C2  UNL     1      -3.222  -4.207   0.981  1.00  0.00    -0.003 C 
HETATM   10  C1  UNL     1      -1.815  -3.729   1.179  1.00  0.00     0.005 C 
ENDBRANCH   8   9
ENDBRANCH   7   8
ENDBRANCH   4   7
ENDBRANCH   2   4
ENDBRANCH   1   2
BRANCH   1  11
HETATM   11  C8  UNL     1      -8.513  -1.249  -0.333  1.00  0.00    -0.079 C 
HETATM   12  C9  UNL     1      -9.328  -0.443   0.031  1.00  0.00    -0.100 C 
BRANCH  12  13
HETATM   13  C10 UNL     1     -10.331   0.552   0.452  1.00  0.00     0.065 C 
HETATM   14  C11 UNL     1      -9.559   1.807   0.787  1.00  0.00     0.017 C 
HETATM   15  C12 UNL     1     -10.588   2.908   0.637  1.00  0.00     0.001 C 
HETATM   16  C13 UNL     1     -11.720   2.326  -0.189  1.00  0.00     0.001 C 
HETATM   17  C14 UNL     1     -11.175   1.016  -0.712  1.00  0.00     0.017 C 
ENDBRANCH  12  13
ENDBRANCH   1  11
BRANCH   1  18
HETATM   18  N2  UNL     1      -7.448  -2.356  -2.193  1.00  0.00    -0.376 N 
ATOM     19  H2  UNL     1      -8.254  -2.070  -2.748  1.00  0.00     0.157 HD
BRANCH  18  20
HETATM   20  C15 UNL     1      -6.314  -2.838  -2.853  1.00  0.00     0.260 C 
BRANCH  20  21
HETATM   21  O1  UNL     1      -6.483  -3.185  -4.184  1.00  0.00    -0.372 OA
ATOM     22  H1  UNL     1      -7.274  -3.667  -4.394  1.00  0.00     0.212 HD
ENDBRANCH  20  21
BRANCH  20  23
HETATM   23  C16 UNL     1      -5.347  -1.671  -2.898  1.00  0.00     0.086 A 
HETATM   24  S1  UNL     1      -5.629  -0.050  -2.451  1.00  0.00    -0.025 SA
HETATM   25  C17 UNL     1      -4.085   0.576  -2.792  1.00  0.00     0.290 A 
HETATM   26  O2  UNL     1      -3.642   1.775  -2.665  1.00  0.00    -0.260 OA
HETATM   27  N3  UNL     1      -3.415  -0.489  -3.237  1.00  0.00    -0.297 N 
HETATM   28  C18 UNL     1      -4.039  -1.640  -3.297  1.00  0.00     0.161 A 
ATOM     29  H3  UNL     1      -2.439  -0.409  -3.524  1.00  0.00     0.171 HD
BRANCH  28  30
HETATM   30  O3  UNL     1      -3.428  -2.845  -3.755  1.00  0.00    -0.345 OA
ATOM     31  H3  UNL     1      -2.558  -2.805  -4.134  1.00  0.00     0.219 HD
ENDBRANCH  28  30
ENDBRANCH  20  23
ENDBRANCH  18  20
ENDBRANCH   1  18
TORSDOF 12
ENDMDL
