MODEL 1
REMARK VINA RESULT: -3.758537421      0.000      0.000
REMARK  2 active torsions:
REMARK  status: ('A' for Active; 'I' for Inactive)
REMARK    1  A    between atoms: C3_4  and  O2_5 
REMARK    2  A    between atoms: C3_4  and  O3_7 
ROOT
HETATM    1  C1  UNL     1      -2.918  11.775   4.211  1.00  0.00     0.051 C 
HETATM    2  C2  UNL     1      -1.796  10.875   4.674  1.00  0.00     0.185 C 
HETATM    3  O1  UNL     1      -0.772  11.693   5.142  1.00  0.00    -0.317 OA
HETATM    4  C3  UNL     1       0.075  10.949   5.911  1.00  0.00     0.287 C 
HETATM    5  C4  UNL     1      -0.712  10.473   7.143  1.00  0.00     0.178 C 
HETATM    6  S1  UNL     1      -2.263  10.037   6.247  1.00  0.00    -0.130 SA
ENDROOT
BRANCH   4   7
HETATM    7  O2  UNL     1       1.102  11.778   6.347  1.00  0.00    -0.343 OA
ATOM      8  H2  UNL     1       0.711  12.556   6.727  1.00  0.00     0.215 HD
ENDBRANCH   4   7
BRANCH   4   9
HETATM    9  O3  UNL     1       0.572   9.851   5.222  1.00  0.00    -0.343 OA
ATOM     10  H3  UNL     1       1.365  10.061   4.744  1.00  0.00     0.215 HD
ENDBRANCH   4   9
TORSDOF 2
ENDMDL
MODEL 2
REMARK VINA RESULT: -3.514522861      3.325      3.803
REMARK  2 active torsions:
REMARK  status: ('A' for Active; 'I' for Inactive)
REMARK    1  A    between atoms: C3_4  and  O2_5 
REMARK    2  A    between atoms: C3_4  and  O3_7 
ROOT
HETATM    1  C1  UNL     1      -3.611  12.277   4.248  1.00  0.00     0.051 C 
HETATM    2  C2  UNL     1      -4.020  10.823   4.201  1.00  0.00     0.185 C 
HETATM    3  O1  UNL     1      -3.037  10.136   3.493  1.00  0.00    -0.317 OA
HETATM    4  C3  UNL     1      -3.154   8.802   3.752  1.00  0.00     0.287 C 
HETATM    5  C4  UNL     1      -2.857   8.590   5.245  1.00  0.00     0.178 C 
HETATM    6  S1  UNL     1      -3.803  10.049   5.858  1.00  0.00    -0.130 SA
ENDROOT
BRANCH   4   7
HETATM    7  O2  UNL     1      -2.181   8.134   3.018  1.00  0.00    -0.343 OA
ATOM      8  H2  UNL     1      -1.705   7.564   3.610  1.00  0.00     0.215 HD
ENDBRANCH   4   7
BRANCH   4   9
HETATM    9  O3  UNL     1      -4.425   8.326   3.458  1.00  0.00    -0.343 OA
ATOM     10  H3  UNL     1      -4.503   8.063   2.548  1.00  0.00     0.215 HD
ENDBRANCH   4   9
TORSDOF 2
ENDMDL
MODEL 3
REMARK VINA RESULT: -3.493722838      1.413      1.637
REMARK  2 active torsions:
REMARK  status: ('A' for Active; 'I' for Inactive)
REMARK    1  A    between atoms: C3_4  and  O2_5 
REMARK    2  A    between atoms: C3_4  and  O3_7 
ROOT
HETATM    1  C1  UNL     1      -3.931  11.810   3.981  1.00  0.00     0.051 C 
HETATM    2  C2  UNL     1      -2.508  11.600   4.444  1.00  0.00     0.185 C 
HETATM    3  O1  UNL     1      -2.334  12.348   5.606  1.00  0.00    -0.317 OA
HETATM    4  C3  UNL     1      -1.225  11.899   6.262  1.00  0.00     0.287 C 
HETATM    5  C4  UNL     1      -1.500  10.451   6.702  1.00  0.00     0.178 C 
HETATM    6  S1  UNL     1      -2.310   9.906   5.138  1.00  0.00    -0.130 SA
ENDROOT
BRANCH   4   7
HETATM    7  O2  UNL     1      -1.056  12.673   7.403  1.00  0.00    -0.343 OA
ATOM      8  H2  UNL     1      -0.131  12.677   7.622  1.00  0.00     0.215 HD
ENDBRANCH   4   7
BRANCH   4   9
HETATM    9  O3  UNL     1      -0.095  11.934   5.456  1.00  0.00    -0.343 OA
ATOM     10  H3  UNL     1       0.638  11.478   5.852  1.00  0.00     0.215 HD
ENDBRANCH   4   9
TORSDOF 2
ENDMDL
MODEL 4
REMARK VINA RESULT: -3.482835041      2.289      3.804
REMARK  2 active torsions:
REMARK  status: ('A' for Active; 'I' for Inactive)
REMARK    1  A    between atoms: C3_4  and  O2_5 
REMARK    2  A    between atoms: C3_4  and  O3_7 
ROOT
HETATM    1  C1  UNL     1      -0.491  11.343   5.976  1.00  0.00     0.051 C 
HETATM    2  C2  UNL     1      -1.680  11.860   5.199  1.00  0.00     0.185 C 
HETATM    3  O1  UNL     1      -2.201  10.790   4.475  1.00  0.00    -0.317 OA
HETATM    4  C3  UNL     1      -3.470  11.099   4.078  1.00  0.00     0.287 C 
HETATM    5  C4  UNL     1      -4.332  11.241   5.343  1.00  0.00     0.178 C 
HETATM    6  S1  UNL     1      -3.093  12.176   6.338  1.00  0.00    -0.130 SA
ENDROOT
BRANCH   4   7
HETATM    7  O2  UNL     1      -3.961  10.030   3.337  1.00  0.00    -0.343 OA
ATOM      8  H2  UNL     1      -4.901   9.988   3.469  1.00  0.00     0.215 HD
ENDBRANCH   4   7
BRANCH   4   9
HETATM    9  O3  UNL     1      -3.512  12.280   3.349  1.00  0.00    -0.343 OA
ATOM     10  H3  UNL     1      -4.404  12.545   3.156  1.00  0.00     0.215 HD
ENDBRANCH   4   9
TORSDOF 2
ENDMDL
MODEL 5
REMARK VINA RESULT: -3.434388448      3.585      4.140
REMARK  2 active torsions:
REMARK  status: ('A' for Active; 'I' for Inactive)
REMARK    1  A    between atoms: C3_4  and  O2_5 
REMARK    2  A    between atoms: C3_4  and  O3_7 
ROOT
HETATM    1  C1  UNL     1      -3.341   8.542   5.283  1.00  0.00     0.051 C 
HETATM    2  C2  UNL     1      -3.351   9.834   4.499  1.00  0.00     0.185 C 
HETATM    3  O1  UNL     1      -4.371  10.628   5.017  1.00  0.00    -0.317 OA
HETATM    4  C3  UNL     1      -4.174  11.919   4.621  1.00  0.00     0.287 C 
HETATM    5  C4  UNL     1      -2.863  12.406   5.259  1.00  0.00     0.178 C 
HETATM    6  S1  UNL     1      -1.896  10.866   4.957  1.00  0.00    -0.130 SA
ENDROOT
BRANCH   4   7
HETATM    7  O2  UNL     1      -5.215  12.688   5.128  1.00  0.00    -0.343 OA
ATOM      8  H2  UNL     1      -5.062  12.814   6.057  1.00  0.00     0.215 HD
ENDBRANCH   4   7
BRANCH   4   9
HETATM    9  O3  UNL     1      -4.090  12.030   3.240  1.00  0.00    -0.343 OA
ATOM     10  H3  UNL     1      -4.882  11.730   2.811  1.00  0.00     0.215 HD
ENDBRANCH   4   9
TORSDOF 2
ENDMDL
