MODEL 1
REMARK VINA RESULT: -3.751767409      0.000      0.000
REMARK  2 active torsions:
REMARK  status: ('A' for Active; 'I' for Inactive)
REMARK    1  A    between atoms: C2_2  and  O1_3 
REMARK    2  A    between atoms: C4_8  and  O3_9 
ROOT
HETATM    1  C1  UNL     1       0.150  11.228   7.913  1.00  0.00     0.063 C 
HETATM    2  C2  UNL     1       0.185  11.085   6.427  1.00  0.00     0.153 C 
HETATM    3  S1  UNL     1      -1.313  11.792   5.642  1.00  0.00    -0.101 SA
HETATM    4  C3  UNL     1      -1.719  10.213   4.780  1.00  0.00     0.248 C 
HETATM    5  O2  UNL     1      -1.223   9.341   5.748  1.00  0.00    -0.348 OA
HETATM    6  C4  UNL     1       0.105   9.658   5.951  1.00  0.00     0.302 C 
ENDROOT
BRANCH   2   7
HETATM    7  O1  UNL     1       1.251  11.772   5.877  1.00  0.00    -0.374 OA
ATOM      8  H1  UNL     1       1.449  11.463   5.001  1.00  0.00     0.211 HD
ENDBRANCH   2   7
BRANCH   6   9
HETATM    9  O3  UNL     1       0.883   9.420   4.829  1.00  0.00    -0.367 OA
ATOM     10  H3  UNL     1       0.781   8.538   4.490  1.00  0.00     0.212 HD
ENDBRANCH   6   9
TORSDOF 2
ENDMDL
MODEL 2
REMARK VINA RESULT: -3.675483070      4.049      4.935
REMARK  2 active torsions:
REMARK  status: ('A' for Active; 'I' for Inactive)
REMARK    1  A    between atoms: C2_2  and  O1_3 
REMARK    2  A    between atoms: C4_8  and  O3_9 
ROOT
HETATM    1  C1  UNL     1      -3.866   9.995   4.261  1.00  0.00     0.063 C 
HETATM    2  C2  UNL     1      -3.774  11.472   4.463  1.00  0.00     0.153 C 
HETATM    3  S1  UNL     1      -2.190  11.950   5.255  1.00  0.00    -0.101 SA
HETATM    4  C3  UNL     1      -3.040  12.825   6.638  1.00  0.00     0.248 C 
HETATM    5  O2  UNL     1      -4.167  12.007   6.709  1.00  0.00    -0.348 OA
HETATM    6  C4  UNL     1      -4.762  12.012   5.464  1.00  0.00     0.302 C 
ENDROOT
BRANCH   2   7
HETATM    7  O1  UNL     1      -3.807  12.151   3.260  1.00  0.00    -0.374 OA
ATOM      8  H1  UNL     1      -3.128  12.814   3.216  1.00  0.00     0.211 HD
ENDBRANCH   2   7
BRANCH   6   9
HETATM    9  O3  UNL     1      -5.252  13.260   5.117  1.00  0.00    -0.367 OA
ATOM     10  H3  UNL     1      -6.000  13.522   5.640  1.00  0.00     0.212 HD
ENDBRANCH   6   9
TORSDOF 2
ENDMDL
MODEL 3
REMARK VINA RESULT: -3.546562031      3.202      3.945
REMARK  2 active torsions:
REMARK  status: ('A' for Active; 'I' for Inactive)
REMARK    1  A    between atoms: C2_2  and  O1_3 
REMARK    2  A    between atoms: C4_8  and  O3_9 
ROOT
HETATM    1  C1  UNL     1      -1.930  12.327   6.220  1.00  0.00     0.063 C 
HETATM    2  C2  UNL     1      -3.174  11.935   5.493  1.00  0.00     0.153 C 
HETATM    3  S1  UNL     1      -3.747  10.263   5.982  1.00  0.00    -0.101 SA
HETATM    4  C3  UNL     1      -3.737   9.649   4.243  1.00  0.00     0.248 C 
HETATM    5  O2  UNL     1      -2.667  10.417   3.782  1.00  0.00    -0.348 OA
HETATM    6  C4  UNL     1      -2.978  11.742   4.012  1.00  0.00     0.302 C 
ENDROOT
BRANCH   2   7
HETATM    7  O1  UNL     1      -4.222  12.786   5.786  1.00  0.00    -0.374 OA
ATOM      8  H1  UNL     1      -4.391  13.389   5.072  1.00  0.00     0.211 HD
ENDBRANCH   2   7
BRANCH   6   9
HETATM    9  O3  UNL     1      -4.065  12.167   3.264  1.00  0.00    -0.367 OA
ATOM     10  H3  UNL     1      -3.875  12.221   2.335  1.00  0.00     0.212 HD
ENDBRANCH   6   9
TORSDOF 2
ENDMDL
MODEL 4
REMARK VINA RESULT: -3.545978183      3.062      4.337
REMARK  2 active torsions:
REMARK  status: ('A' for Active; 'I' for Inactive)
REMARK    1  A    between atoms: C2_2  and  O1_3 
REMARK    2  A    between atoms: C4_8  and  O3_9 
ROOT
HETATM    1  C1  UNL     1      -4.769  12.742   5.115  1.00  0.00     0.063 C 
HETATM    2  C2  UNL     1      -4.173  11.392   5.346  1.00  0.00     0.153 C 
HETATM    3  S1  UNL     1      -2.473  11.508   6.023  1.00  0.00    -0.101 SA
HETATM    4  C3  UNL     1      -1.763  10.482   4.664  1.00  0.00     0.248 C 
HETATM    5  O2  UNL     1      -2.636  10.885   3.653  1.00  0.00    -0.348 OA
HETATM    6  C4  UNL     1      -3.919  10.614   4.081  1.00  0.00     0.302 C 
ENDROOT
BRANCH   2   7
HETATM    7  O1  UNL     1      -4.895  10.672   6.279  1.00  0.00    -0.374 OA
ATOM      8  H1  UNL     1      -4.596   9.772   6.332  1.00  0.00     0.211 HD
ENDBRANCH   2   7
BRANCH   6   9
HETATM    9  O3  UNL     1      -4.152   9.256   4.228  1.00  0.00    -0.367 OA
ATOM     10  H3  UNL     1      -4.698   9.053   4.978  1.00  0.00     0.212 HD
ENDBRANCH   6   9
TORSDOF 2
ENDMDL
MODEL 5
REMARK VINA RESULT: -3.515532391      3.621      4.533
REMARK  2 active torsions:
REMARK  status: ('A' for Active; 'I' for Inactive)
REMARK    1  A    between atoms: C2_2  and  O1_3 
REMARK    2  A    between atoms: C4_8  and  O3_9 
ROOT
HETATM    1  C1  UNL     1      -3.875  13.513   6.643  1.00  0.00     0.063 C 
HETATM    2  C2  UNL     1      -4.222  12.417   5.691  1.00  0.00     0.153 C 
HETATM    3  S1  UNL     1      -3.821  10.766   6.381  1.00  0.00    -0.101 SA
HETATM    4  C3  UNL     1      -2.759  10.319   4.942  1.00  0.00     0.248 C 
HETATM    5  O2  UNL     1      -2.285  11.600   4.657  1.00  0.00    -0.348 OA
HETATM    6  C4  UNL     1      -3.382  12.408   4.440  1.00  0.00     0.302 C 
ENDROOT
BRANCH   2   7
HETATM    7  O1  UNL     1      -5.578  12.387   5.423  1.00  0.00    -0.374 OA
ATOM      8  H1  UNL     1      -5.755  12.020   4.565  1.00  0.00     0.211 HD
ENDBRANCH   2   7
BRANCH   6   9
HETATM    9  O3  UNL     1      -4.098  12.038   3.312  1.00  0.00    -0.367 OA
ATOM     10  H3  UNL     1      -4.017  11.113   3.111  1.00  0.00     0.212 HD
ENDBRANCH   6   9
TORSDOF 2
ENDMDL
