MODEL 1
REMARK VINA RESULT: -7.571579888      0.000      0.000
REMARK  7 active torsions:
REMARK  status: ('A' for Active; 'I' for Inactive)
REMARK    1  A    between atoms: C2_2  and  C4_4 
REMARK    2  A    between atoms: C4_4  and  O1_5 
REMARK    3  A    between atoms: O1_5  and  C5_6 
REMARK       I    between atoms: C5_6  and  N1_8 
REMARK    4  A    between atoms: C8_11  and  O3_12 
REMARK    5  A    between atoms: C9_14  and  N2_15 
REMARK       I    between atoms: N2_15  and  C10_16 
REMARK    6  A    between atoms: C10_16  and  O5_18 
REMARK    7  A    between atoms: O5_18  and  C11_19 
ROOT
HETATM    1  C5  UNL     1      -1.918   5.645  80.955  1.00  0.00     0.362 C 
HETATM    2  O2  UNL     1      -1.611   5.505  79.748  1.00  0.00    -0.238 OA
HETATM    3  N1  UNL     1      -1.522   4.720  81.947  1.00  0.00    -0.325 N 
HETATM    4  C6  UNL     1      -0.814   3.523  81.524  1.00  0.00     0.131 C 
HETATM    5  C7  UNL     1       0.516   3.519  82.208  1.00  0.00     0.055 C 
HETATM    6  C8  UNL     1       0.604   4.582  83.262  1.00  0.00     0.157 C 
HETATM    7  C9  UNL     1      -0.594   4.535  84.230  1.00  0.00     0.216 C 
HETATM    8  C15 UNL     1      -1.779   4.938  83.361  1.00  0.00     0.170 C 
ENDROOT
BRANCH   7   9
HETATM    9  N2  UNL     1      -0.836   3.418  84.956  1.00  0.00    -0.381 NA
HETATM   10  C10 UNL     1      -1.082   2.279  85.697  1.00  0.00     0.435 C 
HETATM   11  O4  UNL     1      -0.227   1.560  86.263  1.00  0.00    -0.221 OA
BRANCH  10  12
HETATM   12  O5  UNL     1      -2.398   1.799  85.899  1.00  0.00    -0.283 OA
BRANCH  12  13
HETATM   13  C11 UNL     1      -3.352   2.331  86.741  1.00  0.00     0.062 C 
HETATM   14  C12 UNL     1      -2.919   2.309  88.212  1.00  0.00     0.046 C 
HETATM   15  C13 UNL     1      -4.601   1.453  86.688  1.00  0.00     0.046 C 
HETATM   16  C14 UNL     1      -3.750   3.731  86.407  1.00  0.00     0.046 C 
ENDBRANCH  12  13
ENDBRANCH  10  12
ENDBRANCH   7   9
BRANCH   6  17
HETATM   17  O3  UNL     1       1.795   4.534  83.949  1.00  0.00    -0.392 OA
ATOM     18  H3  UNL     1       1.677   4.671  84.881  1.00  0.00     0.210 HD
ENDBRANCH   6  17
BRANCH   1  19
HETATM   19  O1  UNL     1      -2.688   6.768  81.298  1.00  0.00    -0.304 OA
BRANCH  19  20
HETATM   20  C4  UNL     1      -2.380   8.052  80.796  1.00  0.00     0.184 C 
BRANCH  20  21
HETATM   21  C2  UNL     1      -3.672   8.801  80.579  1.00  0.00     0.002 C 
HETATM   22  C1  UNL     1      -3.461  10.269  80.749  1.00  0.00     0.011 C 
HETATM   23  C3  UNL     1      -4.685   8.245  81.575  1.00  0.00     0.011 C 
ENDBRANCH  20  21
ENDBRANCH  19  20
ENDBRANCH   1  19
TORSDOF 7
ENDMDL
MODEL 2
REMARK VINA RESULT: -7.228472777      2.852      6.809
REMARK  7 active torsions:
REMARK  status: ('A' for Active; 'I' for Inactive)
REMARK    1  A    between atoms: C2_2  and  C4_4 
REMARK    2  A    between atoms: C4_4  and  O1_5 
REMARK    3  A    between atoms: O1_5  and  C5_6 
REMARK       I    between atoms: C5_6  and  N1_8 
REMARK    4  A    between atoms: C8_11  and  O3_12 
REMARK    5  A    between atoms: C9_14  and  N2_15 
REMARK       I    between atoms: N2_15  and  C10_16 
REMARK    6  A    between atoms: C10_16  and  O5_18 
REMARK    7  A    between atoms: O5_18  and  C11_19 
ROOT
HETATM    1  C5  UNL     1      -1.418   0.942  85.195  1.00  0.00     0.362 C 
HETATM    2  O2  UNL     1      -1.889  -0.022  84.547  1.00  0.00    -0.238 OA
HETATM    3  N1  UNL     1      -0.910   2.100  84.566  1.00  0.00    -0.325 N 
HETATM    4  C6  UNL     1      -0.852   2.121  83.114  1.00  0.00     0.131 C 
HETATM    5  C7  UNL     1      -1.681   3.274  82.644  1.00  0.00     0.055 C 
HETATM    6  C8  UNL     1      -2.099   4.158  83.781  1.00  0.00     0.157 C 
HETATM    7  C9  UNL     1      -0.903   4.569  84.661  1.00  0.00     0.216 C 
HETATM    8  C15 UNL     1      -0.469   3.265  85.317  1.00  0.00     0.170 C 
ENDROOT
BRANCH   7   9
HETATM    9  N2  UNL     1       0.135   5.252  84.122  1.00  0.00    -0.381 NA
HETATM   10  C10 UNL     1       1.192   5.949  83.572  1.00  0.00     0.435 C 
HETATM   11  O4  UNL     1       1.419   7.175  83.693  1.00  0.00    -0.221 OA
BRANCH  10  12
HETATM   12  O5  UNL     1       2.173   5.302  82.783  1.00  0.00    -0.283 OA
BRANCH  12  13
HETATM   13  C11 UNL     1       2.056   4.929  81.461  1.00  0.00     0.062 C 
HETATM   14  C12 UNL     1       2.126   3.409  81.269  1.00  0.00     0.046 C 
HETATM   15  C13 UNL     1       3.254   5.475  80.686  1.00  0.00     0.046 C 
HETATM   16  C14 UNL     1       0.810   5.413  80.796  1.00  0.00     0.046 C 
ENDBRANCH  12  13
ENDBRANCH  10  12
ENDBRANCH   7   9
BRANCH   6  17
HETATM   17  O3  UNL     1      -2.796   5.263  83.348  1.00  0.00    -0.392 OA
ATOM     18  H3  UNL     1      -3.736   5.131  83.386  1.00  0.00     0.210 HD
ENDBRANCH   6  17
BRANCH   1  19
HETATM   19  O1  UNL     1      -1.407   0.831  86.595  1.00  0.00    -0.304 OA
BRANCH  19  20
HETATM   20  C4  UNL     1      -2.603   0.682  87.332  1.00  0.00     0.184 C 
BRANCH  20  21
HETATM   21  C2  UNL     1      -3.358   1.988  87.285  1.00  0.00     0.002 C 
HETATM   22  C1  UNL     1      -3.389   2.622  88.637  1.00  0.00     0.011 C 
HETATM   23  C3  UNL     1      -4.757   1.679  86.760  1.00  0.00     0.011 C 
ENDBRANCH  20  21
ENDBRANCH  19  20
ENDBRANCH   1  19
TORSDOF 7
ENDMDL
MODEL 3
REMARK VINA RESULT: -7.218416559      3.106      6.968
REMARK  7 active torsions:
REMARK  status: ('A' for Active; 'I' for Inactive)
REMARK    1  A    between atoms: C2_2  and  C4_4 
REMARK    2  A    between atoms: C4_4  and  O1_5 
REMARK    3  A    between atoms: O1_5  and  C5_6 
REMARK       I    between atoms: C5_6  and  N1_8 
REMARK    4  A    between atoms: C8_11  and  O3_12 
REMARK    5  A    between atoms: C9_14  and  N2_15 
REMARK       I    between atoms: N2_15  and  C10_16 
REMARK    6  A    between atoms: C10_16  and  O5_18 
REMARK    7  A    between atoms: O5_18  and  C11_19 
ROOT
HETATM    1  C5  UNL     1      -1.525   1.015  85.299  1.00  0.00     0.362 C 
HETATM    2  O2  UNL     1      -1.877  -0.160  85.556  1.00  0.00    -0.238 OA
HETATM    3  N1  UNL     1      -0.997   1.388  84.043  1.00  0.00    -0.325 N 
HETATM    4  C6  UNL     1      -0.774   0.345  83.056  1.00  0.00     0.131 C 
HETATM    5  C7  UNL     1      -1.592   0.680  81.849  1.00  0.00     0.055 C 
HETATM    6  C8  UNL     1      -2.174   2.059  81.938  1.00  0.00     0.157 C 
HETATM    7  C9  UNL     1      -1.105   3.115  82.278  1.00  0.00     0.216 C 
HETATM    8  C15 UNL     1      -0.695   2.769  83.704  1.00  0.00     0.170 C 
ENDROOT
BRANCH   7   9
HETATM    9  N2  UNL     1      -0.043   3.294  81.459  1.00  0.00    -0.381 NA
HETATM   10  C10 UNL     1       1.042   3.477  80.622  1.00  0.00     0.435 C 
HETATM   11  O4  UNL     1       1.123   3.125  79.423  1.00  0.00    -0.221 OA
BRANCH  10  12
HETATM   12  O5  UNL     1       2.220   4.118  81.070  1.00  0.00    -0.283 OA
BRANCH  12  13
HETATM   13  C11 UNL     1       2.345   5.432  81.471  1.00  0.00     0.062 C 
HETATM   14  C12 UNL     1       1.588   6.403  80.557  1.00  0.00     0.046 C 
HETATM   15  C13 UNL     1       3.810   5.847  81.353  1.00  0.00     0.046 C 
HETATM   16  C14 UNL     1       1.898   5.688  82.873  1.00  0.00     0.046 C 
ENDBRANCH  12  13
ENDBRANCH  10  12
ENDBRANCH   7   9
BRANCH   6  17
HETATM   17  O3  UNL     1      -2.863   2.404  80.797  1.00  0.00    -0.392 OA
ATOM     18  H3  UNL     1      -2.945   3.346  80.700  1.00  0.00     0.210 HD
ENDBRANCH   6  17
BRANCH   1  19
HETATM   19  O1  UNL     1      -1.669   1.968  86.320  1.00  0.00    -0.304 OA
BRANCH  19  20
HETATM   20  C4  UNL     1      -2.483   1.722  87.447  1.00  0.00     0.184 C 
BRANCH  20  21
HETATM   21  C2  UNL     1      -3.792   2.450  87.257  1.00  0.00     0.002 C 
HETATM   22  C1  UNL     1      -4.852   1.505  86.795  1.00  0.00     0.011 C 
HETATM   23  C3  UNL     1      -3.540   3.571  86.254  1.00  0.00     0.011 C 
ENDBRANCH  20  21
ENDBRANCH  19  20
ENDBRANCH   1  19
TORSDOF 7
ENDMDL
MODEL 4
REMARK VINA RESULT: -7.146503305      2.582      6.877
REMARK  7 active torsions:
REMARK  status: ('A' for Active; 'I' for Inactive)
REMARK    1  A    between atoms: C2_2  and  C4_4 
REMARK    2  A    between atoms: C4_4  and  O1_5 
REMARK    3  A    between atoms: O1_5  and  C5_6 
REMARK       I    between atoms: C5_6  and  N1_8 
REMARK    4  A    between atoms: C8_11  and  O3_12 
REMARK    5  A    between atoms: C9_14  and  N2_15 
REMARK       I    between atoms: N2_15  and  C10_16 
REMARK    6  A    between atoms: C10_16  and  O5_18 
REMARK    7  A    between atoms: O5_18  and  C11_19 
ROOT
HETATM    1  C5  UNL     1      -1.392   0.947  85.169  1.00  0.00     0.362 C 
HETATM    2  O2  UNL     1      -1.824  -0.026  84.507  1.00  0.00    -0.238 OA
HETATM    3  N1  UNL     1      -0.895   2.118  84.554  1.00  0.00    -0.325 N 
HETATM    4  C6  UNL     1      -0.802   2.144  83.105  1.00  0.00     0.131 C 
HETATM    5  C7  UNL     1      -1.646   3.278  82.616  1.00  0.00     0.055 C 
HETATM    6  C8  UNL     1      -2.113   4.150  83.743  1.00  0.00     0.157 C 
HETATM    7  C9  UNL     1      -0.949   4.587  84.654  1.00  0.00     0.216 C 
HETATM    8  C15 UNL     1      -0.502   3.291  85.318  1.00  0.00     0.170 C 
ENDROOT
BRANCH   7   9
HETATM    9  N2  UNL     1       0.085   5.294  84.142  1.00  0.00    -0.381 NA
HETATM   10  C10 UNL     1       1.141   6.015  83.619  1.00  0.00     0.435 C 
HETATM   11  O4  UNL     1       1.780   5.749  82.576  1.00  0.00    -0.221 OA
BRANCH  10  12
HETATM   12  O5  UNL     1       1.617   7.189  84.250  1.00  0.00    -0.283 OA
BRANCH  12  13
HETATM   13  C11 UNL     1       1.513   8.481  83.779  1.00  0.00     0.062 C 
HETATM   14  C12 UNL     1       2.834   9.010  83.209  1.00  0.00     0.046 C 
HETATM   15  C13 UNL     1       1.194   9.409  84.950  1.00  0.00     0.046 C 
HETATM   16  C14 UNL     1       0.462   8.668  82.735  1.00  0.00     0.046 C 
ENDBRANCH  12  13
ENDBRANCH  10  12
ENDBRANCH   7   9
BRANCH   6  17
HETATM   17  O3  UNL     1      -2.824   5.239  83.295  1.00  0.00    -0.392 OA
ATOM     18  H3  UNL     1      -2.427   6.060  83.561  1.00  0.00     0.210 HD
ENDBRANCH   6  17
BRANCH   1  19
HETATM   19  O1  UNL     1      -1.413   0.834  86.569  1.00  0.00    -0.304 OA
BRANCH  19  20
HETATM   20  C4  UNL     1      -2.624   0.654  87.275  1.00  0.00     0.184 C 
BRANCH  20  21
HETATM   21  C2  UNL     1      -3.370   1.966  87.281  1.00  0.00     0.002 C 
HETATM   22  C1  UNL     1      -3.367   2.561  88.651  1.00  0.00     0.011 C 
HETATM   23  C3  UNL     1      -4.782   1.681  86.778  1.00  0.00     0.011 C 
ENDBRANCH  20  21
ENDBRANCH  19  20
ENDBRANCH   1  19
TORSDOF 7
ENDMDL
MODEL 5
REMARK VINA RESULT: -7.121507851      2.852      7.207
REMARK  7 active torsions:
REMARK  status: ('A' for Active; 'I' for Inactive)
REMARK    1  A    between atoms: C2_2  and  C4_4 
REMARK    2  A    between atoms: C4_4  and  O1_5 
REMARK    3  A    between atoms: O1_5  and  C5_6 
REMARK       I    between atoms: C5_6  and  N1_8 
REMARK    4  A    between atoms: C8_11  and  O3_12 
REMARK    5  A    between atoms: C9_14  and  N2_15 
REMARK       I    between atoms: N2_15  and  C10_16 
REMARK    6  A    between atoms: C10_16  and  O5_18 
REMARK    7  A    between atoms: O5_18  and  C11_19 
ROOT
HETATM    1  C5  UNL     1      -1.510   1.046  85.186  1.00  0.00     0.362 C 
HETATM    2  O2  UNL     1      -1.896  -0.113  85.463  1.00  0.00    -0.238 OA
HETATM    3  N1  UNL     1      -0.987   1.385  83.918  1.00  0.00    -0.325 N 
HETATM    4  C6  UNL     1      -0.810   0.322  82.944  1.00  0.00     0.131 C 
HETATM    5  C7  UNL     1      -1.632   0.667  81.742  1.00  0.00     0.055 C 
HETATM    6  C8  UNL     1      -2.169   2.066  81.819  1.00  0.00     0.157 C 
HETATM    7  C9  UNL     1      -1.062   3.091  82.132  1.00  0.00     0.216 C 
HETATM    8  C15 UNL     1      -0.645   2.752  83.557  1.00  0.00     0.170 C 
ENDROOT
BRANCH   7   9
HETATM    9  N2  UNL     1      -0.005   3.226  81.297  1.00  0.00    -0.381 NA
HETATM   10  C10 UNL     1       1.075   3.363  80.447  1.00  0.00     0.435 C 
HETATM   11  O4  UNL     1       2.257   3.025  80.684  1.00  0.00    -0.221 OA
BRANCH  10  12
HETATM   12  O5  UNL     1       0.931   3.925  79.156  1.00  0.00    -0.283 OA
BRANCH  12  13
HETATM   13  C11 UNL     1       0.737   5.255  78.850  1.00  0.00     0.062 C 
HETATM   14  C12 UNL     1      -0.746   5.640  78.802  1.00  0.00     0.046 C 
HETATM   15  C13 UNL     1       1.254   5.517  77.436  1.00  0.00     0.046 C 
HETATM   16  C14 UNL     1       1.420   6.203  79.781  1.00  0.00     0.046 C 
ENDBRANCH  12  13
ENDBRANCH  10  12
ENDBRANCH   7   9
BRANCH   6  17
HETATM   17  O3  UNL     1      -2.861   2.418  80.682  1.00  0.00    -0.392 OA
ATOM     18  H3  UNL     1      -2.452   3.144  80.225  1.00  0.00     0.210 HD
ENDBRANCH   6  17
BRANCH   1  19
HETATM   19  O1  UNL     1      -1.611   2.017  86.195  1.00  0.00    -0.304 OA
BRANCH  19  20
HETATM   20  C4  UNL     1      -2.315   1.764  87.393  1.00  0.00     0.184 C 
BRANCH  20  21
HETATM   21  C2  UNL     1      -3.664   2.433  87.303  1.00  0.00     0.002 C 
HETATM   22  C1  UNL     1      -4.717   1.441  86.931  1.00  0.00     0.011 C 
HETATM   23  C3  UNL     1      -3.541   3.555  86.276  1.00  0.00     0.011 C 
ENDBRANCH  20  21
ENDBRANCH  19  20
ENDBRANCH   1  19
TORSDOF 7
ENDMDL
