MODEL 1
REMARK VINA RESULT: -7.386846508      0.000      0.000
REMARK  4 active torsions:
REMARK  status: ('A' for Active; 'I' for Inactive)
REMARK    1  A    between atoms: C2_2  and  N1_4 
REMARK    2  A    between atoms: C5_8  and  O1_9 
REMARK    3  A    between atoms: C8_13  and  C9_14 
REMARK       I    between atoms: C9_14  and  N3_16 
REMARK    4  A    between atoms: N3_16  and  C11_18 
ROOT
HETATM    1  N1  UNL     1      -0.665   0.927  82.199  1.00  0.00    -0.276 N 
HETATM    2  N2  UNL     1      -1.460   0.540  83.261  1.00  0.00    -0.302 N 
ATOM      3  H2  UNL     1      -2.074  -0.274  83.228  1.00  0.00     0.186 HD
HETATM    4  C4  UNL     1      -1.356   1.290  84.285  1.00  0.00     0.044 A 
HETATM    5  C5  UNL     1      -2.022   1.228  85.607  1.00  0.00     0.166 C 
HETATM    6  C6  UNL     1      -2.706   2.570  85.792  1.00  0.00     0.039 C 
HETATM    7  C7  UNL     1      -1.723   3.686  85.535  1.00  0.00     0.018 C 
HETATM    8  C8  UNL     1      -1.100   3.671  84.185  1.00  0.00     0.095 C 
HETATM    9  C16 UNL     1      -0.378   2.354  83.987  1.00  0.00     0.117 A 
HETATM   10  C17 UNL     1       0.048   2.095  82.609  1.00  0.00     0.103 A 
HETATM   11  N4  UNL     1       0.866   2.692  81.820  1.00  0.00    -0.387 N 
ATOM     12  H41 UNL     1       1.375   3.526  82.112  1.00  0.00     0.157 HD
ATOM     13  H42 UNL     1       1.163   2.512  80.861  1.00  0.00     0.157 HD
ENDROOT
BRANCH   8  14
HETATM   14  C9  UNL     1      -0.174   4.818  84.064  1.00  0.00     0.225 C 
HETATM   15  O2  UNL     1       1.032   4.660  84.468  1.00  0.00    -0.273 OA
HETATM   16  N3  UNL     1      -0.526   6.058  83.543  1.00  0.00    -0.351 N 
HETATM   17  C10 UNL     1      -1.897   6.252  83.050  1.00  0.00     0.153 C 
BRANCH  16  18
HETATM   18  C11 UNL     1       0.335   7.201  83.435  1.00  0.00     0.086 C 
HETATM   19  C12 UNL     1       0.377   8.066  84.679  1.00  0.00     0.025 C 
HETATM   20  C13 UNL     1       1.317   9.171  84.168  1.00  0.00     0.002 C 
HETATM   21  C14 UNL     1       1.000   9.296  82.678  1.00  0.00     0.002 C 
HETATM   22  C15 UNL     1      -0.043   8.203  82.392  1.00  0.00     0.025 C 
ENDBRANCH  16  18
ENDBRANCH   8  14
BRANCH   5  23
HETATM   23  O1  UNL     1      -1.069   1.047  86.591  1.00  0.00    -0.390 OA
ATOM     24  H1  UNL     1      -1.235   1.650  87.306  1.00  0.00     0.210 HD
ENDBRANCH   5  23
BRANCH   1  25
HETATM   25  C2  UNL     1      -0.597   0.246  80.918  1.00  0.00     0.101 C 
HETATM   26  C1  UNL     1      -1.934   0.237  80.217  1.00  0.00     0.034 C 
HETATM   27  C3  UNL     1      -0.179  -1.194  81.119  1.00  0.00     0.034 C 
ENDBRANCH   1  25
TORSDOF 4
ENDMDL
MODEL 2
REMARK VINA RESULT: -7.105931263      2.399      4.160
REMARK  4 active torsions:
REMARK  status: ('A' for Active; 'I' for Inactive)
REMARK    1  A    between atoms: C2_2  and  N1_4 
REMARK    2  A    between atoms: C5_8  and  O1_9 
REMARK    3  A    between atoms: C8_13  and  C9_14 
REMARK       I    between atoms: C9_14  and  N3_16 
REMARK    4  A    between atoms: N3_16  and  C11_18 
ROOT
HETATM    1  N1  UNL     1      -2.184   2.289  85.076  1.00  0.00    -0.276 N 
HETATM    2  N2  UNL     1      -1.574   1.188  84.505  1.00  0.00    -0.302 N 
ATOM      3  H2  UNL     1      -1.293   0.367  85.042  1.00  0.00     0.186 HD
HETATM    4  C4  UNL     1      -1.396   1.290  83.248  1.00  0.00     0.044 A 
HETATM    5  C5  UNL     1      -0.789   0.355  82.273  1.00  0.00     0.166 C 
HETATM    6  C6  UNL     1       0.332   1.125  81.599  1.00  0.00     0.039 C 
HETATM    7  C7  UNL     1      -0.187   2.450  81.096  1.00  0.00     0.018 C 
HETATM    8  C8  UNL     1      -0.783   3.325  82.140  1.00  0.00     0.095 C 
HETATM    9  C16 UNL     1      -1.930   2.593  82.805  1.00  0.00     0.117 A 
HETATM   10  C17 UNL     1      -2.428   3.228  84.029  1.00  0.00     0.103 A 
HETATM   11  N4  UNL     1      -2.983   4.363  84.261  1.00  0.00    -0.387 N 
ATOM     12  H41 UNL     1      -3.158   5.033  83.513  1.00  0.00     0.157 HD
ATOM     13  H42 UNL     1      -3.330   4.804  85.112  1.00  0.00     0.157 HD
ENDROOT
BRANCH   8  14
HETATM   14  C9  UNL     1      -1.238   4.587  81.516  1.00  0.00     0.225 C 
HETATM   15  O2  UNL     1      -2.044   4.508  80.523  1.00  0.00    -0.273 OA
HETATM   16  N3  UNL     1      -0.845   5.854  81.933  1.00  0.00    -0.351 N 
HETATM   17  C10 UNL     1       0.060   5.967  83.086  1.00  0.00     0.153 C 
BRANCH  16  18
HETATM   18  C11 UNL     1      -1.241   7.098  81.337  1.00  0.00     0.086 C 
HETATM   19  C12 UNL     1      -0.399   8.285  81.758  1.00  0.00     0.025 C 
HETATM   20  C13 UNL     1      -1.143   9.389  80.990  1.00  0.00     0.002 C 
HETATM   21  C14 UNL     1      -2.607   8.946  80.988  1.00  0.00     0.002 C 
HETATM   22  C15 UNL     1      -2.615   7.574  81.681  1.00  0.00     0.025 C 
ENDBRANCH  16  18
ENDBRANCH   8  14
BRANCH   5  23
HETATM   23  O1  UNL     1      -1.738  -0.010  81.336  1.00  0.00    -0.390 OA
ATOM     24  H1  UNL     1      -1.587  -0.909  81.068  1.00  0.00     0.210 HD
ENDBRANCH   5  23
BRANCH   1  25
HETATM   25  C2  UNL     1      -2.499   2.427  86.487  1.00  0.00     0.101 C 
HETATM   26  C1  UNL     1      -2.439   1.100  87.207  1.00  0.00     0.034 C 
HETATM   27  C3  UNL     1      -3.901   2.972  86.653  1.00  0.00     0.034 C 
ENDBRANCH   1  25
TORSDOF 4
ENDMDL
MODEL 3
REMARK VINA RESULT: -6.912229892      3.527      6.086
REMARK  4 active torsions:
REMARK  status: ('A' for Active; 'I' for Inactive)
REMARK    1  A    between atoms: C2_2  and  N1_4 
REMARK    2  A    between atoms: C5_8  and  O1_9 
REMARK    3  A    between atoms: C8_13  and  C9_14 
REMARK       I    between atoms: C9_14  and  N3_16 
REMARK    4  A    between atoms: N3_16  and  C11_18 
ROOT
HETATM    1  N1  UNL     1       2.469   4.270  80.026  1.00  0.00    -0.276 N 
HETATM    2  N2  UNL     1       1.880   5.159  79.147  1.00  0.00    -0.302 N 
ATOM      3  H2  UNL     1       2.417   5.767  78.529  1.00  0.00     0.186 HD
HETATM    4  C4  UNL     1       0.607   5.152  79.179  1.00  0.00     0.044 A 
HETATM    5  C5  UNL     1      -0.389   5.937  78.414  1.00  0.00     0.166 C 
HETATM    6  C6  UNL     1      -1.252   6.637  79.449  1.00  0.00     0.039 C 
HETATM    7  C7  UNL     1      -1.751   5.635  80.462  1.00  0.00     0.018 C 
HETATM    8  C8  UNL     1      -0.684   4.889  81.181  1.00  0.00     0.095 C 
HETATM    9  C16 UNL     1       0.171   4.151  80.172  1.00  0.00     0.117 A 
HETATM   10  C17 UNL     1       1.414   3.599  80.717  1.00  0.00     0.103 A 
HETATM   11  N4  UNL     1       1.658   2.711  81.613  1.00  0.00    -0.387 N 
ATOM     12  H41 UNL     1       0.905   2.232  82.107  1.00  0.00     0.157 HD
ATOM     13  H42 UNL     1       2.523   2.326  81.992  1.00  0.00     0.157 HD
ENDROOT
BRANCH   8  14
HETATM   14  C9  UNL     1      -1.308   3.956  82.144  1.00  0.00     0.225 C 
HETATM   15  O2  UNL     1      -2.124   3.079  81.688  1.00  0.00    -0.273 OA
HETATM   16  N3  UNL     1      -1.072   3.970  83.515  1.00  0.00    -0.351 N 
HETATM   17  C10 UNL     1      -0.120   4.952  84.055  1.00  0.00     0.153 C 
BRANCH  16  18
HETATM   18  C11 UNL     1      -1.678   3.101  84.483  1.00  0.00     0.086 C 
HETATM   19  C12 UNL     1      -2.867   3.707  85.202  1.00  0.00     0.025 C 
HETATM   20  C13 UNL     1      -3.185   2.544  86.157  1.00  0.00     0.002 C 
HETATM   21  C14 UNL     1      -1.826   1.922  86.481  1.00  0.00     0.002 C 
HETATM   22  C15 UNL     1      -0.809   2.704  85.632  1.00  0.00     0.025 C 
ENDBRANCH  16  18
ENDBRANCH   8  14
BRANCH   5  23
HETATM   23  O1  UNL     1      -1.166   5.079  77.658  1.00  0.00    -0.390 OA
ATOM     24  H1  UNL     1      -1.273   5.438  76.785  1.00  0.00     0.210 HD
ENDBRANCH   5  23
BRANCH   1  25
HETATM   25  C2  UNL     1       3.900   4.082  80.187  1.00  0.00     0.101 C 
HETATM   26  C1  UNL     1       4.473   5.016  81.227  1.00  0.00     0.034 C 
HETATM   27  C3  UNL     1       4.609   4.364  78.881  1.00  0.00     0.034 C 
ENDBRANCH   1  25
TORSDOF 4
ENDMDL
MODEL 4
REMARK VINA RESULT: -6.904768648      2.598      5.868
REMARK  4 active torsions:
REMARK  status: ('A' for Active; 'I' for Inactive)
REMARK    1  A    between atoms: C2_2  and  N1_4 
REMARK    2  A    between atoms: C5_8  and  O1_9 
REMARK    3  A    between atoms: C8_13  and  C9_14 
REMARK       I    between atoms: C9_14  and  N3_16 
REMARK    4  A    between atoms: N3_16  and  C11_18 
ROOT
HETATM    1  N1  UNL     1       1.331   4.433  81.269  1.00  0.00    -0.276 N 
HETATM    2  N2  UNL     1       1.522   5.783  81.489  1.00  0.00    -0.302 N 
ATOM      3  H2  UNL     1       2.338   6.292  81.148  1.00  0.00     0.186 HD
HETATM    4  C4  UNL     1       0.589   6.336  82.157  1.00  0.00     0.044 A 
HETATM    5  C5  UNL     1       0.411   7.737  82.602  1.00  0.00     0.166 C 
HETATM    6  C6  UNL     1       0.248   7.678  84.110  1.00  0.00     0.039 C 
HETATM    7  C7  UNL     1      -0.815   6.669  84.471  1.00  0.00     0.018 C 
HETATM    8  C8  UNL     1      -0.558   5.288  83.982  1.00  0.00     0.095 C 
HETATM    9  C16 UNL     1      -0.427   5.314  82.473  1.00  0.00     0.117 A 
HETATM   10  C17 UNL     1       0.094   4.075  81.887  1.00  0.00     0.103 A 
HETATM   11  N4  UNL     1      -0.348   2.870  81.855  1.00  0.00    -0.387 N 
ATOM     12  H41 UNL     1      -1.231   2.614  82.297  1.00  0.00     0.157 HD
ATOM     13  H42 UNL     1       0.015   2.008  81.447  1.00  0.00     0.157 HD
ENDROOT
BRANCH   8  14
HETATM   14  C9  UNL     1      -1.664   4.406  84.413  1.00  0.00     0.225 C 
HETATM   15  O2  UNL     1      -2.844   4.671  83.989  1.00  0.00    -0.273 OA
HETATM   16  N3  UNL     1      -1.509   3.307  85.252  1.00  0.00    -0.351 N 
HETATM   17  C10 UNL     1      -0.160   2.970  85.729  1.00  0.00     0.153 C 
BRANCH  16  18
HETATM   18  C11 UNL     1      -2.559   2.445  85.714  1.00  0.00     0.086 C 
HETATM   19  C12 UNL     1      -3.636   3.152  86.512  1.00  0.00     0.025 C 
HETATM   20  C13 UNL     1      -4.508   1.935  86.865  1.00  0.00     0.002 C 
HETATM   21  C14 UNL     1      -3.520   0.779  87.018  1.00  0.00     0.002 C 
HETATM   22  C15 UNL     1      -2.145   1.370  86.665  1.00  0.00     0.025 C 
ENDBRANCH  16  18
ENDBRANCH   8  14
BRANCH   5  23
HETATM   23  O1  UNL     1      -0.733   8.259  82.026  1.00  0.00    -0.390 OA
ATOM     24  H1  UNL     1      -0.492   8.797  81.281  1.00  0.00     0.210 HD
ENDBRANCH   5  23
BRANCH   1  25
HETATM   25  C2  UNL     1       2.243   3.570  80.538  1.00  0.00     0.101 C 
HETATM   26  C1  UNL     1       3.686   3.906  80.832  1.00  0.00     0.034 C 
HETATM   27  C3  UNL     1       2.031   3.736  79.050  1.00  0.00     0.034 C 
ENDBRANCH   1  25
TORSDOF 4
ENDMDL
MODEL 5
REMARK VINA RESULT: -6.883116190      1.133      1.547
REMARK  4 active torsions:
REMARK  status: ('A' for Active; 'I' for Inactive)
REMARK    1  A    between atoms: C2_2  and  N1_4 
REMARK    2  A    between atoms: C5_8  and  O1_9 
REMARK    3  A    between atoms: C8_13  and  C9_14 
REMARK       I    between atoms: C9_14  and  N3_16 
REMARK    4  A    between atoms: N3_16  and  C11_18 
ROOT
HETATM    1  N1  UNL     1      -0.860   0.996  82.140  1.00  0.00    -0.276 N 
HETATM    2  N2  UNL     1      -1.254   0.450  83.346  1.00  0.00    -0.302 N 
ATOM      3  H2  UNL     1      -1.454  -0.543  83.468  1.00  0.00     0.186 HD
HETATM    4  C4  UNL     1      -1.345   1.298  84.292  1.00  0.00     0.044 A 
HETATM    5  C5  UNL     1      -1.729   1.131  85.713  1.00  0.00     0.166 C 
HETATM    6  C6  UNL     1      -2.893   2.077  85.944  1.00  0.00     0.039 C 
HETATM    7  C7  UNL     1      -2.536   3.459  85.454  1.00  0.00     0.018 C 
HETATM    8  C8  UNL     1      -2.160   3.535  84.017  1.00  0.00     0.095 C 
HETATM    9  C16 UNL     1      -0.975   2.626  83.767  1.00  0.00     0.117 A 
HETATM   10  C17 UNL     1      -0.673   2.396  82.350  1.00  0.00     0.103 A 
HETATM   11  N4  UNL     1      -0.312   3.176  81.396  1.00  0.00    -0.387 N 
ATOM     12  H41 UNL     1      -0.179   4.176  81.546  1.00  0.00     0.157 HD
ATOM     13  H42 UNL     1      -0.102   3.016  80.411  1.00  0.00     0.157 HD
ENDROOT
BRANCH   8  14
HETATM   14  C9  UNL     1      -1.848   4.938  83.670  1.00  0.00     0.225 C 
HETATM   15  O2  UNL     1      -2.737   5.613  83.040  1.00  0.00    -0.273 OA
HETATM   16  N3  UNL     1      -0.650   5.574  83.978  1.00  0.00    -0.351 N 
HETATM   17  C10 UNL     1       0.374   4.826  84.722  1.00  0.00     0.153 C 
BRANCH  16  18
HETATM   18  C11 UNL     1      -0.299   6.922  83.633  1.00  0.00     0.086 C 
HETATM   19  C12 UNL     1       0.232   7.085  82.224  1.00  0.00     0.025 C 
HETATM   20  C13 UNL     1       0.540   8.592  82.258  1.00  0.00     0.002 C 
HETATM   21  C14 UNL     1       0.968   8.870  83.699  1.00  0.00     0.002 C 
HETATM   22  C15 UNL     1       0.805   7.531  84.437  1.00  0.00     0.025 C 
ENDBRANCH  16  18
ENDBRANCH   8  14
BRANCH   5  23
HETATM   23  O1  UNL     1      -0.665   1.490  86.520  1.00  0.00    -0.390 OA
ATOM     24  H1  UNL     1      -0.918   2.225  87.067  1.00  0.00     0.210 HD
ENDBRANCH   5  23
BRANCH   1  25
HETATM   25  C2  UNL     1      -0.681   0.250  80.906  1.00  0.00     0.101 C 
HETATM   26  C1  UNL     1      -1.968   0.150  80.121  1.00  0.00     0.034 C 
HETATM   27  C3  UNL     1      -0.226  -1.159  81.216  1.00  0.00     0.034 C 
ENDBRANCH   1  25
TORSDOF 4
ENDMDL
