MODEL 1
REMARK VINA RESULT: -7.433373602      0.000      0.000
REMARK  3 active torsions:
REMARK  status: ('A' for Active; 'I' for Inactive)
REMARK    1  A    between atoms: C5_6  and  C6_7 
REMARK    2  A    between atoms: C6_7  and  N2_8 
REMARK    3  A    between atoms: C9_17  and  C10_18 
ROOT
HETATM    1  N2  UNL     1      -0.438   4.823  82.876  1.00  0.00    -0.338 N 
HETATM    2  C7  UNL     1       0.185   6.040  82.976  1.00  0.00     0.185 A 
HETATM    3  N3  UNL     1       1.440   5.884  82.616  1.00  0.00    -0.335 N 
ATOM      4  H3  UNL     1       2.138   6.628  82.596  1.00  0.00     0.168 HD
HETATM    5  C8  UNL     1       1.668   4.622  82.282  1.00  0.00     0.150 A 
HETATM    6  N4  UNL     1       2.562   3.719  81.810  1.00  0.00    -0.283 N 
ATOM      7  H4  UNL     1       3.536   3.921  81.589  1.00  0.00     0.188 HD
HETATM    8  N5  UNL     1       1.990   2.551  81.680  1.00  0.00    -0.300 N 
ATOM      9  H5  UNL     1       2.456   1.710  81.340  1.00  0.00     0.186 HD
HETATM   10  C9  UNL     1       0.691   2.613  82.060  1.00  0.00     0.060 A 
HETATM   11  C15 UNL     1       0.477   3.941  82.449  1.00  0.00     0.106 A 
ENDROOT
BRANCH   1  12
HETATM   12  C6  UNL     1      -1.808   4.622  83.198  1.00  0.00     0.135 C 
BRANCH  12  13
HETATM   13  C5  UNL     1      -2.223   4.210  84.550  1.00  0.00     0.005 C 
HETATM   14  C4  UNL     1      -3.568   4.546  85.050  1.00  0.00     0.008 C 
HETATM   15  C3  UNL     1      -3.559   4.365  86.586  1.00  0.00     0.031 C 
HETATM   16  C2  UNL     1      -3.868   2.927  86.866  1.00  0.00     0.271 C 
HETATM   17  N1  UNL     1      -2.662   2.156  87.103  1.00  0.00     0.084 N 
HETATM   18  C1  UNL     1      -2.994   0.766  87.103  1.00  0.00     0.309 C 
HETATM   19  C17 UNL     1      -1.583   2.525  86.247  1.00  0.00     0.272 C 
HETATM   20  C16 UNL     1      -1.972   2.712  84.800  1.00  0.00     0.036 C 
ENDBRANCH  12  13
ENDBRANCH   1  12
BRANCH  10  21
HETATM   21  C10 UNL     1      -0.252   1.471  82.128  1.00  0.00     0.043 C 
HETATM   22  C11 UNL     1      -1.477   1.703  81.251  1.00  0.00     0.038 C 
HETATM   23  C12 UNL     1      -1.758   0.623  80.267  1.00  0.00     0.233 C 
HETATM   24  N6  UNL     1      -1.689  -0.659  80.940  1.00  0.00    -0.075 N 
HETATM   25  C13 UNL     1      -0.306  -0.886  81.308  1.00  0.00     0.233 C 
ATOM     26  H62 UNL     1      -2.326  -0.726  81.733  1.00  0.00     0.277 HD
ATOM     27  H61 UNL     1      -2.082  -1.420  80.387  1.00  0.00     0.277 HD
HETATM   28  C14 UNL     1       0.498   0.358  81.337  1.00  0.00     0.038 C 
ENDBRANCH  10  21
TORSDOF 3
ENDMDL
MODEL 2
REMARK VINA RESULT: -7.315017846      1.691      4.788
REMARK  3 active torsions:
REMARK  status: ('A' for Active; 'I' for Inactive)
REMARK    1  A    between atoms: C5_6  and  C6_7 
REMARK    2  A    between atoms: C6_7  and  N2_8 
REMARK    3  A    between atoms: C9_17  and  C10_18 
ROOT
HETATM    1  N2  UNL     1      -3.033   3.510  85.357  1.00  0.00    -0.338 N 
HETATM    2  C7  UNL     1      -3.436   3.582  86.665  1.00  0.00     0.185 A 
HETATM    3  N3  UNL     1      -3.064   2.473  87.267  1.00  0.00    -0.335 N 
ATOM      4  H3  UNL     1      -3.236   2.257  88.248  1.00  0.00     0.168 HD
HETATM    5  C8  UNL     1      -2.434   1.679  86.414  1.00  0.00     0.150 A 
HETATM    6  N4  UNL     1      -1.766   0.514  86.233  1.00  0.00    -0.283 N 
ATOM      7  H4  UNL     1      -1.613  -0.191  86.954  1.00  0.00     0.188 HD
HETATM    8  N5  UNL     1      -1.347   0.426  84.998  1.00  0.00    -0.300 N 
ATOM      9  H5  UNL     1      -0.817  -0.358  84.618  1.00  0.00     0.186 HD
HETATM   10  C9  UNL     1      -1.714   1.523  84.292  1.00  0.00     0.060 A 
HETATM   11  C15 UNL     1      -2.414   2.332  85.195  1.00  0.00     0.106 A 
ENDROOT
BRANCH   1  12
HETATM   12  C6  UNL     1      -3.278   4.541  84.409  1.00  0.00     0.135 C 
BRANCH  12  13
HETATM   13  C5  UNL     1      -2.169   5.252  83.750  1.00  0.00     0.005 C 
HETATM   14  C4  UNL     1      -2.446   6.274  82.725  1.00  0.00     0.008 C 
HETATM   15  C3  UNL     1      -1.135   6.526  81.944  1.00  0.00     0.031 C 
HETATM   16  C2  UNL     1      -0.361   7.562  82.698  1.00  0.00     0.271 C 
HETATM   17  N1  UNL     1       0.653   6.963  83.546  1.00  0.00     0.084 N 
HETATM   18  C1  UNL     1       1.172   7.964  84.424  1.00  0.00     0.309 C 
HETATM   19  C17 UNL     1       0.214   5.763  84.181  1.00  0.00     0.272 C 
HETATM   20  C16 UNL     1      -1.175   5.841  84.767  1.00  0.00     0.036 C 
ENDBRANCH  12  13
ENDBRANCH   1  12
BRANCH  10  21
HETATM   21  C10 UNL     1      -1.489   1.742  82.844  1.00  0.00     0.043 C 
HETATM   22  C11 UNL     1      -0.139   2.398  82.580  1.00  0.00     0.038 C 
HETATM   23  C12 UNL     1       0.736   1.674  81.618  1.00  0.00     0.233 C 
HETATM   24  N6  UNL     1      -0.042   1.322  80.447  1.00  0.00    -0.075 N 
HETATM   25  C13 UNL     1      -1.009   0.320  80.848  1.00  0.00     0.233 C 
ATOM     26  H62 UNL     1      -0.471   2.130  79.998  1.00  0.00     0.277 HD
ATOM     27  H61 UNL     1       0.535   1.023  79.662  1.00  0.00     0.277 HD
HETATM   28  C14 UNL     1      -1.248   0.298  82.310  1.00  0.00     0.038 C 
ENDBRANCH  10  21
TORSDOF 3
ENDMDL
MODEL 3
REMARK VINA RESULT: -7.259895019      0.964      1.532
REMARK  3 active torsions:
REMARK  status: ('A' for Active; 'I' for Inactive)
REMARK    1  A    between atoms: C5_6  and  C6_7 
REMARK    2  A    between atoms: C6_7  and  N2_8 
REMARK    3  A    between atoms: C9_17  and  C10_18 
ROOT
HETATM    1  N2  UNL     1       0.416   5.271  82.935  1.00  0.00    -0.338 N 
HETATM    2  C7  UNL     1       1.194   6.399  82.903  1.00  0.00     0.185 A 
HETATM    3  N3  UNL     1       2.251   6.143  82.163  1.00  0.00    -0.335 N 
ATOM      4  H3  UNL     1       3.001   6.806  81.969  1.00  0.00     0.168 HD
HETATM    5  C8  UNL     1       2.200   4.900  81.707  1.00  0.00     0.150 A 
HETATM    6  N4  UNL     1       2.784   3.953  80.933  1.00  0.00    -0.283 N 
ATOM      7  H4  UNL     1       3.665   4.068  80.432  1.00  0.00     0.188 HD
HETATM    8  N5  UNL     1       2.052   2.870  80.924  1.00  0.00    -0.300 N 
ATOM      9  H5  UNL     1       2.280   2.018  80.412  1.00  0.00     0.186 HD
HETATM   10  C9  UNL     1       0.948   3.037  81.691  1.00  0.00     0.060 A 
HETATM   11  C15 UNL     1       1.036   4.338  82.198  1.00  0.00     0.106 A 
ENDROOT
BRANCH   1  12
HETATM   12  C6  UNL     1      -0.808   5.190  83.654  1.00  0.00     0.135 C 
BRANCH  12  13
HETATM   13  C5  UNL     1      -1.185   3.967  84.385  1.00  0.00     0.005 C 
HETATM   14  C4  UNL     1      -0.286   3.407  85.410  1.00  0.00     0.008 C 
HETATM   15  C3  UNL     1      -0.733   1.952  85.685  1.00  0.00     0.031 C 
HETATM   16  C2  UNL     1      -1.807   2.008  86.727  1.00  0.00     0.271 C 
HETATM   17  N1  UNL     1      -3.131   1.949  86.137  1.00  0.00     0.084 N 
HETATM   18  C1  UNL     1      -4.099   2.266  87.138  1.00  0.00     0.309 C 
HETATM   19  C17 UNL     1      -3.238   2.697  84.926  1.00  0.00     0.272 C 
HETATM   20  C16 UNL     1      -2.600   4.064  84.981  1.00  0.00     0.036 C 
ENDBRANCH  12  13
ENDBRANCH   1  12
BRANCH  10  21
HETATM   21  C10 UNL     1      -0.072   2.002  81.986  1.00  0.00     0.043 C 
HETATM   22  C11 UNL     1      -1.367   2.259  81.226  1.00  0.00     0.038 C 
HETATM   23  C12 UNL     1      -1.850   1.117  80.403  1.00  0.00     0.233 C 
HETATM   24  N6  UNL     1      -1.808  -0.092  81.202  1.00  0.00    -0.075 N 
HETATM   25  C13 UNL     1      -0.415  -0.411  81.441  1.00  0.00     0.233 C 
ATOM     26  H62 UNL     1      -2.352  -0.018  82.062  1.00  0.00     0.277 HD
ATOM     27  H61 UNL     1      -2.326  -0.864  80.782  1.00  0.00     0.277 HD
HETATM   28  C14 UNL     1       0.486   0.748  81.246  1.00  0.00     0.038 C 
ENDBRANCH  10  21
TORSDOF 3
ENDMDL
MODEL 4
REMARK VINA RESULT: -7.175301055      1.757      4.914
REMARK  3 active torsions:
REMARK  status: ('A' for Active; 'I' for Inactive)
REMARK    1  A    between atoms: C5_6  and  C6_7 
REMARK    2  A    between atoms: C6_7  and  N2_8 
REMARK    3  A    between atoms: C9_17  and  C10_18 
ROOT
HETATM    1  N2  UNL     1      -3.025   3.473  85.246  1.00  0.00    -0.338 N 
HETATM    2  C7  UNL     1      -3.434   3.580  86.550  1.00  0.00     0.185 A 
HETATM    3  N3  UNL     1      -3.058   2.491  87.185  1.00  0.00    -0.335 N 
ATOM      4  H3  UNL     1      -3.233   2.301  88.171  1.00  0.00     0.168 HD
HETATM    5  C8  UNL     1      -2.419   1.676  86.357  1.00  0.00     0.150 A 
HETATM    6  N4  UNL     1      -1.743   0.510  86.212  1.00  0.00    -0.283 N 
ATOM      7  H4  UNL     1      -1.590  -0.173  86.954  1.00  0.00     0.188 HD
HETATM    8  N5  UNL     1      -1.319   0.390  84.982  1.00  0.00    -0.300 N 
ATOM      9  H5  UNL     1      -0.783  -0.402  84.627  1.00  0.00     0.186 HD
HETATM   10  C9  UNL     1      -1.690   1.463  84.244  1.00  0.00     0.060 A 
HETATM   11  C15 UNL     1      -2.398   2.294  85.121  1.00  0.00     0.106 A 
ENDROOT
BRANCH   1  12
HETATM   12  C6  UNL     1      -3.273   4.475  84.269  1.00  0.00     0.135 C 
BRANCH  12  13
HETATM   13  C5  UNL     1      -2.272   5.515  83.971  1.00  0.00     0.005 C 
HETATM   14  C4  UNL     1      -0.974   5.519  84.669  1.00  0.00     0.008 C 
HETATM   15  C3  UNL     1      -0.336   6.914  84.469  1.00  0.00     0.031 C 
HETATM   16  C2  UNL     1       0.415   6.877  83.175  1.00  0.00     0.271 C 
HETATM   17  N1  UNL     1      -0.360   7.445  82.088  1.00  0.00     0.084 N 
HETATM   18  C1  UNL     1       0.290   7.148  80.851  1.00  0.00     0.309 C 
HETATM   19  C17 UNL     1      -1.744   7.102  82.148  1.00  0.00     0.272 C 
HETATM   20  C16 UNL     1      -2.012   5.650  82.460  1.00  0.00     0.036 C 
ENDBRANCH  12  13
ENDBRANCH   1  12
BRANCH  10  21
HETATM   21  C10 UNL     1      -1.460   1.643  82.791  1.00  0.00     0.043 C 
HETATM   22  C11 UNL     1      -0.142   2.358  82.517  1.00  0.00     0.038 C 
HETATM   23  C12 UNL     1       0.779   1.646  81.589  1.00  0.00     0.233 C 
HETATM   24  N6  UNL     1       0.033   1.213  80.424  1.00  0.00    -0.075 N 
HETATM   25  C13 UNL     1      -0.886   0.178  80.852  1.00  0.00     0.233 C 
ATOM     26  H62 UNL     1      -0.432   1.982  79.942  1.00  0.00     0.277 HD
ATOM     27  H61 UNL     1       0.634   0.917  79.656  1.00  0.00     0.277 HD
HETATM   28  C14 UNL     1      -1.139   0.195  82.312  1.00  0.00     0.038 C 
ENDBRANCH  10  21
TORSDOF 3
ENDMDL
MODEL 5
REMARK VINA RESULT: -7.154188261      1.687      2.285
REMARK  3 active torsions:
REMARK  status: ('A' for Active; 'I' for Inactive)
REMARK    1  A    between atoms: C5_6  and  C6_7 
REMARK    2  A    between atoms: C6_7  and  N2_8 
REMARK    3  A    between atoms: C9_17  and  C10_18 
ROOT
HETATM    1  N2  UNL     1      -0.298   5.549  83.376  1.00  0.00    -0.338 N 
HETATM    2  C7  UNL     1      -0.267   6.915  83.258  1.00  0.00     0.185 A 
HETATM    3  N3  UNL     1      -0.474   7.218  81.995  1.00  0.00    -0.335 N 
ATOM      4  H3  UNL     1      -0.502   8.166  81.621  1.00  0.00     0.168 HD
HETATM    5  C8  UNL     1      -0.642   6.115  81.280  1.00  0.00     0.150 A 
HETATM    6  N4  UNL     1      -0.916   5.585  80.063  1.00  0.00    -0.283 N 
ATOM      7  H4  UNL     1      -1.054   6.123  79.208  1.00  0.00     0.188 HD
HETATM    8  N5  UNL     1      -0.976   4.281  80.147  1.00  0.00    -0.300 N 
ATOM      9  H5  UNL     1      -1.170   3.657  79.365  1.00  0.00     0.186 HD
HETATM   10  C9  UNL     1      -0.743   3.876  81.419  1.00  0.00     0.060 A 
HETATM   11  C15 UNL     1      -0.527   5.049  82.153  1.00  0.00     0.106 A 
ENDROOT
BRANCH   1  12
HETATM   12  C6  UNL     1      -0.102   4.870  84.609  1.00  0.00     0.135 C 
BRANCH  12  13
HETATM   13  C5  UNL     1      -0.864   3.652  84.940  1.00  0.00     0.005 C 
HETATM   14  C4  UNL     1      -0.246   2.586  85.747  1.00  0.00     0.008 C 
HETATM   15  C3  UNL     1      -1.100   1.308  85.573  1.00  0.00     0.031 C 
HETATM   16  C2  UNL     1      -2.201   1.369  86.585  1.00  0.00     0.271 C 
HETATM   17  N1  UNL     1      -3.434   1.869  86.007  1.00  0.00     0.084 N 
HETATM   18  C1  UNL     1      -4.359   2.149  87.060  1.00  0.00     0.309 C 
HETATM   19  C17 UNL     1      -3.227   2.931  85.078  1.00  0.00     0.272 C 
HETATM   20  C16 UNL     1      -2.243   3.979  85.540  1.00  0.00     0.036 C 
ENDBRANCH  12  13
ENDBRANCH   1  12
BRANCH  10  21
HETATM   21  C10 UNL     1      -0.650   2.471  81.882  1.00  0.00     0.043 C 
HETATM   22  C11 UNL     1      -1.928   1.697  81.584  1.00  0.00     0.038 C 
HETATM   23  C12 UNL     1      -1.736   0.438  80.815  1.00  0.00     0.233 C 
HETATM   24  N6  UNL     1      -0.656  -0.321  81.414  1.00  0.00    -0.075 N 
HETATM   25  C13 UNL     1       0.574   0.410  81.182  1.00  0.00     0.233 C 
ATOM     26  H62 UNL     1      -0.815  -0.527  82.400  1.00  0.00     0.277 HD
ATOM     27  H61 UNL     1      -0.614  -1.283  81.081  1.00  0.00     0.277 HD
HETATM   28  C14 UNL     1       0.347   1.839  80.865  1.00  0.00     0.038 C 
ENDBRANCH  10  21
TORSDOF 3
ENDMDL
