MODEL 1
REMARK VINA RESULT: -4.812587830      0.000      0.000
REMARK  1 active torsions:
REMARK  status: ('A' for Active; 'I' for Inactive)
REMARK    1  A    between atoms: N1_2  and  C2_4 
ROOT
HETATM    1  C2  UNL     1      -4.880   1.756  14.526  1.00  0.00     0.224 A 
HETATM    2  N2  UNL     1      -5.400   2.907  14.989  1.00  0.00    -0.324 N 
ATOM      3  H2  UNL     1      -5.352   3.805  14.507  1.00  0.00     0.169 HD
HETATM    4  C3  UNL     1      -5.993   2.700  16.182  1.00  0.00     0.038 A 
HETATM    5  C4  UNL     1      -6.691   3.660  17.058  1.00  0.00     0.071 C 
HETATM    6  C5  UNL     1      -5.800   1.338  16.419  1.00  0.00     0.075 A 
HETATM    7  C6  UNL     1      -6.246   0.554  17.594  1.00  0.00     0.079 C 
HETATM    8  O1  UNL     1      -5.133   0.825  15.406  1.00  0.00    -0.282 OA
ENDROOT
BRANCH   1   9
HETATM    9  N1  UNL     1      -4.245   1.651  13.393  1.00  0.00    -0.360 N 
HETATM   10  C1  UNL     1      -4.420   0.516  12.538  1.00  0.00     0.150 C 
ATOM     11  H1  UNL     1      -3.608   2.395  13.109  1.00  0.00     0.162 HD
ENDBRANCH   1   9
TORSDOF 1
ENDMDL
MODEL 2
REMARK VINA RESULT: -4.697783524      2.397      2.749
REMARK  1 active torsions:
REMARK  status: ('A' for Active; 'I' for Inactive)
REMARK    1  A    between atoms: N1_2  and  C2_4 
ROOT
HETATM    1  C2  UNL     1      -3.273   3.342  16.236  1.00  0.00     0.224 A 
HETATM    2  N2  UNL     1      -4.326   4.145  16.473  1.00  0.00    -0.324 N 
ATOM      3  H2  UNL     1      -4.297   5.164  16.462  1.00  0.00     0.169 HD
HETATM    4  C3  UNL     1      -5.424   3.405  16.725  1.00  0.00     0.038 A 
HETATM    5  C4  UNL     1      -6.797   3.846  17.036  1.00  0.00     0.071 C 
HETATM    6  C5  UNL     1      -4.970   2.089  16.627  1.00  0.00     0.075 A 
HETATM    7  C6  UNL     1      -5.756   0.846  16.811  1.00  0.00     0.079 C 
HETATM    8  O1  UNL     1      -3.686   2.108  16.335  1.00  0.00    -0.282 OA
ENDROOT
BRANCH   1   9
HETATM    9  N1  UNL     1      -2.076   3.778  15.962  1.00  0.00    -0.360 N 
HETATM   10  C1  UNL     1      -1.859   4.828  15.012  1.00  0.00     0.150 C 
ATOM     11  H1  UNL     1      -1.274   3.361  16.435  1.00  0.00     0.162 HD
ENDBRANCH   1   9
TORSDOF 1
ENDMDL
MODEL 3
REMARK VINA RESULT: -4.583448127      1.066      1.066
REMARK  1 active torsions:
REMARK  status: ('A' for Active; 'I' for Inactive)
REMARK    1  A    between atoms: N1_2  and  C2_4 
ROOT
HETATM    1  C2  UNL     1      -4.515   1.164  14.011  1.00  0.00     0.224 A 
HETATM    2  N2  UNL     1      -4.452   2.461  14.361  1.00  0.00    -0.324 N 
ATOM      3  H2  UNL     1      -4.089   3.208  13.769  1.00  0.00     0.169 HD
HETATM    4  C3  UNL     1      -4.937   2.628  15.607  1.00  0.00     0.038 A 
HETATM    5  C4  UNL     1      -5.065   3.865  16.402  1.00  0.00     0.071 C 
HETATM    6  C5  UNL     1      -5.304   1.340  15.999  1.00  0.00     0.075 A 
HETATM    7  C6  UNL     1      -5.899   0.923  17.290  1.00  0.00     0.079 C 
HETATM    8  O1  UNL     1      -5.032   0.508  15.015  1.00  0.00    -0.282 OA
ENDROOT
BRANCH   1   9
HETATM    9  N1  UNL     1      -4.117   0.703  12.860  1.00  0.00    -0.360 N 
HETATM   10  C1  UNL     1      -4.830   0.986  11.650  1.00  0.00     0.150 C 
ATOM     11  H1  UNL     1      -3.277   0.126  12.818  1.00  0.00     0.162 HD
ENDBRANCH   1   9
TORSDOF 1
ENDMDL
MODEL 4
REMARK VINA RESULT: -4.571969495      3.036      3.702
REMARK  1 active torsions:
REMARK  status: ('A' for Active; 'I' for Inactive)
REMARK    1  A    between atoms: N1_2  and  C2_4 
ROOT
HETATM    1  C2  UNL     1      -2.818   3.889  16.537  1.00  0.00     0.224 A 
HETATM    2  N2  UNL     1      -4.010   4.502  16.652  1.00  0.00    -0.324 N 
ATOM      3  H2  UNL     1      -4.140   5.496  16.838  1.00  0.00     0.169 HD
HETATM    4  C3  UNL     1      -5.007   3.610  16.484  1.00  0.00     0.038 A 
HETATM    5  C4  UNL     1      -6.466   3.822  16.523  1.00  0.00     0.071 C 
HETATM    6  C5  UNL     1      -4.342   2.404  16.257  1.00  0.00     0.075 A 
HETATM    7  C6  UNL     1      -4.944   1.073  16.008  1.00  0.00     0.079 C 
HETATM    8  O1  UNL     1      -3.045   2.625  16.300  1.00  0.00    -0.282 OA
ENDROOT
BRANCH   1   9
HETATM    9  N1  UNL     1      -1.674   4.501  16.653  1.00  0.00    -0.360 N 
HETATM   10  C1  UNL     1      -1.505   5.616  17.536  1.00  0.00     0.150 C 
ATOM     11  H1  UNL     1      -0.880   4.178  16.101  1.00  0.00     0.162 HD
ENDBRANCH   1   9
TORSDOF 1
ENDMDL
MODEL 5
REMARK VINA RESULT: -4.555610973      2.543      3.295
REMARK  1 active torsions:
REMARK  status: ('A' for Active; 'I' for Inactive)
REMARK    1  A    between atoms: N1_2  and  C2_4 
ROOT
HETATM    1  C2  UNL     1      -3.411   3.478  16.154  1.00  0.00     0.224 A 
HETATM    2  N2  UNL     1      -3.832   2.202  16.209  1.00  0.00    -0.324 N 
ATOM      3  H2  UNL     1      -3.255   1.387  16.003  1.00  0.00     0.169 HD
HETATM    4  C3  UNL     1      -5.129   2.158  16.575  1.00  0.00     0.038 A 
HETATM    5  C4  UNL     1      -6.008   0.988  16.764  1.00  0.00     0.071 C 
HETATM    6  C5  UNL     1      -5.475   3.500  16.741  1.00  0.00     0.075 A 
HETATM    7  C6  UNL     1      -6.791   4.051  17.142  1.00  0.00     0.079 C 
HETATM    8  O1  UNL     1      -4.419   4.241  16.479  1.00  0.00    -0.282 OA
ENDROOT
BRANCH   1   9
HETATM    9  N1  UNL     1      -2.199   3.828  15.829  1.00  0.00    -0.360 N 
HETATM   10  C1  UNL     1      -1.948   4.889  14.900  1.00  0.00     0.150 C 
ATOM     11  H1  UNL     1      -1.410   3.334  16.244  1.00  0.00     0.162 HD
ENDBRANCH   1   9
TORSDOF 1
ENDMDL
