MODEL 1
REMARK VINA RESULT: -5.760391975      0.000      0.000
REMARK  0 active torsions:
REMARK  status: ('A' for Active; 'I' for Inactive)
ROOT
HETATM    1  C1  UNL     1      -4.352   3.687  12.944  1.00  0.00     0.089 C 
HETATM    2  C2  UNL     1      -4.823   2.926  14.148  1.00  0.00     0.080 A 
HETATM    3  N1  UNL     1      -4.508   1.631  14.326  1.00  0.00    -0.313 N 
ATOM      4  H1  UNL     1      -3.935   1.169  13.619  1.00  0.00     0.170 HD
HETATM    5  C3  UNL     1      -4.913   0.917  15.392  1.00  0.00     0.254 A 
HETATM    6  O1  UNL     1      -4.610  -0.301  15.549  1.00  0.00    -0.268 OA
HETATM    7  C4  UNL     1      -5.689   1.507  16.369  1.00  0.00     0.028 A 
HETATM    8  C5  UNL     1      -6.161   0.755  17.569  1.00  0.00     0.056 C 
HETATM    9  C6  UNL     1      -6.004   2.835  16.173  1.00  0.00     0.018 A 
HETATM   10  C7  UNL     1      -6.844   3.494  17.219  1.00  0.00     0.069 C 
HETATM   11  N2  UNL     1      -5.578   3.514  15.092  1.00  0.00    -0.349 N 
ATOM     12  H2  UNL     1      -5.834   4.495  14.987  1.00  0.00     0.167 HD
ENDROOT
TORSDOF 0
ENDMDL
MODEL 2
REMARK VINA RESULT: -5.717906346      1.552      1.560
REMARK  0 active torsions:
REMARK  status: ('A' for Active; 'I' for Inactive)
ROOT
HETATM    1  C1  UNL     1      -2.710   4.272  15.554  1.00  0.00     0.089 C 
HETATM    2  C2  UNL     1      -3.874   3.433  15.993  1.00  0.00     0.080 A 
HETATM    3  N1  UNL     1      -3.938   2.121  15.708  1.00  0.00    -0.313 N 
ATOM      4  H1  UNL     1      -3.172   1.699  15.181  1.00  0.00     0.170 HD
HETATM    5  C3  UNL     1      -4.965   1.337  16.084  1.00  0.00     0.254 A 
HETATM    6  O1  UNL     1      -5.015   0.103  15.811  1.00  0.00    -0.268 OA
HETATM    7  C4  UNL     1      -6.020   1.870  16.798  1.00  0.00     0.028 A 
HETATM    8  C5  UNL     1      -7.180   1.040  17.237  1.00  0.00     0.056 C 
HETATM    9  C6  UNL     1      -5.940   3.217  17.082  1.00  0.00     0.018 A 
HETATM   10  C7  UNL     1      -7.072   3.815  17.854  1.00  0.00     0.069 C 
HETATM   11  N2  UNL     1      -4.894   3.965  16.687  1.00  0.00    -0.349 N 
ATOM     12  H2  UNL     1      -4.875   4.958  16.920  1.00  0.00     0.167 HD
ENDROOT
TORSDOF 0
ENDMDL
MODEL 3
REMARK VINA RESULT: -5.448354810      1.053      1.053
REMARK  0 active torsions:
REMARK  status: ('A' for Active; 'I' for Inactive)
ROOT
HETATM    1  C1  UNL     1      -4.124   2.289  12.403  1.00  0.00     0.089 C 
HETATM    2  C2  UNL     1      -4.687   2.268  13.793  1.00  0.00     0.080 A 
HETATM    3  N1  UNL     1      -4.597   1.174  14.569  1.00  0.00    -0.313 N 
ATOM      4  H1  UNL     1      -4.133   0.347  14.192  1.00  0.00     0.170 HD
HETATM    5  C3  UNL     1      -5.092   1.118  15.819  1.00  0.00     0.254 A 
HETATM    6  O1  UNL     1      -5.001   0.083  16.540  1.00  0.00    -0.268 OA
HETATM    7  C4  UNL     1      -5.726   2.215  16.365  1.00  0.00     0.028 A 
HETATM    8  C5  UNL     1      -6.290   2.201  17.747  1.00  0.00     0.056 C 
HETATM    9  C6  UNL     1      -5.812   3.330  15.557  1.00  0.00     0.018 A 
HETATM   10  C7  UNL     1      -6.496   4.530  16.127  1.00  0.00     0.069 C 
HETATM   11  N2  UNL     1      -5.304   3.344  14.311  1.00  0.00    -0.349 N 
ATOM     12  H2  UNL     1      -5.388   4.190  13.748  1.00  0.00     0.167 HD
ENDROOT
TORSDOF 0
ENDMDL
MODEL 4
REMARK VINA RESULT: -5.248481292      2.095      3.410
REMARK  0 active torsions:
REMARK  status: ('A' for Active; 'I' for Inactive)
ROOT
HETATM    1  C1  UNL     1      -7.530   1.201  17.172  1.00  0.00     0.089 C 
HETATM    2  C2  UNL     1      -6.474   2.111  16.617  1.00  0.00     0.080 A 
HETATM    3  N1  UNL     1      -5.167   1.859  16.797  1.00  0.00    -0.313 N 
ATOM      4  H1  UNL     1      -4.900   1.027  17.325  1.00  0.00     0.170 HD
HETATM    5  C3  UNL     1      -4.192   2.652  16.315  1.00  0.00     0.254 A 
HETATM    6  O1  UNL     1      -2.965   2.404  16.491  1.00  0.00    -0.268 OA
HETATM    7  C4  UNL     1      -4.512   3.786  15.597  1.00  0.00     0.028 A 
HETATM    8  C5  UNL     1      -3.467   4.696  15.043  1.00  0.00     0.056 C 
HETATM    9  C6  UNL     1      -5.858   4.033  15.421  1.00  0.00     0.018 A 
HETATM   10  C7  UNL     1      -6.228   5.257  14.647  1.00  0.00     0.069 C 
HETATM   11  N2  UNL     1      -6.801   3.213  15.920  1.00  0.00    -0.349 N 
ATOM     12  H2  UNL     1      -7.785   3.432  15.765  1.00  0.00     0.167 HD
ENDROOT
TORSDOF 0
ENDMDL
MODEL 5
REMARK VINA RESULT: -5.143034534      2.975      3.189
REMARK  0 active torsions:
REMARK  status: ('A' for Active; 'I' for Inactive)
ROOT
HETATM    1  C1  UNL     1      -1.340   5.526  17.217  1.00  0.00     0.089 C 
HETATM    2  C2  UNL     1      -2.562   4.773  16.780  1.00  0.00     0.080 A 
HETATM    3  N1  UNL     1      -2.559   3.433  16.674  1.00  0.00    -0.313 N 
ATOM      4  H1  UNL     1      -1.700   2.929  16.898  1.00  0.00     0.170 HD
HETATM    5  C3  UNL     1      -3.634   2.724  16.285  1.00  0.00     0.254 A 
HETATM    6  O1  UNL     1      -3.620   1.463  16.189  1.00  0.00    -0.268 OA
HETATM    7  C4  UNL     1      -4.814   3.368  15.972  1.00  0.00     0.028 A 
HETATM    8  C5  UNL     1      -6.033   2.626  15.536  1.00  0.00     0.056 C 
HETATM    9  C6  UNL     1      -4.803   4.743  16.085  1.00  0.00     0.018 A 
HETATM   10  C7  UNL     1      -6.070   5.462  15.751  1.00  0.00     0.069 C 
HETATM   11  N2  UNL     1      -3.704   5.414  16.478  1.00  0.00    -0.349 N 
ATOM     12  H2  UNL     1      -3.740   6.430  16.550  1.00  0.00     0.167 HD
ENDROOT
TORSDOF 0
ENDMDL
