MODEL 1
REMARK VINA RESULT: -5.032647655      0.000      0.000
REMARK  2 active torsions:
REMARK  status: ('A' for Active; 'I' for Inactive)
REMARK       I    between atoms: N1_2  and  C2_4 
REMARK    1  A    between atoms: C2_4  and  O2_6 
REMARK    2  A    between atoms: O2_6  and  C3_7 
ROOT
HETATM    1  C1  UNL     1      -4.439   1.129  13.258  1.00  0.00     0.151 C 
HETATM    2  N1  UNL     1      -4.691   1.766  14.527  1.00  0.00    -0.341 N 
ATOM      3  H1  UNL     1      -4.733   2.782  14.592  1.00  0.00     0.164 HD
HETATM    4  C2  UNL     1      -4.879   0.975  15.673  1.00  0.00     0.360 C 
HETATM    5  O1  UNL     1      -4.844  -0.283  15.682  1.00  0.00    -0.239 OA
ENDROOT
BRANCH   4   6
HETATM    6  O2  UNL     1      -5.120   1.613  16.876  1.00  0.00    -0.294 OA
BRANCH   6   7
HETATM    7  C3  UNL     1      -6.355   2.118  17.286  1.00  0.00     0.061 C 
HETATM    8  C4  UNL     1      -6.308   2.217  18.817  1.00  0.00     0.046 C 
HETATM    9  C5  UNL     1      -6.599   3.545  16.799  1.00  0.00     0.046 C 
HETATM   10  C6  UNL     1      -7.513   1.230  16.953  1.00  0.00     0.046 C 
ENDBRANCH   6   7
ENDBRANCH   4   6
TORSDOF 2
ENDMDL
MODEL 2
REMARK VINA RESULT: -4.878744337      0.078      1.421
REMARK  2 active torsions:
REMARK  status: ('A' for Active; 'I' for Inactive)
REMARK       I    between atoms: N1_2  and  C2_4 
REMARK    1  A    between atoms: C2_4  and  O2_6 
REMARK    2  A    between atoms: O2_6  and  C3_7 
ROOT
HETATM    1  C1  UNL     1      -4.470   1.120  13.269  1.00  0.00     0.151 C 
HETATM    2  N1  UNL     1      -4.686   1.771  14.536  1.00  0.00    -0.341 N 
ATOM      3  H1  UNL     1      -4.708   2.789  14.594  1.00  0.00     0.164 HD
HETATM    4  C2  UNL     1      -4.867   0.993  15.692  1.00  0.00     0.360 C 
HETATM    5  O1  UNL     1      -4.854  -0.265  15.711  1.00  0.00    -0.239 OA
ENDROOT
BRANCH   4   6
HETATM    6  O2  UNL     1      -5.072   1.646  16.895  1.00  0.00    -0.294 OA
BRANCH   6   7
HETATM    7  C3  UNL     1      -6.303   2.118  17.354  1.00  0.00     0.061 C 
HETATM    8  C4  UNL     1      -6.517   3.496  16.713  1.00  0.00     0.046 C 
HETATM    9  C5  UNL     1      -7.476   1.266  16.875  1.00  0.00     0.046 C 
HETATM   10  C6  UNL     1      -6.357   2.325  18.835  1.00  0.00     0.046 C 
ENDBRANCH   6   7
ENDBRANCH   4   6
TORSDOF 2
ENDMDL
MODEL 3
REMARK VINA RESULT: -4.875832556      0.108      1.394
REMARK  2 active torsions:
REMARK  status: ('A' for Active; 'I' for Inactive)
REMARK       I    between atoms: N1_2  and  C2_4 
REMARK    1  A    between atoms: C2_4  and  O2_6 
REMARK    2  A    between atoms: O2_6  and  C3_7 
ROOT
HETATM    1  C1  UNL     1      -4.494   1.251  13.248  1.00  0.00     0.151 C 
HETATM    2  N1  UNL     1      -4.719   1.828  14.549  1.00  0.00    -0.341 N 
ATOM      3  H1  UNL     1      -4.769   2.840  14.660  1.00  0.00     0.164 HD
HETATM    4  C2  UNL     1      -4.869   0.986  15.663  1.00  0.00     0.360 C 
HETATM    5  O1  UNL     1      -4.821  -0.271  15.616  1.00  0.00    -0.239 OA
ENDROOT
BRANCH   4   6
HETATM    6  O2  UNL     1      -5.085   1.568  16.900  1.00  0.00    -0.294 OA
BRANCH   6   7
HETATM    7  C3  UNL     1      -6.277   2.165  17.311  1.00  0.00     0.061 C 
HETATM    8  C4  UNL     1      -7.410   1.201  16.934  1.00  0.00     0.046 C 
HETATM    9  C5  UNL     1      -6.368   2.316  18.828  1.00  0.00     0.046 C 
HETATM   10  C6  UNL     1      -6.574   3.461  16.623  1.00  0.00     0.046 C 
ENDBRANCH   6   7
ENDBRANCH   4   6
TORSDOF 2
ENDMDL
MODEL 4
REMARK VINA RESULT: -4.575254527      2.273      3.581
REMARK  2 active torsions:
REMARK  status: ('A' for Active; 'I' for Inactive)
REMARK       I    between atoms: N1_2  and  C2_4 
REMARK    1  A    between atoms: C2_4  and  O2_6 
REMARK    2  A    between atoms: O2_6  and  C3_7 
ROOT
HETATM    1  C1  UNL     1      -6.197   0.530  17.645  1.00  0.00     0.151 C 
HETATM    2  N1  UNL     1      -5.986   1.374  16.495  1.00  0.00    -0.341 N 
ATOM      3  H1  UNL     1      -6.698   2.048  16.216  1.00  0.00     0.164 HD
HETATM    4  C2  UNL     1      -4.793   1.260  15.762  1.00  0.00     0.360 C 
HETATM    5  O1  UNL     1      -3.865   0.456  16.036  1.00  0.00    -0.239 OA
ENDROOT
BRANCH   4   6
HETATM    6  O2  UNL     1      -4.619   2.084  14.664  1.00  0.00    -0.294 OA
BRANCH   6   7
HETATM    7  C3  UNL     1      -4.456   3.469  14.715  1.00  0.00     0.061 C 
HETATM    8  C4  UNL     1      -3.731   3.878  13.426  1.00  0.00     0.046 C 
HETATM    9  C5  UNL     1      -5.785   4.220  14.684  1.00  0.00     0.046 C 
HETATM   10  C6  UNL     1      -3.600   3.936  15.851  1.00  0.00     0.046 C 
ENDBRANCH   6   7
ENDBRANCH   4   6
TORSDOF 2
ENDMDL
MODEL 5
REMARK VINA RESULT: -4.492514469      2.137      3.699
REMARK  2 active torsions:
REMARK  status: ('A' for Active; 'I' for Inactive)
REMARK       I    between atoms: N1_2  and  C2_4 
REMARK    1  A    between atoms: C2_4  and  O2_6 
REMARK    2  A    between atoms: O2_6  and  C3_7 
ROOT
HETATM    1  C1  UNL     1      -6.355   0.733  17.512  1.00  0.00     0.151 C 
HETATM    2  N1  UNL     1      -5.758   1.862  16.846  1.00  0.00    -0.341 N 
ATOM      3  H1  UNL     1      -6.211   2.775  16.876  1.00  0.00     0.164 HD
HETATM    4  C2  UNL     1      -4.546   1.697  16.155  1.00  0.00     0.360 C 
HETATM    5  O1  UNL     1      -3.921   0.608  16.067  1.00  0.00    -0.239 OA
ENDROOT
BRANCH   4   6
HETATM    6  O2  UNL     1      -3.995   2.799  15.525  1.00  0.00    -0.294 OA
BRANCH   6   7
HETATM    7  C3  UNL     1      -4.484   3.386  14.357  1.00  0.00     0.061 C 
HETATM    8  C4  UNL     1      -3.349   4.242  13.781  1.00  0.00     0.046 C 
HETATM    9  C5  UNL     1      -4.803   2.360  13.272  1.00  0.00     0.046 C 
HETATM   10  C6  UNL     1      -5.642   4.308  14.582  1.00  0.00     0.046 C 
ENDBRANCH   6   7
ENDBRANCH   4   6
TORSDOF 2
ENDMDL
