MODEL 1
REMARK VINA RESULT: -5.851382596      0.000      0.000
REMARK  1 active torsions:
REMARK  status: ('A' for Active; 'I' for Inactive)
REMARK    1  A    between atoms: O1_1  and  N1_3 
ROOT
HETATM    1  N1  UNL     1      -4.753   1.466  16.670  1.00  0.00    -0.190 NA
HETATM    2  C1  UNL     1      -5.891   0.773  17.192  1.00  0.00     0.121 C 
HETATM    3  C2  UNL     1      -6.729   1.648  18.096  1.00  0.00     0.017 C 
HETATM    4  C3  UNL     1      -6.864   3.054  17.592  1.00  0.00     0.003 C 
HETATM    5  C4  UNL     1      -6.395   3.225  16.176  1.00  0.00     0.027 C 
HETATM    6  C5  UNL     1      -5.052   2.627  15.905  1.00  0.00     0.038 C 
HETATM    7  C6  UNL     1      -3.887   3.577  15.871  1.00  0.00     0.027 C 
HETATM    8  C7  UNL     1      -3.976   3.677  14.376  1.00  0.00     0.004 C 
HETATM    9  C8  UNL     1      -4.873   2.461  14.389  1.00  0.00     0.027 C 
ENDROOT
BRANCH   1  10
HETATM   10  O1  UNL     1      -3.952   0.630  16.011  1.00  0.00    -0.312 OA
ATOM     11  H1  UNL     1      -4.100   0.690  15.075  1.00  0.00     0.237 HD
ENDBRANCH   1  10
TORSDOF 1
ENDMDL
MODEL 2
REMARK VINA RESULT: -5.500711437      1.453      1.742
REMARK  1 active torsions:
REMARK  status: ('A' for Active; 'I' for Inactive)
REMARK    1  A    between atoms: O1_1  and  N1_3 
ROOT
HETATM    1  N1  UNL     1      -4.746   2.322  16.204  1.00  0.00    -0.190 NA
HETATM    2  C1  UNL     1      -5.143   0.948  16.213  1.00  0.00     0.121 C 
HETATM    3  C2  UNL     1      -5.908   0.581  17.465  1.00  0.00     0.017 C 
HETATM    4  C3  UNL     1      -6.866   1.650  17.902  1.00  0.00     0.003 C 
HETATM    5  C4  UNL     1      -7.079   2.716  16.867  1.00  0.00     0.027 C 
HETATM    6  C5  UNL     1      -5.814   3.259  16.285  1.00  0.00     0.038 C 
HETATM    7  C6  UNL     1      -5.342   4.583  16.821  1.00  0.00     0.027 C 
HETATM    8  C7  UNL     1      -5.998   5.309  15.682  1.00  0.00     0.004 C 
HETATM    9  C8  UNL     1      -6.135   3.983  14.970  1.00  0.00     0.027 C 
ENDROOT
BRANCH   1  10
HETATM   10  O1  UNL     1      -3.943   2.575  15.172  1.00  0.00    -0.312 OA
ATOM     11  H1  UNL     1      -3.294   1.888  15.074  1.00  0.00     0.237 HD
ENDBRANCH   1  10
TORSDOF 1
ENDMDL
MODEL 3
REMARK VINA RESULT: -5.340786876      1.213      1.390
REMARK  1 active torsions:
REMARK  status: ('A' for Active; 'I' for Inactive)
REMARK    1  A    between atoms: O1_1  and  N1_3 
ROOT
HETATM    1  N1  UNL     1      -4.579   2.246  16.806  1.00  0.00    -0.190 NA
HETATM    2  C1  UNL     1      -5.353   1.078  16.517  1.00  0.00     0.121 C 
HETATM    3  C2  UNL     1      -6.721   1.124  17.160  1.00  0.00     0.017 C 
HETATM    4  C3  UNL     1      -7.352   2.484  17.103  1.00  0.00     0.003 C 
HETATM    5  C4  UNL     1      -6.639   3.431  16.182  1.00  0.00     0.027 C 
HETATM    6  C5  UNL     1      -5.158   3.474  16.381  1.00  0.00     0.038 C 
HETATM    7  C6  UNL     1      -4.619   4.636  17.170  1.00  0.00     0.027 C 
HETATM    8  C7  UNL     1      -4.318   5.389  15.906  1.00  0.00     0.004 C 
HETATM    9  C8  UNL     1      -4.501   4.099  15.141  1.00  0.00     0.027 C 
ENDROOT
BRANCH   1  10
HETATM   10  O1  UNL     1      -3.330   2.106  16.363  1.00  0.00    -0.312 OA
ATOM     11  H1  UNL     1      -2.966   2.947  16.113  1.00  0.00     0.237 HD
ENDBRANCH   1  10
TORSDOF 1
ENDMDL
MODEL 4
REMARK VINA RESULT: -5.281705255      2.923      4.316
REMARK  1 active torsions:
REMARK  status: ('A' for Active; 'I' for Inactive)
REMARK    1  A    between atoms: O1_1  and  N1_3 
ROOT
HETATM    1  N1  UNL     1      -2.801   4.488  16.455  1.00  0.00    -0.190 NA
HETATM    2  C1  UNL     1      -1.837   4.730  17.484  1.00  0.00     0.121 C 
HETATM    3  C2  UNL     1      -1.419   6.181  17.548  1.00  0.00     0.017 C 
HETATM    4  C3  UNL     1      -2.562   7.131  17.343  1.00  0.00     0.003 C 
HETATM    5  C4  UNL     1      -3.906   6.466  17.406  1.00  0.00     0.027 C 
HETATM    6  C5  UNL     1      -4.011   5.227  16.576  1.00  0.00     0.038 C 
HETATM    7  C6  UNL     1      -4.704   5.364  15.248  1.00  0.00     0.027 C 
HETATM    8  C7  UNL     1      -5.999   4.891  15.845  1.00  0.00     0.004 C 
HETATM    9  C8  UNL     1      -5.221   4.407  17.046  1.00  0.00     0.027 C 
ENDROOT
BRANCH   1  10
HETATM   10  O1  UNL     1      -3.029   3.183  16.318  1.00  0.00    -0.312 OA
ATOM     11  H1  UNL     1      -2.716   2.704  17.077  1.00  0.00     0.237 HD
ENDBRANCH   1  10
TORSDOF 1
ENDMDL
MODEL 5
REMARK VINA RESULT: -5.227767373      2.021      2.526
REMARK  1 active torsions:
REMARK  status: ('A' for Active; 'I' for Inactive)
REMARK    1  A    between atoms: O1_1  and  N1_3 
ROOT
HETATM    1  N1  UNL     1      -3.893   3.346  16.629  1.00  0.00    -0.190 NA
HETATM    2  C1  UNL     1      -4.653   2.324  15.976  1.00  0.00     0.121 C 
HETATM    3  C2  UNL     1      -6.059   2.220  16.519  1.00  0.00     0.017 C 
HETATM    4  C3  UNL     1      -6.678   3.556  16.809  1.00  0.00     0.003 C 
HETATM    5  C4  UNL     1      -5.902   4.706  16.238  1.00  0.00     0.027 C 
HETATM    6  C5  UNL     1      -4.437   4.657  16.533  1.00  0.00     0.038 C 
HETATM    7  C6  UNL     1      -3.946   5.538  17.649  1.00  0.00     0.027 C 
HETATM    8  C7  UNL     1      -3.559   6.609  16.670  1.00  0.00     0.004 C 
HETATM    9  C8  UNL     1      -3.697   5.590  15.562  1.00  0.00     0.027 C 
ENDROOT
BRANCH   1  10
HETATM   10  O1  UNL     1      -2.619   3.308  16.243  1.00  0.00    -0.312 OA
ATOM     11  H1  UNL     1      -2.141   2.643  16.724  1.00  0.00     0.237 HD
ENDBRANCH   1  10
TORSDOF 1
ENDMDL
