MODEL 1
REMARK VINA RESULT: -6.567176165      0.000      0.000
REMARK  0 active torsions:
REMARK  status: ('A' for Active; 'I' for Inactive)
ROOT
HETATM    1  N1  UNL     1      -4.075   1.263  12.795  1.00  0.00    -0.195 NA
HETATM    2  C1  UNL     1      -4.526   1.401  13.853  1.00  0.00     0.082 C 
HETATM    3  C2  UNL     1      -5.112   1.570  15.203  1.00  0.00     0.201 C 
HETATM    4  C3  UNL     1      -4.356   2.557  16.031  1.00  0.00     0.037 C 
HETATM    5  C4  UNL     1      -5.147   3.664  16.597  1.00  0.00     0.003 C 
HETATM    6  C5  UNL     1      -6.537   3.342  17.021  1.00  0.00     0.001 C 
HETATM    7  C6  UNL     1      -6.650   2.216  17.990  1.00  0.00     0.017 C 
HETATM    8  C7  UNL     1      -6.714   0.860  17.369  1.00  0.00     0.130 C 
HETATM    9  N2  UNL     1      -5.423   0.269  17.158  1.00  0.00    -0.147 NA
HETATM   10  N3  UNL     1      -5.021   0.268  15.832  1.00  0.00    -0.129 NA
ENDROOT
TORSDOF 0
ENDMDL
MODEL 2
REMARK VINA RESULT: -6.205279028      2.044      3.451
REMARK  0 active torsions:
REMARK  status: ('A' for Active; 'I' for Inactive)
ROOT
HETATM    1  N1  UNL     1      -5.756  -0.024  17.123  1.00  0.00    -0.195 NA
HETATM    2  C1  UNL     1      -5.405   1.031  16.797  1.00  0.00     0.082 C 
HETATM    3  C2  UNL     1      -4.951   2.382  16.393  1.00  0.00     0.201 C 
HETATM    4  C3  UNL     1      -5.454   2.770  15.042  1.00  0.00     0.037 C 
HETATM    5  C4  UNL     1      -6.192   4.044  14.970  1.00  0.00     0.003 C 
HETATM    6  C5  UNL     1      -5.720   5.138  15.861  1.00  0.00     0.001 C 
HETATM    7  C6  UNL     1      -4.279   5.487  15.716  1.00  0.00     0.017 C 
HETATM    8  C7  UNL     1      -3.348   4.657  16.537  1.00  0.00     0.130 C 
HETATM    9  N2  UNL     1      -2.910   3.464  15.870  1.00  0.00    -0.147 NA
HETATM   10  N3  UNL     1      -3.505   2.308  16.347  1.00  0.00    -0.129 NA
ENDROOT
TORSDOF 0
ENDMDL
MODEL 3
REMARK VINA RESULT: -5.922841777      2.029      2.506
REMARK  0 active torsions:
REMARK  status: ('A' for Active; 'I' for Inactive)
ROOT
HETATM    1  N1  UNL     1      -5.490   5.258  13.503  1.00  0.00    -0.195 NA
HETATM    2  C1  UNL     1      -5.503   4.401  14.281  1.00  0.00     0.082 C 
HETATM    3  C2  UNL     1      -5.517   3.295  15.268  1.00  0.00     0.201 C 
HETATM    4  C3  UNL     1      -5.821   3.771  16.650  1.00  0.00     0.037 C 
HETATM    5  C4  UNL     1      -6.950   3.108  17.326  1.00  0.00     0.003 C 
HETATM    6  C5  UNL     1      -7.135   1.658  17.049  1.00  0.00     0.001 C 
HETATM    7  C6  UNL     1      -5.939   0.812  17.318  1.00  0.00     0.017 C 
HETATM    8  C7  UNL     1      -4.967   0.723  16.188  1.00  0.00     0.130 C 
HETATM    9  N2  UNL     1      -3.975   1.760  16.207  1.00  0.00    -0.147 NA
HETATM   10  N3  UNL     1      -4.178   2.742  15.250  1.00  0.00    -0.129 NA
ENDROOT
TORSDOF 0
ENDMDL
MODEL 4
REMARK VINA RESULT: -5.831963722      1.652      3.427
REMARK  0 active torsions:
REMARK  status: ('A' for Active; 'I' for Inactive)
ROOT
HETATM    1  N1  UNL     1      -5.870  -0.107  17.533  1.00  0.00    -0.195 NA
HETATM    2  C1  UNL     1      -5.605   0.895  17.018  1.00  0.00     0.082 C 
HETATM    3  C2  UNL     1      -5.254   2.177  16.362  1.00  0.00     0.201 C 
HETATM    4  C3  UNL     1      -6.461   2.964  15.969  1.00  0.00     0.037 C 
HETATM    5  C4  UNL     1      -6.523   4.345  16.477  1.00  0.00     0.003 C 
HETATM    6  C5  UNL     1      -5.232   5.080  16.571  1.00  0.00     0.001 C 
HETATM    7  C6  UNL     1      -4.453   5.141  15.303  1.00  0.00     0.017 C 
HETATM    8  C7  UNL     1      -3.564   3.967  15.057  1.00  0.00     0.130 C 
HETATM    9  N2  UNL     1      -4.215   2.896  14.358  1.00  0.00    -0.147 NA
HETATM   10  N3  UNL     1      -4.526   1.812  15.163  1.00  0.00    -0.129 NA
ENDROOT
TORSDOF 0
ENDMDL
MODEL 5
REMARK VINA RESULT: -5.794543664      1.772      3.116
REMARK  0 active torsions:
REMARK  status: ('A' for Active; 'I' for Inactive)
ROOT
HETATM    1  N1  UNL     1      -4.175  -0.199  15.707  1.00  0.00    -0.195 NA
HETATM    2  C1  UNL     1      -4.593   0.878  15.635  1.00  0.00     0.082 C 
HETATM    3  C2  UNL     1      -5.116   2.262  15.538  1.00  0.00     0.201 C 
HETATM    4  C3  UNL     1      -6.429   2.422  16.230  1.00  0.00     0.037 C 
HETATM    5  C4  UNL     1      -6.498   3.491  17.242  1.00  0.00     0.003 C 
HETATM    6  C5  UNL     1      -5.721   4.728  16.960  1.00  0.00     0.001 C 
HETATM    7  C6  UNL     1      -6.030   5.376  15.654  1.00  0.00     0.017 C 
HETATM    8  C7  UNL     1      -5.261   4.840  14.492  1.00  0.00     0.130 C 
HETATM    9  N2  UNL     1      -5.902   3.727  13.850  1.00  0.00    -0.147 NA
HETATM   10  N3  UNL     1      -5.303   2.508  14.122  1.00  0.00    -0.129 NA
ENDROOT
TORSDOF 0
ENDMDL
