MODEL 1
REMARK VINA RESULT: -5.211912091      0.000      0.000
REMARK  0 active torsions:
REMARK  status: ('A' for Active; 'I' for Inactive)
ROOT
HETATM    1  C1  UNL     1      -2.297   4.766  16.844  1.00  0.00     0.089 C 
HETATM    2  C2  UNL     1      -3.516   3.982  16.486  1.00  0.00     0.074 A 
HETATM    3  N1  UNL     1      -4.673   4.517  16.356  1.00  0.00    -0.371 N 
ATOM      4  H1  UNL     1      -4.727   5.523  16.512  1.00  0.00     0.161 HD
HETATM    5  C3  UNL     1      -5.888   3.861  16.020  1.00  0.00     0.030 A 
HETATM    6  C4  UNL     1      -6.441   4.557  14.767  1.00  0.00     0.038 C 
HETATM    7  C5  UNL     1      -6.888   4.091  17.162  1.00  0.00     0.038 C 
HETATM    8  C6  UNL     1      -5.816   2.398  15.786  1.00  0.00     0.106 A 
HETATM    9  C7  UNL     1      -4.484   1.812  15.948  1.00  0.00     0.078 A 
HETATM   10  N2  UNL     1      -4.343   0.543  15.773  1.00  0.00    -0.389 N 
ATOM     11  H21 UNL     1      -3.415   0.135  15.886  1.00  0.00     0.157 HD
ATOM     12  H22 UNL     1      -5.161  -0.014  15.527  1.00  0.00     0.157 HD
HETATM   13  N3  UNL     1      -3.342   2.589  16.290  1.00  0.00    -0.336 N 
ATOM     14  H3  UNL     1      -2.424   2.156  16.391  1.00  0.00     0.168 HD
ENDROOT
TORSDOF 0
ENDMDL
MODEL 2
REMARK VINA RESULT: -4.920756284      1.173      2.882
REMARK  0 active torsions:
REMARK  status: ('A' for Active; 'I' for Inactive)
ROOT
HETATM    1  C1  UNL     1      -4.594   0.525  15.515  1.00  0.00     0.089 C 
HETATM    2  C2  UNL     1      -4.615   1.974  15.875  1.00  0.00     0.074 A 
HETATM    3  N1  UNL     1      -5.690   2.671  15.888  1.00  0.00    -0.371 N 
ATOM      4  H1  UNL     1      -6.550   2.184  15.636  1.00  0.00     0.161 HD
HETATM    5  C3  UNL     1      -5.815   4.048  16.215  1.00  0.00     0.030 A 
HETATM    6  C4  UNL     1      -6.830   4.147  17.363  1.00  0.00     0.038 C 
HETATM    7  C5  UNL     1      -6.411   4.776  15.001  1.00  0.00     0.038 C 
HETATM    8  C6  UNL     1      -4.570   4.763  16.589  1.00  0.00     0.106 A 
HETATM    9  C7  UNL     1      -3.356   3.945  16.559  1.00  0.00     0.078 A 
HETATM   10  N2  UNL     1      -2.232   4.497  16.860  1.00  0.00    -0.389 N 
ATOM     11  H21 UNL     1      -1.386   3.927  16.839  1.00  0.00     0.157 HD
ATOM     12  H22 UNL     1      -2.221   5.486  17.110  1.00  0.00     0.157 HD
HETATM   13  N3  UNL     1      -3.371   2.564  16.210  1.00  0.00    -0.336 N 
ATOM     14  H3  UNL     1      -2.511   2.016  16.203  1.00  0.00     0.168 HD
ENDROOT
TORSDOF 0
ENDMDL
MODEL 3
REMARK VINA RESULT: -4.869592912      2.262      3.184
REMARK  0 active torsions:
REMARK  status: ('A' for Active; 'I' for Inactive)
ROOT
HETATM    1  C1  UNL     1      -4.898   2.102  11.380  1.00  0.00     0.089 C 
HETATM    2  C2  UNL     1      -4.831   2.249  12.865  1.00  0.00     0.074 A 
HETATM    3  N1  UNL     1      -4.997   3.371  13.460  1.00  0.00    -0.371 N 
ATOM      4  H1  UNL     1      -5.180   4.178  12.864  1.00  0.00     0.161 HD
HETATM    5  C3  UNL     1      -4.953   3.614  14.859  1.00  0.00     0.030 A 
HETATM    6  C4  UNL     1      -6.293   4.259  15.245  1.00  0.00     0.038 C 
HETATM    7  C5  UNL     1      -3.845   4.641  15.132  1.00  0.00     0.038 C 
HETATM    8  C6  UNL     1      -4.694   2.444  15.734  1.00  0.00     0.106 A 
HETATM    9  C7  UNL     1      -4.501   1.176  15.027  1.00  0.00     0.078 A 
HETATM   10  N2  UNL     1      -4.260   0.116  15.717  1.00  0.00    -0.389 N 
ATOM     11  H21 UNL     1      -4.126  -0.768  15.225  1.00  0.00     0.157 HD
ATOM     12  H22 UNL     1      -4.210   0.191  16.733  1.00  0.00     0.157 HD
HETATM   13  N3  UNL     1      -4.572   1.072  13.609  1.00  0.00    -0.336 N 
ATOM     14  H3  UNL     1      -4.439   0.174  13.143  1.00  0.00     0.168 HD
ENDROOT
TORSDOF 0
ENDMDL
MODEL 4
REMARK VINA RESULT: -4.845900876      1.502      2.559
REMARK  0 active torsions:
REMARK  status: ('A' for Active; 'I' for Inactive)
ROOT
HETATM    1  C1  UNL     1      -6.770   2.377  18.500  1.00  0.00     0.089 C 
HETATM    2  C2  UNL     1      -6.080   2.681  17.211  1.00  0.00     0.074 A 
HETATM    3  N1  UNL     1      -5.939   3.873  16.763  1.00  0.00    -0.371 N 
ATOM      4  H1  UNL     1      -6.328   4.622  17.336  1.00  0.00     0.161 HD
HETATM    5  C3  UNL     1      -5.302   4.265  15.555  1.00  0.00     0.030 A 
HETATM    6  C4  UNL     1      -4.198   5.263  15.934  1.00  0.00     0.038 C 
HETATM    7  C5  UNL     1      -6.330   5.012  14.692  1.00  0.00     0.038 C 
HETATM    8  C6  UNL     1      -4.728   3.182  14.719  1.00  0.00     0.106 A 
HETATM    9  C7  UNL     1      -4.910   1.830  15.251  1.00  0.00     0.078 A 
HETATM   10  N2  UNL     1      -4.450   0.835  14.575  1.00  0.00    -0.389 N 
ATOM     11  H21 UNL     1      -4.576  -0.107  14.946  1.00  0.00     0.157 HD
ATOM     12  H22 UNL     1      -3.974   1.017  13.692  1.00  0.00     0.157 HD
HETATM   13  N3  UNL     1      -5.574   1.575  16.484  1.00  0.00    -0.336 N 
ATOM     14  H3  UNL     1      -5.681   0.623  16.834  1.00  0.00     0.168 HD
ENDROOT
TORSDOF 0
ENDMDL
MODEL 5
REMARK VINA RESULT: -4.836060055      2.090      2.707
REMARK  0 active torsions:
REMARK  status: ('A' for Active; 'I' for Inactive)
ROOT
HETATM    1  C1  UNL     1      -5.990   4.470  14.575  1.00  0.00     0.089 C 
HETATM    2  C2  UNL     1      -5.926   3.226  15.398  1.00  0.00     0.074 A 
HETATM    3  N1  UNL     1      -6.690   3.020  16.406  1.00  0.00    -0.371 N 
ATOM      4  H1  UNL     1      -7.357   3.759  16.628  1.00  0.00     0.161 HD
HETATM    5  C3  UNL     1      -6.709   1.876  17.248  1.00  0.00     0.030 A 
HETATM    6  C4  UNL     1      -8.139   1.318  17.217  1.00  0.00     0.038 C 
HETATM    7  C5  UNL     1      -6.417   2.334  18.685  1.00  0.00     0.038 C 
HETATM    8  C6  UNL     1      -5.746   0.793  16.928  1.00  0.00     0.106 A 
HETATM    9  C7  UNL     1      -4.881   1.058  15.776  1.00  0.00     0.078 A 
HETATM   10  N2  UNL     1      -4.010   0.170  15.442  1.00  0.00    -0.389 N 
ATOM     11  H21 UNL     1      -3.408   0.354  14.640  1.00  0.00     0.157 HD
ATOM     12  H22 UNL     1      -3.948  -0.689  15.989  1.00  0.00     0.157 HD
HETATM   13  N3  UNL     1      -4.967   2.256  15.013  1.00  0.00    -0.336 N 
ATOM     14  H3  UNL     1      -4.357   2.412  14.211  1.00  0.00     0.168 HD
ENDROOT
TORSDOF 0
ENDMDL
