MODEL 1
REMARK VINA RESULT: -5.231625222      0.000      0.000
REMARK  0 active torsions:
REMARK  status: ('A' for Active; 'I' for Inactive)
ROOT
HETATM    1  C1  UNL     1      -7.353   1.279  17.211  1.00  0.00     0.007 C 
HETATM    2  C2  UNL     1      -6.002   0.591  17.314  1.00  0.00     0.045 C 
HETATM    3  C3  UNL     1      -5.121   1.256  16.309  1.00  0.00     0.065 C 
HETATM    4  N1  UNL     1      -4.957   2.620  16.520  1.00  0.00    -0.352 N 
HETATM    5  C4  UNL     1      -3.960   3.306  15.809  1.00  0.00     0.178 C 
HETATM    6  N2  UNL     1      -3.905   4.699  16.182  1.00  0.00    -0.386 N 
ATOM      7  H2  UNL     1      -3.058   5.147  16.531  1.00  0.00     0.160 HD
HETATM    8  C5  UNL     1      -5.139   5.393  16.018  1.00  0.00     0.122 C 
HETATM    9  C6  UNL     1      -6.352   4.506  16.139  1.00  0.00     0.045 C 
HETATM   10  C7  UNL     1      -5.969   3.383  17.119  1.00  0.00     0.091 C 
HETATM   11  C8  UNL     1      -7.169   2.701  17.605  1.00  0.00     0.026 C 
ENDROOT
TORSDOF 0
ENDMDL
MODEL 2
REMARK VINA RESULT: -4.891721792      0.958      2.161
REMARK  0 active torsions:
REMARK  status: ('A' for Active; 'I' for Inactive)
ROOT
HETATM    1  C1  UNL     1      -6.020   0.705  17.429  1.00  0.00     0.007 C 
HETATM    2  C2  UNL     1      -7.374   1.325  17.126  1.00  0.00     0.045 C 
HETATM    3  C3  UNL     1      -7.167   2.803  17.146  1.00  0.00     0.065 C 
HETATM    4  N1  UNL     1      -6.239   3.253  16.214  1.00  0.00    -0.352 N 
HETATM    5  C4  UNL     1      -6.143   4.628  15.956  1.00  0.00     0.178 C 
HETATM    6  N2  UNL     1      -5.161   4.911  14.936  1.00  0.00    -0.386 N 
ATOM      7  H2  UNL     1      -5.380   5.422  14.081  1.00  0.00     0.160 HD
HETATM    8  C5  UNL     1      -3.859   4.411  15.231  1.00  0.00     0.122 C 
HETATM    9  C6  UNL     1      -3.864   3.196  16.122  1.00  0.00     0.045 C 
HETATM   10  C7  UNL     1      -5.169   2.440  15.813  1.00  0.00     0.091 C 
HETATM   11  C8  UNL     1      -5.096   1.071  16.323  1.00  0.00     0.026 C 
ENDROOT
TORSDOF 0
ENDMDL
MODEL 3
REMARK VINA RESULT: -4.840653816      2.481      3.237
REMARK  0 active torsions:
REMARK  status: ('A' for Active; 'I' for Inactive)
ROOT
HETATM    1  C1  UNL     1      -6.159   4.712  15.343  1.00  0.00     0.007 C 
HETATM    2  C2  UNL     1      -5.324   3.824  14.435  1.00  0.00     0.045 C 
HETATM    3  C3  UNL     1      -3.947   4.401  14.446  1.00  0.00     0.065 C 
HETATM    4  N1  UNL     1      -3.365   4.442  15.707  1.00  0.00    -0.352 N 
HETATM    5  C4  UNL     1      -1.994   4.717  15.818  1.00  0.00     0.178 C 
HETATM    6  N2  UNL     1      -1.553   4.680  17.191  1.00  0.00    -0.386 N 
ATOM      7  H2  UNL     1      -0.798   4.075  17.516  1.00  0.00     0.160 HD
HETATM    8  C5  UNL     1      -2.265   5.563  18.054  1.00  0.00     0.122 C 
HETATM    9  C6  UNL     1      -3.673   5.848  17.599  1.00  0.00     0.045 C 
HETATM   10  C7  UNL     1      -4.151   4.586  16.860  1.00  0.00     0.091 C 
HETATM   11  C8  UNL     1      -5.607   4.600  16.719  1.00  0.00     0.026 C 
ENDROOT
TORSDOF 0
ENDMDL
MODEL 4
REMARK VINA RESULT: -4.811414865      1.365      2.881
REMARK  0 active torsions:
REMARK  status: ('A' for Active; 'I' for Inactive)
ROOT
HETATM    1  C1  UNL     1      -6.461   2.432  18.491  1.00  0.00     0.007 C 
HETATM    2  C2  UNL     1      -6.562   3.824  17.890  1.00  0.00     0.045 C 
HETATM    3  C3  UNL     1      -5.396   3.962  16.969  1.00  0.00     0.065 C 
HETATM    4  N1  UNL     1      -5.375   3.023  15.945  1.00  0.00    -0.352 N 
HETATM    5  C4  UNL     1      -4.486   3.200  14.873  1.00  0.00     0.178 C 
HETATM    6  N2  UNL     1      -4.628   2.157  13.886  1.00  0.00    -0.386 N 
ATOM      7  H2  UNL     1      -4.831   2.345  12.905  1.00  0.00     0.160 HD
HETATM    8  C5  UNL     1      -4.458   0.840  14.405  1.00  0.00     0.122 C 
HETATM    9  C6  UNL     1      -4.816   0.714  15.864  1.00  0.00     0.045 C 
HETATM   10  C7  UNL     1      -5.926   1.746  16.126  1.00  0.00     0.091 C 
HETATM   11  C8  UNL     1      -6.610   1.448  17.385  1.00  0.00     0.026 C 
ENDROOT
TORSDOF 0
ENDMDL
MODEL 5
REMARK VINA RESULT: -4.758066446      1.309      3.404
REMARK  0 active torsions:
REMARK  status: ('A' for Active; 'I' for Inactive)
ROOT
HETATM    1  C1  UNL     1      -5.237   5.176  14.908  1.00  0.00     0.007 C 
HETATM    2  C2  UNL     1      -4.926   4.030  13.960  1.00  0.00     0.045 C 
HETATM    3  C3  UNL     1      -4.534   2.876  14.822  1.00  0.00     0.065 C 
HETATM    4  N1  UNL     1      -5.523   2.477  15.713  1.00  0.00    -0.352 N 
HETATM    5  C4  UNL     1      -5.381   1.257  16.391  1.00  0.00     0.178 C 
HETATM    6  N2  UNL     1      -6.516   0.984  17.239  1.00  0.00    -0.386 N 
ATOM      7  H2  UNL     1      -7.076   0.135  17.162  1.00  0.00     0.160 HD
HETATM    8  C5  UNL     1      -6.784   2.007  18.195  1.00  0.00     0.122 C 
HETATM    9  C6  UNL     1      -6.332   3.377  17.759  1.00  0.00     0.045 C 
HETATM   10  C7  UNL     1      -6.447   3.400  16.224  1.00  0.00     0.091 C 
HETATM   11  C8  UNL     1      -6.409   4.778  15.733  1.00  0.00     0.026 C 
ENDROOT
TORSDOF 0
ENDMDL
