MODEL 1
REMARK VINA RESULT: -5.741800436      0.000      0.000
REMARK  2 active torsions:
REMARK  status: ('A' for Active; 'I' for Inactive)
REMARK    1  A    between atoms: N2_3  and  C2_5 
REMARK    2  A    between atoms: C2_5  and  C3_9 
ROOT
HETATM    1  N1  UNL     1      -4.595   0.558  11.826  1.00  0.00    -0.172 NA
HETATM    2  C1  UNL     1      -4.552   1.177  12.814  1.00  0.00     0.183 C 
HETATM    3  N2  UNL     1      -4.512   1.900  14.011  1.00  0.00    -0.283 N 
ATOM      4  H2  UNL     1      -4.214   2.875  13.974  1.00  0.00     0.179 HD
ENDROOT
BRANCH   3   5
HETATM    5  C2  UNL     1      -4.865   1.354  15.275  1.00  0.00     0.087 C 
HETATM    6  N3  UNL     1      -4.270   0.274  15.643  1.00  0.00    -0.388 N 
ATOM      7  H32 UNL     1      -3.564  -0.220  15.097  1.00  0.00     0.157 HD
ATOM      8  H31 UNL     1      -4.522  -0.118  16.550  1.00  0.00     0.157 HD
BRANCH   5   9
HETATM    9  C3  UNL     1      -5.882   2.066  16.063  1.00  0.00     0.053 C 
HETATM   10  C4  UNL     1      -6.243   1.156  17.245  1.00  0.00     0.012 C 
HETATM   11  C5  UNL     1      -6.624   2.104  18.370  1.00  0.00     0.001 C 
HETATM   12  C6  UNL     1      -6.534   3.496  17.754  1.00  0.00     0.001 C 
HETATM   13  C7  UNL     1      -5.376   3.283  16.769  1.00  0.00     0.012 C 
ENDBRANCH   5   9
ENDBRANCH   3   5
TORSDOF 2
ENDMDL
MODEL 2
REMARK VINA RESULT: -5.573523181      0.808      1.560
REMARK  2 active torsions:
REMARK  status: ('A' for Active; 'I' for Inactive)
REMARK    1  A    between atoms: N2_3  and  C2_5 
REMARK    2  A    between atoms: C2_5  and  C3_9 
ROOT
HETATM    1  N1  UNL     1      -4.540   0.145  12.095  1.00  0.00    -0.172 NA
HETATM    2  C1  UNL     1      -4.544   0.907  12.977  1.00  0.00     0.183 C 
HETATM    3  N2  UNL     1      -4.556   1.804  14.050  1.00  0.00    -0.283 N 
ATOM      4  H2  UNL     1      -4.497   2.801  13.845  1.00  0.00     0.179 HD
ENDROOT
BRANCH   3   5
HETATM    5  C2  UNL     1      -4.646   1.404  15.412  1.00  0.00     0.087 C 
HETATM    6  N3  UNL     1      -4.305   0.198  15.701  1.00  0.00    -0.388 N 
ATOM      7  H32 UNL     1      -3.975  -0.494  15.028  1.00  0.00     0.157 HD
ATOM      8  H31 UNL     1      -4.370  -0.089  16.678  1.00  0.00     0.157 HD
BRANCH   5   9
HETATM    9  C3  UNL     1      -5.124   2.401  16.382  1.00  0.00     0.053 C 
HETATM   10  C4  UNL     1      -5.198   3.742  15.640  1.00  0.00     0.012 C 
HETATM   11  C5  UNL     1      -6.329   4.501  16.311  1.00  0.00     0.001 C 
HETATM   12  C6  UNL     1      -6.792   3.592  17.444  1.00  0.00     0.001 C 
HETATM   13  C7  UNL     1      -6.545   2.218  16.807  1.00  0.00     0.012 C 
ENDBRANCH   5   9
ENDBRANCH   3   5
TORSDOF 2
ENDMDL
MODEL 3
REMARK VINA RESULT: -5.555815582      2.026      3.108
REMARK  2 active torsions:
REMARK  status: ('A' for Active; 'I' for Inactive)
REMARK    1  A    between atoms: N2_3  and  C2_5 
REMARK    2  A    between atoms: C2_5  and  C3_9 
ROOT
HETATM    1  N1  UNL     1      -4.430  -0.167  15.050  1.00  0.00    -0.172 NA
HETATM    2  C1  UNL     1      -4.764   0.634  15.828  1.00  0.00     0.183 C 
HETATM    3  N2  UNL     1      -5.186   1.599  16.749  1.00  0.00    -0.283 N 
ATOM      4  H2  UNL     1      -4.522   1.907  17.460  1.00  0.00     0.179 HD
ENDROOT
BRANCH   3   5
HETATM    5  C2  UNL     1      -6.485   2.174  16.750  1.00  0.00     0.087 C 
HETATM    6  N3  UNL     1      -7.466   1.428  17.119  1.00  0.00    -0.388 N 
ATOM      7  H32 UNL     1      -7.382   0.454  17.411  1.00  0.00     0.157 HD
ATOM      8  H31 UNL     1      -8.399   1.841  17.120  1.00  0.00     0.157 HD
BRANCH   5   9
HETATM    9  C3  UNL     1      -6.607   3.578  16.329  1.00  0.00     0.053 C 
HETATM   10  C4  UNL     1      -5.467   4.346  17.012  1.00  0.00     0.012 C 
HETATM   11  C5  UNL     1      -5.126   5.477  16.057  1.00  0.00     0.001 C 
HETATM   12  C6  UNL     1      -6.131   5.343  14.919  1.00  0.00     0.001 C 
HETATM   13  C7  UNL     1      -6.302   3.819  14.885  1.00  0.00     0.012 C 
ENDBRANCH   5   9
ENDBRANCH   3   5
TORSDOF 2
ENDMDL
MODEL 4
REMARK VINA RESULT: -5.401479806      2.830      4.244
REMARK  2 active torsions:
REMARK  status: ('A' for Active; 'I' for Inactive)
REMARK    1  A    between atoms: N2_3  and  C2_5 
REMARK    2  A    between atoms: C2_5  and  C3_9 
ROOT
HETATM    1  N1  UNL     1      -5.946  -0.043  17.576  1.00  0.00    -0.172 NA
HETATM    2  C1  UNL     1      -6.455   0.942  17.213  1.00  0.00     0.183 C 
HETATM    3  N2  UNL     1      -7.050   2.136  16.793  1.00  0.00    -0.283 N 
ATOM      4  H2  UNL     1      -7.898   2.078  16.230  1.00  0.00     0.179 HD
ENDROOT
BRANCH   3   5
HETATM    5  C2  UNL     1      -6.541   3.425  17.108  1.00  0.00     0.087 C 
HETATM    6  N3  UNL     1      -6.300   3.684  18.345  1.00  0.00    -0.388 N 
ATOM      7  H32 UNL     1      -6.447   3.034  19.117  1.00  0.00     0.157 HD
ATOM      8  H31 UNL     1      -5.934   4.608  18.571  1.00  0.00     0.157 HD
BRANCH   5   9
HETATM    9  C3  UNL     1      -6.329   4.362  15.995  1.00  0.00     0.053 C 
HETATM   10  C4  UNL     1      -5.058   5.158  16.321  1.00  0.00     0.012 C 
HETATM   11  C5  UNL     1      -4.447   5.496  14.972  1.00  0.00     0.001 C 
HETATM   12  C6  UNL     1      -5.433   4.945  13.948  1.00  0.00     0.001 C 
HETATM   13  C7  UNL     1      -5.948   3.712  14.704  1.00  0.00     0.012 C 
ENDBRANCH   5   9
ENDBRANCH   3   5
TORSDOF 2
ENDMDL
MODEL 5
REMARK VINA RESULT: -5.394464084      3.098      4.340
REMARK  2 active torsions:
REMARK  status: ('A' for Active; 'I' for Inactive)
REMARK    1  A    between atoms: N2_3  and  C2_5 
REMARK    2  A    between atoms: C2_5  and  C3_9 
ROOT
HETATM    1  N1  UNL     1      -4.135   0.466  16.066  1.00  0.00    -0.172 NA
HETATM    2  C1  UNL     1      -4.407   1.600  16.081  1.00  0.00     0.183 C 
HETATM    3  N2  UNL     1      -4.709   2.965  16.099  1.00  0.00    -0.283 N 
ATOM      4  H2  UNL     1      -5.668   3.243  16.308  1.00  0.00     0.179 HD
ENDROOT
BRANCH   3   5
HETATM    5  C2  UNL     1      -3.756   3.988  15.841  1.00  0.00     0.087 C 
HETATM    6  N3  UNL     1      -3.233   4.032  14.667  1.00  0.00    -0.388 N 
ATOM      7  H32 UNL     1      -3.451   3.389  13.906  1.00  0.00     0.157 HD
ATOM      8  H31 UNL     1      -2.550   4.766  14.482  1.00  0.00     0.157 HD
BRANCH   5   9
HETATM    9  C3  UNL     1      -3.442   4.916  16.939  1.00  0.00     0.053 C 
HETATM   10  C4  UNL     1      -1.917   4.895  17.114  1.00  0.00     0.012 C 
HETATM   11  C5  UNL     1      -1.559   6.284  17.612  1.00  0.00     0.001 C 
HETATM   12  C6  UNL     1      -2.895   7.000  17.767  1.00  0.00     0.001 C 
HETATM   13  C7  UNL     1      -3.683   6.356  16.619  1.00  0.00     0.012 C 
ENDBRANCH   5   9
ENDBRANCH   3   5
TORSDOF 2
ENDMDL
