MODEL 1
REMARK VINA RESULT: -4.712471164      0.000      0.000
REMARK  0 active torsions:
REMARK  status: ('A' for Active; 'I' for Inactive)
ROOT
HETATM    1  N1  UNL     1      -4.266   0.156  15.454  1.00  0.00    -0.380 N 
ATOM      2  H11 UNL     1      -4.719  -0.750  15.583  1.00  0.00     0.158 HD
ATOM      3  H12 UNL     1      -3.532   0.372  14.780  1.00  0.00     0.158 HD
HETATM    4  C1  UNL     1      -4.690   1.090  16.237  1.00  0.00     0.133 C 
HETATM    5  N2  UNL     1      -4.059   2.354  16.058  1.00  0.00    -0.371 N 
ATOM      6  H2  UNL     1      -3.118   2.347  15.665  1.00  0.00     0.161 HD
HETATM    7  C2  UNL     1      -4.624   3.644  16.380  1.00  0.00     0.121 C 
HETATM    8  C3  UNL     1      -5.767   3.572  17.331  1.00  0.00     0.020 C 
HETATM    9  C4  UNL     1      -7.062   3.140  16.683  1.00  0.00     0.012 C 
HETATM   10  C5  UNL     1      -7.438   1.718  17.079  1.00  0.00     0.082 C 
HETATM   11  S1  UNL     1      -5.973   0.713  17.415  1.00  0.00    -0.095 SA
ENDROOT
TORSDOF 0
ENDMDL
MODEL 2
REMARK VINA RESULT: -4.614298444      1.583      2.403
REMARK  0 active torsions:
REMARK  status: ('A' for Active; 'I' for Inactive)
ROOT
HETATM    1  N1  UNL     1      -4.224   0.325  15.684  1.00  0.00    -0.380 N 
ATOM      2  H11 UNL     1      -3.603   0.508  14.895  1.00  0.00     0.158 HD
ATOM      3  H12 UNL     1      -4.208  -0.499  16.284  1.00  0.00     0.158 HD
HETATM    4  C1  UNL     1      -5.099   1.247  15.910  1.00  0.00     0.133 C 
HETATM    5  N2  UNL     1      -5.965   0.991  17.011  1.00  0.00    -0.371 N 
ATOM      6  H2  UNL     1      -6.113   0.015  17.264  1.00  0.00     0.161 HD
HETATM    7  C2  UNL     1      -6.655   1.984  17.804  1.00  0.00     0.121 C 
HETATM    8  C3  UNL     1      -6.759   3.310  17.135  1.00  0.00     0.020 C 
HETATM    9  C4  UNL     1      -5.482   4.116  17.194  1.00  0.00     0.012 C 
HETATM   10  C5  UNL     1      -4.793   4.171  15.837  1.00  0.00     0.082 C 
HETATM   11  S1  UNL     1      -5.128   2.686  14.860  1.00  0.00    -0.095 SA
ENDROOT
TORSDOF 0
ENDMDL
MODEL 3
REMARK VINA RESULT: -4.516352735      1.725      2.640
REMARK  0 active torsions:
REMARK  status: ('A' for Active; 'I' for Inactive)
ROOT
HETATM    1  N1  UNL     1      -2.666   3.497  16.345  1.00  0.00    -0.380 N 
ATOM      2  H11 UNL     1      -2.514   4.482  16.563  1.00  0.00     0.158 HD
ATOM      3  H12 UNL     1      -1.942   2.792  16.209  1.00  0.00     0.158 HD
HETATM    4  C1  UNL     1      -3.905   3.149  16.241  1.00  0.00     0.133 C 
HETATM    5  N2  UNL     1      -4.116   1.774  15.937  1.00  0.00    -0.371 N 
ATOM      6  H2  UNL     1      -3.363   1.288  15.451  1.00  0.00     0.161 HD
HETATM    7  C2  UNL     1      -5.297   1.001  16.253  1.00  0.00     0.121 C 
HETATM    8  C3  UNL     1      -6.494   1.837  16.542  1.00  0.00     0.020 C 
HETATM    9  C4  UNL     1      -6.487   2.437  17.929  1.00  0.00     0.012 C 
HETATM   10  C5  UNL     1      -6.211   3.934  17.889  1.00  0.00     0.082 C 
HETATM   11  S1  UNL     1      -5.170   4.381  16.479  1.00  0.00    -0.095 SA
ENDROOT
TORSDOF 0
ENDMDL
MODEL 4
REMARK VINA RESULT: -4.415770985      2.389      2.870
REMARK  0 active torsions:
REMARK  status: ('A' for Active; 'I' for Inactive)
ROOT
HETATM    1  N1  UNL     1      -2.304   3.580  16.450  1.00  0.00    -0.380 N 
ATOM      2  H11 UNL     1      -2.065   3.959  17.367  1.00  0.00     0.158 HD
ATOM      3  H12 UNL     1      -1.699   3.011  15.858  1.00  0.00     0.158 HD
HETATM    4  C1  UNL     1      -3.492   3.869  16.037  1.00  0.00     0.133 C 
HETATM    5  N2  UNL     1      -3.825   3.339  14.758  1.00  0.00    -0.371 N 
ATOM      6  H2  UNL     1      -3.051   3.145  14.123  1.00  0.00     0.161 HD
HETATM    7  C2  UNL     1      -5.156   3.051  14.274  1.00  0.00     0.121 C 
HETATM    8  C3  UNL     1      -6.229   3.748  15.034  1.00  0.00     0.020 C 
HETATM    9  C4  UNL     1      -6.546   3.098  16.361  1.00  0.00     0.012 C 
HETATM   10  C5  UNL     1      -6.027   3.928  17.528  1.00  0.00     0.082 C 
HETATM   11  S1  UNL     1      -4.547   4.863  17.072  1.00  0.00    -0.095 SA
ENDROOT
TORSDOF 0
ENDMDL
MODEL 5
REMARK VINA RESULT: -4.324902401      5.077      5.582
REMARK  0 active torsions:
REMARK  status: ('A' for Active; 'I' for Inactive)
ROOT
HETATM    1  N1  UNL     1      -1.242   4.267  13.865  1.00  0.00    -0.380 N 
ATOM      2  H11 UNL     1      -1.391   4.676  12.942  1.00  0.00     0.158 HD
ATOM      3  H12 UNL     1      -0.650   3.465  14.080  1.00  0.00     0.158 HD
HETATM    4  C1  UNL     1      -1.879   4.849  14.825  1.00  0.00     0.133 C 
HETATM    5  N2  UNL     1      -1.671   4.279  16.113  1.00  0.00    -0.371 N 
ATOM      6  H2  UNL     1      -1.403   3.295  16.144  1.00  0.00     0.161 HD
HETATM    7  C2  UNL     1      -1.803   4.961  17.381  1.00  0.00     0.121 C 
HETATM    8  C3  UNL     1      -2.603   6.214  17.300  1.00  0.00     0.020 C 
HETATM    9  C4  UNL     1      -1.836   7.382  16.725  1.00  0.00     0.012 C 
HETATM   10  C5  UNL     1      -2.305   7.718  15.316  1.00  0.00     0.082 C 
HETATM   11  S1  UNL     1      -2.912   6.251  14.450  1.00  0.00    -0.095 SA
ENDROOT
TORSDOF 0
ENDMDL
