MODEL 1
REMARK VINA RESULT: -5.122408049      0.000      0.000
REMARK  0 active torsions:
REMARK  status: ('A' for Active; 'I' for Inactive)
ROOT
HETATM    1  C1  UNL     1      -6.786   2.913  17.217  1.00  0.00     0.055 C 
HETATM    2  C2  UNL     1      -5.826   2.256  16.303  1.00  0.00     0.020 A 
HETATM    3  C3  UNL     1      -5.393   0.946  16.436  1.00  0.00     0.139 A 
HETATM    4  N1  UNL     1      -5.788   0.026  17.449  1.00  0.00    -0.081 NA
HETATM    5  N2  UNL     1      -4.541   0.760  15.411  1.00  0.00    -0.286 N 
ATOM      6  H2  UNL     1      -4.043  -0.109  15.219  1.00  0.00     0.188 HD
HETATM    7  N3  UNL     1      -4.440   1.863  14.687  1.00  0.00    -0.288 N 
ATOM      8  H3  UNL     1      -3.854   1.968  13.859  1.00  0.00     0.188 HD
HETATM    9  C4  UNL     1      -5.232   2.836  15.209  1.00  0.00     0.124 A 
HETATM   10  S1  UNL     1      -5.423   4.374  14.636  1.00  0.00    -0.058 SA
ENDROOT
TORSDOF 0
ENDMDL
MODEL 2
REMARK VINA RESULT: -4.875866838      1.710      1.987
REMARK  0 active torsions:
REMARK  status: ('A' for Active; 'I' for Inactive)
ROOT
HETATM    1  C1  UNL     1      -6.387   0.682  17.561  1.00  0.00     0.055 C 
HETATM    2  C2  UNL     1      -5.620   1.560  16.650  1.00  0.00     0.020 A 
HETATM    3  C3  UNL     1      -4.809   1.101  15.624  1.00  0.00     0.139 A 
HETATM    4  N1  UNL     1      -4.578  -0.260  15.276  1.00  0.00    -0.081 NA
HETATM    5  N2  UNL     1      -4.312   2.216  15.055  1.00  0.00    -0.286 N 
ATOM      6  H2  UNL     1      -3.672   2.227  14.260  1.00  0.00     0.188 HD
HETATM    7  N3  UNL     1      -4.769   3.293  15.671  1.00  0.00    -0.288 N 
ATOM      8  H3  UNL     1      -4.533   4.254  15.422  1.00  0.00     0.188 HD
HETATM    9  C4  UNL     1      -5.599   2.933  16.684  1.00  0.00     0.124 A 
HETATM   10  S1  UNL     1      -6.397   3.943  17.720  1.00  0.00    -0.058 SA
ENDROOT
TORSDOF 0
ENDMDL
MODEL 3
REMARK VINA RESULT: -4.830838282      1.249      1.249
REMARK  0 active torsions:
REMARK  status: ('A' for Active; 'I' for Inactive)
ROOT
HETATM    1  C1  UNL     1      -6.884   3.502  17.342  1.00  0.00     0.055 C 
HETATM    2  C2  UNL     1      -5.704   2.835  16.751  1.00  0.00     0.020 A 
HETATM    3  C3  UNL     1      -5.604   1.469  16.537  1.00  0.00     0.139 A 
HETATM    4  N1  UNL     1      -6.596   0.493  16.842  1.00  0.00    -0.081 NA
HETATM    5  N2  UNL     1      -4.387   1.294  15.990  1.00  0.00    -0.286 N 
ATOM      6  H2  UNL     1      -3.999   0.394  15.709  1.00  0.00     0.188 HD
HETATM    7  N3  UNL     1      -3.764   2.455  15.868  1.00  0.00    -0.288 N 
ATOM      8  H3  UNL     1      -2.828   2.579  15.481  1.00  0.00     0.188 HD
HETATM    9  C4  UNL     1      -4.554   3.458  16.333  1.00  0.00     0.124 A 
HETATM   10  S1  UNL     1      -4.189   5.069  16.378  1.00  0.00    -0.058 SA
ENDROOT
TORSDOF 0
ENDMDL
MODEL 4
REMARK VINA RESULT: -4.794687120      3.710      4.227
REMARK  0 active torsions:
REMARK  status: ('A' for Active; 'I' for Inactive)
ROOT
HETATM    1  C1  UNL     1      -3.759   6.593  17.591  1.00  0.00     0.055 C 
HETATM    2  C2  UNL     1      -3.347   5.282  17.044  1.00  0.00     0.020 A 
HETATM    3  C3  UNL     1      -2.080   4.739  17.187  1.00  0.00     0.139 A 
HETATM    4  N1  UNL     1      -0.980   5.334  17.869  1.00  0.00    -0.081 NA
HETATM    5  N2  UNL     1      -2.139   3.555  16.549  1.00  0.00    -0.286 N 
ATOM      6  H2  UNL     1      -1.363   2.899  16.469  1.00  0.00     0.188 HD
HETATM    7  N3  UNL     1      -3.345   3.363  16.042  1.00  0.00    -0.288 N 
ATOM      8  H3  UNL     1      -3.633   2.539  15.514  1.00  0.00     0.188 HD
HETATM    9  C4  UNL     1      -4.145   4.423  16.328  1.00  0.00     0.124 A 
HETATM   10  S1  UNL     1      -5.728   4.618  15.895  1.00  0.00    -0.058 SA
ENDROOT
TORSDOF 0
ENDMDL
MODEL 5
REMARK VINA RESULT: -4.705426956      1.864      2.405
REMARK  0 active torsions:
REMARK  status: ('A' for Active; 'I' for Inactive)
ROOT
HETATM    1  C1  UNL     1      -4.861   1.496  15.219  1.00  0.00     0.055 C 
HETATM    2  C2  UNL     1      -5.590   2.017  16.396  1.00  0.00     0.020 A 
HETATM    3  C3  UNL     1      -6.063   1.229  17.433  1.00  0.00     0.139 A 
HETATM    4  N1  UNL     1      -5.932  -0.184  17.546  1.00  0.00    -0.081 NA
HETATM    5  N2  UNL     1      -6.653   2.094  18.280  1.00  0.00    -0.286 N 
ATOM      6  H2  UNL     1      -7.105   1.832  19.156  1.00  0.00     0.188 HD
HETATM    7  N3  UNL     1      -6.563   3.329  17.817  1.00  0.00    -0.288 N 
ATOM      8  H3  UNL     1      -6.937   4.157  18.281  1.00  0.00     0.188 HD
HETATM    9  C4  UNL     1      -5.900   3.334  16.631  1.00  0.00     0.124 A 
HETATM   10  S1  UNL     1      -5.556   4.650  15.692  1.00  0.00    -0.058 SA
ENDROOT
TORSDOF 0
ENDMDL
