MODEL 1
REMARK VINA RESULT: -7.846394757      0.000      0.000
REMARK  17 active torsions:
REMARK  status: ('A' for Active; 'I' for Inactive)
REMARK    1  A    between atoms: C1_2  and  C2_3 
REMARK    2  A    between atoms: C1_2  and  N6_37 
REMARK    3  A    between atoms: C2_3  and  C3_4 
REMARK    4  A    between atoms: C3_4  and  C4_5 
REMARK    5  A    between atoms: C4_5  and  C5_6 
REMARK    6  A    between atoms: C5_6  and  C6_7 
REMARK    7  A    between atoms: C6_7  and  C7_8 
REMARK    8  A    between atoms: C7_8  and  C8_9 
REMARK    9  A    between atoms: C8_9  and  C9_10 
REMARK   10  A    between atoms: C9_10  and  N2_11 
REMARK   11  A    between atoms: N2_11  and  C10_14 
REMARK   12  A    between atoms: C10_14  and  C11_15 
REMARK   13  A    between atoms: C11_15  and  C12_16 
REMARK   14  A    between atoms: C13_18  and  C14_19 
REMARK   15  A    between atoms: C14_19  and  O2_20 
REMARK   16  A    between atoms: C15_22  and  N3_23 
REMARK   17  A    between atoms: C20_34  and  O4_35 
ROOT
HETATM    1  C12 UNL     1      46.699  18.620 -12.941  1.00  0.00     0.154 C 
HETATM    2  O1  UNL     1      47.561  18.105 -13.894  1.00  0.00    -0.374 OA
HETATM    3  C13 UNL     1      48.765  18.849 -13.798  1.00  0.00     0.171 C 
HETATM    4  C15 UNL     1      48.505  19.928 -12.831  1.00  0.00     0.156 C 
HETATM    5  C20 UNL     1      47.027  20.102 -12.958  1.00  0.00     0.173 C 
ENDROOT
BRANCH   1   6
HETATM    6  C11 UNL     1      45.305  18.327 -13.036  1.00  0.00     0.062 C 
BRANCH   6   7
HETATM    7  C10 UNL     1      44.662  17.010 -13.165  1.00  0.00     0.235 C 
BRANCH   7   8
HETATM    8  N2  UNL     1      45.046  16.288 -14.348  1.00  0.00    -0.075 N 
ATOM      9  H22 UNL     1      46.052  16.126 -14.377  1.00  0.00     0.277 HD
ATOM     10  H21 UNL     1      44.955  16.864 -15.184  1.00  0.00     0.277 HD
BRANCH   8  11
HETATM   11  C9  UNL     1      44.301  15.044 -14.473  1.00  0.00     0.232 C 
BRANCH  11  12
HETATM   12  C8  UNL     1      43.199  14.999 -13.482  1.00  0.00     0.027 C 
BRANCH  12  13
HETATM   13  C7  UNL     1      42.579  13.603 -13.500  1.00  0.00     0.002 C 
BRANCH  13  14
HETATM   14  C6  UNL     1      41.575  13.514 -12.345  1.00  0.00     0.000 C 
BRANCH  14  15
HETATM   15  C5  UNL     1      41.167  14.902 -11.913  1.00  0.00     0.000 C 
BRANCH  15  16
HETATM   16  C4  UNL     1      40.092  14.885 -10.862  1.00  0.00     0.000 C 
BRANCH  16  17
HETATM   17  C3  UNL     1      40.587  14.092  -9.680  1.00  0.00     0.007 C 
BRANCH  17  18
HETATM   18  C2  UNL     1      40.320  14.791  -8.372  1.00  0.00     0.073 C 
BRANCH  18  19
HETATM   19  C1  UNL     1      41.251  15.801  -7.993  1.00  0.00     0.091 C 
HETATM   20  N1  UNL     1      41.864  15.893  -6.653  1.00  0.00    -0.088 NA
BRANCH  19  21
HETATM   21  N6  UNL     1      41.633  16.953  -8.708  1.00  0.00    -0.373 N 
HETATM   22  C21 UNL     1      40.881  18.087  -9.130  1.00  0.00     0.123 C 
HETATM   23  C22 UNL     1      41.708  18.710 -10.248  1.00  0.00     0.021 C 
HETATM   24  C23 UNL     1      43.094  18.176 -10.095  1.00  0.00     0.021 C 
HETATM   25  C24 UNL     1      43.036  17.012  -9.199  1.00  0.00     0.123 C 
ENDBRANCH  19  21
ENDBRANCH  18  19
ENDBRANCH  17  18
ENDBRANCH  16  17
ENDBRANCH  15  16
ENDBRANCH  14  15
ENDBRANCH  13  14
ENDBRANCH  12  13
ENDBRANCH  11  12
ENDBRANCH   8  11
ENDBRANCH   7   8
ENDBRANCH   6   7
ENDBRANCH   1   6
BRANCH   5  26
HETATM   26  O4  UNL     1      46.527  20.667 -11.754  1.00  0.00    -0.391 OA
ATOM     27  H4  UNL     1      45.706  21.100 -11.958  1.00  0.00     0.210 HD
ENDBRANCH   5  26
BRANCH   3  28
HETATM   28  C14 UNL     1      49.038  19.264 -15.199  1.00  0.00     0.198 C 
BRANCH  28  29
HETATM   29  O2  UNL     1      48.007  19.060 -16.123  1.00  0.00    -0.398 OA
ATOM     30  H2  UNL     1      47.459  19.811 -16.319  1.00  0.00     0.209 HD
ENDBRANCH  28  29
ENDBRANCH   3  28
BRANCH   4  31
HETATM   31  N3  UNL     1      49.362  21.057 -12.761  1.00  0.00    -0.300 N 
HETATM   32  C16 UNL     1      50.511  20.870 -12.020  1.00  0.00     0.100 A 
HETATM   33  C17 UNL     1      51.423  21.869 -11.873  1.00  0.00     0.065 A 
HETATM   34  C18 UNL     1      51.215  23.130 -12.436  1.00  0.00     0.103 A 
HETATM   35  N4  UNL     1      51.980  24.057 -12.385  1.00  0.00    -0.385 N 
HETATM   36  N5  UNL     1      50.065  23.309 -13.162  1.00  0.00    -0.295 N 
ATOM     37  H42 UNL     1      52.835  23.923 -11.845  1.00  0.00     0.157 HD
ATOM     38  H41 UNL     1      51.828  24.979 -12.797  1.00  0.00     0.157 HD
HETATM   39  C19 UNL     1      49.190  22.277 -13.295  1.00  0.00     0.328 A 
ATOM     40  H5  UNL     1      49.867  24.209 -13.599  1.00  0.00     0.172 HD
HETATM   41  O3  UNL     1      48.137  22.430 -13.950  1.00  0.00    -0.246 OA
ENDBRANCH   4  31
TORSDOF 17
ENDMDL
MODEL 2
REMARK VINA RESULT: -7.821584592      1.178      2.024
REMARK  17 active torsions:
REMARK  status: ('A' for Active; 'I' for Inactive)
REMARK    1  A    between atoms: C1_2  and  C2_3 
REMARK    2  A    between atoms: C1_2  and  N6_37 
REMARK    3  A    between atoms: C2_3  and  C3_4 
REMARK    4  A    between atoms: C3_4  and  C4_5 
REMARK    5  A    between atoms: C4_5  and  C5_6 
REMARK    6  A    between atoms: C5_6  and  C6_7 
REMARK    7  A    between atoms: C6_7  and  C7_8 
REMARK    8  A    between atoms: C7_8  and  C8_9 
REMARK    9  A    between atoms: C8_9  and  C9_10 
REMARK   10  A    between atoms: C9_10  and  N2_11 
REMARK   11  A    between atoms: N2_11  and  C10_14 
REMARK   12  A    between atoms: C10_14  and  C11_15 
REMARK   13  A    between atoms: C11_15  and  C12_16 
REMARK   14  A    between atoms: C13_18  and  C14_19 
REMARK   15  A    between atoms: C14_19  and  O2_20 
REMARK   16  A    between atoms: C15_22  and  N3_23 
REMARK   17  A    between atoms: C20_34  and  O4_35 
ROOT
HETATM    1  C12 UNL     1      46.262  18.743 -13.351  1.00  0.00     0.154 C 
HETATM    2  O1  UNL     1      46.187  18.853 -11.972  1.00  0.00    -0.374 OA
HETATM    3  C13 UNL     1      46.935  20.004 -11.615  1.00  0.00     0.171 C 
HETATM    4  C15 UNL     1      47.576  20.479 -12.853  1.00  0.00     0.156 C 
HETATM    5  C20 UNL     1      47.672  19.219 -13.649  1.00  0.00     0.173 C 
ENDROOT
BRANCH   1   6
HETATM    6  C11 UNL     1      45.918  17.503 -13.968  1.00  0.00     0.062 C 
BRANCH   6   7
HETATM    7  C10 UNL     1      44.716  16.683 -13.750  1.00  0.00     0.235 C 
BRANCH   7   8
HETATM    8  N2  UNL     1      44.569  15.604 -14.688  1.00  0.00    -0.075 N 
ATOM      9  H22 UNL     1      45.473  15.217 -14.958  1.00  0.00     0.277 HD
ATOM     10  H21 UNL     1      44.264  15.940 -15.601  1.00  0.00     0.277 HD
BRANCH   8  11
HETATM   11  C9  UNL     1      43.679  14.574 -14.174  1.00  0.00     0.232 C 
BRANCH  11  12
HETATM   12  C8  UNL     1      42.966  15.061 -12.970  1.00  0.00     0.027 C 
BRANCH  12  13
HETATM   13  C7  UNL     1      41.855  14.071 -12.623  1.00  0.00     0.002 C 
BRANCH  13  14
HETATM   14  C6  UNL     1      40.738  14.841 -11.908  1.00  0.00     0.000 C 
BRANCH  14  15
HETATM   15  C5  UNL     1      39.673  13.881 -11.437  1.00  0.00     0.000 C 
BRANCH  15  16
HETATM   16  C4  UNL     1      39.306  14.091  -9.994  1.00  0.00     0.000 C 
BRANCH  16  17
HETATM   17  C3  UNL     1      40.572  14.179  -9.183  1.00  0.00     0.007 C 
BRANCH  17  18
HETATM   18  C2  UNL     1      40.501  15.252  -8.128  1.00  0.00     0.073 C 
BRANCH  18  19
HETATM   19  C1  UNL     1      40.477  16.597  -8.595  1.00  0.00     0.091 C 
HETATM   20  N1  UNL     1      39.269  17.449  -8.589  1.00  0.00    -0.088 NA
BRANCH  19  21
HETATM   21  N6  UNL     1      41.485  17.307  -9.276  1.00  0.00    -0.373 N 
HETATM   22  C21 UNL     1      41.407  18.326 -10.268  1.00  0.00     0.123 C 
HETATM   23  C22 UNL     1      42.774  18.319 -10.942  1.00  0.00     0.021 C 
HETATM   24  C23 UNL     1      43.704  17.624 -10.003  1.00  0.00     0.021 C 
HETATM   25  C24 UNL     1      42.894  16.909  -9.008  1.00  0.00     0.123 C 
ENDBRANCH  19  21
ENDBRANCH  18  19
ENDBRANCH  17  18
ENDBRANCH  16  17
ENDBRANCH  15  16
ENDBRANCH  14  15
ENDBRANCH  13  14
ENDBRANCH  12  13
ENDBRANCH  11  12
ENDBRANCH   8  11
ENDBRANCH   7   8
ENDBRANCH   6   7
ENDBRANCH   1   6
BRANCH   5  26
HETATM   26  O4  UNL     1      47.730  19.553 -15.030  1.00  0.00    -0.391 OA
ATOM     27  H4  UNL     1      47.989  18.772 -15.504  1.00  0.00     0.210 HD
ENDBRANCH   5  26
BRANCH   3  28
HETATM   28  C14 UNL     1      47.844  19.517 -10.543  1.00  0.00     0.198 C 
BRANCH  28  29
HETATM   29  O2  UNL     1      48.316  20.476  -9.641  1.00  0.00    -0.398 OA
ATOM     30  H2  UNL     1      49.254  20.486  -9.485  1.00  0.00     0.209 HD
ENDBRANCH  28  29
ENDBRANCH   3  28
BRANCH   4  31
HETATM   31  N3  UNL     1      48.665  21.386 -12.801  1.00  0.00    -0.300 N 
HETATM   32  C16 UNL     1      49.912  20.797 -12.748  1.00  0.00     0.100 A 
HETATM   33  C17 UNL     1      51.043  21.552 -12.699  1.00  0.00     0.065 A 
HETATM   34  C18 UNL     1      50.985  22.947 -12.665  1.00  0.00     0.103 A 
HETATM   35  N4  UNL     1      51.931  23.690 -12.655  1.00  0.00    -0.385 N 
HETATM   36  N5  UNL     1      49.740  23.523 -12.708  1.00  0.00    -0.295 N 
ATOM     37  H42 UNL     1      52.857  23.261 -12.623  1.00  0.00     0.157 HD
ATOM     38  H41 UNL     1      51.889  24.709 -12.631  1.00  0.00     0.157 HD
HETATM   39  C19 UNL     1      48.638  22.729 -12.773  1.00  0.00     0.328 A 
ATOM     40  H5  UNL     1      49.642  24.537 -12.692  1.00  0.00     0.172 HD
HETATM   41  O3  UNL     1      47.500  23.242 -12.808  1.00  0.00    -0.246 OA
ENDBRANCH   4  31
TORSDOF 17
ENDMDL
MODEL 3
REMARK VINA RESULT: -7.702985852      3.017      5.912
REMARK  17 active torsions:
REMARK  status: ('A' for Active; 'I' for Inactive)
REMARK    1  A    between atoms: C1_2  and  C2_3 
REMARK    2  A    between atoms: C1_2  and  N6_37 
REMARK    3  A    between atoms: C2_3  and  C3_4 
REMARK    4  A    between atoms: C3_4  and  C4_5 
REMARK    5  A    between atoms: C4_5  and  C5_6 
REMARK    6  A    between atoms: C5_6  and  C6_7 
REMARK    7  A    between atoms: C6_7  and  C7_8 
REMARK    8  A    between atoms: C7_8  and  C8_9 
REMARK    9  A    between atoms: C8_9  and  C9_10 
REMARK   10  A    between atoms: C9_10  and  N2_11 
REMARK   11  A    between atoms: N2_11  and  C10_14 
REMARK   12  A    between atoms: C10_14  and  C11_15 
REMARK   13  A    between atoms: C11_15  and  C12_16 
REMARK   14  A    between atoms: C13_18  and  C14_19 
REMARK   15  A    between atoms: C14_19  and  O2_20 
REMARK   16  A    between atoms: C15_22  and  N3_23 
REMARK   17  A    between atoms: C20_34  and  O4_35 
ROOT
HETATM    1  C12 UNL     1      50.409  20.666 -12.039  1.00  0.00     0.154 C 
HETATM    2  O1  UNL     1      50.874  21.266 -10.881  1.00  0.00    -0.374 OA
HETATM    3  C13 UNL     1      50.616  20.358  -9.821  1.00  0.00     0.171 C 
HETATM    4  C15 UNL     1      49.839  19.253 -10.407  1.00  0.00     0.156 C 
HETATM    5  C20 UNL     1      49.173  19.927 -11.561  1.00  0.00     0.173 C 
ENDROOT
BRANCH   1   6
HETATM    6  C11 UNL     1      50.200  21.469 -13.200  1.00  0.00     0.062 C 
BRANCH   6   7
HETATM    7  C10 UNL     1      49.105  22.417 -13.463  1.00  0.00     0.235 C 
BRANCH   7   8
HETATM    8  N2  UNL     1      47.860  21.787 -13.810  1.00  0.00    -0.075 N 
ATOM      9  H22 UNL     1      47.918  20.772 -13.725  1.00  0.00     0.277 HD
ATOM     10  H21 UNL     1      47.676  21.849 -14.811  1.00  0.00     0.277 HD
BRANCH   8  11
HETATM   11  C9  UNL     1      46.758  22.327 -13.029  1.00  0.00     0.232 C 
BRANCH  11  12
HETATM   12  C8  UNL     1      45.533  21.517 -13.234  1.00  0.00     0.027 C 
BRANCH  12  13
HETATM   13  C7  UNL     1      45.368  20.567 -12.050  1.00  0.00     0.002 C 
BRANCH  13  14
HETATM   14  C6  UNL     1      45.430  19.130 -12.580  1.00  0.00     0.000 C 
BRANCH  14  15
HETATM   15  C5  UNL     1      44.365  18.292 -11.916  1.00  0.00     0.000 C 
BRANCH  15  16
HETATM   16  C4  UNL     1      43.404  19.117 -11.106  1.00  0.00     0.000 C 
BRANCH  16  17
HETATM   17  C3  UNL     1      42.698  18.214 -10.130  1.00  0.00     0.007 C 
BRANCH  17  18
HETATM   18  C2  UNL     1      43.560  17.055  -9.698  1.00  0.00     0.073 C 
BRANCH  18  19
HETATM   19  C1  UNL     1      42.987  16.160  -8.750  1.00  0.00     0.091 C 
HETATM   20  N1  UNL     1      43.586  15.862  -7.433  1.00  0.00    -0.088 NA
BRANCH  19  21
HETATM   21  N6  UNL     1      41.891  15.290  -8.917  1.00  0.00    -0.373 N 
HETATM   22  C21 UNL     1      41.546  14.411  -9.983  1.00  0.00     0.123 C 
HETATM   23  C22 UNL     1      40.056  14.146  -9.802  1.00  0.00     0.021 C 
HETATM   24  C23 UNL     1      39.730  14.511  -8.392  1.00  0.00     0.021 C 
HETATM   25  C24 UNL     1      40.843  15.311  -7.861  1.00  0.00     0.123 C 
ENDBRANCH  19  21
ENDBRANCH  18  19
ENDBRANCH  17  18
ENDBRANCH  16  17
ENDBRANCH  15  16
ENDBRANCH  14  15
ENDBRANCH  13  14
ENDBRANCH  12  13
ENDBRANCH  11  12
ENDBRANCH   8  11
ENDBRANCH   7   8
ENDBRANCH   6   7
ENDBRANCH   1   6
BRANCH   5  26
HETATM   26  O4  UNL     1      48.852  18.947 -12.540  1.00  0.00    -0.391 OA
ATOM     27  H4  UNL     1      49.663  18.676 -12.953  1.00  0.00     0.210 HD
ENDBRANCH   5  26
BRANCH   3  28
HETATM   28  C14 UNL     1      49.923  21.190  -8.803  1.00  0.00     0.198 C 
BRANCH  28  29
HETATM   29  O2  UNL     1      50.329  21.019  -7.475  1.00  0.00    -0.398 OA
ATOM     30  H2  UNL     1      51.018  21.596  -7.165  1.00  0.00     0.209 HD
ENDBRANCH  28  29
ENDBRANCH   3  28
BRANCH   4  31
HETATM   31  N3  UNL     1      49.117  18.358  -9.576  1.00  0.00    -0.300 N 
HETATM   32  C16 UNL     1      47.744  18.433  -9.694  1.00  0.00     0.100 A 
HETATM   33  C17 UNL     1      46.930  17.629  -8.958  1.00  0.00     0.065 A 
HETATM   34  C18 UNL     1      47.450  16.722  -8.032  1.00  0.00     0.103 A 
HETATM   35  N4  UNL     1      46.809  15.952  -7.365  1.00  0.00    -0.385 N 
HETATM   36  N5  UNL     1      48.816  16.662  -7.914  1.00  0.00    -0.295 N 
ATOM     37  H42 UNL     1      45.794  15.998  -7.454  1.00  0.00     0.157 HD
ATOM     38  H41 UNL     1      47.189  15.290  -6.689  1.00  0.00     0.157 HD
HETATM   39  C19 UNL     1      49.589  17.475  -8.682  1.00  0.00     0.328 A 
ATOM     40  H5  UNL     1      49.247  16.014  -7.256  1.00  0.00     0.172 HD
HETATM   41  O3  UNL     1      50.834  17.431  -8.580  1.00  0.00    -0.246 OA
ENDBRANCH   4  31
TORSDOF 17
ENDMDL
MODEL 4
REMARK VINA RESULT: -7.596882531      2.642      5.290
REMARK  17 active torsions:
REMARK  status: ('A' for Active; 'I' for Inactive)
REMARK    1  A    between atoms: C1_2  and  C2_3 
REMARK    2  A    between atoms: C1_2  and  N6_37 
REMARK    3  A    between atoms: C2_3  and  C3_4 
REMARK    4  A    between atoms: C3_4  and  C4_5 
REMARK    5  A    between atoms: C4_5  and  C5_6 
REMARK    6  A    between atoms: C5_6  and  C6_7 
REMARK    7  A    between atoms: C6_7  and  C7_8 
REMARK    8  A    between atoms: C7_8  and  C8_9 
REMARK    9  A    between atoms: C8_9  and  C9_10 
REMARK   10  A    between atoms: C9_10  and  N2_11 
REMARK   11  A    between atoms: N2_11  and  C10_14 
REMARK   12  A    between atoms: C10_14  and  C11_15 
REMARK   13  A    between atoms: C11_15  and  C12_16 
REMARK   14  A    between atoms: C13_18  and  C14_19 
REMARK   15  A    between atoms: C14_19  and  O2_20 
REMARK   16  A    between atoms: C15_22  and  N3_23 
REMARK   17  A    between atoms: C20_34  and  O4_35 
ROOT
HETATM    1  C12 UNL     1      47.234  19.512 -11.374  1.00  0.00     0.154 C 
HETATM    2  O1  UNL     1      46.283  20.177 -12.130  1.00  0.00    -0.374 OA
HETATM    3  C13 UNL     1      46.976  20.797 -13.202  1.00  0.00     0.171 C 
HETATM    4  C15 UNL     1      48.410  20.577 -12.946  1.00  0.00     0.156 C 
HETATM    5  C20 UNL     1      48.436  20.434 -11.460  1.00  0.00     0.173 C 
ENDROOT
BRANCH   1   6
HETATM    6  C11 UNL     1      46.902  19.101 -10.048  1.00  0.00     0.062 C 
BRANCH   6   7
HETATM    7  C10 UNL     1      47.265  17.847  -9.370  1.00  0.00     0.235 C 
BRANCH   7   8
HETATM    8  N2  UNL     1      46.321  16.781  -9.570  1.00  0.00    -0.075 N 
ATOM      9  H22 UNL     1      46.762  15.867  -9.470  1.00  0.00     0.277 HD
ATOM     10  H21 UNL     1      46.037  16.712 -10.547  1.00  0.00     0.277 HD
BRANCH   8  11
HETATM   11  C9  UNL     1      45.173  16.919  -8.688  1.00  0.00     0.232 C 
BRANCH  11  12
HETATM   12  C8  UNL     1      43.940  16.451  -9.366  1.00  0.00     0.027 C 
BRANCH  12  13
HETATM   13  C7  UNL     1      43.044  17.656  -9.646  1.00  0.00     0.002 C 
BRANCH  13  14
HETATM   14  C6  UNL     1      43.379  18.183 -11.046  1.00  0.00     0.000 C 
BRANCH  14  15
HETATM   15  C5  UNL     1      43.479  17.031 -12.017  1.00  0.00     0.000 C 
BRANCH  15  16
HETATM   16  C4  UNL     1      44.562  17.232 -13.040  1.00  0.00     0.000 C 
BRANCH  16  17
HETATM   17  C3  UNL     1      44.685  15.977 -13.864  1.00  0.00     0.007 C 
BRANCH  17  18
HETATM   18  C2  UNL     1      45.627  14.977 -13.243  1.00  0.00     0.073 C 
BRANCH  18  19
HETATM   19  C1  UNL     1      47.003  15.341 -13.210  1.00  0.00     0.091 C 
HETATM   20  N1  UNL     1      47.793  15.462 -11.968  1.00  0.00    -0.088 NA
BRANCH  19  21
HETATM   21  N6  UNL     1      47.814  15.800 -14.267  1.00  0.00    -0.373 N 
HETATM   22  C21 UNL     1      48.548  15.091 -15.261  1.00  0.00     0.123 C 
HETATM   23  C22 UNL     1      49.579  16.091 -15.770  1.00  0.00     0.021 C 
HETATM   24  C23 UNL     1      49.086  17.444 -15.376  1.00  0.00     0.021 C 
HETATM   25  C24 UNL     1      48.039  17.268 -14.361  1.00  0.00     0.123 C 
ENDBRANCH  19  21
ENDBRANCH  18  19
ENDBRANCH  17  18
ENDBRANCH  16  17
ENDBRANCH  15  16
ENDBRANCH  14  15
ENDBRANCH  13  14
ENDBRANCH  12  13
ENDBRANCH  11  12
ENDBRANCH   8  11
ENDBRANCH   7   8
ENDBRANCH   6   7
ENDBRANCH   1   6
BRANCH   5  26
HETATM   26  O4  UNL     1      49.584  19.681 -11.092  1.00  0.00    -0.391 OA
ATOM     27  H4  UNL     1      50.315  20.284 -11.025  1.00  0.00     0.210 HD
ENDBRANCH   5  26
BRANCH   3  28
HETATM   28  C14 UNL     1      46.504  22.206 -13.161  1.00  0.00     0.198 C 
BRANCH  28  29
HETATM   29  O2  UNL     1      45.381  22.511 -13.937  1.00  0.00    -0.398 OA
ATOM     30  H2  UNL     1      44.550  22.567 -13.478  1.00  0.00     0.209 HD
ENDBRANCH  28  29
ENDBRANCH   3  28
BRANCH   4  31
HETATM   31  N3  UNL     1      49.390  21.353 -13.616  1.00  0.00    -0.300 N 
HETATM   32  C16 UNL     1      49.666  20.954 -14.908  1.00  0.00     0.100 A 
HETATM   33  C17 UNL     1      50.584  21.613 -15.665  1.00  0.00     0.065 A 
HETATM   34  C18 UNL     1      51.305  22.695 -15.155  1.00  0.00     0.103 A 
HETATM   35  N4  UNL     1      52.108  23.354 -15.762  1.00  0.00    -0.385 N 
HETATM   36  N5  UNL     1      51.031  23.077 -13.866  1.00  0.00    -0.295 N 
ATOM     37  H42 UNL     1      52.311  23.068 -16.721  1.00  0.00     0.157 HD
ATOM     38  H41 UNL     1      52.635  24.144 -15.389  1.00  0.00     0.157 HD
HETATM   39  C19 UNL     1      50.094  22.398 -13.152  1.00  0.00     0.328 A 
ATOM     40  H5  UNL     1      51.526  23.864 -13.447  1.00  0.00     0.172 HD
HETATM   41  O3  UNL     1      49.840  22.735 -11.976  1.00  0.00    -0.246 OA
ENDBRANCH   4  31
TORSDOF 17
ENDMDL
MODEL 5
REMARK VINA RESULT: -7.592820656      2.466      3.809
REMARK  17 active torsions:
REMARK  status: ('A' for Active; 'I' for Inactive)
REMARK    1  A    between atoms: C1_2  and  C2_3 
REMARK    2  A    between atoms: C1_2  and  N6_37 
REMARK    3  A    between atoms: C2_3  and  C3_4 
REMARK    4  A    between atoms: C3_4  and  C4_5 
REMARK    5  A    between atoms: C4_5  and  C5_6 
REMARK    6  A    between atoms: C5_6  and  C6_7 
REMARK    7  A    between atoms: C6_7  and  C7_8 
REMARK    8  A    between atoms: C7_8  and  C8_9 
REMARK    9  A    between atoms: C8_9  and  C9_10 
REMARK   10  A    between atoms: C9_10  and  N2_11 
REMARK   11  A    between atoms: N2_11  and  C10_14 
REMARK   12  A    between atoms: C10_14  and  C11_15 
REMARK   13  A    between atoms: C11_15  and  C12_16 
REMARK   14  A    between atoms: C13_18  and  C14_19 
REMARK   15  A    between atoms: C14_19  and  O2_20 
REMARK   16  A    between atoms: C15_22  and  N3_23 
REMARK   17  A    between atoms: C20_34  and  O4_35 
ROOT
HETATM    1  C12 UNL     1      46.352  18.541 -12.620  1.00  0.00     0.154 C 
HETATM    2  O1  UNL     1      47.197  17.979 -13.563  1.00  0.00    -0.374 OA
HETATM    3  C13 UNL     1      48.408  18.717 -13.516  1.00  0.00     0.171 C 
HETATM    4  C15 UNL     1      48.170  19.838 -12.591  1.00  0.00     0.156 C 
HETATM    5  C20 UNL     1      46.691  20.018 -12.704  1.00  0.00     0.173 C 
ENDROOT
BRANCH   1   6
HETATM    6  C11 UNL     1      44.956  18.255 -12.682  1.00  0.00     0.062 C 
BRANCH   6   7
HETATM    7  C10 UNL     1      44.056  17.879 -11.580  1.00  0.00     0.235 C 
BRANCH   7   8
HETATM    8  N2  UNL     1      43.150  16.811 -11.906  1.00  0.00    -0.075 N 
ATOM      9  H22 UNL     1      43.551  15.900 -11.684  1.00  0.00     0.277 HD
ATOM     10  H21 UNL     1      43.052  16.699 -12.914  1.00  0.00     0.277 HD
BRANCH   8  11
HETATM   11  C9  UNL     1      41.859  16.999 -11.262  1.00  0.00     0.232 C 
BRANCH  11  12
HETATM   12  C8  UNL     1      41.925  18.111 -10.284  1.00  0.00     0.027 C 
BRANCH  12  13
HETATM   13  C7  UNL     1      41.005  17.788  -9.108  1.00  0.00     0.002 C 
BRANCH  13  14
HETATM   14  C6  UNL     1      41.258  16.334  -8.693  1.00  0.00     0.000 C 
BRANCH  14  15
HETATM   15  C5  UNL     1      42.445  16.265  -7.763  1.00  0.00     0.000 C 
BRANCH  15  16
HETATM   16  C4  UNL     1      43.297  15.051  -8.005  1.00  0.00     0.000 C 
BRANCH  16  17
HETATM   17  C3  UNL     1      44.517  15.467  -8.786  1.00  0.00     0.007 C 
BRANCH  17  18
HETATM   18  C2  UNL     1      45.186  16.682  -8.195  1.00  0.00     0.073 C 
BRANCH  18  19
HETATM   19  C1  UNL     1      46.460  16.473  -7.596  1.00  0.00     0.091 C 
HETATM   20  N1  UNL     1      46.653  15.864  -6.264  1.00  0.00    -0.088 NA
BRANCH  19  21
HETATM   21  N6  UNL     1      47.720  16.926  -8.035  1.00  0.00    -0.373 N 
HETATM   22  C21 UNL     1      49.011  16.826  -7.441  1.00  0.00     0.123 C 
HETATM   23  C22 UNL     1      49.839  17.907  -8.125  1.00  0.00     0.021 C 
HETATM   24  C23 UNL     1      49.120  18.256  -9.386  1.00  0.00     0.021 C 
HETATM   25  C24 UNL     1      47.755  17.719  -9.293  1.00  0.00     0.123 C 
ENDBRANCH  19  21
ENDBRANCH  18  19
ENDBRANCH  17  18
ENDBRANCH  16  17
ENDBRANCH  15  16
ENDBRANCH  14  15
ENDBRANCH  13  14
ENDBRANCH  12  13
ENDBRANCH  11  12
ENDBRANCH   8  11
ENDBRANCH   7   8
ENDBRANCH   6   7
ENDBRANCH   1   6
BRANCH   5  26
HETATM   26  O4  UNL     1      46.213  20.637 -11.517  1.00  0.00    -0.391 OA
ATOM     27  H4  UNL     1      45.864  21.488 -11.757  1.00  0.00     0.210 HD
ENDBRANCH   5  26
BRANCH   3  28
HETATM   28  C14 UNL     1      48.662  19.071 -14.937  1.00  0.00     0.198 C 
BRANCH  28  29
HETATM   29  O2  UNL     1      47.631  18.801 -15.842  1.00  0.00    -0.398 OA
ATOM     30  H2  UNL     1      47.505  19.431 -16.542  1.00  0.00     0.209 HD
ENDBRANCH  28  29
ENDBRANCH   3  28
BRANCH   4  31
HETATM   31  N3  UNL     1      49.036  20.962 -12.580  1.00  0.00    -0.300 N 
HETATM   32  C16 UNL     1      50.243  20.760 -11.943  1.00  0.00     0.100 A 
HETATM   33  C17 UNL     1      51.169  21.753 -11.863  1.00  0.00     0.065 A 
HETATM   34  C18 UNL     1      50.921  23.022 -12.391  1.00  0.00     0.103 A 
HETATM   35  N4  UNL     1      51.693  23.946 -12.394  1.00  0.00    -0.385 N 
HETATM   36  N5  UNL     1      49.714  23.216 -13.013  1.00  0.00    -0.295 N 
ATOM     37  H42 UNL     1      52.590  23.801 -11.930  1.00  0.00     0.157 HD
ATOM     38  H41 UNL     1      51.512  24.873 -12.779  1.00  0.00     0.157 HD
HETATM   39  C19 UNL     1      48.826  22.189 -13.083  1.00  0.00     0.328 A 
ATOM     40  H5  UNL     1      49.485  24.122 -13.421  1.00  0.00     0.172 HD
HETATM   41  O3  UNL     1      47.722  22.356 -13.644  1.00  0.00    -0.246 OA
ENDBRANCH   4  31
TORSDOF 17
ENDMDL
