MODEL 1
REMARK VINA RESULT: -7.634396780      0.000      0.000
REMARK  16 active torsions:
REMARK  status: ('A' for Active; 'I' for Inactive)
REMARK    1  A    between atoms: C2_2  and  C3_3 
REMARK    2  A    between atoms: C2_2  and  C13_29 
REMARK    3  A    between atoms: C3_3  and  N1_4 
REMARK    4  A    between atoms: N1_4  and  C4_6 
REMARK    5  A    between atoms: C4_6  and  C5_7 
REMARK    6  A    between atoms: C5_7  and  C6_8 
REMARK    7  A    between atoms: C6_8  and  C7_9 
REMARK    8  A    between atoms: C7_9  and  C8_10 
REMARK    9  A    between atoms: C8_10  and  C9_11 
REMARK   10  A    between atoms: C9_11  and  N2_12 
REMARK   11  A    between atoms: N2_12  and  C10_14 
REMARK   12  A    between atoms: C11_17  and  N4_18 
REMARK   13  A    between atoms: C12_23  and  N6_24 
REMARK   14  A    between atoms: C13_29  and  O1_30 
REMARK   15  A    between atoms: O1_30  and  C14_31 
REMARK   16  A    between atoms: C20_38  and  C21_39 
ROOT
HETATM    1  C14 UNL     1      48.611  16.827 -10.982  1.00  0.00     0.077 A 
HETATM    2  C15 UNL     1      47.900  16.028 -11.903  1.00  0.00     0.039 A 
HETATM    3  C16 UNL     1      47.521  16.568 -13.103  1.00  0.00     0.025 A 
HETATM    4  C17 UNL     1      47.803  17.869 -13.453  1.00  0.00     0.045 A 
HETATM    5  C18 UNL     1      47.382  18.381 -14.715  1.00  0.00     0.099 C 
HETATM    6  N8  UNL     1      47.051  18.790 -15.718  1.00  0.00    -0.191 NA
HETATM    7  C19 UNL     1      48.497  18.643 -12.551  1.00  0.00     0.035 A 
HETATM    8  C20 UNL     1      48.907  18.167 -11.334  1.00  0.00     0.005 A 
ENDROOT
BRANCH   8   9
HETATM    9  C21 UNL     1      49.643  18.972 -10.366  1.00  0.00     0.157 C 
HETATM   10  C22 UNL     1      50.384  20.082 -11.124  1.00  0.00     0.039 C 
HETATM   11  C23 UNL     1      50.852  20.910  -9.919  1.00  0.00     0.029 C 
HETATM   12  C24 UNL     1      49.674  20.717  -8.982  1.00  0.00     0.168 C 
HETATM   13  O2  UNL     1      48.862  19.736  -9.519  1.00  0.00    -0.381 OA
ENDBRANCH   8   9
BRANCH   1  14
HETATM   14  O1  UNL     1      49.010  16.388  -9.818  1.00  0.00    -0.350 OA
BRANCH  14  15
HETATM   15  C13 UNL     1      49.308  15.790  -8.721  1.00  0.00     0.185 C 
BRANCH  15  16
HETATM   16  C2  UNL     1      48.920  16.414  -7.383  1.00  0.00     0.044 C 
HETATM   17  C1  UNL     1      49.812  17.484  -6.905  1.00  0.00     0.017 C 
BRANCH  16  18
HETATM   18  C3  UNL     1      47.480  16.780  -7.306  1.00  0.00     0.061 C 
BRANCH  18  19
HETATM   19  N1  UNL     1      46.573  16.210  -8.198  1.00  0.00    -0.402 N 
ATOM     20  H1  UNL     1      46.793  15.299  -8.599  1.00  0.00     0.158 HD
BRANCH  19  21
HETATM   21  C4  UNL     1      45.372  16.830  -8.570  1.00  0.00     0.118 C 
BRANCH  21  22
HETATM   22  C5  UNL     1      45.645  17.956  -9.593  1.00  0.00     0.020 C 
BRANCH  22  23
HETATM   23  C6  UNL     1      44.409  18.239 -10.397  1.00  0.00     0.002 C 
BRANCH  23  24
HETATM   24  C7  UNL     1      44.690  18.948 -11.676  1.00  0.00     0.005 C 
BRANCH  24  25
HETATM   25  C8  UNL     1      45.395  20.262 -11.380  1.00  0.00     0.045 C 
BRANCH  25  26
HETATM   26  C9  UNL     1      45.581  21.068 -12.648  1.00  0.00     0.079 C 
BRANCH  26  27
HETATM   27  N2  UNL     1      46.601  21.955 -12.628  1.00  0.00    -0.204 N 
ATOM     28  H2  UNL     1      46.271  22.772 -12.114  1.00  0.00     0.183 HD
BRANCH  27  29
HETATM   29  C10 UNL     1      47.748  22.191 -12.965  1.00  0.00     0.710 A 
HETATM   30  N3  UNL     1      48.209  21.647 -14.160  1.00  0.00    -0.021 N 
HETATM   31  C11 UNL     1      49.423  21.828 -14.636  1.00  0.00     0.705 A 
ATOM     32  H3  UNL     1      47.565  21.071 -14.701  1.00  0.00     0.203 HD
HETATM   33  N5  UNL     1      50.289  22.583 -13.937  1.00  0.00    -0.022 N 
HETATM   34  C12 UNL     1      49.929  23.140 -12.784  1.00  0.00     0.705 A 
ATOM     35  H5  UNL     1      51.232  22.730 -14.296  1.00  0.00     0.203 HD
HETATM   36  N7  UNL     1      48.685  22.938 -12.323  1.00  0.00    -0.021 N 
ATOM     37  H7  UNL     1      48.427  23.372 -11.437  1.00  0.00     0.203 HD
BRANCH  31  38
HETATM   38  N4  UNL     1      49.797  21.291 -15.760  1.00  0.00    -0.234 N 
ATOM     39  H42 UNL     1      50.136  21.886 -16.516  1.00  0.00     0.174 HD
ATOM     40  H41 UNL     1      49.763  20.282 -15.906  1.00  0.00     0.174 HD
ENDBRANCH  31  38
BRANCH  34  41
HETATM   41  N6  UNL     1      50.760  23.883 -12.090  1.00  0.00    -0.234 N 
ATOM     42  H62 UNL     1      51.289  23.461 -11.327  1.00  0.00     0.174 HD
ATOM     43  H61 UNL     1      50.888  24.874 -12.292  1.00  0.00     0.174 HD
ENDBRANCH  34  41
ENDBRANCH  27  29
ENDBRANCH  26  27
ENDBRANCH  25  26
ENDBRANCH  24  25
ENDBRANCH  23  24
ENDBRANCH  22  23
ENDBRANCH  21  22
ENDBRANCH  19  21
ENDBRANCH  18  19
ENDBRANCH  16  18
ENDBRANCH  15  16
ENDBRANCH  14  15
ENDBRANCH   1  14
TORSDOF 16
ENDMDL
MODEL 2
REMARK VINA RESULT: -7.524194718      2.958      6.937
REMARK  16 active torsions:
REMARK  status: ('A' for Active; 'I' for Inactive)
REMARK    1  A    between atoms: C2_2  and  C3_3 
REMARK    2  A    between atoms: C2_2  and  C13_29 
REMARK    3  A    between atoms: C3_3  and  N1_4 
REMARK    4  A    between atoms: N1_4  and  C4_6 
REMARK    5  A    between atoms: C4_6  and  C5_7 
REMARK    6  A    between atoms: C5_7  and  C6_8 
REMARK    7  A    between atoms: C6_8  and  C7_9 
REMARK    8  A    between atoms: C7_9  and  C8_10 
REMARK    9  A    between atoms: C8_10  and  C9_11 
REMARK   10  A    between atoms: C9_11  and  N2_12 
REMARK   11  A    between atoms: N2_12  and  C10_14 
REMARK   12  A    between atoms: C11_17  and  N4_18 
REMARK   13  A    between atoms: C12_23  and  N6_24 
REMARK   14  A    between atoms: C13_29  and  O1_30 
REMARK   15  A    between atoms: O1_30  and  C14_31 
REMARK   16  A    between atoms: C20_38  and  C21_39 
ROOT
HETATM    1  C14 UNL     1      44.458  18.836 -10.603  1.00  0.00     0.077 A 
HETATM    2  C15 UNL     1      43.239  19.350 -11.096  1.00  0.00     0.039 A 
HETATM    3  C16 UNL     1      42.062  18.772 -10.705  1.00  0.00     0.025 A 
HETATM    4  C17 UNL     1      42.012  17.700  -9.843  1.00  0.00     0.045 A 
HETATM    5  C18 UNL     1      40.758  17.135  -9.469  1.00  0.00     0.099 C 
HETATM    6  N8  UNL     1      39.762  16.687  -9.168  1.00  0.00    -0.191 NA
HETATM    7  C19 UNL     1      43.203  17.203  -9.364  1.00  0.00     0.035 A 
HETATM    8  C20 UNL     1      44.416  17.733  -9.715  1.00  0.00     0.005 A 
ENDROOT
BRANCH   8   9
HETATM    9  C21 UNL     1      45.688  17.219  -9.218  1.00  0.00     0.157 C 
HETATM   10  C22 UNL     1      45.431  16.498  -7.887  1.00  0.00     0.039 C 
HETATM   11  C23 UNL     1      46.813  15.854  -7.705  1.00  0.00     0.029 C 
HETATM   12  C24 UNL     1      47.166  15.555  -9.150  1.00  0.00     0.168 C 
HETATM   13  O2  UNL     1      46.235  16.184  -9.954  1.00  0.00    -0.381 OA
ENDBRANCH   8   9
BRANCH   1  14
HETATM   14  O1  UNL     1      45.622  19.329 -10.926  1.00  0.00    -0.350 OA
BRANCH  14  15
HETATM   15  C13 UNL     1      46.681  19.872 -11.412  1.00  0.00     0.185 C 
BRANCH  15  16
HETATM   16  C2  UNL     1      46.660  20.455 -12.822  1.00  0.00     0.044 C 
HETATM   17  C1  UNL     1      45.554  21.387 -13.101  1.00  0.00     0.017 C 
BRANCH  16  18
HETATM   18  C3  UNL     1      47.984  20.978 -13.257  1.00  0.00     0.061 C 
BRANCH  18  19
HETATM   19  N1  UNL     1      48.066  22.222 -13.879  1.00  0.00    -0.402 N 
ATOM     20  H1  UNL     1      47.201  22.731 -14.063  1.00  0.00     0.158 HD
BRANCH  19  21
HETATM   21  C4  UNL     1      49.279  22.808 -14.265  1.00  0.00     0.118 C 
BRANCH  21  22
HETATM   22  C5  UNL     1      50.363  21.721 -14.451  1.00  0.00     0.020 C 
BRANCH  22  23
HETATM   23  C6  UNL     1      51.600  22.083 -13.682  1.00  0.00     0.002 C 
BRANCH  23  24
HETATM   24  C7  UNL     1      51.311  22.655 -12.338  1.00  0.00     0.005 C 
BRANCH  24  25
HETATM   25  C8  UNL     1      51.100  21.525 -11.343  1.00  0.00     0.045 C 
BRANCH  25  26
HETATM   26  C9  UNL     1      50.192  21.967 -10.215  1.00  0.00     0.079 C 
BRANCH  26  27
HETATM   27  N2  UNL     1      49.866  21.005  -9.321  1.00  0.00    -0.204 N 
ATOM     28  H2  UNL     1      48.847  20.975  -9.280  1.00  0.00     0.183 HD
BRANCH  27  29
HETATM   29  C10 UNL     1      50.276  20.160  -8.545  1.00  0.00     0.710 A 
HETATM   30  N3  UNL     1      50.273  18.831  -8.955  1.00  0.00    -0.021 N 
HETATM   31  C11 UNL     1      50.692  17.827  -8.215  1.00  0.00     0.705 A 
ATOM     32  H3  UNL     1      49.923  18.622  -9.890  1.00  0.00     0.203 HD
HETATM   33  N5  UNL     1      51.156  18.081  -6.979  1.00  0.00    -0.022 N 
HETATM   34  C12 UNL     1      51.193  19.325  -6.508  1.00  0.00     0.705 A 
ATOM     35  H5  UNL     1      51.483  17.311  -6.395  1.00  0.00     0.203 HD
HETATM   36  N7  UNL     1      50.760  20.328  -7.285  1.00  0.00    -0.021 N 
ATOM     37  H7  UNL     1      50.795  21.275  -6.908  1.00  0.00     0.203 HD
BRANCH  31  38
HETATM   38  N4  UNL     1      50.662  16.602  -8.653  1.00  0.00    -0.234 N 
ATOM     39  H42 UNL     1      51.097  16.375  -9.548  1.00  0.00     0.174 HD
ATOM     40  H41 UNL     1      50.214  15.857  -8.120  1.00  0.00     0.174 HD
ENDBRANCH  31  38
BRANCH  34  41
HETATM   41  N6  UNL     1      51.646  19.592  -5.305  1.00  0.00    -0.234 N 
ATOM     42  H62 UNL     1      51.494  18.920  -4.553  1.00  0.00     0.174 HD
ATOM     43  H61 UNL     1      52.145  20.457  -5.101  1.00  0.00     0.174 HD
ENDBRANCH  34  41
ENDBRANCH  27  29
ENDBRANCH  26  27
ENDBRANCH  25  26
ENDBRANCH  24  25
ENDBRANCH  23  24
ENDBRANCH  22  23
ENDBRANCH  21  22
ENDBRANCH  19  21
ENDBRANCH  18  19
ENDBRANCH  16  18
ENDBRANCH  15  16
ENDBRANCH  14  15
ENDBRANCH   1  14
TORSDOF 16
ENDMDL
MODEL 3
REMARK VINA RESULT: -7.432848844      3.484      6.829
REMARK  16 active torsions:
REMARK  status: ('A' for Active; 'I' for Inactive)
REMARK    1  A    between atoms: C2_2  and  C3_3 
REMARK    2  A    between atoms: C2_2  and  C13_29 
REMARK    3  A    between atoms: C3_3  and  N1_4 
REMARK    4  A    between atoms: N1_4  and  C4_6 
REMARK    5  A    between atoms: C4_6  and  C5_7 
REMARK    6  A    between atoms: C5_7  and  C6_8 
REMARK    7  A    between atoms: C6_8  and  C7_9 
REMARK    8  A    between atoms: C7_9  and  C8_10 
REMARK    9  A    between atoms: C8_10  and  C9_11 
REMARK   10  A    between atoms: C9_11  and  N2_12 
REMARK   11  A    between atoms: N2_12  and  C10_14 
REMARK   12  A    between atoms: C11_17  and  N4_18 
REMARK   13  A    between atoms: C12_23  and  N6_24 
REMARK   14  A    between atoms: C13_29  and  O1_30 
REMARK   15  A    between atoms: O1_30  and  C14_31 
REMARK   16  A    between atoms: C20_38  and  C21_39 
ROOT
HETATM    1  C14 UNL     1      44.664  17.695 -12.403  1.00  0.00     0.077 A 
HETATM    2  C15 UNL     1      45.277  17.239 -13.590  1.00  0.00     0.039 A 
HETATM    3  C16 UNL     1      44.806  16.104 -14.193  1.00  0.00     0.025 A 
HETATM    4  C17 UNL     1      43.750  15.379 -13.688  1.00  0.00     0.045 A 
HETATM    5  C18 UNL     1      43.301  14.202 -14.355  1.00  0.00     0.099 C 
HETATM    6  N8  UNL     1      42.940  13.269 -14.885  1.00  0.00    -0.191 NA
HETATM    7  C19 UNL     1      43.155  15.828 -12.531  1.00  0.00     0.035 A 
HETATM    8  C20 UNL     1      43.576  16.956 -11.876  1.00  0.00     0.005 A 
ENDROOT
BRANCH   8   9
HETATM    9  C21 UNL     1      42.958  17.447 -10.649  1.00  0.00     0.157 C 
HETATM   10  C22 UNL     1      41.656  18.169 -11.020  1.00  0.00     0.039 C 
HETATM   11  C23 UNL     1      41.089  18.359  -9.606  1.00  0.00     0.029 C 
HETATM   12  C24 UNL     1      41.573  17.082  -8.944  1.00  0.00     0.168 C 
HETATM   13  O2  UNL     1      42.464  16.470  -9.805  1.00  0.00    -0.381 OA
ENDBRANCH   8   9
BRANCH   1  14
HETATM   14  O1  UNL     1      45.052  18.768 -11.768  1.00  0.00    -0.350 OA
BRANCH  14  15
HETATM   15  C13 UNL     1      45.607  19.796 -11.232  1.00  0.00     0.185 C 
BRANCH  15  16
HETATM   16  C2  UNL     1      47.039  20.169 -11.605  1.00  0.00     0.044 C 
HETATM   17  C1  UNL     1      47.999  19.053 -11.613  1.00  0.00     0.017 C 
BRANCH  16  18
HETATM   18  C3  UNL     1      47.121  21.015 -12.827  1.00  0.00     0.061 C 
BRANCH  18  19
HETATM   19  N1  UNL     1      47.519  22.347 -12.721  1.00  0.00    -0.402 N 
ATOM     20  H1  UNL     1      46.879  23.012 -12.285  1.00  0.00     0.158 HD
BRANCH  19  21
HETATM   21  C4  UNL     1      48.755  22.817 -13.182  1.00  0.00     0.118 C 
BRANCH  21  22
HETATM   22  C5  UNL     1      49.498  21.701 -13.953  1.00  0.00     0.020 C 
BRANCH  22  23
HETATM   23  C6  UNL     1      50.959  21.716 -13.610  1.00  0.00     0.002 C 
BRANCH  23  24
HETATM   24  C7  UNL     1      51.244  22.310 -12.275  1.00  0.00     0.005 C 
BRANCH  24  25
HETATM   25  C8  UNL     1      51.072  21.245 -11.203  1.00  0.00     0.045 C 
BRANCH  25  26
HETATM   26  C9  UNL     1      50.264  21.780 -10.040  1.00  0.00     0.079 C 
BRANCH  26  27
HETATM   27  N2  UNL     1      49.961  20.878  -9.079  1.00  0.00    -0.204 N 
ATOM     28  H2  UNL     1      48.952  20.927  -8.937  1.00  0.00     0.183 HD
BRANCH  27  29
HETATM   29  C10 UNL     1      50.385  20.031  -8.313  1.00  0.00     0.710 A 
HETATM   30  N3  UNL     1      50.400  18.706  -8.737  1.00  0.00    -0.021 N 
HETATM   31  C11 UNL     1      50.834  17.700  -8.008  1.00  0.00     0.705 A 
ATOM     32  H3  UNL     1      50.051  18.501  -9.673  1.00  0.00     0.203 HD
HETATM   33  N5  UNL     1      51.297  17.948  -6.769  1.00  0.00    -0.022 N 
HETATM   34  C12 UNL     1      51.317  19.187  -6.286  1.00  0.00     0.705 A 
ATOM     35  H5  UNL     1      51.636  17.177  -6.194  1.00  0.00     0.203 HD
HETATM   36  N7  UNL     1      50.868  20.193  -7.052  1.00  0.00    -0.021 N 
ATOM     37  H7  UNL     1      50.890  21.136  -6.665  1.00  0.00     0.203 HD
BRANCH  31  38
HETATM   38  N4  UNL     1      50.822  16.480  -8.458  1.00  0.00    -0.234 N 
ATOM     39  H42 UNL     1      50.845  15.699  -7.803  1.00  0.00     0.174 HD
ATOM     40  H41 UNL     1      50.787  16.283  -9.459  1.00  0.00     0.174 HD
ENDBRANCH  31  38
BRANCH  34  41
HETATM   41  N6  UNL     1      51.768  19.449  -5.081  1.00  0.00    -0.234 N 
ATOM     42  H62 UNL     1      52.087  18.681  -4.489  1.00  0.00     0.174 HD
ATOM     43  H61 UNL     1      51.806  20.401  -4.719  1.00  0.00     0.174 HD
ENDBRANCH  34  41
ENDBRANCH  27  29
ENDBRANCH  26  27
ENDBRANCH  25  26
ENDBRANCH  24  25
ENDBRANCH  23  24
ENDBRANCH  22  23
ENDBRANCH  21  22
ENDBRANCH  19  21
ENDBRANCH  18  19
ENDBRANCH  16  18
ENDBRANCH  15  16
ENDBRANCH  14  15
ENDBRANCH   1  14
TORSDOF 16
ENDMDL
MODEL 4
REMARK VINA RESULT: -7.427526744      2.248      4.596
REMARK  16 active torsions:
REMARK  status: ('A' for Active; 'I' for Inactive)
REMARK    1  A    between atoms: C2_2  and  C3_3 
REMARK    2  A    between atoms: C2_2  and  C13_29 
REMARK    3  A    between atoms: C3_3  and  N1_4 
REMARK    4  A    between atoms: N1_4  and  C4_6 
REMARK    5  A    between atoms: C4_6  and  C5_7 
REMARK    6  A    between atoms: C5_7  and  C6_8 
REMARK    7  A    between atoms: C6_8  and  C7_9 
REMARK    8  A    between atoms: C7_9  and  C8_10 
REMARK    9  A    between atoms: C8_10  and  C9_11 
REMARK   10  A    between atoms: C9_11  and  N2_12 
REMARK   11  A    between atoms: N2_12  and  C10_14 
REMARK   12  A    between atoms: C11_17  and  N4_18 
REMARK   13  A    between atoms: C12_23  and  N6_24 
REMARK   14  A    between atoms: C13_29  and  O1_30 
REMARK   15  A    between atoms: O1_30  and  C14_31 
REMARK   16  A    between atoms: C20_38  and  C21_39 
ROOT
HETATM    1  C14 UNL     1      49.524  18.011  -8.430  1.00  0.00     0.077 A 
HETATM    2  C15 UNL     1      49.671  17.117  -7.347  1.00  0.00     0.039 A 
HETATM    3  C16 UNL     1      50.652  17.345  -6.420  1.00  0.00     0.025 A 
HETATM    4  C17 UNL     1      51.511  18.417  -6.497  1.00  0.00     0.045 A 
HETATM    5  C18 UNL     1      52.517  18.606  -5.505  1.00  0.00     0.099 C 
HETATM    6  N8  UNL     1      53.315  18.760  -4.716  1.00  0.00    -0.191 NA
HETATM    7  C19 UNL     1      51.364  19.286  -7.554  1.00  0.00     0.035 A 
HETATM    8  C20 UNL     1      50.404  19.118  -8.517  1.00  0.00     0.005 A 
ENDROOT
BRANCH   8   9
HETATM    9  C21 UNL     1      50.232  20.029  -9.644  1.00  0.00     0.157 C 
HETATM   10  C22 UNL     1      49.907  21.424  -9.093  1.00  0.00     0.039 C 
HETATM   11  C23 UNL     1      50.023  22.219 -10.401  1.00  0.00     0.029 C 
HETATM   12  C24 UNL     1      51.147  21.462 -11.082  1.00  0.00     0.168 C 
HETATM   13  O2  UNL     1      51.383  20.310 -10.356  1.00  0.00    -0.381 OA
ENDBRANCH   8   9
BRANCH   1  14
HETATM   14  O1  UNL     1      48.615  17.866  -9.355  1.00  0.00    -0.350 OA
BRANCH  14  15
HETATM   15  C13 UNL     1      47.595  17.686 -10.117  1.00  0.00     0.185 C 
BRANCH  15  16
HETATM   16  C2  UNL     1      46.301  18.450  -9.851  1.00  0.00     0.044 C 
HETATM   17  C1  UNL     1      46.069  19.616 -10.721  1.00  0.00     0.017 C 
BRANCH  16  18
HETATM   18  C3  UNL     1      45.112  17.562  -9.739  1.00  0.00     0.061 C 
BRANCH  18  19
HETATM   19  N1  UNL     1      44.316  17.328 -10.859  1.00  0.00    -0.402 N 
ATOM     20  H1  UNL     1      43.617  18.026 -11.112  1.00  0.00     0.158 HD
BRANCH  19  21
HETATM   21  C4  UNL     1      44.429  16.179 -11.653  1.00  0.00     0.118 C 
BRANCH  21  22
HETATM   22  C5  UNL     1      44.367  16.556 -13.151  1.00  0.00     0.020 C 
BRANCH  22  23
HETATM   23  C6  UNL     1      45.744  16.853 -13.671  1.00  0.00     0.002 C 
BRANCH  23  24
HETATM   24  C7  UNL     1      45.939  18.284 -14.034  1.00  0.00     0.005 C 
BRANCH  24  25
HETATM   25  C8  UNL     1      47.273  18.446 -14.744  1.00  0.00     0.045 C 
BRANCH  25  26
HETATM   26  C9  UNL     1      48.390  18.657 -13.745  1.00  0.00     0.079 C 
BRANCH  26  27
HETATM   27  N2  UNL     1      49.244  19.665 -14.032  1.00  0.00    -0.204 N 
ATOM     28  H2  UNL     1      50.160  19.241 -14.184  1.00  0.00     0.183 HD
BRANCH  27  29
HETATM   29  C10 UNL     1      49.382  20.866 -14.186  1.00  0.00     0.710 A 
HETATM   30  N3  UNL     1      50.578  21.329 -14.723  1.00  0.00    -0.021 N 
HETATM   31  C11 UNL     1      50.850  22.599 -14.942  1.00  0.00     0.705 A 
ATOM     32  H3  UNL     1      51.292  20.641 -14.962  1.00  0.00     0.203 HD
HETATM   33  N5  UNL     1      49.923  23.523 -14.632  1.00  0.00    -0.022 N 
HETATM   34  C12 UNL     1      48.751  23.166 -14.113  1.00  0.00     0.705 A 
ATOM     35  H5  UNL     1      50.122  24.510 -14.796  1.00  0.00     0.203 HD
HETATM   36  N7  UNL     1      48.503  21.864 -13.901  1.00  0.00    -0.021 N 
ATOM     37  H7  UNL     1      47.600  21.608 -13.502  1.00  0.00     0.203 HD
BRANCH  31  38
HETATM   38  N4  UNL     1      51.990  22.972 -15.445  1.00  0.00    -0.234 N 
ATOM     39  H42 UNL     1      52.659  22.268 -15.758  1.00  0.00     0.174 HD
ATOM     40  H41 UNL     1      52.232  23.958 -15.539  1.00  0.00     0.174 HD
ENDBRANCH  31  38
BRANCH  34  41
HETATM   41  N6  UNL     1      47.834  24.054 -13.808  1.00  0.00    -0.234 N 
ATOM     42  H62 UNL     1      46.921  24.005 -14.259  1.00  0.00     0.174 HD
ATOM     43  H61 UNL     1      48.012  24.795 -13.130  1.00  0.00     0.174 HD
ENDBRANCH  34  41
ENDBRANCH  27  29
ENDBRANCH  26  27
ENDBRANCH  25  26
ENDBRANCH  24  25
ENDBRANCH  23  24
ENDBRANCH  22  23
ENDBRANCH  21  22
ENDBRANCH  19  21
ENDBRANCH  18  19
ENDBRANCH  16  18
ENDBRANCH  15  16
ENDBRANCH  14  15
ENDBRANCH   1  14
TORSDOF 16
ENDMDL
MODEL 5
REMARK VINA RESULT: -7.396407332      2.106      4.471
REMARK  16 active torsions:
REMARK  status: ('A' for Active; 'I' for Inactive)
REMARK    1  A    between atoms: C2_2  and  C3_3 
REMARK    2  A    between atoms: C2_2  and  C13_29 
REMARK    3  A    between atoms: C3_3  and  N1_4 
REMARK    4  A    between atoms: N1_4  and  C4_6 
REMARK    5  A    between atoms: C4_6  and  C5_7 
REMARK    6  A    between atoms: C5_7  and  C6_8 
REMARK    7  A    between atoms: C6_8  and  C7_9 
REMARK    8  A    between atoms: C7_9  and  C8_10 
REMARK    9  A    between atoms: C8_10  and  C9_11 
REMARK   10  A    between atoms: C9_11  and  N2_12 
REMARK   11  A    between atoms: N2_12  and  C10_14 
REMARK   12  A    between atoms: C11_17  and  N4_18 
REMARK   13  A    between atoms: C12_23  and  N6_24 
REMARK   14  A    between atoms: C13_29  and  O1_30 
REMARK   15  A    between atoms: O1_30  and  C14_31 
REMARK   16  A    between atoms: C20_38  and  C21_39 
ROOT
HETATM    1  C14 UNL     1      49.938  17.934  -9.036  1.00  0.00     0.077 A 
HETATM    2  C15 UNL     1      50.154  16.963  -8.035  1.00  0.00     0.039 A 
HETATM    3  C16 UNL     1      50.884  17.296  -6.926  1.00  0.00     0.025 A 
HETATM    4  C17 UNL     1      51.424  18.549  -6.742  1.00  0.00     0.045 A 
HETATM    5  C18 UNL     1      52.179  18.842  -5.569  1.00  0.00     0.099 C 
HETATM    6  N8  UNL     1      52.776  19.078  -4.636  1.00  0.00    -0.191 NA
HETATM    7  C19 UNL     1      51.211  19.492  -7.721  1.00  0.00     0.035 A 
HETATM    8  C20 UNL     1      50.490  19.227  -8.855  1.00  0.00     0.005 A 
ENDROOT
BRANCH   8   9
HETATM    9  C21 UNL     1      50.253  20.214  -9.903  1.00  0.00     0.157 C 
HETATM   10  C22 UNL     1      49.979  21.569  -9.237  1.00  0.00     0.039 C 
HETATM   11  C23 UNL     1      50.016  22.453 -10.492  1.00  0.00     0.029 C 
HETATM   12  C24 UNL     1      51.086  21.738 -11.297  1.00  0.00     0.168 C 
HETATM   13  O2  UNL     1      51.358  20.538 -10.669  1.00  0.00    -0.381 OA
ENDBRANCH   8   9
BRANCH   1  14
HETATM   14  O1  UNL     1      49.253  17.698 -10.122  1.00  0.00    -0.350 OA
BRANCH  14  15
HETATM   15  C13 UNL     1      48.535  17.292 -11.108  1.00  0.00     0.185 C 
BRANCH  15  16
HETATM   16  C2  UNL     1      47.322  16.402 -10.851  1.00  0.00     0.044 C 
HETATM   17  C1  UNL     1      47.620  15.083 -10.268  1.00  0.00     0.017 C 
BRANCH  16  18
HETATM   18  C3  UNL     1      46.217  17.111 -10.150  1.00  0.00     0.061 C 
BRANCH  18  19
HETATM   19  N1  UNL     1      46.297  18.487  -9.946  1.00  0.00    -0.402 N 
ATOM     20  H1  UNL     1      46.972  18.839  -9.266  1.00  0.00     0.158 HD
BRANCH  19  21
HETATM   21  C4  UNL     1      45.497  19.412 -10.629  1.00  0.00     0.118 C 
BRANCH  21  22
HETATM   22  C5  UNL     1      46.315  20.110 -11.741  1.00  0.00     0.020 C 
BRANCH  22  23
HETATM   23  C6  UNL     1      45.726  19.806 -13.088  1.00  0.00     0.002 C 
BRANCH  23  24
HETATM   24  C7  UNL     1      46.184  18.506 -13.651  1.00  0.00     0.005 C 
BRANCH  24  25
HETATM   25  C8  UNL     1      46.895  18.751 -14.972  1.00  0.00     0.045 C 
BRANCH  25  26
HETATM   26  C9  UNL     1      48.393  18.598 -14.812  1.00  0.00     0.079 C 
BRANCH  26  27
HETATM   27  N2  UNL     1      49.028  19.655 -14.257  1.00  0.00    -0.204 N 
ATOM     28  H2  UNL     1      49.338  19.360 -13.331  1.00  0.00     0.183 HD
BRANCH  27  29
HETATM   29  C10 UNL     1      49.387  20.812 -14.397  1.00  0.00     0.710 A 
HETATM   30  N3  UNL     1      48.509  21.824 -14.026  1.00  0.00    -0.021 N 
HETATM   31  C11 UNL     1      48.776  23.109 -14.124  1.00  0.00     0.705 A 
ATOM     32  H3  UNL     1      47.598  21.553 -13.656  1.00  0.00     0.203 HD
HETATM   33  N5  UNL     1      49.971  23.488 -14.611  1.00  0.00    -0.022 N 
HETATM   34  C12 UNL     1      50.870  22.584 -14.990  1.00  0.00     0.705 A 
ATOM     35  H5  UNL     1      50.190  24.481 -14.692  1.00  0.00     0.203 HD
HETATM   36  N7  UNL     1      50.569  21.281 -14.879  1.00  0.00    -0.021 N 
ATOM     37  H7  UNL     1      51.270  20.601 -15.175  1.00  0.00     0.203 HD
BRANCH  31  38
HETATM   38  N4  UNL     1      47.911  24.012 -13.762  1.00  0.00    -0.234 N 
ATOM     39  H42 UNL     1      47.869  24.899 -14.262  1.00  0.00     0.174 HD
ATOM     40  H41 UNL     1      47.269  23.852 -12.987  1.00  0.00     0.174 HD
ENDBRANCH  31  38
BRANCH  34  41
HETATM   41  N6  UNL     1      52.042  22.935 -15.465  1.00  0.00    -0.234 N 
ATOM     42  H62 UNL     1      52.106  23.731 -16.100  1.00  0.00     0.174 HD
ATOM     43  H61 UNL     1      52.893  22.431 -15.217  1.00  0.00     0.174 HD
ENDBRANCH  34  41
ENDBRANCH  27  29
ENDBRANCH  26  27
ENDBRANCH  25  26
ENDBRANCH  24  25
ENDBRANCH  23  24
ENDBRANCH  22  23
ENDBRANCH  21  22
ENDBRANCH  19  21
ENDBRANCH  18  19
ENDBRANCH  16  18
ENDBRANCH  15  16
ENDBRANCH  14  15
ENDBRANCH   1  14
TORSDOF 16
ENDMDL
