MODEL 1
REMARK VINA RESULT: -7.661219478      0.000      0.000
REMARK  19 active torsions:
REMARK  status: ('A' for Active; 'I' for Inactive)
REMARK    1  A    between atoms: N1_1  and  C1_4 
REMARK    2  A    between atoms: N4_12  and  C5_13 
REMARK    3  A    between atoms: C8_16  and  O1_17 
REMARK    4  A    between atoms: C10_20  and  N5_21 
REMARK    5  A    between atoms: N5_21  and  C11_23 
REMARK    6  A    between atoms: C11_23  and  C12_24 
REMARK    7  A    between atoms: C12_24  and  C13_25 
REMARK    8  A    between atoms: C13_25  and  C14_26 
REMARK    9  A    between atoms: C14_26  and  C15_27 
REMARK   10  A    between atoms: C15_27  and  C16_28 
REMARK   11  A    between atoms: C16_28  and  C17_29 
REMARK   12  A    between atoms: C17_29  and  C18_30 
REMARK   13  A    between atoms: C18_30  and  C19_31 
REMARK   14  A    between atoms: C19_31  and  N6_32 
REMARK   15  A    between atoms: N6_32  and  C20_34 
REMARK   16  A    between atoms: C20_34  and  N7_36 
REMARK   17  A    between atoms: N7_36  and  C21_38 
REMARK   18  A    between atoms: C21_38  and  C22_39 
REMARK   19  A    between atoms: C22_39  and  O2_40 
ROOT
HETATM    1  C1  UNL     1      50.729  19.464  -7.277  1.00  0.00     0.225 A 
HETATM    2  N2  UNL     1      50.846  20.188  -8.397  1.00  0.00    -0.306 N 
ATOM      3  H2  UNL     1      51.385  21.054  -8.407  1.00  0.00     0.171 HD
HETATM    4  C2  UNL     1      50.236  19.745  -9.504  1.00  0.00     0.143 A 
HETATM    5  C3  UNL     1      49.509  18.546  -9.424  1.00  0.00     0.130 A 
HETATM    6  N3  UNL     1      49.028  18.357 -10.635  1.00  0.00    -0.346 N 
ATOM      7  H3  UNL     1      48.448  17.566 -10.914  1.00  0.00     0.167 HD
HETATM    8  C4  UNL     1      49.405  19.349 -11.445  1.00  0.00     0.185 A 
HETATM    9  N4  UNL     1      50.174  20.236 -10.737  1.00  0.00    -0.322 N 
HETATM   10  C10 UNL     1      49.419  17.839  -8.249  1.00  0.00     0.181 A 
HETATM   11  O3  UNL     1      50.056  18.360  -7.210  1.00  0.00    -0.260 OA
ENDROOT
BRANCH  10  12
HETATM   12  N5  UNL     1      48.803  16.768  -8.065  1.00  0.00    -0.348 N 
ATOM     13  H5  UNL     1      49.310  15.955  -8.416  1.00  0.00     0.167 HD
BRANCH  12  14
HETATM   14  C11 UNL     1      47.566  16.431  -7.484  1.00  0.00     0.063 C 
BRANCH  14  15
HETATM   15  C12 UNL     1      46.366  16.902  -8.282  1.00  0.00     0.044 C 
BRANCH  15  16
HETATM   16  C13 UNL     1      45.197  16.010  -8.255  1.00  0.00     0.005 C 
BRANCH  16  17
HETATM   17  C14 UNL     1      43.824  16.536  -8.146  1.00  0.00     0.000 C 
BRANCH  17  18
HETATM   18  C15 UNL     1      42.862  16.330  -9.247  1.00  0.00     0.000 C 
BRANCH  18  19
HETATM   19  C16 UNL     1      41.771  17.306  -9.487  1.00  0.00     0.000 C 
BRANCH  19  20
HETATM   20  C17 UNL     1      41.941  17.993 -10.853  1.00  0.00     0.002 C 
BRANCH  20  21
HETATM   21  C18 UNL     1      42.443  19.392 -10.743  1.00  0.00     0.020 C 
BRANCH  21  22
HETATM   22  C19 UNL     1      43.947  19.393 -10.943  1.00  0.00     0.122 C 
BRANCH  22  23
HETATM   23  N6  UNL     1      44.394  20.557 -11.665  1.00  0.00    -0.367 N 
ATOM     24  H6  UNL     1      44.001  21.475 -11.453  1.00  0.00     0.161 HD
BRANCH  23  25
HETATM   25  C20 UNL     1      45.387  20.419 -12.676  1.00  0.00     0.167 C 
HETATM   26  S1  UNL     1      45.944  18.937 -13.060  1.00  0.00    -0.041 SA
BRANCH  25  27
HETATM   27  N7  UNL     1      45.877  21.546 -13.355  1.00  0.00    -0.365 N 
ATOM     28  H7  UNL     1      45.275  22.012 -14.034  1.00  0.00     0.161 HD
BRANCH  27  29
HETATM   29  C21 UNL     1      47.195  22.066 -13.125  1.00  0.00     0.148 C 
BRANCH  29  30
HETATM   30  C22 UNL     1      47.364  23.513 -13.477  1.00  0.00     0.183 C 
BRANCH  30  31
HETATM   31  O2  UNL     1      48.080  23.572 -14.697  1.00  0.00    -0.399 OA
ATOM     32  H2  UNL     1      47.443  23.574 -15.401  1.00  0.00     0.209 HD
ENDBRANCH  30  31
ENDBRANCH  29  30
ENDBRANCH  27  29
ENDBRANCH  25  27
ENDBRANCH  23  25
ENDBRANCH  22  23
ENDBRANCH  21  22
ENDBRANCH  20  21
ENDBRANCH  19  20
ENDBRANCH  18  19
ENDBRANCH  17  18
ENDBRANCH  16  17
ENDBRANCH  15  16
ENDBRANCH  14  15
ENDBRANCH  12  14
ENDBRANCH  10  12
BRANCH   1  33
HETATM   33  N1  UNL     1      51.321  19.891  -6.195  1.00  0.00    -0.365 N 
ATOM     34  H12 UNL     1      52.195  19.445  -5.916  1.00  0.00     0.159 HD
ATOM     35  H11 UNL     1      50.888  20.652  -5.670  1.00  0.00     0.159 HD
ENDBRANCH   1  33
BRANCH   9  36
HETATM   36  C5  UNL     1      50.701  21.370 -11.349  1.00  0.00     0.095 C 
HETATM   37  C6  UNL     1      50.176  22.704 -11.185  1.00  0.00     0.028 C 
HETATM   38  C7  UNL     1      51.175  23.518 -12.035  1.00  0.00     0.034 C 
HETATM   39  C8  UNL     1      51.371  22.611 -13.239  1.00  0.00     0.120 C 
HETATM   40  C9  UNL     1      50.756  21.266 -12.887  1.00  0.00     0.057 C 
BRANCH  39  41
HETATM   41  O1  UNL     1      50.852  23.150 -14.395  1.00  0.00    -0.396 OA
ATOM     42  H1  UNL     1      50.578  22.485 -15.016  1.00  0.00     0.210 HD
ENDBRANCH  39  41
ENDBRANCH   9  36
TORSDOF 19
ENDMDL
MODEL 2
REMARK VINA RESULT: -7.476255230      3.291      8.398
REMARK  19 active torsions:
REMARK  status: ('A' for Active; 'I' for Inactive)
REMARK    1  A    between atoms: N1_1  and  C1_4 
REMARK    2  A    between atoms: N4_12  and  C5_13 
REMARK    3  A    between atoms: C8_16  and  O1_17 
REMARK    4  A    between atoms: C10_20  and  N5_21 
REMARK    5  A    between atoms: N5_21  and  C11_23 
REMARK    6  A    between atoms: C11_23  and  C12_24 
REMARK    7  A    between atoms: C12_24  and  C13_25 
REMARK    8  A    between atoms: C13_25  and  C14_26 
REMARK    9  A    between atoms: C14_26  and  C15_27 
REMARK   10  A    between atoms: C15_27  and  C16_28 
REMARK   11  A    between atoms: C16_28  and  C17_29 
REMARK   12  A    between atoms: C17_29  and  C18_30 
REMARK   13  A    between atoms: C18_30  and  C19_31 
REMARK   14  A    between atoms: C19_31  and  N6_32 
REMARK   15  A    between atoms: N6_32  and  C20_34 
REMARK   16  A    between atoms: C20_34  and  N7_36 
REMARK   17  A    between atoms: N7_36  and  C21_38 
REMARK   18  A    between atoms: C21_38  and  C22_39 
REMARK   19  A    between atoms: C22_39  and  O2_40 
ROOT
HETATM    1  C1  UNL     1      46.364  20.531 -12.848  1.00  0.00     0.225 A 
HETATM    2  N2  UNL     1      45.412  19.797 -12.259  1.00  0.00    -0.306 N 
ATOM      3  H2  UNL     1      44.899  20.154 -11.454  1.00  0.00     0.171 HD
HETATM    4  C2  UNL     1      45.153  18.580 -12.755  1.00  0.00     0.143 A 
HETATM    5  C3  UNL     1      45.896  18.147 -13.865  1.00  0.00     0.130 A 
HETATM    6  N3  UNL     1      45.438  16.941 -14.132  1.00  0.00    -0.346 N 
ATOM      7  H3  UNL     1      45.773  16.346 -14.890  1.00  0.00     0.167 HD
HETATM    8  C4  UNL     1      44.474  16.608 -13.271  1.00  0.00     0.185 A 
HETATM    9  N4  UNL     1      44.285  17.643 -12.392  1.00  0.00    -0.322 N 
HETATM   10  C10 UNL     1      46.864  18.939 -14.435  1.00  0.00     0.181 A 
HETATM   11  O3  UNL     1      47.046  20.124 -13.871  1.00  0.00    -0.260 OA
ENDROOT
BRANCH  10  12
HETATM   12  N5  UNL     1      47.580  18.655 -15.418  1.00  0.00    -0.348 N 
ATOM     13  H5  UNL     1      47.037  18.381 -16.236  1.00  0.00     0.167 HD
BRANCH  12  14
HETATM   14  C11 UNL     1      48.969  18.629 -15.649  1.00  0.00     0.063 C 
BRANCH  14  15
HETATM   15  C12 UNL     1      49.378  19.212 -16.988  1.00  0.00     0.044 C 
BRANCH  15  16
HETATM   16  C13 UNL     1      49.897  20.587 -16.948  1.00  0.00     0.005 C 
BRANCH  16  17
HETATM   17  C14 UNL     1      49.957  21.356 -15.691  1.00  0.00     0.000 C 
BRANCH  17  18
HETATM   18  C15 UNL     1      51.184  22.098 -15.335  1.00  0.00     0.000 C 
BRANCH  18  19
HETATM   19  C16 UNL     1      51.600  22.229 -13.917  1.00  0.00     0.000 C 
BRANCH  19  20
HETATM   20  C17 UNL     1      50.750  21.323 -13.011  1.00  0.00     0.002 C 
BRANCH  20  21
HETATM   21  C18 UNL     1      51.139  21.406 -11.574  1.00  0.00     0.020 C 
BRANCH  21  22
HETATM   22  C19 UNL     1      50.221  22.389 -10.871  1.00  0.00     0.122 C 
BRANCH  22  23
HETATM   23  N6  UNL     1      49.947  21.993  -9.513  1.00  0.00    -0.367 N 
ATOM     24  H6  UNL     1      50.018  22.673  -8.756  1.00  0.00     0.161 HD
BRANCH  23  25
HETATM   25  C20 UNL     1      49.576  20.646  -9.235  1.00  0.00     0.167 C 
HETATM   26  S1  UNL     1      50.509  19.739  -8.256  1.00  0.00    -0.041 SA
BRANCH  25  27
HETATM   27  N7  UNL     1      48.404  20.101  -9.785  1.00  0.00    -0.365 N 
ATOM     28  H7  UNL     1      47.626  20.724 -10.003  1.00  0.00     0.161 HD
BRANCH  27  29
HETATM   29  C21 UNL     1      48.264  18.698 -10.050  1.00  0.00     0.148 C 
BRANCH  29  30
HETATM   30  C22 UNL     1      48.781  18.261 -11.387  1.00  0.00     0.183 C 
BRANCH  30  31
HETATM   31  O2  UNL     1      48.326  16.939 -11.607  1.00  0.00    -0.399 OA
ATOM     32  H2  UNL     1      48.135  16.854 -12.534  1.00  0.00     0.209 HD
ENDBRANCH  30  31
ENDBRANCH  29  30
ENDBRANCH  27  29
ENDBRANCH  25  27
ENDBRANCH  23  25
ENDBRANCH  22  23
ENDBRANCH  21  22
ENDBRANCH  20  21
ENDBRANCH  19  20
ENDBRANCH  18  19
ENDBRANCH  17  18
ENDBRANCH  16  17
ENDBRANCH  15  16
ENDBRANCH  14  15
ENDBRANCH  12  14
ENDBRANCH  10  12
BRANCH   1  33
HETATM   33  N1  UNL     1      46.622  21.718 -12.369  1.00  0.00    -0.365 N 
ATOM     34  H12 UNL     1      47.310  21.796 -11.620  1.00  0.00     0.159 HD
ATOM     35  H11 UNL     1      46.126  22.519 -12.760  1.00  0.00     0.159 HD
ENDBRANCH   1  33
BRANCH   9  36
HETATM   36  C5  UNL     1      43.330  17.555 -11.382  1.00  0.00     0.095 C 
HETATM   37  C6  UNL     1      43.634  17.350  -9.986  1.00  0.00     0.028 C 
HETATM   38  C7  UNL     1      42.220  17.393  -9.369  1.00  0.00     0.034 C 
HETATM   39  C8  UNL     1      41.411  16.611 -10.390  1.00  0.00     0.120 C 
HETATM   40  C9  UNL     1      42.289  16.443 -11.620  1.00  0.00     0.057 C 
BRANCH  39  41
HETATM   41  O1  UNL     1      40.952  15.411  -9.892  1.00  0.00    -0.396 OA
ATOM     42  H1  UNL     1      40.028  15.275 -10.066  1.00  0.00     0.210 HD
ENDBRANCH  39  41
ENDBRANCH   9  36
TORSDOF 19
ENDMDL
MODEL 3
REMARK VINA RESULT: -7.442647651      2.803      6.330
REMARK  19 active torsions:
REMARK  status: ('A' for Active; 'I' for Inactive)
REMARK    1  A    between atoms: N1_1  and  C1_4 
REMARK    2  A    between atoms: N4_12  and  C5_13 
REMARK    3  A    between atoms: C8_16  and  O1_17 
REMARK    4  A    between atoms: C10_20  and  N5_21 
REMARK    5  A    between atoms: N5_21  and  C11_23 
REMARK    6  A    between atoms: C11_23  and  C12_24 
REMARK    7  A    between atoms: C12_24  and  C13_25 
REMARK    8  A    between atoms: C13_25  and  C14_26 
REMARK    9  A    between atoms: C14_26  and  C15_27 
REMARK   10  A    between atoms: C15_27  and  C16_28 
REMARK   11  A    between atoms: C16_28  and  C17_29 
REMARK   12  A    between atoms: C17_29  and  C18_30 
REMARK   13  A    between atoms: C18_30  and  C19_31 
REMARK   14  A    between atoms: C19_31  and  N6_32 
REMARK   15  A    between atoms: N6_32  and  C20_34 
REMARK   16  A    between atoms: C20_34  and  N7_36 
REMARK   17  A    between atoms: N7_36  and  C21_38 
REMARK   18  A    between atoms: C21_38  and  C22_39 
REMARK   19  A    between atoms: C22_39  and  O2_40 
ROOT
HETATM    1  C1  UNL     1      50.828  19.636  -7.180  1.00  0.00     0.225 A 
HETATM    2  N2  UNL     1      50.599  18.360  -7.514  1.00  0.00    -0.306 N 
ATOM      3  H2  UNL     1      50.870  17.599  -6.892  1.00  0.00     0.171 HD
HETATM    4  C2  UNL     1      50.003  18.110  -8.687  1.00  0.00     0.143 A 
HETATM    5  C3  UNL     1      49.655  19.202  -9.498  1.00  0.00     0.130 A 
HETATM    6  N3  UNL     1      49.097  18.670 -10.566  1.00  0.00    -0.346 N 
ATOM      7  H3  UNL     1      48.731  19.200 -11.357  1.00  0.00     0.167 HD
HETATM    8  C4  UNL     1      49.080  17.339 -10.467  1.00  0.00     0.185 A 
HETATM    9  N4  UNL     1      49.653  16.973  -9.277  1.00  0.00    -0.322 N 
HETATM   10  C10 UNL     1      49.912  20.495  -9.109  1.00  0.00     0.181 A 
HETATM   11  O3  UNL     1      50.505  20.638  -7.933  1.00  0.00    -0.260 OA
ENDROOT
BRANCH  10  12
HETATM   12  N5  UNL     1      49.646  21.535  -9.748  1.00  0.00    -0.348 N 
ATOM     13  H5  UNL     1      48.709  21.888  -9.557  1.00  0.00     0.167 HD
BRANCH  12  14
HETATM   14  C11 UNL     1      50.351  22.330 -10.673  1.00  0.00     0.063 C 
BRANCH  14  15
HETATM   15  C12 UNL     1      51.085  21.530 -11.732  1.00  0.00     0.044 C 
BRANCH  15  16
HETATM   16  C13 UNL     1      51.700  22.320 -12.810  1.00  0.00     0.005 C 
BRANCH  16  17
HETATM   17  C14 UNL     1      51.354  22.099 -14.226  1.00  0.00     0.000 C 
BRANCH  17  18
HETATM   18  C15 UNL     1      50.107  21.393 -14.582  1.00  0.00     0.000 C 
BRANCH  18  19
HETATM   19  C16 UNL     1      49.926  20.820 -15.939  1.00  0.00     0.000 C 
BRANCH  19  20
HETATM   20  C17 UNL     1      49.198  19.467 -15.869  1.00  0.00     0.002 C 
BRANCH  20  21
HETATM   21  C18 UNL     1      49.017  18.974 -14.474  1.00  0.00     0.020 C 
BRANCH  21  22
HETATM   22  C19 UNL     1      47.580  18.523 -14.293  1.00  0.00     0.122 C 
BRANCH  22  23
HETATM   23  N6  UNL     1      46.680  19.638 -14.145  1.00  0.00    -0.367 N 
ATOM     24  H6  UNL     1      46.304  20.108 -14.969  1.00  0.00     0.161 HD
BRANCH  23  25
HETATM   25  C20 UNL     1      46.318  20.081 -12.840  1.00  0.00     0.167 C 
HETATM   26  S1  UNL     1      45.411  19.120 -11.887  1.00  0.00    -0.041 SA
BRANCH  25  27
HETATM   27  N7  UNL     1      46.751  21.329 -12.364  1.00  0.00    -0.365 N 
ATOM     28  H7  UNL     1      47.165  21.384 -11.434  1.00  0.00     0.161 HD
BRANCH  27  29
HETATM   29  C21 UNL     1      46.632  22.528 -13.143  1.00  0.00     0.148 C 
BRANCH  29  30
HETATM   30  C22 UNL     1      47.805  23.455 -13.043  1.00  0.00     0.183 C 
BRANCH  30  31
HETATM   31  O2  UNL     1      47.868  24.193 -14.249  1.00  0.00    -0.399 OA
ATOM     32  H2  UNL     1      48.749  24.538 -14.327  1.00  0.00     0.209 HD
ENDBRANCH  30  31
ENDBRANCH  29  30
ENDBRANCH  27  29
ENDBRANCH  25  27
ENDBRANCH  23  25
ENDBRANCH  22  23
ENDBRANCH  21  22
ENDBRANCH  20  21
ENDBRANCH  19  20
ENDBRANCH  18  19
ENDBRANCH  17  18
ENDBRANCH  16  17
ENDBRANCH  15  16
ENDBRANCH  14  15
ENDBRANCH  12  14
ENDBRANCH  10  12
BRANCH   1  33
HETATM   33  N1  UNL     1      51.409  19.886  -6.038  1.00  0.00    -0.365 N 
ATOM     34  H12 UNL     1      50.850  20.310  -5.296  1.00  0.00     0.159 HD
ATOM     35  H11 UNL     1      52.395  19.650  -5.931  1.00  0.00     0.159 HD
ENDBRANCH   1  33
BRANCH   9  36
HETATM   36  C5  UNL     1      49.762  15.631  -8.921  1.00  0.00     0.095 C 
HETATM   37  C6  UNL     1      50.248  15.162  -7.645  1.00  0.00     0.028 C 
HETATM   38  C7  UNL     1      50.092  13.635  -7.816  1.00  0.00     0.034 C 
HETATM   39  C8  UNL     1      50.554  13.434  -9.250  1.00  0.00     0.120 C 
HETATM   40  C9  UNL     1      50.644  14.812  -9.886  1.00  0.00     0.057 C 
BRANCH  39  41
HETATM   41  O1  UNL     1      51.735  12.730  -9.329  1.00  0.00    -0.396 OA
ATOM     42  H1  UNL     1      52.240  12.952 -10.103  1.00  0.00     0.210 HD
ENDBRANCH  39  41
ENDBRANCH   9  36
TORSDOF 19
ENDMDL
MODEL 4
REMARK VINA RESULT: -7.430150288      2.096      5.593
REMARK  19 active torsions:
REMARK  status: ('A' for Active; 'I' for Inactive)
REMARK    1  A    between atoms: N1_1  and  C1_4 
REMARK    2  A    between atoms: N4_12  and  C5_13 
REMARK    3  A    between atoms: C8_16  and  O1_17 
REMARK    4  A    between atoms: C10_20  and  N5_21 
REMARK    5  A    between atoms: N5_21  and  C11_23 
REMARK    6  A    between atoms: C11_23  and  C12_24 
REMARK    7  A    between atoms: C12_24  and  C13_25 
REMARK    8  A    between atoms: C13_25  and  C14_26 
REMARK    9  A    between atoms: C14_26  and  C15_27 
REMARK   10  A    between atoms: C15_27  and  C16_28 
REMARK   11  A    between atoms: C16_28  and  C17_29 
REMARK   12  A    between atoms: C17_29  and  C18_30 
REMARK   13  A    between atoms: C18_30  and  C19_31 
REMARK   14  A    between atoms: C19_31  and  N6_32 
REMARK   15  A    between atoms: N6_32  and  C20_34 
REMARK   16  A    between atoms: C20_34  and  N7_36 
REMARK   17  A    between atoms: N7_36  and  C21_38 
REMARK   18  A    between atoms: C21_38  and  C22_39 
REMARK   19  A    between atoms: C22_39  and  O2_40 
ROOT
HETATM    1  C1  UNL     1      47.750  18.043 -12.268  1.00  0.00     0.225 A 
HETATM    2  N2  UNL     1      48.619  19.038 -12.488  1.00  0.00    -0.306 N 
ATOM      3  H2  UNL     1      49.619  18.853 -12.569  1.00  0.00     0.171 HD
HETATM    4  C2  UNL     1      48.140  20.284 -12.600  1.00  0.00     0.143 A 
HETATM    5  C3  UNL     1      46.754  20.472 -12.479  1.00  0.00     0.130 A 
HETATM    6  N3  UNL     1      46.571  21.768 -12.628  1.00  0.00    -0.346 N 
ATOM      7  H3  UNL     1      45.666  22.236 -12.593  1.00  0.00     0.167 HD
HETATM    8  C4  UNL     1      47.739  22.382 -12.830  1.00  0.00     0.185 A 
HETATM    9  N4  UNL     1      48.742  21.448 -12.814  1.00  0.00    -0.322 N 
HETATM   10  C10 UNL     1      45.903  19.417 -12.253  1.00  0.00     0.181 A 
HETATM   11  O3  UNL     1      46.473  18.225 -12.157  1.00  0.00    -0.260 OA
ENDROOT
BRANCH  10  12
HETATM   12  N5  UNL     1      44.661  19.470 -12.129  1.00  0.00    -0.348 N 
ATOM     13  H5  UNL     1      44.168  18.976 -12.873  1.00  0.00     0.167 HD
BRANCH  12  14
HETATM   14  C11 UNL     1      43.789  20.060 -11.194  1.00  0.00     0.063 C 
BRANCH  14  15
HETATM   15  C12 UNL     1      42.610  19.183 -10.819  1.00  0.00     0.044 C 
BRANCH  15  16
HETATM   16  C13 UNL     1      42.919  17.762 -10.609  1.00  0.00     0.005 C 
BRANCH  16  17
HETATM   17  C14 UNL     1      43.344  17.248  -9.294  1.00  0.00     0.000 C 
BRANCH  17  18
HETATM   18  C15 UNL     1      44.781  17.139  -8.971  1.00  0.00     0.000 C 
BRANCH  18  19
HETATM   19  C16 UNL     1      45.245  16.229  -7.895  1.00  0.00     0.000 C 
BRANCH  19  20
HETATM   20  C17 UNL     1      46.719  16.498  -7.548  1.00  0.00     0.002 C 
BRANCH  20  21
HETATM   21  C18 UNL     1      47.439  17.255  -8.611  1.00  0.00     0.020 C 
BRANCH  21  22
HETATM   22  C19 UNL     1      48.905  17.360  -8.235  1.00  0.00     0.122 C 
BRANCH  22  23
HETATM   23  N6  UNL     1      49.646  18.161  -9.176  1.00  0.00    -0.367 N 
ATOM     24  H6  UNL     1      49.644  17.922 -10.167  1.00  0.00     0.161 HD
BRANCH  23  25
HETATM   25  C20 UNL     1      50.381  19.289  -8.711  1.00  0.00     0.167 C 
HETATM   26  S1  UNL     1      49.938  20.786  -9.175  1.00  0.00    -0.041 SA
BRANCH  25  27
HETATM   27  N7  UNL     1      51.473  19.121  -7.844  1.00  0.00    -0.365 N 
ATOM     28  H7  UNL     1      52.329  18.700  -8.206  1.00  0.00     0.161 HD
BRANCH  27  29
HETATM   29  C21 UNL     1      51.426  19.523  -6.467  1.00  0.00     0.148 C 
BRANCH  29  30
HETATM   30  C22 UNL     1      52.172  18.622  -5.530  1.00  0.00     0.183 C 
BRANCH  30  31
HETATM   31  O2  UNL     1      51.585  18.762  -4.249  1.00  0.00    -0.399 OA
ATOM     32  H2  UNL     1      51.880  19.590  -3.890  1.00  0.00     0.209 HD
ENDBRANCH  30  31
ENDBRANCH  29  30
ENDBRANCH  27  29
ENDBRANCH  25  27
ENDBRANCH  23  25
ENDBRANCH  22  23
ENDBRANCH  21  22
ENDBRANCH  20  21
ENDBRANCH  19  20
ENDBRANCH  18  19
ENDBRANCH  17  18
ENDBRANCH  16  17
ENDBRANCH  15  16
ENDBRANCH  14  15
ENDBRANCH  12  14
ENDBRANCH  10  12
BRANCH   1  33
HETATM   33  N1  UNL     1      48.212  16.827 -12.159  1.00  0.00    -0.365 N 
ATOM     34  H12 UNL     1      49.200  16.705 -11.937  1.00  0.00     0.159 HD
ATOM     35  H11 UNL     1      47.568  16.047 -12.300  1.00  0.00     0.159 HD
ENDBRANCH   1  33
BRANCH   9  36
HETATM   36  C5  UNL     1      50.070  21.824 -13.003  1.00  0.00     0.095 C 
HETATM   37  C6  UNL     1      50.668  23.015 -12.449  1.00  0.00     0.028 C 
HETATM   38  C7  UNL     1      52.124  22.868 -12.941  1.00  0.00     0.034 C 
HETATM   39  C8  UNL     1      51.923  22.359 -14.359  1.00  0.00     0.120 C 
HETATM   40  C9  UNL     1      50.461  21.966 -14.488  1.00  0.00     0.057 C 
BRANCH  39  41
HETATM   41  O1  UNL     1      52.317  23.277 -15.308  1.00  0.00    -0.396 OA
ATOM     42  H1  UNL     1      53.173  23.080 -15.671  1.00  0.00     0.210 HD
ENDBRANCH  39  41
ENDBRANCH   9  36
TORSDOF 19
ENDMDL
MODEL 5
REMARK VINA RESULT: -7.417675736      1.856      2.110
REMARK  19 active torsions:
REMARK  status: ('A' for Active; 'I' for Inactive)
REMARK    1  A    between atoms: N1_1  and  C1_4 
REMARK    2  A    between atoms: N4_12  and  C5_13 
REMARK    3  A    between atoms: C8_16  and  O1_17 
REMARK    4  A    between atoms: C10_20  and  N5_21 
REMARK    5  A    between atoms: N5_21  and  C11_23 
REMARK    6  A    between atoms: C11_23  and  C12_24 
REMARK    7  A    between atoms: C12_24  and  C13_25 
REMARK    8  A    between atoms: C13_25  and  C14_26 
REMARK    9  A    between atoms: C14_26  and  C15_27 
REMARK   10  A    between atoms: C15_27  and  C16_28 
REMARK   11  A    between atoms: C16_28  and  C17_29 
REMARK   12  A    between atoms: C17_29  and  C18_30 
REMARK   13  A    between atoms: C18_30  and  C19_31 
REMARK   14  A    between atoms: C19_31  and  N6_32 
REMARK   15  A    between atoms: N6_32  and  C20_34 
REMARK   16  A    between atoms: C20_34  and  N7_36 
REMARK   17  A    between atoms: N7_36  and  C21_38 
REMARK   18  A    between atoms: C21_38  and  C22_39 
REMARK   19  A    between atoms: C22_39  and  O2_40 
ROOT
HETATM    1  C1  UNL     1      50.670  19.447  -7.255  1.00  0.00     0.225 A 
HETATM    2  N2  UNL     1      50.761  20.151  -8.390  1.00  0.00    -0.306 N 
ATOM      3  H2  UNL     1      51.308  21.011  -8.431  1.00  0.00     0.171 HD
HETATM    4  C2  UNL     1      50.114  19.696  -9.471  1.00  0.00     0.143 A 
HETATM    5  C3  UNL     1      49.378  18.506  -9.348  1.00  0.00     0.130 A 
HETATM    6  N3  UNL     1      48.858  18.302 -10.541  1.00  0.00    -0.346 N 
ATOM      7  H3  UNL     1      48.263  17.512 -10.789  1.00  0.00     0.167 HD
HETATM    8  C4  UNL     1      49.221  19.275 -11.379  1.00  0.00     0.185 A 
HETATM    9  N4  UNL     1      50.020  20.166 -10.709  1.00  0.00    -0.322 N 
HETATM   10  C10 UNL     1      49.316  17.820  -8.159  1.00  0.00     0.181 A 
HETATM   11  O3  UNL     1      49.989  18.351  -7.149  1.00  0.00    -0.260 OA
ENDROOT
BRANCH  10  12
HETATM   12  N5  UNL     1      48.696  16.758  -7.939  1.00  0.00    -0.348 N 
ATOM     13  H5  UNL     1      49.150  15.942  -8.350  1.00  0.00     0.167 HD
BRANCH  12  14
HETATM   14  C11 UNL     1      47.509  16.436  -7.253  1.00  0.00     0.063 C 
BRANCH  14  15
HETATM   15  C12 UNL     1      46.348  16.091  -8.166  1.00  0.00     0.044 C 
BRANCH  15  16
HETATM   16  C13 UNL     1      45.758  17.223  -8.895  1.00  0.00     0.005 C 
BRANCH  16  17
HETATM   17  C14 UNL     1      44.338  17.230  -9.295  1.00  0.00     0.000 C 
BRANCH  17  18
HETATM   18  C15 UNL     1      43.938  17.812 -10.592  1.00  0.00     0.000 C 
BRANCH  18  19
HETATM   19  C16 UNL     1      43.310  16.965 -11.636  1.00  0.00     0.000 C 
BRANCH  19  20
HETATM   20  C17 UNL     1      44.223  16.848 -12.868  1.00  0.00     0.002 C 
BRANCH  20  21
HETATM   21  C18 UNL     1      45.562  16.277 -12.549  1.00  0.00     0.020 C 
BRANCH  21  22
HETATM   22  C19 UNL     1      46.418  16.296 -13.803  1.00  0.00     0.122 C 
BRANCH  22  23
HETATM   23  N6  UNL     1      46.200  17.487 -14.585  1.00  0.00    -0.367 N 
ATOM     24  H6  UNL     1      45.323  17.617 -15.089  1.00  0.00     0.161 HD
BRANCH  23  25
HETATM   25  C20 UNL     1      47.218  18.481 -14.648  1.00  0.00     0.167 C 
HETATM   26  S1  UNL     1      48.676  18.103 -15.269  1.00  0.00    -0.041 SA
BRANCH  25  27
HETATM   27  N7  UNL     1      46.969  19.787 -14.196  1.00  0.00    -0.365 N 
ATOM     28  H7  UNL     1      47.444  20.565 -14.653  1.00  0.00     0.161 HD
BRANCH  27  29
HETATM   29  C21 UNL     1      46.069  20.064 -13.113  1.00  0.00     0.148 C 
BRANCH  29  30
HETATM   30  C22 UNL     1      45.719  21.512 -12.949  1.00  0.00     0.183 C 
BRANCH  30  31
HETATM   31  O2  UNL     1      46.846  22.160 -12.389  1.00  0.00    -0.399 OA
ATOM     32  H2  UNL     1      46.589  22.494 -11.538  1.00  0.00     0.209 HD
ENDBRANCH  30  31
ENDBRANCH  29  30
ENDBRANCH  27  29
ENDBRANCH  25  27
ENDBRANCH  23  25
ENDBRANCH  22  23
ENDBRANCH  21  22
ENDBRANCH  20  21
ENDBRANCH  19  20
ENDBRANCH  18  19
ENDBRANCH  17  18
ENDBRANCH  16  17
ENDBRANCH  15  16
ENDBRANCH  14  15
ENDBRANCH  12  14
ENDBRANCH  10  12
BRANCH   1  33
HETATM   33  N1  UNL     1      51.299  19.886  -6.198  1.00  0.00    -0.365 N 
ATOM     34  H12 UNL     1      51.125  20.846  -5.898  1.00  0.00     0.159 HD
ATOM     35  H11 UNL     1      51.938  19.255  -5.714  1.00  0.00     0.159 HD
ENDBRANCH   1  33
BRANCH   9  36
HETATM   36  C5  UNL     1      50.540  21.285 -11.356  1.00  0.00     0.095 C 
HETATM   37  C6  UNL     1      50.239  22.649 -10.995  1.00  0.00     0.028 C 
HETATM   38  C7  UNL     1      51.121  23.419 -12.001  1.00  0.00     0.034 C 
HETATM   39  C8  UNL     1      50.930  22.605 -13.270  1.00  0.00     0.120 C 
HETATM   40  C9  UNL     1      50.241  21.311 -12.869  1.00  0.00     0.057 C 
BRANCH  39  41
HETATM   41  O1  UNL     1      50.242  23.298 -14.242  1.00  0.00    -0.396 OA
ATOM     42  H1  UNL     1      49.306  23.319 -14.080  1.00  0.00     0.210 HD
ENDBRANCH  39  41
ENDBRANCH   9  36
TORSDOF 19
ENDMDL
