MODEL 1
REMARK VINA RESULT: -8.327195837      0.000      0.000
REMARK  20 active torsions:
REMARK  status: ('A' for Active; 'I' for Inactive)
REMARK    1  A    between atoms: N1_1  and  C1_4 
REMARK    2  A    between atoms: C2_7  and  N3_8 
REMARK    3  A    between atoms: N3_8  and  C3_10 
REMARK    4  A    between atoms: C3_10  and  C4_11 
REMARK    5  A    between atoms: C4_11  and  C5_12 
REMARK    6  A    between atoms: C5_12  and  C6_13 
REMARK    7  A    between atoms: C6_13  and  C7_14 
REMARK    8  A    between atoms: C7_14  and  C8_15 
REMARK    9  A    between atoms: C8_15  and  C9_16 
REMARK   10  A    between atoms: C9_16  and  C10_17 
REMARK   11  A    between atoms: C10_17  and  O1_18 
REMARK   12  A    between atoms: N4_20  and  O2_22 
REMARK   13  A    between atoms: C11_26  and  C12_27 
REMARK   14  A    between atoms: C12_27  and  C13_28 
REMARK   15  A    between atoms: C13_28  and  C14_29 
REMARK   16  A    between atoms: C14_29  and  C15_30 
REMARK       I    between atoms: C15_30  and  N6_32 
REMARK   17  A    between atoms: C20_37  and  C21_38 
REMARK   18  A    between atoms: C22_39  and  C23_40 
REMARK   19  A    between atoms: C23_40  and  C24_41 
REMARK   20  A    between atoms: C24_41  and  O4_42 
ROOT
HETATM    1  C1  UNL     1      46.679  19.252 -14.075  1.00  0.00     0.135 A 
HETATM    2  N2  UNL     1      47.412  20.381 -13.899  1.00  0.00    -0.176 N 
ATOM      3  H2  UNL     1      47.992  20.757 -14.649  1.00  0.00     0.186 HD
HETATM    4  C2  UNL     1      47.345  20.983 -12.705  1.00  0.00     0.679 A 
HETATM    5  N5  UNL     1      46.596  20.529 -11.679  1.00  0.00    -0.194 N 
ATOM      6  H5  UNL     1      46.587  21.032 -10.791  1.00  0.00     0.184 HD
HETATM    7  C11 UNL     1      45.856  19.404 -11.832  1.00  0.00     0.049 A 
HETATM    8  C20 UNL     1      45.904  18.766 -13.044  1.00  0.00     0.085 A 
ENDROOT
BRANCH   4   9
HETATM    9  N3  UNL     1      48.032  22.071 -12.482  1.00  0.00    -0.226 N 
ATOM     10  H3  UNL     1      47.550  22.882 -12.095  1.00  0.00     0.177 HD
BRANCH   9  11
HETATM   11  C3  UNL     1      49.433  22.174 -12.756  1.00  0.00     0.138 C 
BRANCH  11  12
HETATM   12  C4  UNL     1      50.133  20.956 -12.181  1.00  0.00     0.020 C 
BRANCH  12  13
HETATM   13  C5  UNL     1      51.079  21.340 -11.067  1.00  0.00     0.002 C 
BRANCH  13  14
HETATM   14  C6  UNL     1      50.264  21.430  -9.788  1.00  0.00     0.000 C 
BRANCH  14  15
HETATM   15  C7  UNL     1      49.489  20.153  -9.662  1.00  0.00     0.000 C 
BRANCH  15  16
HETATM   16  C8  UNL     1      50.238  19.081  -8.876  1.00  0.00     0.008 C 
BRANCH  16  17
HETATM   17  C9  UNL     1      50.842  19.611  -7.633  1.00  0.00     0.086 C 
BRANCH  17  18
HETATM   18  C10 UNL     1      51.448  18.543  -6.823  1.00  0.00     0.135 C 
HETATM   19  N4  UNL     1      50.848  17.688  -6.115  1.00  0.00    -0.251 N 
ATOM     20  H4  UNL     1      51.465  17.035  -5.633  1.00  0.00     0.196 HD
BRANCH  18  21
HETATM   21  O1  UNL     1      52.871  18.412  -6.795  1.00  0.00    -0.348 OA
ATOM     22  H1  UNL     1      53.261  17.699  -6.303  1.00  0.00     0.219 HD
ENDBRANCH  18  21
BRANCH  19  23
HETATM   23  O2  UNL     1      49.548  17.491  -5.888  1.00  0.00    -0.288 OA
ATOM     24  H2  UNL     1      49.071  17.326  -5.083  1.00  0.00     0.244 HD
ENDBRANCH  19  23
ENDBRANCH  17  18
ENDBRANCH  16  17
ENDBRANCH  15  16
ENDBRANCH  14  15
ENDBRANCH  13  14
ENDBRANCH  12  13
ENDBRANCH  11  12
ENDBRANCH   9  11
ENDBRANCH   4   9
BRANCH   1  25
HETATM   25  N1  UNL     1      46.719  18.641 -15.228  1.00  0.00    -0.384 N 
ATOM     26  H12 UNL     1      46.807  19.168 -16.097  1.00  0.00     0.157 HD
ATOM     27  H11 UNL     1      46.662  17.623 -15.253  1.00  0.00     0.157 HD
ENDBRANCH   1  25
BRANCH   7  28
HETATM   28  C12 UNL     1      45.047  18.931 -10.689  1.00  0.00     0.060 C 
BRANCH  28  29
HETATM   29  C13 UNL     1      45.850  18.024  -9.781  1.00  0.00     0.015 C 
BRANCH  29  30
HETATM   30  C14 UNL     1      45.234  16.651  -9.750  1.00  0.00     0.103 C 
BRANCH  30  31
HETATM   31  C15 UNL     1      44.199  16.560  -8.692  1.00  0.00     0.219 C 
HETATM   32  O3  UNL     1      44.569  16.396  -7.499  1.00  0.00    -0.273 OA
HETATM   33  N6  UNL     1      42.839  16.661  -9.058  1.00  0.00    -0.352 N 
HETATM   34  C16 UNL     1      41.736  16.587  -8.124  1.00  0.00     0.126 C 
HETATM   35  C19 UNL     1      42.305  16.855 -10.394  1.00  0.00     0.126 C 
HETATM   36  C17 UNL     1      40.522  17.111  -8.816  1.00  0.00     0.021 C 
HETATM   37  C18 UNL     1      41.033  17.642 -10.124  1.00  0.00     0.021 C 
ENDBRANCH  30  31
ENDBRANCH  29  30
ENDBRANCH  28  29
ENDBRANCH   7  28
BRANCH   8  38
HETATM   38  C21 UNL     1      45.146  17.585 -13.258  1.00  0.00    -0.061 C 
HETATM   39  C22 UNL     1      44.505  16.574 -13.426  1.00  0.00    -0.099 C 
BRANCH  39  40
HETATM   40  C23 UNL     1      43.712  15.374 -13.622  1.00  0.00     0.120 C 
BRANCH  40  41
HETATM   41  C24 UNL     1      44.458  14.357 -14.463  1.00  0.00     0.176 C 
BRANCH  41  42
HETATM   42  O4  UNL     1      44.184  14.643 -15.796  1.00  0.00    -0.400 OA
ATOM     43  H4  UNL     1      44.394  13.866 -16.299  1.00  0.00     0.209 HD
ENDBRANCH  41  42
ENDBRANCH  40  41
ENDBRANCH  39  40
ENDBRANCH   8  38
TORSDOF 20
ENDMDL
MODEL 2
REMARK VINA RESULT: -8.288141140      2.049      3.575
REMARK  20 active torsions:
REMARK  status: ('A' for Active; 'I' for Inactive)
REMARK    1  A    between atoms: N1_1  and  C1_4 
REMARK    2  A    between atoms: C2_7  and  N3_8 
REMARK    3  A    between atoms: N3_8  and  C3_10 
REMARK    4  A    between atoms: C3_10  and  C4_11 
REMARK    5  A    between atoms: C4_11  and  C5_12 
REMARK    6  A    between atoms: C5_12  and  C6_13 
REMARK    7  A    between atoms: C6_13  and  C7_14 
REMARK    8  A    between atoms: C7_14  and  C8_15 
REMARK    9  A    between atoms: C8_15  and  C9_16 
REMARK   10  A    between atoms: C9_16  and  C10_17 
REMARK   11  A    between atoms: C10_17  and  O1_18 
REMARK   12  A    between atoms: N4_20  and  O2_22 
REMARK   13  A    between atoms: C11_26  and  C12_27 
REMARK   14  A    between atoms: C12_27  and  C13_28 
REMARK   15  A    between atoms: C13_28  and  C14_29 
REMARK   16  A    between atoms: C14_29  and  C15_30 
REMARK       I    between atoms: C15_30  and  N6_32 
REMARK   17  A    between atoms: C20_37  and  C21_38 
REMARK   18  A    between atoms: C22_39  and  C23_40 
REMARK   19  A    between atoms: C23_40  and  C24_41 
REMARK   20  A    between atoms: C24_41  and  O4_42 
ROOT
HETATM    1  C1  UNL     1      46.428  18.972 -14.182  1.00  0.00     0.135 A 
HETATM    2  N2  UNL     1      46.852  20.218 -13.851  1.00  0.00    -0.176 N 
ATOM      3  H2  UNL     1      47.517  20.723 -14.437  1.00  0.00     0.186 HD
HETATM    4  C2  UNL     1      46.368  20.758 -12.726  1.00  0.00     0.679 A 
HETATM    5  N5  UNL     1      45.490  20.135 -11.914  1.00  0.00    -0.194 N 
ATOM      6  H5  UNL     1      45.157  20.599 -11.068  1.00  0.00     0.184 HD
HETATM    7  C11 UNL     1      45.052  18.891 -12.224  1.00  0.00     0.049 A 
HETATM    8  C20 UNL     1      45.530  18.311 -13.370  1.00  0.00     0.085 A 
ENDROOT
BRANCH   4   9
HETATM    9  N3  UNL     1      46.746  21.954 -12.359  1.00  0.00    -0.226 N 
ATOM     10  H3  UNL     1      46.666  22.211 -11.376  1.00  0.00     0.177 HD
BRANCH   9  11
HETATM   11  C3  UNL     1      47.267  22.918 -13.279  1.00  0.00     0.138 C 
BRANCH  11  12
HETATM   12  C4  UNL     1      48.660  23.319 -12.828  1.00  0.00     0.020 C 
BRANCH  12  13
HETATM   13  C5  UNL     1      49.707  22.892 -13.830  1.00  0.00     0.002 C 
BRANCH  13  14
HETATM   14  C6  UNL     1      50.752  22.083 -13.080  1.00  0.00     0.000 C 
BRANCH  14  15
HETATM   15  C7  UNL     1      50.260  20.669 -13.013  1.00  0.00     0.000 C 
BRANCH  15  16
HETATM   16  C8  UNL     1      49.936  20.222 -11.591  1.00  0.00     0.008 C 
BRANCH  16  17
HETATM   17  C9  UNL     1      50.959  20.661 -10.615  1.00  0.00     0.086 C 
BRANCH  17  18
HETATM   18  C10 UNL     1      50.446  20.631  -9.236  1.00  0.00     0.135 C 
HETATM   19  N4  UNL     1      50.997  20.112  -8.228  1.00  0.00    -0.251 N 
ATOM     20  H4  UNL     1      50.466  20.205  -7.363  1.00  0.00     0.196 HD
BRANCH  18  21
HETATM   21  O1  UNL     1      49.186  21.242  -8.948  1.00  0.00    -0.348 OA
ATOM     22  H1  UNL     1      48.386  20.785  -9.179  1.00  0.00     0.219 HD
ENDBRANCH  18  21
BRANCH  19  23
HETATM   23  O2  UNL     1      52.156  19.461  -8.097  1.00  0.00    -0.288 OA
ATOM     24  H2  UNL     1      52.941  19.674  -7.608  1.00  0.00     0.244 HD
ENDBRANCH  19  23
ENDBRANCH  17  18
ENDBRANCH  16  17
ENDBRANCH  15  16
ENDBRANCH  14  15
ENDBRANCH  13  14
ENDBRANCH  12  13
ENDBRANCH  11  12
ENDBRANCH   9  11
ENDBRANCH   4   9
BRANCH   1  25
HETATM   25  N1  UNL     1      46.879  18.415 -15.274  1.00  0.00    -0.384 N 
ATOM     26  H12 UNL     1      47.800  17.979 -15.297  1.00  0.00     0.157 HD
ATOM     27  H11 UNL     1      46.296  18.420 -16.112  1.00  0.00     0.157 HD
ENDBRANCH   1  25
BRANCH   7  28
HETATM   28  C12 UNL     1      44.091  18.233 -11.314  1.00  0.00     0.060 C 
BRANCH  28  29
HETATM   29  C13 UNL     1      44.672  18.067  -9.925  1.00  0.00     0.015 C 
BRANCH  29  30
HETATM   30  C14 UNL     1      45.686  16.955  -9.920  1.00  0.00     0.103 C 
BRANCH  30  31
HETATM   31  C15 UNL     1      46.276  16.783  -8.571  1.00  0.00     0.219 C 
HETATM   32  O3  UNL     1      45.519  16.455  -7.619  1.00  0.00    -0.273 OA
HETATM   33  N6  UNL     1      47.662  16.994  -8.401  1.00  0.00    -0.352 N 
HETATM   34  C16 UNL     1      48.358  16.860  -7.139  1.00  0.00     0.126 C 
HETATM   35  C19 UNL     1      48.622  17.367  -9.425  1.00  0.00     0.126 C 
HETATM   36  C17 UNL     1      49.818  16.781  -7.435  1.00  0.00     0.021 C 
HETATM   37  C18 UNL     1      49.897  16.701  -8.932  1.00  0.00     0.021 C 
ENDBRANCH  30  31
ENDBRANCH  29  30
ENDBRANCH  28  29
ENDBRANCH   7  28
BRANCH   8  38
HETATM   38  C21 UNL     1      45.102  17.010 -13.745  1.00  0.00    -0.061 C 
HETATM   39  C22 UNL     1      44.730  15.901 -14.049  1.00  0.00    -0.099 C 
BRANCH  39  40
HETATM   40  C23 UNL     1      44.263  14.580 -14.428  1.00  0.00     0.120 C 
BRANCH  40  41
HETATM   41  C24 UNL     1      45.407  13.586 -14.470  1.00  0.00     0.176 C 
BRANCH  41  42
HETATM   42  O4  UNL     1      46.149  13.860 -15.614  1.00  0.00    -0.400 OA
ATOM     43  H4  UNL     1      47.056  13.948 -15.347  1.00  0.00     0.209 HD
ENDBRANCH  41  42
ENDBRANCH  40  41
ENDBRANCH  39  40
ENDBRANCH   8  38
TORSDOF 20
ENDMDL
MODEL 3
REMARK VINA RESULT: -8.269401159      3.136      8.647
REMARK  20 active torsions:
REMARK  status: ('A' for Active; 'I' for Inactive)
REMARK    1  A    between atoms: N1_1  and  C1_4 
REMARK    2  A    between atoms: C2_7  and  N3_8 
REMARK    3  A    between atoms: N3_8  and  C3_10 
REMARK    4  A    between atoms: C3_10  and  C4_11 
REMARK    5  A    between atoms: C4_11  and  C5_12 
REMARK    6  A    between atoms: C5_12  and  C6_13 
REMARK    7  A    between atoms: C6_13  and  C7_14 
REMARK    8  A    between atoms: C7_14  and  C8_15 
REMARK    9  A    between atoms: C8_15  and  C9_16 
REMARK   10  A    between atoms: C9_16  and  C10_17 
REMARK   11  A    between atoms: C10_17  and  O1_18 
REMARK   12  A    between atoms: N4_20  and  O2_22 
REMARK   13  A    between atoms: C11_26  and  C12_27 
REMARK   14  A    between atoms: C12_27  and  C13_28 
REMARK   15  A    between atoms: C13_28  and  C14_29 
REMARK   16  A    between atoms: C14_29  and  C15_30 
REMARK       I    between atoms: C15_30  and  N6_32 
REMARK   17  A    between atoms: C20_37  and  C21_38 
REMARK   18  A    between atoms: C22_39  and  C23_40 
REMARK   19  A    between atoms: C23_40  and  C24_41 
REMARK   20  A    between atoms: C24_41  and  O4_42 
ROOT
HETATM    1  C1  UNL     1      49.213  17.997  -9.998  1.00  0.00     0.135 A 
HETATM    2  N2  UNL     1      48.633  17.752 -11.201  1.00  0.00    -0.176 N 
ATOM      3  H2  UNL     1      48.086  16.907 -11.361  1.00  0.00     0.186 HD
HETATM    4  C2  UNL     1      48.807  18.661 -12.168  1.00  0.00     0.679 A 
HETATM    5  N5  UNL     1      49.521  19.794 -12.011  1.00  0.00    -0.194 N 
ATOM      6  H5  UNL     1      49.619  20.449 -12.788  1.00  0.00     0.184 HD
HETATM    7  C11 UNL     1      50.109  20.060 -10.819  1.00  0.00     0.049 A 
HETATM    8  C20 UNL     1      49.948  19.148  -9.809  1.00  0.00     0.085 A 
ENDROOT
BRANCH   4   9
HETATM    9  N3  UNL     1      48.273  18.473 -13.346  1.00  0.00    -0.226 N 
ATOM     10  H3  UNL     1      48.380  19.201 -14.052  1.00  0.00     0.177 HD
BRANCH   9  11
HETATM   11  C3  UNL     1      47.544  17.290 -13.687  1.00  0.00     0.138 C 
BRANCH  11  12
HETATM   12  C4  UNL     1      46.101  17.669 -13.963  1.00  0.00     0.020 C 
BRANCH  12  13
HETATM   13  C5  UNL     1      45.151  16.894 -13.079  1.00  0.00     0.002 C 
BRANCH  13  14
HETATM   14  C6  UNL     1      44.310  17.905 -12.319  1.00  0.00     0.000 C 
BRANCH  14  15
HETATM   15  C7  UNL     1      45.070  18.278 -11.082  1.00  0.00     0.000 C 
BRANCH  15  16
HETATM   16  C8  UNL     1      45.264  19.785 -10.939  1.00  0.00     0.008 C 
BRANCH  16  17
HETATM   17  C9  UNL     1      44.770  20.532 -12.118  1.00  0.00     0.086 C 
BRANCH  17  18
HETATM   18  C10 UNL     1      45.814  21.393 -12.695  1.00  0.00     0.135 C 
HETATM   19  N4  UNL     1      45.689  22.211 -13.647  1.00  0.00    -0.251 N 
ATOM     20  H4  UNL     1      46.545  22.709 -13.889  1.00  0.00     0.196 HD
BRANCH  18  21
HETATM   21  O1  UNL     1      47.137  21.339 -12.157  1.00  0.00    -0.348 OA
ATOM     22  H1  UNL     1      47.523  20.494 -11.959  1.00  0.00     0.219 HD
ENDBRANCH  18  21
BRANCH  19  23
HETATM   23  O2  UNL     1      44.631  22.537 -14.393  1.00  0.00    -0.288 OA
ATOM     24  H2  UNL     1      44.301  22.171 -15.204  1.00  0.00     0.244 HD
ENDBRANCH  19  23
ENDBRANCH  17  18
ENDBRANCH  16  17
ENDBRANCH  15  16
ENDBRANCH  14  15
ENDBRANCH  13  14
ENDBRANCH  12  13
ENDBRANCH  11  12
ENDBRANCH   9  11
ENDBRANCH   4   9
BRANCH   1  25
HETATM   25  N1  UNL     1      49.062  17.132  -9.031  1.00  0.00    -0.384 N 
ATOM     26  H12 UNL     1      49.802  16.977  -8.347  1.00  0.00     0.157 HD
ATOM     27  H11 UNL     1      48.188  16.609  -8.965  1.00  0.00     0.157 HD
ENDBRANCH   1  25
BRANCH   7  28
HETATM   28  C12 UNL     1      50.886  21.309 -10.679  1.00  0.00     0.060 C 
BRANCH  28  29
HETATM   29  C13 UNL     1      49.985  22.526 -10.701  1.00  0.00     0.015 C 
BRANCH  29  30
HETATM   30  C14 UNL     1      50.631  23.630 -11.495  1.00  0.00     0.103 C 
BRANCH  30  31
HETATM   31  C15 UNL     1      51.495  23.076 -12.564  1.00  0.00     0.219 C 
HETATM   32  O3  UNL     1      52.730  22.958 -12.341  1.00  0.00    -0.273 OA
HETATM   33  N6  UNL     1      50.907  22.700 -13.791  1.00  0.00    -0.352 N 
HETATM   34  C16 UNL     1      51.640  22.149 -14.912  1.00  0.00     0.126 C 
HETATM   35  C19 UNL     1      49.503  22.787 -14.150  1.00  0.00     0.126 C 
HETATM   36  C17 UNL     1      50.647  21.537 -15.843  1.00  0.00     0.021 C 
HETATM   37  C18 UNL     1      49.340  21.618 -15.109  1.00  0.00     0.021 C 
ENDBRANCH  30  31
ENDBRANCH  29  30
ENDBRANCH  28  29
ENDBRANCH   7  28
BRANCH   8  38
HETATM   38  C21 UNL     1      50.540  19.378  -8.539  1.00  0.00    -0.061 C 
HETATM   39  C22 UNL     1      51.034  19.562  -7.451  1.00  0.00    -0.099 C 
BRANCH  39  40
HETATM   40  C23 UNL     1      51.646  19.768  -6.152  1.00  0.00     0.120 C 
BRANCH  40  41
HETATM   41  C24 UNL     1      51.972  18.446  -5.485  1.00  0.00     0.176 C 
BRANCH  41  42
HETATM   42  O4  UNL     1      51.612  18.560  -4.146  1.00  0.00    -0.400 OA
ATOM     43  H4  UNL     1      51.281  17.713  -3.871  1.00  0.00     0.209 HD
ENDBRANCH  41  42
ENDBRANCH  40  41
ENDBRANCH  39  40
ENDBRANCH   8  38
TORSDOF 20
ENDMDL
MODEL 4
REMARK VINA RESULT: -8.161067579      1.469      1.882
REMARK  20 active torsions:
REMARK  status: ('A' for Active; 'I' for Inactive)
REMARK    1  A    between atoms: N1_1  and  C1_4 
REMARK    2  A    between atoms: C2_7  and  N3_8 
REMARK    3  A    between atoms: N3_8  and  C3_10 
REMARK    4  A    between atoms: C3_10  and  C4_11 
REMARK    5  A    between atoms: C4_11  and  C5_12 
REMARK    6  A    between atoms: C5_12  and  C6_13 
REMARK    7  A    between atoms: C6_13  and  C7_14 
REMARK    8  A    between atoms: C7_14  and  C8_15 
REMARK    9  A    between atoms: C8_15  and  C9_16 
REMARK   10  A    between atoms: C9_16  and  C10_17 
REMARK   11  A    between atoms: C10_17  and  O1_18 
REMARK   12  A    between atoms: N4_20  and  O2_22 
REMARK   13  A    between atoms: C11_26  and  C12_27 
REMARK   14  A    between atoms: C12_27  and  C13_28 
REMARK   15  A    between atoms: C13_28  and  C14_29 
REMARK   16  A    between atoms: C14_29  and  C15_30 
REMARK       I    between atoms: C15_30  and  N6_32 
REMARK   17  A    between atoms: C20_37  and  C21_38 
REMARK   18  A    between atoms: C22_39  and  C23_40 
REMARK   19  A    between atoms: C23_40  and  C24_41 
REMARK   20  A    between atoms: C24_41  and  O4_42 
ROOT
HETATM    1  C1  UNL     1      47.669  19.550 -13.770  1.00  0.00     0.135 A 
HETATM    2  N2  UNL     1      48.386  20.696 -13.645  1.00  0.00    -0.176 N 
ATOM      3  H2  UNL     1      49.347  20.758 -13.981  1.00  0.00     0.186 HD
HETATM    4  C2  UNL     1      47.786  21.741 -13.062  1.00  0.00     0.679 A 
HETATM    5  N5  UNL     1      46.519  21.714 -12.598  1.00  0.00    -0.194 N 
ATOM      6  H5  UNL     1      46.117  22.544 -12.161  1.00  0.00     0.184 HD
HETATM    7  C11 UNL     1      45.785  20.581 -12.713  1.00  0.00     0.049 A 
HETATM    8  C20 UNL     1      46.372  19.494 -13.305  1.00  0.00     0.085 A 
ENDROOT
BRANCH   4   9
HETATM    9  N3  UNL     1      48.431  22.867 -12.913  1.00  0.00    -0.226 N 
ATOM     10  H3  UNL     1      47.931  23.670 -12.533  1.00  0.00     0.177 HD
BRANCH   9  11
HETATM   11  C3  UNL     1      49.811  23.021 -13.261  1.00  0.00     0.138 C 
BRANCH  11  12
HETATM   12  C4  UNL     1      50.643  22.967 -11.993  1.00  0.00     0.020 C 
BRANCH  12  13
HETATM   13  C5  UNL     1      51.448  21.690 -11.918  1.00  0.00     0.002 C 
BRANCH  13  14
HETATM   14  C6  UNL     1      50.776  20.788 -10.897  1.00  0.00     0.000 C 
BRANCH  14  15
HETATM   15  C7  UNL     1      50.251  21.667  -9.801  1.00  0.00     0.000 C 
BRANCH  15  16
HETATM   16  C8  UNL     1      49.938  20.895  -8.523  1.00  0.00     0.008 C 
BRANCH  16  17
HETATM   17  C9  UNL     1      50.834  19.732  -8.332  1.00  0.00     0.086 C 
BRANCH  17  18
HETATM   18  C10 UNL     1      50.677  19.136  -6.996  1.00  0.00     0.135 C 
HETATM   19  N4  UNL     1      51.329  19.416  -5.953  1.00  0.00    -0.251 N 
ATOM     20  H4  UNL     1      51.057  18.880  -5.130  1.00  0.00     0.196 HD
BRANCH  18  21
HETATM   21  O1  UNL     1      49.690  18.120  -6.797  1.00  0.00    -0.348 OA
ATOM     22  H1  UNL     1      49.917  17.346  -6.297  1.00  0.00     0.219 HD
ENDBRANCH  18  21
BRANCH  19  23
HETATM   23  O2  UNL     1      52.314  20.292  -5.741  1.00  0.00    -0.288 OA
ATOM     24  H2  UNL     1      52.490  20.871  -5.009  1.00  0.00     0.244 HD
ENDBRANCH  19  23
ENDBRANCH  17  18
ENDBRANCH  16  17
ENDBRANCH  15  16
ENDBRANCH  14  15
ENDBRANCH  13  14
ENDBRANCH  12  13
ENDBRANCH  11  12
ENDBRANCH   9  11
ENDBRANCH   4   9
BRANCH   1  25
HETATM   25  N1  UNL     1      48.223  18.512 -14.336  1.00  0.00    -0.384 N 
ATOM     26  H12 UNL     1      48.248  18.420 -15.351  1.00  0.00     0.157 HD
ATOM     27  H11 UNL     1      48.635  17.787 -13.748  1.00  0.00     0.157 HD
ENDBRANCH   1  25
BRANCH   7  28
HETATM   28  C12 UNL     1      44.401  20.582 -12.194  1.00  0.00     0.060 C 
BRANCH  28  29
HETATM   29  C13 UNL     1      44.314  19.888 -10.850  1.00  0.00     0.015 C 
BRANCH  29  30
HETATM   30  C14 UNL     1      43.112  18.983 -10.816  1.00  0.00     0.103 C 
BRANCH  30  31
HETATM   31  C15 UNL     1      43.460  17.664 -10.236  1.00  0.00     0.219 C 
HETATM   32  O3  UNL     1      44.478  17.580  -9.498  1.00  0.00    -0.273 OA
HETATM   33  N6  UNL     1      42.643  16.551 -10.531  1.00  0.00    -0.352 N 
HETATM   34  C16 UNL     1      42.876  15.213 -10.030  1.00  0.00     0.126 C 
HETATM   35  C19 UNL     1      41.451  16.538 -11.360  1.00  0.00     0.126 C 
HETATM   36  C17 UNL     1      41.622  14.430 -10.236  1.00  0.00     0.021 C 
HETATM   37  C18 UNL     1      40.620  15.440 -10.716  1.00  0.00     0.021 C 
ENDBRANCH  30  31
ENDBRANCH  29  30
ENDBRANCH  28  29
ENDBRANCH   7  28
BRANCH   8  38
HETATM   38  C21 UNL     1      45.647  18.283 -13.454  1.00  0.00    -0.061 C 
HETATM   39  C22 UNL     1      45.036  17.246 -13.567  1.00  0.00    -0.099 C 
BRANCH  39  40
HETATM   40  C23 UNL     1      44.284  16.011 -13.691  1.00  0.00     0.120 C 
BRANCH  40  41
HETATM   41  C24 UNL     1      45.106  14.934 -14.370  1.00  0.00     0.176 C 
BRANCH  41  42
HETATM   42  O4  UNL     1      44.485  14.642 -15.579  1.00  0.00    -0.400 OA
ATOM     43  H4  UNL     1      45.128  14.212 -16.130  1.00  0.00     0.209 HD
ENDBRANCH  41  42
ENDBRANCH  40  41
ENDBRANCH  39  40
ENDBRANCH   8  38
TORSDOF 20
ENDMDL
MODEL 5
REMARK VINA RESULT: -8.139377335      1.900      3.109
REMARK  20 active torsions:
REMARK  status: ('A' for Active; 'I' for Inactive)
REMARK    1  A    between atoms: N1_1  and  C1_4 
REMARK    2  A    between atoms: C2_7  and  N3_8 
REMARK    3  A    between atoms: N3_8  and  C3_10 
REMARK    4  A    between atoms: C3_10  and  C4_11 
REMARK    5  A    between atoms: C4_11  and  C5_12 
REMARK    6  A    between atoms: C5_12  and  C6_13 
REMARK    7  A    between atoms: C6_13  and  C7_14 
REMARK    8  A    between atoms: C7_14  and  C8_15 
REMARK    9  A    between atoms: C8_15  and  C9_16 
REMARK   10  A    between atoms: C9_16  and  C10_17 
REMARK   11  A    between atoms: C10_17  and  O1_18 
REMARK   12  A    between atoms: N4_20  and  O2_22 
REMARK   13  A    between atoms: C11_26  and  C12_27 
REMARK   14  A    between atoms: C12_27  and  C13_28 
REMARK   15  A    between atoms: C13_28  and  C14_29 
REMARK   16  A    between atoms: C14_29  and  C15_30 
REMARK       I    between atoms: C15_30  and  N6_32 
REMARK   17  A    between atoms: C20_37  and  C21_38 
REMARK   18  A    between atoms: C22_39  and  C23_40 
REMARK   19  A    between atoms: C23_40  and  C24_41 
REMARK   20  A    between atoms: C24_41  and  O4_42 
ROOT
HETATM    1  C1  UNL     1      46.642  19.133 -14.119  1.00  0.00     0.135 A 
HETATM    2  N2  UNL     1      47.359  20.277 -13.980  1.00  0.00    -0.176 N 
ATOM      3  H2  UNL     1      47.979  20.606 -14.719  1.00  0.00     0.186 HD
HETATM    4  C2  UNL     1      47.222  20.957 -12.835  1.00  0.00     0.679 A 
HETATM    5  N5  UNL     1      46.418  20.568 -11.824  1.00  0.00    -0.194 N 
ATOM      6  H5  UNL     1      46.356  21.130 -10.974  1.00  0.00     0.184 HD
HETATM    7  C11 UNL     1      45.693  19.430 -11.942  1.00  0.00     0.049 A 
HETATM    8  C20 UNL     1      45.812  18.711 -13.103  1.00  0.00     0.085 A 
ENDROOT
BRANCH   4   9
HETATM    9  N3  UNL     1      47.891  22.064 -12.647  1.00  0.00    -0.226 N 
ATOM     10  H3  UNL     1      47.391  22.886 -12.311  1.00  0.00     0.177 HD
BRANCH   9  11
HETATM   11  C3  UNL     1      49.297  22.171 -12.894  1.00  0.00     0.138 C 
BRANCH  11  12
HETATM   12  C4  UNL     1      49.994  20.977 -12.267  1.00  0.00     0.020 C 
BRANCH  12  13
HETATM   13  C5  UNL     1      51.029  21.414 -11.256  1.00  0.00     0.002 C 
BRANCH  13  14
HETATM   14  C6  UNL     1      50.286  21.846 -10.003  1.00  0.00     0.000 C 
BRANCH  14  15
HETATM   15  C7  UNL     1      49.604  20.631  -9.448  1.00  0.00     0.000 C 
BRANCH  15  16
HETATM   16  C8  UNL     1      50.584  19.616  -8.867  1.00  0.00     0.008 C 
BRANCH  16  17
HETATM   17  C9  UNL     1      50.775  19.786  -7.409  1.00  0.00     0.086 C 
BRANCH  17  18
HETATM   18  C10 UNL     1      51.378  18.593  -6.795  1.00  0.00     0.135 C 
HETATM   19  N4  UNL     1      50.782  17.662  -6.188  1.00  0.00    -0.251 N 
ATOM     20  H4  UNL     1      51.395  16.926  -5.839  1.00  0.00     0.196 HD
BRANCH  18  21
HETATM   21  O1  UNL     1      52.795  18.415  -6.864  1.00  0.00    -0.348 OA
ATOM     22  H1  UNL     1      53.194  17.693  -6.392  1.00  0.00     0.219 HD
ENDBRANCH  18  21
BRANCH  19  23
HETATM   23  O2  UNL     1      49.487  17.474  -5.922  1.00  0.00    -0.288 OA
ATOM     24  H2  UNL     1      48.931  16.711  -6.025  1.00  0.00     0.244 HD
ENDBRANCH  19  23
ENDBRANCH  17  18
ENDBRANCH  16  17
ENDBRANCH  15  16
ENDBRANCH  14  15
ENDBRANCH  13  14
ENDBRANCH  12  13
ENDBRANCH  11  12
ENDBRANCH   9  11
ENDBRANCH   4   9
BRANCH   1  25
HETATM   25  N1  UNL     1      46.750  18.445 -15.224  1.00  0.00    -0.384 N 
ATOM     26  H12 UNL     1      46.061  17.733 -15.468  1.00  0.00     0.157 HD
ATOM     27  H11 UNL     1      47.537  18.628 -15.848  1.00  0.00     0.157 HD
ENDBRANCH   1  25
BRANCH   7  28
HETATM   28  C12 UNL     1      44.822  19.029 -10.817  1.00  0.00     0.060 C 
BRANCH  28  29
HETATM   29  C13 UNL     1      45.444  17.910 -10.007  1.00  0.00     0.015 C 
BRANCH  29  30
HETATM   30  C14 UNL     1      46.769  18.356  -9.447  1.00  0.00     0.103 C 
BRANCH  30  31
HETATM   31  C15 UNL     1      47.587  17.191  -9.034  1.00  0.00     0.219 C 
HETATM   32  O3  UNL     1      47.477  16.766  -7.853  1.00  0.00    -0.273 OA
HETATM   33  N6  UNL     1      48.458  16.601  -9.975  1.00  0.00    -0.352 N 
HETATM   34  C16 UNL     1      49.309  15.463  -9.697  1.00  0.00     0.126 C 
HETATM   35  C19 UNL     1      48.657  17.005 -11.355  1.00  0.00     0.126 C 
HETATM   36  C17 UNL     1      49.767  14.912 -11.006  1.00  0.00     0.021 C 
HETATM   37  C18 UNL     1      48.995  15.687 -12.034  1.00  0.00     0.021 C 
ENDBRANCH  30  31
ENDBRANCH  29  30
ENDBRANCH  28  29
ENDBRANCH   7  28
BRANCH   8  38
HETATM   38  C21 UNL     1      45.072  17.513 -13.279  1.00  0.00    -0.061 C 
HETATM   39  C22 UNL     1      44.429  16.500 -13.426  1.00  0.00    -0.099 C 
BRANCH  39  40
HETATM   40  C23 UNL     1      43.656  15.288 -13.628  1.00  0.00     0.120 C 
BRANCH  40  41
HETATM   41  C24 UNL     1      44.414  14.290 -14.481  1.00  0.00     0.176 C 
BRANCH  41  42
HETATM   42  O4  UNL     1      44.228  14.659 -15.809  1.00  0.00    -0.400 OA
ATOM     43  H4  UNL     1      45.079  14.633 -16.230  1.00  0.00     0.209 HD
ENDBRANCH  41  42
ENDBRANCH  40  41
ENDBRANCH  39  40
ENDBRANCH   8  38
TORSDOF 20
ENDMDL
