MODEL 1
REMARK VINA RESULT: -8.857199320      0.000      0.000
REMARK  15 active torsions:
REMARK  status: ('A' for Active; 'I' for Inactive)
REMARK    1  A    between atoms: C2_2  and  C3_3 
REMARK    2  A    between atoms: C3_3  and  N1_4 
REMARK    3  A    between atoms: N1_4  and  C4_5 
REMARK    4  A    between atoms: N1_4  and  C7_10 
REMARK    5  A    between atoms: C4_5  and  C5_6 
REMARK    6  A    between atoms: C5_6  and  C6_7 
REMARK    7  A    between atoms: C6_7  and  O1_8 
REMARK    8  A    between atoms: C7_10  and  C8_11 
REMARK    9  A    between atoms: C8_11  and  C9_12 
REMARK   10  A    between atoms: C9_12  and  N2_13 
REMARK   11  A    between atoms: N2_13  and  C10_16 
REMARK   12  A    between atoms: C10_16  and  C11_17 
REMARK   13  A    between atoms: C16_24  and  C17_25 
REMARK   14  A    between atoms: C18_26  and  C19_27 
REMARK   15  A    between atoms: C25_39  and  O4_40 
ROOT
HETATM    1  C11 UNL     1      48.586  21.679 -13.756  1.00  0.00     0.070 A 
HETATM    2  N3  UNL     1      48.696  20.430 -14.243  1.00  0.00    -0.355 N 
ATOM      3  H3  UNL     1      49.466  20.102 -14.826  1.00  0.00     0.166 HD
HETATM    4  C12 UNL     1      47.654  19.673 -13.860  1.00  0.00     0.046 A 
HETATM    5  C13 UNL     1      47.259  18.363 -14.057  1.00  0.00     0.038 A 
HETATM    6  C14 UNL     1      46.112  17.817 -13.534  1.00  0.00    -0.050 A 
HETATM    7  C15 UNL     1      45.729  16.394 -13.779  1.00  0.00     0.049 C 
HETATM    8  C16 UNL     1      45.274  18.618 -12.752  1.00  0.00    -0.029 A 
HETATM    9  C23 UNL     1      45.638  19.925 -12.538  1.00  0.00     0.028 A 
HETATM   10  C24 UNL     1      46.803  20.438 -13.081  1.00  0.00     0.027 A 
HETATM   11  C25 UNL     1      47.409  21.689 -13.031  1.00  0.00     0.102 A 
ENDROOT
BRANCH   1  12
HETATM   12  C10 UNL     1      49.533  22.838 -13.948  1.00  0.00     0.292 C 
BRANCH  12  13
HETATM   13  N2  UNL     1      49.674  23.592 -12.740  1.00  0.00    -0.070 N 
ATOM     14  H22 UNL     1      48.810  23.585 -12.197  1.00  0.00     0.277 HD
ATOM     15  H21 UNL     1      49.736  24.591 -12.933  1.00  0.00     0.277 HD
BRANCH  13  16
HETATM   16  C9  UNL     1      50.776  23.150 -11.959  1.00  0.00     0.234 C 
BRANCH  16  17
HETATM   17  C8  UNL     1      50.322  22.283 -10.818  1.00  0.00     0.057 C 
BRANCH  17  18
HETATM   18  C7  UNL     1      51.128  20.985 -10.829  1.00  0.00     0.274 C 
BRANCH  18  19
HETATM   19  N1  UNL     1      50.459  20.029  -9.994  1.00  0.00     0.088 N 
BRANCH  19  20
HETATM   20  C3  UNL     1      49.375  19.356 -10.637  1.00  0.00     0.272 C 
BRANCH  20  21
HETATM   21  C2  UNL     1      48.064  19.486  -9.916  1.00  0.00     0.026 C 
HETATM   22  C1  UNL     1      47.437  18.104  -9.802  1.00  0.00     0.007 C 
ENDBRANCH  20  21
ENDBRANCH  19  20
BRANCH  19  23
HETATM   23  C4  UNL     1      50.195  20.476  -8.670  1.00  0.00     0.274 C 
BRANCH  23  24
HETATM   24  C5  UNL     1      50.354  19.372  -7.678  1.00  0.00     0.056 C 
BRANCH  24  25
HETATM   25  C6  UNL     1      51.578  19.563  -6.797  1.00  0.00     0.165 C 
BRANCH  25  26
HETATM   26  O1  UNL     1      52.633  18.887  -7.410  1.00  0.00    -0.401 OA
ATOM     27  H1  UNL     1      52.305  18.036  -7.674  1.00  0.00     0.209 HD
ENDBRANCH  25  26
ENDBRANCH  24  25
ENDBRANCH  23  24
ENDBRANCH  19  23
ENDBRANCH  18  19
ENDBRANCH  17  18
ENDBRANCH  16  17
ENDBRANCH  13  16
ENDBRANCH  12  13
ENDBRANCH   1  12
BRANCH  11  28
HETATM   28  O4  UNL     1      46.922  22.800 -12.358  1.00  0.00    -0.358 OA
ATOM     29  H4  UNL     1      46.034  23.127 -12.444  1.00  0.00     0.217 HD
ENDBRANCH  11  28
BRANCH   8  30
HETATM   30  C17 UNL     1      44.060  18.038 -12.188  1.00  0.00     0.014 C 
HETATM   31  C18 UNL     1      43.382  18.581 -11.221  1.00  0.00     0.030 C 
BRANCH  31  32
HETATM   32  C19 UNL     1      42.180  17.964 -10.694  1.00  0.00     0.041 A 
HETATM   33  C20 UNL     1      41.679  16.761 -11.131  1.00  0.00     0.104 A 
HETATM   34  C21 UNL     1      40.513  16.239 -10.567  1.00  0.00     0.251 A 
HETATM   35  O2  UNL     1      40.066  15.133 -10.981  1.00  0.00    -0.268 OA
HETATM   36  N4  UNL     1      39.885  16.916  -9.601  1.00  0.00    -0.275 N 
HETATM   37  C22 UNL     1      40.375  18.093  -9.173  1.00  0.00     0.327 A 
ATOM     38  H4  UNL     1      39.033  16.539  -9.186  1.00  0.00     0.173 HD
HETATM   39  O3  UNL     1      39.773  18.736  -8.252  1.00  0.00    -0.247 OA
HETATM   40  N5  UNL     1      41.484  18.585  -9.712  1.00  0.00    -0.308 N 
ATOM     41  H5  UNL     1      41.832  19.480  -9.367  1.00  0.00     0.170 HD
ENDBRANCH  31  32
ENDBRANCH   8  30
TORSDOF 15
ENDMDL
MODEL 2
REMARK VINA RESULT: -8.537143597      5.166      9.551
REMARK  15 active torsions:
REMARK  status: ('A' for Active; 'I' for Inactive)
REMARK    1  A    between atoms: C2_2  and  C3_3 
REMARK    2  A    between atoms: C3_3  and  N1_4 
REMARK    3  A    between atoms: N1_4  and  C4_5 
REMARK    4  A    between atoms: N1_4  and  C7_10 
REMARK    5  A    between atoms: C4_5  and  C5_6 
REMARK    6  A    between atoms: C5_6  and  C6_7 
REMARK    7  A    between atoms: C6_7  and  O1_8 
REMARK    8  A    between atoms: C7_10  and  C8_11 
REMARK    9  A    between atoms: C8_11  and  C9_12 
REMARK   10  A    between atoms: C9_12  and  N2_13 
REMARK   11  A    between atoms: N2_13  and  C10_16 
REMARK   12  A    between atoms: C10_16  and  C11_17 
REMARK   13  A    between atoms: C16_24  and  C17_25 
REMARK   14  A    between atoms: C18_26  and  C19_27 
REMARK   15  A    between atoms: C25_39  and  O4_40 
ROOT
HETATM    1  C11 UNL     1      51.850  18.002  -5.293  1.00  0.00     0.070 A 
HETATM    2  N3  UNL     1      51.202  17.072  -6.019  1.00  0.00    -0.355 N 
ATOM      3  H3  UNL     1      51.060  16.106  -5.726  1.00  0.00     0.166 HD
HETATM    4  C12 UNL     1      50.768  17.588  -7.181  1.00  0.00     0.046 A 
HETATM    5  C13 UNL     1      50.067  17.111  -8.273  1.00  0.00     0.038 A 
HETATM    6  C14 UNL     1      49.737  17.871  -9.369  1.00  0.00    -0.050 A 
HETATM    7  C15 UNL     1      48.981  17.306 -10.526  1.00  0.00     0.049 C 
HETATM    8  C16 UNL     1      50.124  19.215  -9.405  1.00  0.00    -0.029 A 
HETATM    9  C23 UNL     1      50.821  19.719  -8.334  1.00  0.00     0.028 A 
HETATM   10  C24 UNL     1      51.134  18.920  -7.247  1.00  0.00     0.027 A 
HETATM   11  C25 UNL     1      51.810  19.155  -6.054  1.00  0.00     0.102 A 
ENDROOT
BRANCH   1  12
HETATM   12  C10 UNL     1      52.491  17.842  -3.937  1.00  0.00     0.292 C 
BRANCH  12  13
HETATM   13  N2  UNL     1      51.818  18.634  -2.953  1.00  0.00    -0.070 N 
ATOM     14  H22 UNL     1      50.827  18.733  -3.174  1.00  0.00     0.277 HD
ATOM     15  H21 UNL     1      52.096  19.613  -3.013  1.00  0.00     0.277 HD
BRANCH  13  16
HETATM   16  C9  UNL     1      52.003  18.125  -1.639  1.00  0.00     0.234 C 
BRANCH  16  17
HETATM   17  C8  UNL     1      52.945  16.954  -1.636  1.00  0.00     0.057 C 
BRANCH  17  18
HETATM   18  C7  UNL     1      52.210  15.727  -1.097  1.00  0.00     0.274 C 
BRANCH  18  19
HETATM   19  N1  UNL     1      52.340  14.666  -2.053  1.00  0.00     0.088 N 
BRANCH  19  20
HETATM   20  C3  UNL     1      51.880  13.398  -1.578  1.00  0.00     0.272 C 
BRANCH  20  21
HETATM   21  C2  UNL     1      52.912  12.627  -0.806  1.00  0.00     0.026 C 
HETATM   22  C1  UNL     1      53.025  11.235  -1.409  1.00  0.00     0.007 C 
ENDBRANCH  20  21
ENDBRANCH  19  20
BRANCH  19  23
HETATM   23  C4  UNL     1      53.580  14.639  -2.749  1.00  0.00     0.274 C 
BRANCH  23  24
HETATM   24  C5  UNL     1      53.400  14.220  -4.171  1.00  0.00     0.056 C 
BRANCH  24  25
HETATM   25  C6  UNL     1      54.294  13.048  -4.541  1.00  0.00     0.165 C 
BRANCH  25  26
HETATM   26  O1  UNL     1      55.473  13.183  -3.807  1.00  0.00    -0.401 OA
ATOM     27  H1  UNL     1      56.116  12.606  -4.203  1.00  0.00     0.209 HD
ENDBRANCH  25  26
ENDBRANCH  24  25
ENDBRANCH  23  24
ENDBRANCH  19  23
ENDBRANCH  18  19
ENDBRANCH  17  18
ENDBRANCH  16  17
ENDBRANCH  13  16
ENDBRANCH  12  13
ENDBRANCH   1  12
BRANCH  11  28
HETATM   28  O4  UNL     1      52.370  20.363  -5.663  1.00  0.00    -0.358 OA
ATOM     29  H4  UNL     1      53.304  20.537  -5.654  1.00  0.00     0.217 HD
ENDBRANCH  11  28
BRANCH   8  30
HETATM   30  C17 UNL     1      49.766  20.027 -10.562  1.00  0.00     0.014 C 
HETATM   31  C18 UNL     1      50.495  21.005 -11.011  1.00  0.00     0.030 C 
BRANCH  31  32
HETATM   32  C19 UNL     1      50.094  21.783 -12.168  1.00  0.00     0.041 A 
HETATM   33  C20 UNL     1      50.874  21.956 -13.287  1.00  0.00     0.104 A 
HETATM   34  C21 UNL     1      50.409  22.723 -14.357  1.00  0.00     0.251 A 
HETATM   35  O2  UNL     1      51.139  22.872 -15.376  1.00  0.00    -0.268 OA
HETATM   36  N4  UNL     1      49.200  23.289 -14.287  1.00  0.00    -0.275 N 
HETATM   37  C22 UNL     1      48.436  23.121 -13.193  1.00  0.00     0.327 A 
ATOM     38  H4  UNL     1      48.856  23.850 -15.066  1.00  0.00     0.173 HD
HETATM   39  O3  UNL     1      47.285  23.663 -13.132  1.00  0.00    -0.247 OA
HETATM   40  N5  UNL     1      48.884  22.390 -12.179  1.00  0.00    -0.308 N 
ATOM     41  H5  UNL     1      48.282  22.280 -11.362  1.00  0.00     0.170 HD
ENDBRANCH  31  32
ENDBRANCH   8  30
TORSDOF 15
ENDMDL
MODEL 3
REMARK VINA RESULT: -8.460404262      5.431      9.658
REMARK  15 active torsions:
REMARK  status: ('A' for Active; 'I' for Inactive)
REMARK    1  A    between atoms: C2_2  and  C3_3 
REMARK    2  A    between atoms: C3_3  and  N1_4 
REMARK    3  A    between atoms: N1_4  and  C4_5 
REMARK    4  A    between atoms: N1_4  and  C7_10 
REMARK    5  A    between atoms: C4_5  and  C5_6 
REMARK    6  A    between atoms: C5_6  and  C6_7 
REMARK    7  A    between atoms: C6_7  and  O1_8 
REMARK    8  A    between atoms: C7_10  and  C8_11 
REMARK    9  A    between atoms: C8_11  and  C9_12 
REMARK   10  A    between atoms: C9_12  and  N2_13 
REMARK   11  A    between atoms: N2_13  and  C10_16 
REMARK   12  A    between atoms: C10_16  and  C11_17 
REMARK   13  A    between atoms: C16_24  and  C17_25 
REMARK   14  A    between atoms: C18_26  and  C19_27 
REMARK   15  A    between atoms: C25_39  and  O4_40 
ROOT
HETATM    1  C11 UNL     1      51.774  18.035  -5.266  1.00  0.00     0.070 A 
HETATM    2  N3  UNL     1      51.093  17.140  -6.003  1.00  0.00    -0.355 N 
ATOM      3  H3  UNL     1      50.887  16.185  -5.708  1.00  0.00     0.166 HD
HETATM    4  C12 UNL     1      50.720  17.671  -7.179  1.00  0.00     0.046 A 
HETATM    5  C13 UNL     1      50.021  17.228  -8.287  1.00  0.00     0.038 A 
HETATM    6  C14 UNL     1      49.764  17.998  -9.395  1.00  0.00    -0.050 A 
HETATM    7  C15 UNL     1      49.006  17.469 -10.569  1.00  0.00     0.049 C 
HETATM    8  C16 UNL     1      50.229  19.316  -9.428  1.00  0.00    -0.029 A 
HETATM    9  C23 UNL     1      50.927  19.787  -8.343  1.00  0.00     0.028 A 
HETATM   10  C24 UNL     1      51.165  18.979  -7.244  1.00  0.00     0.027 A 
HETATM   11  C25 UNL     1      51.822  19.183  -6.034  1.00  0.00     0.102 A 
ENDROOT
BRANCH   1  12
HETATM   12  C10 UNL     1      52.370  17.848  -3.893  1.00  0.00     0.292 C 
BRANCH  12  13
HETATM   13  N2  UNL     1      51.646  18.597  -2.912  1.00  0.00    -0.070 N 
ATOM     14  H22 UNL     1      50.665  18.697  -3.173  1.00  0.00     0.277 HD
ATOM     15  H21 UNL     1      51.918  19.580  -2.923  1.00  0.00     0.277 HD
BRANCH  13  16
HETATM   16  C9  UNL     1      51.778  18.041  -1.610  1.00  0.00     0.234 C 
BRANCH  16  17
HETATM   17  C8  UNL     1      52.827  16.966  -1.580  1.00  0.00     0.057 C 
BRANCH  17  18
HETATM   18  C7  UNL     1      52.194  15.668  -1.080  1.00  0.00     0.274 C 
BRANCH  18  19
HETATM   19  N1  UNL     1      52.636  14.595  -1.923  1.00  0.00     0.088 N 
BRANCH  19  20
HETATM   20  C3  UNL     1      52.899  13.378  -1.221  1.00  0.00     0.272 C 
BRANCH  20  21
HETATM   21  C2  UNL     1      51.680  12.532  -0.991  1.00  0.00     0.026 C 
HETATM   22  C1  UNL     1      50.971  12.334  -2.324  1.00  0.00     0.007 C 
ENDBRANCH  20  21
ENDBRANCH  19  20
BRANCH  19  23
HETATM   23  C4  UNL     1      53.613  14.960  -2.891  1.00  0.00     0.274 C 
BRANCH  23  24
HETATM   24  C5  UNL     1      54.157  13.763  -3.598  1.00  0.00     0.056 C 
BRANCH  24  25
HETATM   25  C6  UNL     1      53.408  13.468  -4.886  1.00  0.00     0.165 C 
BRANCH  25  26
HETATM   26  O1  UNL     1      52.678  14.612  -5.209  1.00  0.00    -0.401 OA
ATOM     27  H1  UNL     1      52.733  14.723  -6.150  1.00  0.00     0.209 HD
ENDBRANCH  25  26
ENDBRANCH  24  25
ENDBRANCH  23  24
ENDBRANCH  19  23
ENDBRANCH  18  19
ENDBRANCH  17  18
ENDBRANCH  16  17
ENDBRANCH  13  16
ENDBRANCH  12  13
ENDBRANCH   1  12
BRANCH  11  28
HETATM   28  O4  UNL     1      52.441  20.359  -5.636  1.00  0.00    -0.358 OA
ATOM     29  H4  UNL     1      52.781  21.011  -6.237  1.00  0.00     0.217 HD
ENDBRANCH  11  28
BRANCH   8  30
HETATM   30  C17 UNL     1      49.949  20.140 -10.599  1.00  0.00     0.014 C 
HETATM   31  C18 UNL     1      50.809  20.959 -11.128  1.00  0.00     0.030 C 
BRANCH  31  32
HETATM   32  C19 UNL     1      50.481  21.757 -12.295  1.00  0.00     0.041 A 
HETATM   33  C20 UNL     1      49.276  22.393 -12.478  1.00  0.00     0.104 A 
HETATM   34  C21 UNL     1      49.045  23.142 -13.633  1.00  0.00     0.251 A 
HETATM   35  O2  UNL     1      47.932  23.718 -13.786  1.00  0.00    -0.268 OA
HETATM   36  N4  UNL     1      50.002  23.236 -14.562  1.00  0.00    -0.275 N 
HETATM   37  C22 UNL     1      51.180  22.614 -14.384  1.00  0.00     0.327 A 
ATOM     38  H4  UNL     1      49.837  23.781 -15.408  1.00  0.00     0.173 HD
HETATM   39  O3  UNL     1      52.089  22.706 -15.272  1.00  0.00    -0.247 OA
HETATM   40  N5  UNL     1      51.395  21.904 -13.283  1.00  0.00    -0.308 N 
ATOM     41  H5  UNL     1      52.299  21.443 -13.175  1.00  0.00     0.170 HD
ENDBRANCH  31  32
ENDBRANCH   8  30
TORSDOF 15
ENDMDL
MODEL 4
REMARK VINA RESULT: -8.402382862      5.168      9.632
REMARK  15 active torsions:
REMARK  status: ('A' for Active; 'I' for Inactive)
REMARK    1  A    between atoms: C2_2  and  C3_3 
REMARK    2  A    between atoms: C3_3  and  N1_4 
REMARK    3  A    between atoms: N1_4  and  C4_5 
REMARK    4  A    between atoms: N1_4  and  C7_10 
REMARK    5  A    between atoms: C4_5  and  C5_6 
REMARK    6  A    between atoms: C5_6  and  C6_7 
REMARK    7  A    between atoms: C6_7  and  O1_8 
REMARK    8  A    between atoms: C7_10  and  C8_11 
REMARK    9  A    between atoms: C8_11  and  C9_12 
REMARK   10  A    between atoms: C9_12  and  N2_13 
REMARK   11  A    between atoms: N2_13  and  C10_16 
REMARK   12  A    between atoms: C10_16  and  C11_17 
REMARK   13  A    between atoms: C16_24  and  C17_25 
REMARK   14  A    between atoms: C18_26  and  C19_27 
REMARK   15  A    between atoms: C25_39  and  O4_40 
ROOT
HETATM    1  C11 UNL     1      51.855  17.993  -5.293  1.00  0.00     0.070 A 
HETATM    2  N3  UNL     1      51.209  17.066  -6.023  1.00  0.00    -0.355 N 
ATOM      3  H3  UNL     1      51.068  16.098  -5.735  1.00  0.00     0.166 HD
HETATM    4  C12 UNL     1      50.773  17.587  -7.182  1.00  0.00     0.046 A 
HETATM    5  C13 UNL     1      50.073  17.115  -8.277  1.00  0.00     0.038 A 
HETATM    6  C14 UNL     1      49.742  17.881  -9.368  1.00  0.00    -0.050 A 
HETATM    7  C15 UNL     1      48.986  17.321 -10.529  1.00  0.00     0.049 C 
HETATM    8  C16 UNL     1      50.127  19.225  -9.397  1.00  0.00    -0.029 A 
HETATM    9  C23 UNL     1      50.824  19.725  -8.324  1.00  0.00     0.028 A 
HETATM   10  C24 UNL     1      51.138  18.921  -7.242  1.00  0.00     0.027 A 
HETATM   11  C25 UNL     1      51.814  19.150  -6.048  1.00  0.00     0.102 A 
ENDROOT
BRANCH   1  12
HETATM   12  C10 UNL     1      52.497  17.826  -3.938  1.00  0.00     0.292 C 
BRANCH  12  13
HETATM   13  N2  UNL     1      51.791  18.569  -2.939  1.00  0.00    -0.070 N 
ATOM     14  H22 UNL     1      50.787  18.573  -3.123  1.00  0.00     0.277 HD
ATOM     15  H21 UNL     1      51.975  19.568  -3.023  1.00  0.00     0.277 HD
BRANCH  13  16
HETATM   16  C9  UNL     1      52.071  18.101  -1.626  1.00  0.00     0.234 C 
BRANCH  16  17
HETATM   17  C8  UNL     1      52.934  16.871  -1.659  1.00  0.00     0.057 C 
BRANCH  17  18
HETATM   18  C7  UNL     1      52.164  15.709  -1.033  1.00  0.00     0.274 C 
BRANCH  18  19
HETATM   19  N1  UNL     1      52.674  14.483  -1.576  1.00  0.00     0.088 N 
BRANCH  19  20
HETATM   20  C3  UNL     1      53.273  14.626  -2.866  1.00  0.00     0.272 C 
BRANCH  20  21
HETATM   21  C2  UNL     1      52.434  14.087  -3.988  1.00  0.00     0.026 C 
HETATM   22  C1  UNL     1      53.339  13.322  -4.944  1.00  0.00     0.007 C 
ENDBRANCH  20  21
ENDBRANCH  19  20
BRANCH  19  23
HETATM   23  C4  UNL     1      51.812  13.361  -1.428  1.00  0.00     0.274 C 
BRANCH  23  24
HETATM   24  C5  UNL     1      52.516  12.211  -0.787  1.00  0.00     0.056 C 
BRANCH  24  25
HETATM   25  C6  UNL     1      51.639  10.973  -0.708  1.00  0.00     0.165 C 
BRANCH  25  26
HETATM   26  O1  UNL     1      50.415  11.371  -0.169  1.00  0.00    -0.401 OA
ATOM     27  H1  UNL     1      50.436  11.159   0.757  1.00  0.00     0.209 HD
ENDBRANCH  25  26
ENDBRANCH  24  25
ENDBRANCH  23  24
ENDBRANCH  19  23
ENDBRANCH  18  19
ENDBRANCH  17  18
ENDBRANCH  16  17
ENDBRANCH  13  16
ENDBRANCH  12  13
ENDBRANCH   1  12
BRANCH  11  28
HETATM   28  O4  UNL     1      52.373  20.356  -5.650  1.00  0.00    -0.358 OA
ATOM     29  H4  UNL     1      52.215  21.185  -6.087  1.00  0.00     0.217 HD
ENDBRANCH  11  28
BRANCH   8  30
HETATM   30  C17 UNL     1      49.768  20.043 -10.550  1.00  0.00     0.014 C 
HETATM   31  C18 UNL     1      50.529  20.976 -11.039  1.00  0.00     0.030 C 
BRANCH  31  32
HETATM   32  C19 UNL     1      50.126  21.762 -12.189  1.00  0.00     0.041 A 
HETATM   33  C20 UNL     1      50.905  21.948 -13.306  1.00  0.00     0.104 A 
HETATM   34  C21 UNL     1      50.437  22.722 -14.370  1.00  0.00     0.251 A 
HETATM   35  O2  UNL     1      51.167  22.884 -15.387  1.00  0.00    -0.268 OA
HETATM   36  N4  UNL     1      49.226  23.282 -14.296  1.00  0.00    -0.275 N 
HETATM   37  C22 UNL     1      48.462  23.101 -13.204  1.00  0.00     0.327 A 
ATOM     38  H4  UNL     1      48.879  23.849 -15.071  1.00  0.00     0.173 HD
HETATM   39  O3  UNL     1      47.309  23.638 -13.139  1.00  0.00    -0.247 OA
HETATM   40  N5  UNL     1      48.912  22.364 -12.196  1.00  0.00    -0.308 N 
ATOM     41  H5  UNL     1      48.311  22.244 -11.381  1.00  0.00     0.170 HD
ENDBRANCH  31  32
ENDBRANCH   8  30
TORSDOF 15
ENDMDL
MODEL 5
REMARK VINA RESULT: -8.315579062      5.411      9.835
REMARK  15 active torsions:
REMARK  status: ('A' for Active; 'I' for Inactive)
REMARK    1  A    between atoms: C2_2  and  C3_3 
REMARK    2  A    between atoms: C3_3  and  N1_4 
REMARK    3  A    between atoms: N1_4  and  C4_5 
REMARK    4  A    between atoms: N1_4  and  C7_10 
REMARK    5  A    between atoms: C4_5  and  C5_6 
REMARK    6  A    between atoms: C5_6  and  C6_7 
REMARK    7  A    between atoms: C6_7  and  O1_8 
REMARK    8  A    between atoms: C7_10  and  C8_11 
REMARK    9  A    between atoms: C8_11  and  C9_12 
REMARK   10  A    between atoms: C9_12  and  N2_13 
REMARK   11  A    between atoms: N2_13  and  C10_16 
REMARK   12  A    between atoms: C10_16  and  C11_17 
REMARK   13  A    between atoms: C16_24  and  C17_25 
REMARK   14  A    between atoms: C18_26  and  C19_27 
REMARK   15  A    between atoms: C25_39  and  O4_40 
ROOT
HETATM    1  C11 UNL     1      51.756  18.035  -5.325  1.00  0.00     0.070 A 
HETATM    2  N3  UNL     1      51.071  17.158  -6.081  1.00  0.00    -0.355 N 
ATOM      3  H3  UNL     1      50.863  16.197  -5.808  1.00  0.00     0.166 HD
HETATM    4  C12 UNL     1      50.697  17.717  -7.244  1.00  0.00     0.046 A 
HETATM    5  C13 UNL     1      49.995  17.301  -8.360  1.00  0.00     0.038 A 
HETATM    6  C14 UNL     1      49.738  18.098  -9.449  1.00  0.00    -0.050 A 
HETATM    7  C15 UNL     1      48.977  17.598 -10.634  1.00  0.00     0.049 C 
HETATM    8  C16 UNL     1      50.207  19.416  -9.453  1.00  0.00    -0.029 A 
HETATM    9  C23 UNL     1      50.907  19.860  -8.358  1.00  0.00     0.028 A 
HETATM   10  C24 UNL     1      51.145  19.026  -7.279  1.00  0.00     0.027 A 
HETATM   11  C25 UNL     1      51.805  19.200  -6.066  1.00  0.00     0.102 A 
ENDROOT
BRANCH   1  12
HETATM   12  C10 UNL     1      52.354  17.815  -3.957  1.00  0.00     0.292 C 
BRANCH  12  13
HETATM   13  N2  UNL     1      51.705  18.628  -2.975  1.00  0.00    -0.070 N 
ATOM     14  H22 UNL     1      50.717  18.756  -3.196  1.00  0.00     0.277 HD
ATOM     15  H21 UNL     1      52.011  19.599  -3.038  1.00  0.00     0.277 HD
BRANCH  13  16
HETATM   16  C9  UNL     1      51.877  18.119  -1.659  1.00  0.00     0.234 C 
BRANCH  16  17
HETATM   17  C8  UNL     1      52.809  16.941  -1.649  1.00  0.00     0.057 C 
BRANCH  17  18
HETATM   18  C7  UNL     1      52.106  15.756  -0.987  1.00  0.00     0.274 C 
BRANCH  18  19
HETATM   19  N1  UNL     1      52.681  14.545  -1.497  1.00  0.00     0.088 N 
BRANCH  19  20
HETATM   20  C3  UNL     1      53.284  14.687  -2.785  1.00  0.00     0.272 C 
BRANCH  20  21
HETATM   21  C2  UNL     1      52.449  14.146  -3.910  1.00  0.00     0.026 C 
HETATM   22  C1  UNL     1      53.367  13.437  -4.895  1.00  0.00     0.007 C 
ENDBRANCH  20  21
ENDBRANCH  19  20
BRANCH  19  23
HETATM   23  C4  UNL     1      51.874  13.386  -1.329  1.00  0.00     0.274 C 
BRANCH  23  24
HETATM   24  C5  UNL     1      52.658  12.253  -0.753  1.00  0.00     0.056 C 
BRANCH  24  25
HETATM   25  C6  UNL     1      51.785  11.048  -0.446  1.00  0.00     0.165 C 
BRANCH  25  26
HETATM   26  O1  UNL     1      50.478  11.514  -0.302  1.00  0.00    -0.401 OA
ATOM     27  H1  UNL     1      50.182  11.789  -1.162  1.00  0.00     0.209 HD
ENDBRANCH  25  26
ENDBRANCH  24  25
ENDBRANCH  23  24
ENDBRANCH  19  23
ENDBRANCH  18  19
ENDBRANCH  17  18
ENDBRANCH  16  17
ENDBRANCH  13  16
ENDBRANCH  12  13
ENDBRANCH   1  12
BRANCH  11  28
HETATM   28  O4  UNL     1      52.428  20.365  -5.642  1.00  0.00    -0.358 OA
ATOM     29  H4  UNL     1      52.294  20.758  -4.787  1.00  0.00     0.217 HD
ENDBRANCH  11  28
BRANCH   8  30
HETATM   30  C17 UNL     1      49.927  20.266 -10.605  1.00  0.00     0.014 C 
HETATM   31  C18 UNL     1      50.846  20.870 -11.297  1.00  0.00     0.030 C 
BRANCH  31  32
HETATM   32  C19 UNL     1      50.515  21.706 -12.435  1.00  0.00     0.041 A 
HETATM   33  C20 UNL     1      49.291  22.302 -12.621  1.00  0.00     0.104 A 
HETATM   34  C21 UNL     1      49.058  23.093 -13.748  1.00  0.00     0.251 A 
HETATM   35  O2  UNL     1      47.927  23.632 -13.904  1.00  0.00    -0.268 OA
HETATM   36  N4  UNL     1      50.033  23.267 -14.647  1.00  0.00    -0.275 N 
HETATM   37  C22 UNL     1      51.231  22.684 -14.465  1.00  0.00     0.327 A 
ATOM     38  H4  UNL     1      49.867  23.843 -15.471  1.00  0.00     0.173 HD
HETATM   39  O3  UNL     1      52.156  22.852 -15.324  1.00  0.00    -0.247 OA
HETATM   40  N5  UNL     1      51.447  21.933 -13.391  1.00  0.00    -0.308 N 
ATOM     41  H5  UNL     1      52.365  21.504 -13.280  1.00  0.00     0.170 HD
ENDBRANCH  31  32
ENDBRANCH   8  30
TORSDOF 15
ENDMDL
