MODEL 1
REMARK VINA RESULT: -8.358097524      0.000      0.000
REMARK  15 active torsions:
REMARK  status: ('A' for Active; 'I' for Inactive)
REMARK    1  A    between atoms: C2_2  and  C3_3 
REMARK    2  A    between atoms: C3_3  and  C4_4 
REMARK    3  A    between atoms: C4_4  and  C5_5 
REMARK    4  A    between atoms: C19_24  and  C20_25 
REMARK    5  A    between atoms: C20_25  and  N2_26 
REMARK    6  A    between atoms: C20_25  and  C21_30 
REMARK    7  A    between atoms: C21_30  and  N3_31 
REMARK    8  A    between atoms: N3_31  and  C22_33 
REMARK    9  A    between atoms: C22_33  and  C23_34 
REMARK   10  A    between atoms: C23_34  and  C24_35 
REMARK   11  A    between atoms: C24_35  and  C25_36 
REMARK   12  A    between atoms: C25_36  and  N4_37 
REMARK   13  A    between atoms: N4_37  and  C26_40 
REMARK   14  A    between atoms: C26_40  and  C27_41 
REMARK   15  A    between atoms: C27_41  and  N5_42 
ROOT
HETATM    1  C5  UNL     1      48.365  20.411 -12.169  1.00  0.00    -0.031 A 
HETATM    2  C6  UNL     1      48.465  21.400 -13.158  1.00  0.00     0.099 A 
HETATM    3  N1  UNL     1      47.352  21.934 -13.678  1.00  0.00    -0.332 N 
ATOM      4  H1  UNL     1      47.446  22.654 -14.394  1.00  0.00     0.168 HD
HETATM    5  C7  UNL     1      46.117  21.565 -13.297  1.00  0.00     0.256 A 
HETATM    6  O1  UNL     1      45.077  22.074 -13.790  1.00  0.00    -0.267 OA
HETATM    7  C8  UNL     1      45.963  20.607 -12.340  1.00  0.00     0.044 A 
HETATM    8  C9  UNL     1      44.708  20.192 -11.939  1.00  0.00     0.030 A 
HETATM    9  C10 UNL     1      44.549  19.209 -10.989  1.00  0.00    -0.024 A 
HETATM   10  C11 UNL     1      43.289  18.787 -10.598  1.00  0.00     0.023 A 
HETATM   11  C12 UNL     1      43.179  17.778  -9.646  1.00  0.00    -0.009 A 
HETATM   12  C13 UNL     1      44.315  17.231  -9.122  1.00  0.00     0.049 A 
HETATM   13  C14 UNL     1      45.597  17.646  -9.501  1.00  0.00     0.030 A 
HETATM   14  C15 UNL     1      45.692  18.639 -10.439  1.00  0.00    -0.024 A 
HETATM   15  C16 UNL     1      46.947  19.051 -10.833  1.00  0.00     0.025 A 
HETATM   16  C17 UNL     1      47.105  20.034 -11.782  1.00  0.00    -0.012 A 
HETATM   17  C18 UNL     1      43.954  16.154  -8.184  1.00  0.00     0.294 A 
HETATM   18  O2  UNL     1      44.773  15.442  -7.525  1.00  0.00    -0.259 OA
HETATM   19  O3  UNL     1      42.589  16.113  -8.201  1.00  0.00    -0.305 OA
HETATM   20  C19 UNL     1      42.000  17.111  -8.997  1.00  0.00     0.201 A 
ENDROOT
BRANCH  20  21
HETATM   21  C20 UNL     1      41.108  16.523 -10.060  1.00  0.00     0.255 C 
BRANCH  21  22
HETATM   22  N2  UNL     1      39.817  17.109 -10.031  1.00  0.00    -0.068 N 
ATOM     23  H23 UNL     1      39.128  16.475  -9.627  1.00  0.00     0.275 HD
ATOM     24  H22 UNL     1      39.763  17.860  -9.343  1.00  0.00     0.275 HD
ATOM     25  H21 UNL     1      39.535  17.429 -10.957  1.00  0.00     0.275 HD
ENDBRANCH  21  22
BRANCH  21  26
HETATM   26  C21 UNL     1      41.079  15.022  -9.973  1.00  0.00     0.095 C 
BRANCH  26  27
HETATM   27  N3  UNL     1      42.040  14.297 -10.656  1.00  0.00    -0.380 N 
ATOM     28  H3  UNL     1      42.462  13.503 -10.175  1.00  0.00     0.164 HD
BRANCH  27  29
HETATM   29  C22 UNL     1      42.470  14.569 -11.943  1.00  0.00     0.060 C 
BRANCH  29  30
HETATM   30  C23 UNL     1      43.877  15.100 -12.136  1.00  0.00     0.046 C 
BRANCH  30  31
HETATM   31  C24 UNL     1      43.945  16.256 -13.081  1.00  0.00     0.032 C 
BRANCH  31  32
HETATM   32  C25 UNL     1      45.089  16.073 -14.040  1.00  0.00     0.232 C 
BRANCH  32  33
HETATM   33  N4  UNL     1      45.800  17.305 -14.203  1.00  0.00    -0.074 N 
ATOM     34  H42 UNL     1      45.605  17.742 -15.104  1.00  0.00     0.277 HD
ATOM     35  H41 UNL     1      45.435  18.040 -13.598  1.00  0.00     0.277 HD
BRANCH  33  36
HETATM   36  C26 UNL     1      47.216  17.091 -14.000  1.00  0.00     0.259 C 
BRANCH  36  37
HETATM   37  C27 UNL     1      47.993  17.987 -14.914  1.00  0.00     0.257 C 
BRANCH  37  38
HETATM   38  N5  UNL     1      47.043  18.820 -15.636  1.00  0.00    -0.078 N 
ATOM     39  H53 UNL     1      47.332  19.008 -16.596  1.00  0.00     0.274 HD
ATOM     40  H52 UNL     1      46.172  18.333 -15.848  1.00  0.00     0.274 HD
ATOM     41  H51 UNL     1      46.898  19.671 -15.092  1.00  0.00     0.274 HD
ENDBRANCH  37  38
ENDBRANCH  36  37
ENDBRANCH  33  36
ENDBRANCH  32  33
ENDBRANCH  31  32
ENDBRANCH  30  31
ENDBRANCH  29  30
ENDBRANCH  27  29
ENDBRANCH  26  27
ENDBRANCH  21  26
ENDBRANCH  20  21
BRANCH   1  42
HETATM   42  C4  UNL     1      49.569  19.849 -11.559  1.00  0.00     0.041 C 
BRANCH  42  43
HETATM   43  C3  UNL     1      50.543  20.981 -11.350  1.00  0.00     0.004 C 
BRANCH  43  44
HETATM   44  C2  UNL     1      50.322  21.717 -10.064  1.00  0.00    -0.004 C 
HETATM   45  C1  UNL     1      50.019  20.809  -8.907  1.00  0.00     0.005 C 
ENDBRANCH  43  44
ENDBRANCH  42  43
ENDBRANCH   1  42
TORSDOF 15
ENDMDL
MODEL 2
REMARK VINA RESULT: -7.985955532      2.255      8.000
REMARK  15 active torsions:
REMARK  status: ('A' for Active; 'I' for Inactive)
REMARK    1  A    between atoms: C2_2  and  C3_3 
REMARK    2  A    between atoms: C3_3  and  C4_4 
REMARK    3  A    between atoms: C4_4  and  C5_5 
REMARK    4  A    between atoms: C19_24  and  C20_25 
REMARK    5  A    between atoms: C20_25  and  N2_26 
REMARK    6  A    between atoms: C20_25  and  C21_30 
REMARK    7  A    between atoms: C21_30  and  N3_31 
REMARK    8  A    between atoms: N3_31  and  C22_33 
REMARK    9  A    between atoms: C22_33  and  C23_34 
REMARK   10  A    between atoms: C23_34  and  C24_35 
REMARK   11  A    between atoms: C24_35  and  C25_36 
REMARK   12  A    between atoms: C25_36  and  N4_37 
REMARK   13  A    between atoms: N4_37  and  C26_40 
REMARK   14  A    between atoms: C26_40  and  C27_41 
REMARK   15  A    between atoms: C27_41  and  N5_42 
ROOT
HETATM    1  C5  UNL     1      40.675  15.189 -10.128  1.00  0.00    -0.031 A 
HETATM    2  C6  UNL     1      39.695  15.391  -9.146  1.00  0.00     0.099 A 
HETATM    3  N1  UNL     1      39.559  16.601  -8.584  1.00  0.00    -0.332 N 
ATOM      4  H1  UNL     1      38.839  16.729  -7.873  1.00  0.00     0.168 HD
HETATM    5  C7  UNL     1      40.329  17.652  -8.915  1.00  0.00     0.256 A 
HETATM    6  O1  UNL     1      40.193  18.783  -8.383  1.00  0.00    -0.267 OA
HETATM    7  C8  UNL     1      41.297  17.508  -9.863  1.00  0.00     0.044 A 
HETATM    8  C9  UNL     1      42.117  18.563 -10.214  1.00  0.00     0.030 A 
HETATM    9  C10 UNL     1      43.110  18.415 -11.155  1.00  0.00    -0.024 A 
HETATM   10  C11 UNL     1      43.938  19.473 -11.495  1.00  0.00     0.023 A 
HETATM   11  C12 UNL     1      44.939  19.271 -12.440  1.00  0.00    -0.009 A 
HETATM   12  C13 UNL     1      45.079  18.036 -13.007  1.00  0.00     0.049 A 
HETATM   13  C14 UNL     1      44.250  16.957 -12.681  1.00  0.00     0.030 A 
HETATM   14  C15 UNL     1      43.269  17.168 -11.748  1.00  0.00    -0.024 A 
HETATM   15  C16 UNL     1      42.453  16.112 -11.405  1.00  0.00     0.025 A 
HETATM   16  C17 UNL     1      41.460  16.261 -10.465  1.00  0.00    -0.012 A 
HETATM   17  C18 UNL     1      46.228  18.047 -13.929  1.00  0.00     0.294 A 
HETATM   18  O2  UNL     1      46.633  17.060 -14.618  1.00  0.00    -0.259 OA
HETATM   19  O3  UNL     1      46.727  19.316 -13.859  1.00  0.00    -0.305 OA
HETATM   20  C19 UNL     1      45.973  20.178 -13.042  1.00  0.00     0.201 A 
ENDROOT
BRANCH  20  21
HETATM   21  C20 UNL     1      46.812  20.781 -11.943  1.00  0.00     0.255 C 
BRANCH  21  22
HETATM   22  N2  UNL     1      47.324  22.046 -12.322  1.00  0.00    -0.068 N 
ATOM     23  H23 UNL     1      46.604  22.767 -12.288  1.00  0.00     0.275 HD
ATOM     24  H22 UNL     1      47.955  22.422 -11.615  1.00  0.00     0.275 HD
ATOM     25  H21 UNL     1      47.771  22.006 -13.238  1.00  0.00     0.275 HD
ENDBRANCH  21  22
BRANCH  21  26
HETATM   26  C21 UNL     1      47.878  19.822 -11.489  1.00  0.00     0.095 C 
BRANCH  26  27
HETATM   27  N3  UNL     1      48.441  19.996 -10.236  1.00  0.00    -0.380 N 
ATOM     28  H3  UNL     1      47.821  19.947  -9.429  1.00  0.00     0.164 HD
BRANCH  27  29
HETATM   29  C22 UNL     1      49.784  20.233  -9.999  1.00  0.00     0.060 C 
BRANCH  29  30
HETATM   30  C23 UNL     1      50.309  21.645 -10.171  1.00  0.00     0.046 C 
BRANCH  30  31
HETATM   31  C24 UNL     1      51.021  21.854 -11.469  1.00  0.00     0.032 C 
BRANCH  31  32
HETATM   32  C25 UNL     1      50.814  23.264 -11.950  1.00  0.00     0.232 C 
BRANCH  32  33
HETATM   33  N4  UNL     1      50.633  23.281 -13.370  1.00  0.00    -0.074 N 
ATOM     34  H42 UNL     1      49.747  23.710 -13.637  1.00  0.00     0.277 HD
ATOM     35  H41 UNL     1      51.262  23.940 -13.828  1.00  0.00     0.277 HD
BRANCH  33  36
HETATM   36  C26 UNL     1      50.769  21.943 -13.903  1.00  0.00     0.259 C 
BRANCH  36  37
HETATM   37  C27 UNL     1      49.897  21.796 -15.113  1.00  0.00     0.257 C 
BRANCH  37  38
HETATM   38  N5  UNL     1      49.153  20.553 -14.977  1.00  0.00    -0.078 N 
ATOM     39  H53 UNL     1      49.463  19.991 -14.184  1.00  0.00     0.274 HD
ATOM     40  H52 UNL     1      48.191  20.700 -14.671  1.00  0.00     0.274 HD
ATOM     41  H51 UNL     1      49.214  20.054 -15.864  1.00  0.00     0.274 HD
ENDBRANCH  37  38
ENDBRANCH  36  37
ENDBRANCH  33  36
ENDBRANCH  32  33
ENDBRANCH  31  32
ENDBRANCH  30  31
ENDBRANCH  29  30
ENDBRANCH  27  29
ENDBRANCH  26  27
ENDBRANCH  21  26
ENDBRANCH  20  21
BRANCH   1  42
HETATM   42  C4  UNL     1      40.808  13.888 -10.785  1.00  0.00     0.041 C 
BRANCH  42  43
HETATM   43  C3  UNL     1      39.558  13.661 -11.597  1.00  0.00     0.004 C 
BRANCH  43  44
HETATM   44  C2  UNL     1      39.839  13.159 -12.980  1.00  0.00    -0.004 C 
HETATM   45  C1  UNL     1      41.305  13.103 -13.303  1.00  0.00     0.005 C 
ENDBRANCH  43  44
ENDBRANCH  42  43
ENDBRANCH   1  42
TORSDOF 15
ENDMDL
MODEL 3
REMARK VINA RESULT: -7.985451297      1.079      1.274
REMARK  15 active torsions:
REMARK  status: ('A' for Active; 'I' for Inactive)
REMARK    1  A    between atoms: C2_2  and  C3_3 
REMARK    2  A    between atoms: C3_3  and  C4_4 
REMARK    3  A    between atoms: C4_4  and  C5_5 
REMARK    4  A    between atoms: C19_24  and  C20_25 
REMARK    5  A    between atoms: C20_25  and  N2_26 
REMARK    6  A    between atoms: C20_25  and  C21_30 
REMARK    7  A    between atoms: C21_30  and  N3_31 
REMARK    8  A    between atoms: N3_31  and  C22_33 
REMARK    9  A    between atoms: C22_33  and  C23_34 
REMARK   10  A    between atoms: C23_34  and  C24_35 
REMARK   11  A    between atoms: C24_35  and  C25_36 
REMARK   12  A    between atoms: C25_36  and  N4_37 
REMARK   13  A    between atoms: N4_37  and  C26_40 
REMARK   14  A    between atoms: C26_40  and  C27_41 
REMARK   15  A    between atoms: C27_41  and  N5_42 
ROOT
HETATM    1  C5  UNL     1      48.534  20.393 -12.069  1.00  0.00    -0.031 A 
HETATM    2  C6  UNL     1      48.684  21.384 -13.049  1.00  0.00     0.099 A 
HETATM    3  N1  UNL     1      47.597  21.942 -13.601  1.00  0.00    -0.332 N 
ATOM      4  H1  UNL     1      47.726  22.663 -14.310  1.00  0.00     0.168 HD
HETATM    5  C7  UNL     1      46.344  21.594 -13.260  1.00  0.00     0.256 A 
HETATM    6  O1  UNL     1      45.329  22.124 -13.783  1.00  0.00    -0.267 OA
HETATM    7  C8  UNL     1      46.142  20.634 -12.314  1.00  0.00     0.044 A 
HETATM    8  C9  UNL     1      44.869  20.240 -11.954  1.00  0.00     0.030 A 
HETATM    9  C10 UNL     1      44.663  19.256 -11.015  1.00  0.00    -0.024 A 
HETATM   10  C11 UNL     1      43.383  18.855 -10.665  1.00  0.00     0.023 A 
HETATM   11  C12 UNL     1      43.224  17.844  -9.723  1.00  0.00    -0.009 A 
HETATM   12  C13 UNL     1      44.334  17.274  -9.166  1.00  0.00     0.049 A 
HETATM   13  C14 UNL     1      45.635  17.667  -9.503  1.00  0.00     0.030 A 
HETATM   14  C15 UNL     1      45.776  18.663 -10.432  1.00  0.00    -0.024 A 
HETATM   15  C16 UNL     1      47.051  19.053 -10.785  1.00  0.00     0.025 A 
HETATM   16  C17 UNL     1      47.256  20.037 -11.723  1.00  0.00    -0.012 A 
HETATM   17  C18 UNL     1      43.924  16.200  -8.246  1.00  0.00     0.294 A 
HETATM   18  O2  UNL     1      44.709  15.469  -7.565  1.00  0.00    -0.259 OA
HETATM   19  O3  UNL     1      42.560  16.183  -8.305  1.00  0.00    -0.305 OA
HETATM   20  C19 UNL     1      42.015  17.196  -9.114  1.00  0.00     0.201 A 
ENDROOT
BRANCH  20  21
HETATM   21  C20 UNL     1      41.145  16.629 -10.207  1.00  0.00     0.255 C 
BRANCH  21  22
HETATM   22  N2  UNL     1      39.783  16.964 -10.006  1.00  0.00    -0.068 N 
ATOM     23  H23 UNL     1      39.218  16.742 -10.826  1.00  0.00     0.275 HD
ATOM     24  H22 UNL     1      39.338  16.337  -9.336  1.00  0.00     0.275 HD
ATOM     25  H21 UNL     1      39.677  17.940  -9.732  1.00  0.00     0.275 HD
ENDBRANCH  21  22
BRANCH  21  26
HETATM   26  C21 UNL     1      41.375  15.152 -10.370  1.00  0.00     0.095 C 
BRANCH  26  27
HETATM   27  N3  UNL     1      42.410  14.725 -11.183  1.00  0.00    -0.380 N 
ATOM     28  H3  UNL     1      42.906  13.877 -10.909  1.00  0.00     0.164 HD
BRANCH  27  29
HETATM   29  C22 UNL     1      42.822  15.363 -12.340  1.00  0.00     0.060 C 
BRANCH  29  30
HETATM   30  C23 UNL     1      44.303  15.627 -12.530  1.00  0.00     0.046 C 
BRANCH  30  31
HETATM   31  C24 UNL     1      44.586  16.667 -13.566  1.00  0.00     0.032 C 
BRANCH  31  32
HETATM   32  C25 UNL     1      46.071  16.830 -13.742  1.00  0.00     0.232 C 
BRANCH  32  33
HETATM   33  N4  UNL     1      46.614  15.700 -14.434  1.00  0.00    -0.074 N 
ATOM     34  H42 UNL     1      46.086  14.848 -14.247  1.00  0.00     0.277 HD
ATOM     35  H41 UNL     1      46.456  15.756 -15.440  1.00  0.00     0.277 HD
BRANCH  33  36
HETATM   36  C26 UNL     1      48.017  15.550 -14.114  1.00  0.00     0.259 C 
BRANCH  36  37
HETATM   37  C27 UNL     1      48.156  14.844 -12.800  1.00  0.00     0.257 C 
BRANCH  37  38
HETATM   38  N5  UNL     1      49.412  15.265 -12.199  1.00  0.00    -0.078 N 
ATOM     39  H53 UNL     1      50.205  15.174 -12.835  1.00  0.00     0.274 HD
ATOM     40  H52 UNL     1      49.465  16.274 -12.058  1.00  0.00     0.274 HD
ATOM     41  H51 UNL     1      49.537  14.739 -11.334  1.00  0.00     0.274 HD
ENDBRANCH  37  38
ENDBRANCH  36  37
ENDBRANCH  33  36
ENDBRANCH  32  33
ENDBRANCH  31  32
ENDBRANCH  30  31
ENDBRANCH  29  30
ENDBRANCH  27  29
ENDBRANCH  26  27
ENDBRANCH  21  26
ENDBRANCH  20  21
BRANCH   1  42
HETATM   42  C4  UNL     1      49.708  19.806 -11.424  1.00  0.00     0.041 C 
BRANCH  42  43
HETATM   43  C3  UNL     1      50.597  20.941 -10.981  1.00  0.00     0.004 C 
BRANCH  43  44
HETATM   44  C2  UNL     1      50.218  21.496  -9.643  1.00  0.00    -0.004 C 
HETATM   45  C1  UNL     1      50.019  20.437  -8.597  1.00  0.00     0.005 C 
ENDBRANCH  43  44
ENDBRANCH  42  43
ENDBRANCH   1  42
TORSDOF 15
ENDMDL
MODEL 4
REMARK VINA RESULT: -7.810599056      2.405      7.958
REMARK  15 active torsions:
REMARK  status: ('A' for Active; 'I' for Inactive)
REMARK    1  A    between atoms: C2_2  and  C3_3 
REMARK    2  A    between atoms: C3_3  and  C4_4 
REMARK    3  A    between atoms: C4_4  and  C5_5 
REMARK    4  A    between atoms: C19_24  and  C20_25 
REMARK    5  A    between atoms: C20_25  and  N2_26 
REMARK    6  A    between atoms: C20_25  and  C21_30 
REMARK    7  A    between atoms: C21_30  and  N3_31 
REMARK    8  A    between atoms: N3_31  and  C22_33 
REMARK    9  A    between atoms: C22_33  and  C23_34 
REMARK   10  A    between atoms: C23_34  and  C24_35 
REMARK   11  A    between atoms: C24_35  and  C25_36 
REMARK   12  A    between atoms: C25_36  and  N4_37 
REMARK   13  A    between atoms: N4_37  and  C26_40 
REMARK   14  A    between atoms: C26_40  and  C27_41 
REMARK   15  A    between atoms: C27_41  and  N5_42 
ROOT
HETATM    1  C5  UNL     1      41.170  15.325 -11.381  1.00  0.00    -0.031 A 
HETATM    2  C6  UNL     1      40.119  15.522 -10.475  1.00  0.00     0.099 A 
HETATM    3  N1  UNL     1      40.028  16.680  -9.806  1.00  0.00    -0.332 N 
ATOM      4  H1  UNL     1      39.254  16.806  -9.153  1.00  0.00     0.168 HD
HETATM    5  C7  UNL     1      40.910  17.683  -9.957  1.00  0.00     0.256 A 
HETATM    6  O1  UNL     1      40.815  18.767  -9.325  1.00  0.00    -0.267 OA
HETATM    7  C8  UNL     1      41.952  17.542 -10.824  1.00  0.00     0.044 A 
HETATM    8  C9  UNL     1      42.885  18.546 -10.990  1.00  0.00     0.030 A 
HETATM    9  C10 UNL     1      43.951  18.398 -11.848  1.00  0.00    -0.024 A 
HETATM   10  C11 UNL     1      44.892  19.403 -12.002  1.00  0.00     0.023 A 
HETATM   11  C12 UNL     1      45.962  19.201 -12.869  1.00  0.00    -0.009 A 
HETATM   12  C13 UNL     1      46.055  18.019 -13.545  1.00  0.00     0.049 A 
HETATM   13  C14 UNL     1      45.112  16.993 -13.407  1.00  0.00     0.030 A 
HETATM   14  C15 UNL     1      44.065  17.204 -12.549  1.00  0.00    -0.024 A 
HETATM   15  C16 UNL     1      43.135  16.199 -12.391  1.00  0.00     0.025 A 
HETATM   16  C17 UNL     1      42.070  16.348 -11.534  1.00  0.00    -0.012 A 
HETATM   17  C18 UNL     1      47.286  18.011 -14.353  1.00  0.00     0.294 A 
HETATM   18  O2  UNL     1      47.675  17.061 -15.102  1.00  0.00    -0.259 OA
HETATM   19  O3  UNL     1      47.878  19.218 -14.108  1.00  0.00    -0.305 OA
HETATM   20  C19 UNL     1      47.121  20.063 -13.278  1.00  0.00     0.201 A 
ENDROOT
BRANCH  20  21
HETATM   21  C20 UNL     1      47.894  20.480 -12.052  1.00  0.00     0.255 C 
BRANCH  21  22
HETATM   22  N2  UNL     1      48.214  21.860 -12.090  1.00  0.00    -0.068 N 
ATOM     23  H23 UNL     1      49.110  22.049 -11.643  1.00  0.00     0.275 HD
ATOM     24  H22 UNL     1      48.442  22.166 -13.036  1.00  0.00     0.275 HD
ATOM     25  H21 UNL     1      47.467  22.424 -11.686  1.00  0.00     0.275 HD
ENDBRANCH  21  22
BRANCH  21  26
HETATM   26  C21 UNL     1      49.095  19.599 -11.845  1.00  0.00     0.095 C 
BRANCH  26  27
HETATM   27  N3  UNL     1      48.977  18.495 -11.019  1.00  0.00    -0.380 N 
ATOM     28  H3  UNL     1      49.637  17.730 -11.156  1.00  0.00     0.164 HD
BRANCH  27  29
HETATM   29  C22 UNL     1      48.029  18.352 -10.021  1.00  0.00     0.060 C 
BRANCH  29  30
HETATM   30  C23 UNL     1      47.120  17.139 -10.058  1.00  0.00     0.046 C 
BRANCH  30  31
HETATM   31  C24 UNL     1      46.005  17.209  -9.064  1.00  0.00     0.032 C 
BRANCH  31  32
HETATM   32  C25 UNL     1      46.278  16.278  -7.915  1.00  0.00     0.232 C 
BRANCH  32  33
HETATM   33  N4  UNL     1      45.060  15.967  -7.230  1.00  0.00    -0.074 N 
ATOM     34  H42 UNL     1      45.028  14.992  -6.932  1.00  0.00     0.277 HD
ATOM     35  H41 UNL     1      45.017  16.405  -6.310  1.00  0.00     0.277 HD
BRANCH  33  36
HETATM   36  C26 UNL     1      43.925  16.319  -8.053  1.00  0.00     0.259 C 
BRANCH  36  37
HETATM   37  C27 UNL     1      42.795  15.374  -7.778  1.00  0.00     0.257 C 
BRANCH  37  38
HETATM   38  N5  UNL     1      42.020  15.915  -6.672  1.00  0.00    -0.078 N 
ATOM     39  H53 UNL     1      41.141  16.336  -6.974  1.00  0.00     0.274 HD
ATOM     40  H52 UNL     1      41.625  15.189  -6.074  1.00  0.00     0.274 HD
ATOM     41  H51 UNL     1      42.616  16.567  -6.162  1.00  0.00     0.274 HD
ENDBRANCH  37  38
ENDBRANCH  36  37
ENDBRANCH  33  36
ENDBRANCH  32  33
ENDBRANCH  31  32
ENDBRANCH  30  31
ENDBRANCH  29  30
ENDBRANCH  27  29
ENDBRANCH  26  27
ENDBRANCH  21  26
ENDBRANCH  20  21
BRANCH   1  42
HETATM   42  C4  UNL     1      41.260  14.086 -12.153  1.00  0.00     0.041 C 
BRANCH  42  43
HETATM   43  C3  UNL     1      39.881  13.477 -12.196  1.00  0.00     0.004 C 
BRANCH  43  44
HETATM   44  C2  UNL     1      39.476  13.037 -13.569  1.00  0.00    -0.004 C 
HETATM   45  C1  UNL     1      40.626  12.536 -14.394  1.00  0.00     0.005 C 
ENDBRANCH  43  44
ENDBRANCH  42  43
ENDBRANCH   1  42
TORSDOF 15
ENDMDL
MODEL 5
REMARK VINA RESULT: -7.790991926      1.709      7.517
REMARK  15 active torsions:
REMARK  status: ('A' for Active; 'I' for Inactive)
REMARK    1  A    between atoms: C2_2  and  C3_3 
REMARK    2  A    between atoms: C3_3  and  C4_4 
REMARK    3  A    between atoms: C4_4  and  C5_5 
REMARK    4  A    between atoms: C19_24  and  C20_25 
REMARK    5  A    between atoms: C20_25  and  N2_26 
REMARK    6  A    between atoms: C20_25  and  C21_30 
REMARK    7  A    between atoms: C21_30  and  N3_31 
REMARK    8  A    between atoms: N3_31  and  C22_33 
REMARK    9  A    between atoms: C22_33  and  C23_34 
REMARK   10  A    between atoms: C23_34  and  C24_35 
REMARK   11  A    between atoms: C24_35  and  C25_36 
REMARK   12  A    between atoms: C25_36  and  N4_37 
REMARK   13  A    between atoms: N4_37  and  C26_40 
REMARK   14  A    between atoms: C26_40  and  C27_41 
REMARK   15  A    between atoms: C27_41  and  N5_42 
ROOT
HETATM    1  C5  UNL     1      42.535  16.886  -9.044  1.00  0.00    -0.031 A 
HETATM    2  C6  UNL     1      42.641  15.886  -8.067  1.00  0.00     0.099 A 
HETATM    3  N1  UNL     1      43.843  15.579  -7.559  1.00  0.00    -0.332 N 
ATOM      4  H1  UNL     1      43.899  14.851  -6.847  1.00  0.00     0.168 HD
HETATM    5  C7  UNL     1      44.977  16.189  -7.944  1.00  0.00     0.256 A 
HETATM    6  O1  UNL     1      46.101  15.895  -7.460  1.00  0.00    -0.267 OA
HETATM    7  C8  UNL     1      44.930  17.167  -8.892  1.00  0.00     0.044 A 
HETATM    8  C9  UNL     1      46.079  17.801  -9.324  1.00  0.00     0.030 A 
HETATM    9  C10 UNL     1      46.037  18.773 -10.297  1.00  0.00    -0.024 A 
HETATM   10  C11 UNL     1      47.193  19.398 -10.735  1.00  0.00     0.023 A 
HETATM   11  C12 UNL     1      47.103  20.364 -11.733  1.00  0.00    -0.009 A 
HETATM   12  C13 UNL     1      45.878  20.670 -12.253  1.00  0.00     0.049 A 
HETATM   13  C14 UNL     1      44.698  20.054 -11.820  1.00  0.00     0.030 A 
HETATM   14  C15 UNL     1      44.801  19.105 -10.839  1.00  0.00    -0.024 A 
HETATM   15  C16 UNL     1      43.650  18.478 -10.411  1.00  0.00     0.025 A 
HETATM   16  C17 UNL     1      43.693  17.507  -9.438  1.00  0.00    -0.012 A 
HETATM   17  C18 UNL     1      46.035  21.670 -13.323  1.00  0.00     0.294 A 
HETATM   18  O2  UNL     1      45.093  22.171 -14.012  1.00  0.00    -0.259 OA
HETATM   19  O3  UNL     1      47.378  21.911 -13.389  1.00  0.00    -0.305 OA
HETATM   20  C19 UNL     1      48.125  21.230 -12.411  1.00  0.00     0.201 A 
ENDROOT
BRANCH  20  21
HETATM   21  C20 UNL     1      49.190  20.359 -13.029  1.00  0.00     0.255 C 
BRANCH  21  22
HETATM   22  N2  UNL     1      50.416  20.467 -12.326  1.00  0.00    -0.068 N 
ATOM     23  H23 UNL     1      50.326  21.070 -11.509  1.00  0.00     0.275 HD
ATOM     24  H22 UNL     1      50.654  19.595 -11.853  1.00  0.00     0.275 HD
ATOM     25  H21 UNL     1      51.169  20.776 -12.939  1.00  0.00     0.275 HD
ENDBRANCH  21  22
BRANCH  21  26
HETATM   26  C21 UNL     1      49.326  20.633 -14.501  1.00  0.00     0.095 C 
BRANCH  26  27
HETATM   27  N3  UNL     1      48.676  19.801 -15.397  1.00  0.00    -0.380 N 
ATOM     28  H3  UNL     1      48.526  20.152 -16.343  1.00  0.00     0.164 HD
BRANCH  27  29
HETATM   29  C22 UNL     1      48.216  18.529 -15.104  1.00  0.00     0.060 C 
BRANCH  29  30
HETATM   30  C23 UNL     1      46.735  18.342 -14.837  1.00  0.00     0.046 C 
BRANCH  30  31
HETATM   31  C24 UNL     1      46.453  17.312 -13.791  1.00  0.00     0.032 C 
BRANCH  31  32
HETATM   32  C25 UNL     1      44.997  16.933 -13.819  1.00  0.00     0.232 C 
BRANCH  32  33
HETATM   33  N4  UNL     1      44.811  15.739 -14.586  1.00  0.00    -0.074 N 
ATOM     34  H42 UNL     1      44.598  15.942 -15.563  1.00  0.00     0.277 HD
ATOM     35  H41 UNL     1      45.687  15.234 -14.726  1.00  0.00     0.277 HD
BRANCH  33  36
HETATM   36  C26 UNL     1      43.799  14.908 -13.972  1.00  0.00     0.259 C 
BRANCH  36  37
HETATM   37  C27 UNL     1      43.374  15.517 -12.671  1.00  0.00     0.257 C 
BRANCH  37  38
HETATM   38  N5  UNL     1      43.566  14.520 -11.629  1.00  0.00    -0.078 N 
ATOM     39  H53 UNL     1      43.436  13.566 -11.966  1.00  0.00     0.274 HD
ATOM     40  H52 UNL     1      44.540  14.431 -11.341  1.00  0.00     0.274 HD
ATOM     41  H51 UNL     1      42.945  14.754 -10.854  1.00  0.00     0.274 HD
ENDBRANCH  37  38
ENDBRANCH  36  37
ENDBRANCH  33  36
ENDBRANCH  32  33
ENDBRANCH  31  32
ENDBRANCH  30  31
ENDBRANCH  29  30
ENDBRANCH  27  29
ENDBRANCH  26  27
ENDBRANCH  21  26
ENDBRANCH  20  21
BRANCH   1  42
HETATM   42  C4  UNL     1      41.227  17.265  -9.577  1.00  0.00     0.041 C 
BRANCH  42  43
HETATM   43  C3  UNL     1      40.601  16.026 -10.167  1.00  0.00     0.004 C 
BRANCH  43  44
HETATM   44  C2  UNL     1      39.289  15.674  -9.537  1.00  0.00    -0.004 C 
HETATM   45  C1  UNL     1      39.273  14.300  -8.931  1.00  0.00     0.005 C 
ENDBRANCH  43  44
ENDBRANCH  42  43
ENDBRANCH   1  42
TORSDOF 15
ENDMDL
