MODEL 1
REMARK VINA RESULT: -6.374844032      0.000      0.000
REMARK  9 active torsions:
REMARK  status: ('A' for Active; 'I' for Inactive)
REMARK    1  A    between atoms: C2_2  and  C3_3 
REMARK    2  A    between atoms: C3_3  and  C4_5 
REMARK    3  A    between atoms: C4_5  and  C5_6 
REMARK    4  A    between atoms: C5_6  and  S1_7 
REMARK    5  A    between atoms: S1_7  and  C6_8 
REMARK    6  A    between atoms: C6_8  and  N1_10 
REMARK    7  A    between atoms: N1_10  and  C7_12 
REMARK    8  A    between atoms: C7_12  and  N2_14 
REMARK    9  A    between atoms: C10_17  and  C11_18 
ROOT
HETATM    1  N1  UNL     1      26.270  77.970  47.675  1.00  0.00    -0.319 N 
ATOM      2  H1  UNL     1      25.443  77.436  47.944  1.00  0.00     0.169 HD
ENDROOT
BRANCH   1   3
HETATM    3  C6  UNL     1      27.522  77.468  48.085  1.00  0.00     0.140 C 
HETATM    4  S2  UNL     1      28.546  78.457  48.876  1.00  0.00    -0.052 SA
BRANCH   3   5
HETATM    5  S1  UNL     1      27.942  75.782  47.751  1.00  0.00    -0.100 SA
BRANCH   5   6
HETATM    6  C5  UNL     1      28.450  74.981  49.284  1.00  0.00     0.089 C 
BRANCH   6   7
HETATM    7  C4  UNL     1      27.347  75.097  50.285  1.00  0.00     0.088 C 
BRANCH   7   8
HETATM    8  C3  UNL     1      27.918  74.965  51.652  1.00  0.00     0.127 C 
HETATM    9  O1  UNL     1      27.919  75.940  52.376  1.00  0.00    -0.298 OA
BRANCH   8  10
HETATM   10  C2  UNL     1      28.484  73.675  52.150  1.00  0.00     0.074 C 
HETATM   11  C1  UNL     1      28.861  73.821  53.604  1.00  0.00     0.013 C 
ENDBRANCH   8  10
ENDBRANCH   7   8
ENDBRANCH   6   7
ENDBRANCH   5   6
ENDBRANCH   3   5
ENDBRANCH   1   3
BRANCH   1  12
HETATM   12  C7  UNL     1      26.060  79.157  46.917  1.00  0.00     0.175 C 
HETATM   13  S3  UNL     1      26.503  79.245  45.366  1.00  0.00    -0.041 SA
BRANCH  12  14
HETATM   14  N2  UNL     1      25.445  80.268  47.565  1.00  0.00    -0.358 N 
HETATM   15  C8  UNL     1      25.162  80.155  48.981  1.00  0.00     0.126 C 
HETATM   16  C9  UNL     1      25.406  81.547  49.554  1.00  0.00     0.033 C 
HETATM   17  C10 UNL     1      24.281  82.426  49.091  1.00  0.00     0.078 C 
HETATM   18  C12 UNL     1      24.043  82.272  47.632  1.00  0.00     0.033 C 
HETATM   19  C13 UNL     1      25.097  81.477  46.892  1.00  0.00     0.126 C 
BRANCH  17  20
HETATM   20  C11 UNL     1      24.597  83.826  49.474  1.00  0.00     0.235 C 
HETATM   21  N3  UNL     1      24.673  84.146  50.849  1.00  0.00    -0.062 NA
HETATM   22  O2  UNL     1      24.783  84.665  48.566  1.00  0.00    -0.277 OA
ENDBRANCH  17  20
ENDBRANCH  12  14
ENDBRANCH   1  12
TORSDOF 9
ENDMDL
MODEL 2
REMARK VINA RESULT: -6.114110256      4.598      7.310
REMARK  9 active torsions:
REMARK  status: ('A' for Active; 'I' for Inactive)
REMARK    1  A    between atoms: C2_2  and  C3_3 
REMARK    2  A    between atoms: C3_3  and  C4_5 
REMARK    3  A    between atoms: C4_5  and  C5_6 
REMARK    4  A    between atoms: C5_6  and  S1_7 
REMARK    5  A    between atoms: S1_7  and  C6_8 
REMARK    6  A    between atoms: C6_8  and  N1_10 
REMARK    7  A    between atoms: N1_10  and  C7_12 
REMARK    8  A    between atoms: C7_12  and  N2_14 
REMARK    9  A    between atoms: C10_17  and  C11_18 
ROOT
HETATM    1  N1  UNL     1      24.467  81.001  47.123  1.00  0.00    -0.319 N 
ATOM      2  H1  UNL     1      23.533  80.909  46.723  1.00  0.00     0.169 HD
ENDROOT
BRANCH   1   3
HETATM    3  C6  UNL     1      24.615  81.880  48.215  1.00  0.00     0.140 C 
HETATM    4  S2  UNL     1      24.702  83.481  47.931  1.00  0.00    -0.052 SA
BRANCH   3   5
HETATM    5  S1  UNL     1      24.683  81.231  49.860  1.00  0.00    -0.100 SA
BRANCH   5   6
HETATM    6  C5  UNL     1      26.368  81.370  50.486  1.00  0.00     0.089 C 
BRANCH   6   7
HETATM    7  C4  UNL     1      26.369  82.242  51.698  1.00  0.00     0.088 C 
BRANCH   7   8
HETATM    8  C3  UNL     1      26.305  83.666  51.270  1.00  0.00     0.127 C 
HETATM    9  O1  UNL     1      27.244  84.128  50.654  1.00  0.00    -0.298 OA
BRANCH   8  10
HETATM   10  C2  UNL     1      25.127  84.531  51.580  1.00  0.00     0.074 C 
HETATM   11  C1  UNL     1      25.502  85.979  51.382  1.00  0.00     0.013 C 
ENDBRANCH   8  10
ENDBRANCH   7   8
ENDBRANCH   6   7
ENDBRANCH   5   6
ENDBRANCH   3   5
ENDBRANCH   1   3
BRANCH   1  12
HETATM   12  C7  UNL     1      25.508  80.231  46.532  1.00  0.00     0.175 C 
HETATM   13  S3  UNL     1      26.314  79.123  47.387  1.00  0.00    -0.041 SA
BRANCH  12  14
HETATM   14  N2  UNL     1      25.820  80.463  45.160  1.00  0.00    -0.358 N 
HETATM   15  C8  UNL     1      26.592  79.457  44.461  1.00  0.00     0.126 C 
HETATM   16  C9  UNL     1      26.035  79.434  43.041  1.00  0.00     0.033 C 
HETATM   17  C10 UNL     1      26.493  80.691  42.360  1.00  0.00     0.078 C 
HETATM   18  C12 UNL     1      26.255  81.883  43.216  1.00  0.00     0.033 C 
HETATM   19  C13 UNL     1      25.413  81.630  44.447  1.00  0.00     0.126 C 
BRANCH  17  20
HETATM   20  C11 UNL     1      25.806  80.784  41.046  1.00  0.00     0.235 C 
HETATM   21  N3  UNL     1      26.245  81.763  40.127  1.00  0.00    -0.062 NA
HETATM   22  O2  UNL     1      24.868  79.993  40.807  1.00  0.00    -0.277 OA
ENDBRANCH  17  20
ENDBRANCH  12  14
ENDBRANCH   1  12
TORSDOF 9
ENDMDL
MODEL 3
REMARK VINA RESULT: -6.041064144      1.053      1.060
REMARK  9 active torsions:
REMARK  status: ('A' for Active; 'I' for Inactive)
REMARK    1  A    between atoms: C2_2  and  C3_3 
REMARK    2  A    between atoms: C3_3  and  C4_5 
REMARK    3  A    between atoms: C4_5  and  C5_6 
REMARK    4  A    between atoms: C5_6  and  S1_7 
REMARK    5  A    between atoms: S1_7  and  C6_8 
REMARK    6  A    between atoms: C6_8  and  N1_10 
REMARK    7  A    between atoms: N1_10  and  C7_12 
REMARK    8  A    between atoms: C7_12  and  N2_14 
REMARK    9  A    between atoms: C10_17  and  C11_18 
ROOT
HETATM    1  N1  UNL     1      26.101  78.308  48.013  1.00  0.00    -0.319 N 
ATOM      2  H1  UNL     1      25.264  77.856  48.384  1.00  0.00     0.169 HD
ENDROOT
BRANCH   1   3
HETATM    3  C6  UNL     1      27.339  77.698  48.296  1.00  0.00     0.140 C 
HETATM    4  S2  UNL     1      28.537  78.604  48.926  1.00  0.00    -0.052 SA
BRANCH   3   5
HETATM    5  S1  UNL     1      27.558  75.971  47.981  1.00  0.00    -0.100 SA
BRANCH   5   6
HETATM    6  C5  UNL     1      28.526  75.241  49.316  1.00  0.00     0.089 C 
BRANCH   6   7
HETATM    7  C4  UNL     1      27.641  75.026  50.500  1.00  0.00     0.088 C 
BRANCH   7   8
HETATM    8  C3  UNL     1      27.703  73.594  50.897  1.00  0.00     0.127 C 
HETATM    9  O1  UNL     1      27.651  72.748  50.027  1.00  0.00    -0.298 OA
BRANCH   8  10
HETATM   10  C2  UNL     1      27.826  73.176  52.326  1.00  0.00     0.074 C 
HETATM   11  C1  UNL     1      28.535  74.255  53.106  1.00  0.00     0.013 C 
ENDBRANCH   8  10
ENDBRANCH   7   8
ENDBRANCH   6   7
ENDBRANCH   5   6
ENDBRANCH   3   5
ENDBRANCH   1   3
BRANCH   1  12
HETATM   12  C7  UNL     1      25.916  79.499  47.255  1.00  0.00     0.175 C 
HETATM   13  S3  UNL     1      26.325  79.565  45.694  1.00  0.00    -0.041 SA
BRANCH  12  14
HETATM   14  N2  UNL     1      25.357  80.634  47.912  1.00  0.00    -0.358 N 
HETATM   15  C8  UNL     1      25.021  80.507  49.315  1.00  0.00     0.126 C 
HETATM   16  C9  UNL     1      25.340  81.866  49.931  1.00  0.00     0.033 C 
HETATM   17  C10 UNL     1      24.293  82.830  49.456  1.00  0.00     0.078 C 
HETATM   18  C12 UNL     1      24.094  82.727  47.987  1.00  0.00     0.033 C 
HETATM   19  C13 UNL     1      25.114  81.879  47.260  1.00  0.00     0.126 C 
BRANCH  17  20
HETATM   20  C11 UNL     1      24.691  84.196  49.885  1.00  0.00     0.235 C 
HETATM   21  N3  UNL     1      24.974  84.415  51.252  1.00  0.00    -0.062 NA
HETATM   22  O2  UNL     1      24.760  85.096  49.020  1.00  0.00    -0.277 OA
ENDBRANCH  17  20
ENDBRANCH  12  14
ENDBRANCH   1  12
TORSDOF 9
ENDMDL
MODEL 4
REMARK VINA RESULT: -6.038870207      2.878      4.058
REMARK  9 active torsions:
REMARK  status: ('A' for Active; 'I' for Inactive)
REMARK    1  A    between atoms: C2_2  and  C3_3 
REMARK    2  A    between atoms: C3_3  and  C4_5 
REMARK    3  A    between atoms: C4_5  and  C5_6 
REMARK    4  A    between atoms: C5_6  and  S1_7 
REMARK    5  A    between atoms: S1_7  and  C6_8 
REMARK    6  A    between atoms: C6_8  and  N1_10 
REMARK    7  A    between atoms: N1_10  and  C7_12 
REMARK    8  A    between atoms: C7_12  and  N2_14 
REMARK    9  A    between atoms: C10_17  and  C11_18 
ROOT
HETATM    1  N1  UNL     1      26.063  78.324  47.685  1.00  0.00    -0.319 N 
ATOM      2  H1  UNL     1      25.367  77.594  47.530  1.00  0.00     0.169 HD
ENDROOT
BRANCH   1   3
HETATM    3  C6  UNL     1      27.345  77.913  48.101  1.00  0.00     0.140 C 
HETATM    4  S2  UNL     1      28.298  78.975  48.885  1.00  0.00    -0.052 SA
BRANCH   3   5
HETATM    5  S1  UNL     1      27.880  76.256  47.782  1.00  0.00    -0.100 SA
BRANCH   5   6
HETATM    6  C5  UNL     1      28.483  75.521  49.313  1.00  0.00     0.089 C 
BRANCH   6   7
HETATM    7  C4  UNL     1      27.328  75.274  50.226  1.00  0.00     0.088 C 
BRANCH   7   8
HETATM    8  C3  UNL     1      27.837  75.074  51.609  1.00  0.00     0.127 C 
HETATM    9  O1  UNL     1      27.926  76.040  52.339  1.00  0.00    -0.298 OA
BRANCH   8  10
HETATM   10  C2  UNL     1      28.238  73.727  52.116  1.00  0.00     0.074 C 
HETATM   11  C1  UNL     1      28.876  73.872  53.476  1.00  0.00     0.013 C 
ENDBRANCH   8  10
ENDBRANCH   7   8
ENDBRANCH   6   7
ENDBRANCH   5   6
ENDBRANCH   3   5
ENDBRANCH   1   3
BRANCH   1  12
HETATM   12  C7  UNL     1      25.655  79.670  47.463  1.00  0.00     0.175 C 
HETATM   13  S3  UNL     1      25.030  80.560  48.658  1.00  0.00    -0.041 SA
BRANCH  12  14
HETATM   14  N2  UNL     1      25.815  80.214  46.155  1.00  0.00    -0.358 N 
HETATM   15  C8  UNL     1      26.813  79.619  45.291  1.00  0.00     0.126 C 
HETATM   16  C9  UNL     1      26.217  79.671  43.888  1.00  0.00     0.033 C 
HETATM   17  C10 UNL     1      26.248  81.104  43.442  1.00  0.00     0.078 C 
HETATM   18  C12 UNL     1      25.713  82.007  44.494  1.00  0.00     0.033 C 
HETATM   19  C13 UNL     1      25.046  81.309  45.659  1.00  0.00     0.126 C 
BRANCH  17  20
HETATM   20  C11 UNL     1      25.498  81.208  42.163  1.00  0.00     0.235 C 
HETATM   21  N3  UNL     1      26.233  81.311  40.960  1.00  0.00    -0.062 NA
HETATM   22  O2  UNL     1      24.249  81.201  42.202  1.00  0.00    -0.277 OA
ENDBRANCH  17  20
ENDBRANCH  12  14
ENDBRANCH   1  12
TORSDOF 9
ENDMDL
MODEL 5
REMARK VINA RESULT: -5.898238184      2.386      7.415
REMARK  9 active torsions:
REMARK  status: ('A' for Active; 'I' for Inactive)
REMARK    1  A    between atoms: C2_2  and  C3_3 
REMARK    2  A    between atoms: C3_3  and  C4_5 
REMARK    3  A    between atoms: C4_5  and  C5_6 
REMARK    4  A    between atoms: C5_6  and  S1_7 
REMARK    5  A    between atoms: S1_7  and  C6_8 
REMARK    6  A    between atoms: C6_8  and  N1_10 
REMARK    7  A    between atoms: N1_10  and  C7_12 
REMARK    8  A    between atoms: C7_12  and  N2_14 
REMARK    9  A    between atoms: C10_17  and  C11_18 
ROOT
HETATM    1  N1  UNL     1      25.850  80.048  48.628  1.00  0.00    -0.319 N 
ATOM      2  H1  UNL     1      26.417  80.189  49.465  1.00  0.00     0.169 HD
ENDROOT
BRANCH   1   3
HETATM    3  C6  UNL     1      24.640  80.764  48.543  1.00  0.00     0.140 C 
HETATM    4  S2  UNL     1      23.376  80.287  49.452  1.00  0.00    -0.052 SA
BRANCH   3   5
HETATM    5  S1  UNL     1      24.525  82.168  47.471  1.00  0.00    -0.100 SA
BRANCH   5   6
HETATM    6  C5  UNL     1      24.889  83.664  48.410  1.00  0.00     0.089 C 
BRANCH   6   7
HETATM    7  C4  UNL     1      24.475  83.462  49.830  1.00  0.00     0.088 C 
BRANCH   7   8
HETATM    8  C3  UNL     1      25.648  83.695  50.715  1.00  0.00     0.127 C 
HETATM    9  O1  UNL     1      25.992  84.840  50.932  1.00  0.00    -0.298 OA
BRANCH   8  10
HETATM   10  C2  UNL     1      26.406  82.567  51.335  1.00  0.00     0.074 C 
HETATM   11  C1  UNL     1      27.886  82.835  51.223  1.00  0.00     0.013 C 
ENDBRANCH   8  10
ENDBRANCH   7   8
ENDBRANCH   6   7
ENDBRANCH   5   6
ENDBRANCH   3   5
ENDBRANCH   1   3
BRANCH   1  12
HETATM   12  C7  UNL     1      26.351  79.146  47.648  1.00  0.00     0.175 C 
HETATM   13  S3  UNL     1      26.308  79.515  46.076  1.00  0.00    -0.041 SA
BRANCH  12  14
HETATM   14  N2  UNL     1      26.895  77.905  48.091  1.00  0.00    -0.358 N 
HETATM   15  C8  UNL     1      28.252  77.903  48.599  1.00  0.00     0.126 C 
HETATM   16  C9  UNL     1      28.255  76.886  49.737  1.00  0.00     0.033 C 
HETATM   17  C10 UNL     1      28.163  75.522  49.118  1.00  0.00     0.078 C 
HETATM   18  C12 UNL     1      27.085  75.466  48.096  1.00  0.00     0.033 C 
HETATM   19  C13 UNL     1      26.175  76.674  48.059  1.00  0.00     0.126 C 
BRANCH  17  20
HETATM   20  C11 UNL     1      27.971  74.530  50.207  1.00  0.00     0.235 C 
HETATM   21  N3  UNL     1      27.860  73.164  49.860  1.00  0.00    -0.062 NA
HETATM   22  O2  UNL     1      27.914  74.942  51.386  1.00  0.00    -0.277 OA
ENDBRANCH  17  20
ENDBRANCH  12  14
ENDBRANCH   1  12
TORSDOF 9
ENDMDL
