MODEL 1
REMARK VINA RESULT: -5.507606257      0.000      0.000
REMARK  7 active torsions:
REMARK  status: ('A' for Active; 'I' for Inactive)
REMARK    1  A    between atoms: C7_7  and  O1_8 
REMARK    2  A    between atoms: C14_17  and  C15_18 
REMARK    3  A    between atoms: C15_18  and  O4_20 
REMARK    4  A    between atoms: O4_20  and  C16_21 
REMARK    5  A    between atoms: C16_21  and  C17_22 
REMARK    6  A    between atoms: C17_22  and  C18_23 
REMARK    7  A    between atoms: C18_23  and  O5_24 
ROOT
HETATM    1  C1  UNL     1      25.393  80.249  46.566  1.00  0.00     0.019 C 
HETATM    2  C2  UNL     1      26.200  79.326  47.049  1.00  0.00    -0.055 C 
HETATM    3  C3  UNL     1      26.817  78.105  46.441  1.00  0.00     0.081 C 
HETATM    4  C4  UNL     1      27.191  77.628  47.827  1.00  0.00     0.093 C 
HETATM    5  C5  UNL     1      26.223  76.588  48.305  1.00  0.00     0.051 C 
HETATM    6  C6  UNL     1      26.843  75.191  48.292  1.00  0.00     0.025 C 
HETATM    7  C7  UNL     1      27.710  75.115  49.542  1.00  0.00     0.130 C 
HETATM    8  C8  UNL     1      29.126  75.228  49.048  1.00  0.00     0.059 C 
HETATM    9  C9  UNL     1      28.924  76.085  47.788  1.00  0.00     0.135 C 
HETATM   10  O2  UNL     1      28.505  77.336  48.045  1.00  0.00    -0.369 OA
HETATM   11  C10 UNL     1      27.847  75.178  47.174  1.00  0.00     0.030 C 
HETATM   12  C11 UNL     1      28.646  73.883  47.141  1.00  0.00    -0.028 C 
HETATM   13  C12 UNL     1      27.675  72.739  47.143  1.00  0.00     0.016 C 
HETATM   14  C13 UNL     1      29.487  73.860  45.912  1.00  0.00     0.016 C 
HETATM   15  C14 UNL     1      29.490  73.906  48.421  1.00  0.00     0.103 C 
HETATM   16  C19 UNL     1      26.874  79.000  48.293  1.00  0.00    -0.022 C 
HETATM   17  C20 UNL     1      27.102  79.687  49.395  1.00  0.00    -0.020 C 
HETATM   18  C21 UNL     1      26.652  81.078  49.570  1.00  0.00     0.036 C 
ENDROOT
BRANCH  15  19
HETATM   19  C15 UNL     1      30.920  73.796  48.147  1.00  0.00     0.264 C 
HETATM   20  O3  UNL     1      31.440  72.666  47.985  1.00  0.00    -0.265 OA
BRANCH  19  21
HETATM   21  O4  UNL     1      31.761  74.891  48.050  1.00  0.00    -0.321 OA
BRANCH  21  22
HETATM   22  C16 UNL     1      33.148  74.776  47.803  1.00  0.00     0.180 C 
BRANCH  22  23
HETATM   23  C17 UNL     1      33.670  76.119  47.339  1.00  0.00     0.053 C 
BRANCH  23  24
HETATM   24  C18 UNL     1      33.137  77.235  48.211  1.00  0.00     0.166 C 
BRANCH  24  25
HETATM   25  O5  UNL     1      32.166  77.977  47.501  1.00  0.00    -0.401 OA
ATOM     26  H5  UNL     1      31.431  77.418  47.281  1.00  0.00     0.209 HD
ENDBRANCH  24  25
ENDBRANCH  23  24
ENDBRANCH  22  23
ENDBRANCH  21  22
ENDBRANCH  19  21
ENDBRANCH  15  19
BRANCH   7  27
HETATM   27  O1  UNL     1      27.370  76.044  50.489  1.00  0.00    -0.395 OA
ATOM     28  H1  UNL     1      28.073  76.228  51.100  1.00  0.00     0.210 HD
ENDBRANCH   7  27
TORSDOF 7
ENDMDL
MODEL 2
REMARK VINA RESULT: -5.315295255      2.009      6.639
REMARK  7 active torsions:
REMARK  status: ('A' for Active; 'I' for Inactive)
REMARK    1  A    between atoms: C7_7  and  O1_8 
REMARK    2  A    between atoms: C14_17  and  C15_18 
REMARK    3  A    between atoms: C15_18  and  O4_20 
REMARK    4  A    between atoms: O4_20  and  C16_21 
REMARK    5  A    between atoms: C16_21  and  C17_22 
REMARK    6  A    between atoms: C17_22  and  C18_23 
REMARK    7  A    between atoms: C18_23  and  O5_24 
ROOT
HETATM    1  C1  UNL     1      33.957  72.772  47.052  1.00  0.00     0.019 C 
HETATM    2  C2  UNL     1      32.718  73.220  47.041  1.00  0.00    -0.055 C 
HETATM    3  C3  UNL     1      32.050  74.358  47.748  1.00  0.00     0.081 C 
HETATM    4  C4  UNL     1      30.704  73.783  47.362  1.00  0.00     0.093 C 
HETATM    5  C5  UNL     1      30.097  73.045  48.517  1.00  0.00     0.051 C 
HETATM    6  C6  UNL     1      28.934  73.821  49.133  1.00  0.00     0.025 C 
HETATM    7  C7  UNL     1      27.745  73.579  48.212  1.00  0.00     0.130 C 
HETATM    8  C8  UNL     1      27.570  74.861  47.446  1.00  0.00     0.059 C 
HETATM    9  C9  UNL     1      29.018  75.376  47.412  1.00  0.00     0.135 C 
HETATM   10  O2  UNL     1      29.851  74.606  46.690  1.00  0.00    -0.369 OA
HETATM   11  C10 UNL     1      29.236  75.279  48.930  1.00  0.00     0.030 C 
HETATM   12  C11 UNL     1      28.081  76.167  49.372  1.00  0.00    -0.028 C 
HETATM   13  C12 UNL     1      27.708  75.779  50.773  1.00  0.00     0.016 C 
HETATM   14  C13 UNL     1      28.512  77.592  49.316  1.00  0.00     0.016 C 
HETATM   15  C14 UNL     1      26.948  75.864  48.385  1.00  0.00     0.103 C 
HETATM   16  C19 UNL     1      31.444  72.911  46.417  1.00  0.00    -0.022 C 
HETATM   17  C20 UNL     1      31.109  72.144  45.399  1.00  0.00    -0.020 C 
HETATM   18  C21 UNL     1      32.098  71.374  44.625  1.00  0.00     0.036 C 
ENDROOT
BRANCH  15  19
HETATM   19  C15 UNL     1      26.481  77.059  47.689  1.00  0.00     0.264 C 
HETATM   20  O3  UNL     1      26.607  77.146  46.444  1.00  0.00    -0.265 OA
BRANCH  19  21
HETATM   21  O4  UNL     1      25.889  78.132  48.333  1.00  0.00    -0.321 OA
BRANCH  21  22
HETATM   22  C16 UNL     1      25.829  79.428  47.773  1.00  0.00     0.180 C 
BRANCH  22  23
HETATM   23  C17 UNL     1      24.784  80.230  48.520  1.00  0.00     0.053 C 
BRANCH  23  24
HETATM   24  C18 UNL     1      25.434  81.183  49.499  1.00  0.00     0.166 C 
BRANCH  24  25
HETATM   25  O5  UNL     1      26.603  80.597  50.035  1.00  0.00    -0.401 OA
ATOM     26  H5  UNL     1      26.959  81.154  50.718  1.00  0.00     0.209 HD
ENDBRANCH  24  25
ENDBRANCH  23  24
ENDBRANCH  22  23
ENDBRANCH  21  22
ENDBRANCH  19  21
ENDBRANCH  15  19
BRANCH   7  27
HETATM   27  O1  UNL     1      27.895  72.469  47.423  1.00  0.00    -0.395 OA
ATOM     28  H1  UNL     1      27.097  71.959  47.343  1.00  0.00     0.210 HD
ENDBRANCH   7  27
TORSDOF 7
ENDMDL
MODEL 3
REMARK VINA RESULT: -5.247308608      1.054      1.188
REMARK  7 active torsions:
REMARK  status: ('A' for Active; 'I' for Inactive)
REMARK    1  A    between atoms: C7_7  and  O1_8 
REMARK    2  A    between atoms: C14_17  and  C15_18 
REMARK    3  A    between atoms: C15_18  and  O4_20 
REMARK    4  A    between atoms: O4_20  and  C16_21 
REMARK    5  A    between atoms: C16_21  and  C17_22 
REMARK    6  A    between atoms: C17_22  and  C18_23 
REMARK    7  A    between atoms: C18_23  and  O5_24 
ROOT
HETATM    1  C1  UNL     1      25.420  80.229  46.576  1.00  0.00     0.019 C 
HETATM    2  C2  UNL     1      26.222  79.299  47.053  1.00  0.00    -0.055 C 
HETATM    3  C3  UNL     1      26.815  78.067  46.444  1.00  0.00     0.081 C 
HETATM    4  C4  UNL     1      27.202  77.592  47.827  1.00  0.00     0.093 C 
HETATM    5  C5  UNL     1      26.227  76.567  48.324  1.00  0.00     0.051 C 
HETATM    6  C6  UNL     1      26.830  75.163  48.310  1.00  0.00     0.025 C 
HETATM    7  C7  UNL     1      27.713  75.083  49.548  1.00  0.00     0.130 C 
HETATM    8  C8  UNL     1      29.123  75.175  49.036  1.00  0.00     0.059 C 
HETATM    9  C9  UNL     1      28.915  76.028  47.774  1.00  0.00     0.135 C 
HETATM   10  O2  UNL     1      28.515  77.286  48.029  1.00  0.00    -0.369 OA
HETATM   11  C10 UNL     1      27.819  75.132  47.179  1.00  0.00     0.030 C 
HETATM   12  C11 UNL     1      28.601  73.826  47.143  1.00  0.00    -0.028 C 
HETATM   13  C12 UNL     1      27.616  72.694  47.163  1.00  0.00     0.016 C 
HETATM   14  C13 UNL     1      29.425  73.786  45.902  1.00  0.00     0.016 C 
HETATM   15  C14 UNL     1      29.462  73.845  48.411  1.00  0.00     0.103 C 
HETATM   16  C19 UNL     1      26.908  78.970  48.290  1.00  0.00    -0.022 C 
HETATM   17  C20 UNL     1      27.159  79.661  49.385  1.00  0.00    -0.020 C 
HETATM   18  C21 UNL     1      26.728  81.058  49.559  1.00  0.00     0.036 C 
ENDROOT
BRANCH  15  19
HETATM   19  C15 UNL     1      30.887  73.717  48.119  1.00  0.00     0.264 C 
HETATM   20  O3  UNL     1      31.356  72.606  47.774  1.00  0.00    -0.265 OA
BRANCH  19  21
HETATM   21  O4  UNL     1      31.778  74.773  48.198  1.00  0.00    -0.321 OA
BRANCH  21  22
HETATM   22  C16 UNL     1      32.871  74.926  47.315  1.00  0.00     0.180 C 
BRANCH  22  23
HETATM   23  C17 UNL     1      32.445  75.819  46.169  1.00  0.00     0.053 C 
BRANCH  23  24
HETATM   24  C18 UNL     1      32.720  75.155  44.837  1.00  0.00     0.166 C 
BRANCH  24  25
HETATM   25  O5  UNL     1      32.927  76.139  43.844  1.00  0.00    -0.401 OA
ATOM     26  H5  UNL     1      32.090  76.471  43.540  1.00  0.00     0.209 HD
ENDBRANCH  24  25
ENDBRANCH  23  24
ENDBRANCH  22  23
ENDBRANCH  21  22
ENDBRANCH  19  21
ENDBRANCH  15  19
BRANCH   7  27
HETATM   27  O1  UNL     1      27.396  76.020  50.495  1.00  0.00    -0.395 OA
ATOM     28  H1  UNL     1      28.127  76.241  51.061  1.00  0.00     0.210 HD
ENDBRANCH   7  27
TORSDOF 7
ENDMDL
MODEL 4
REMARK VINA RESULT: -5.238017316      2.656      6.535
REMARK  7 active torsions:
REMARK  status: ('A' for Active; 'I' for Inactive)
REMARK    1  A    between atoms: C7_7  and  O1_8 
REMARK    2  A    between atoms: C14_17  and  C15_18 
REMARK    3  A    between atoms: C15_18  and  O4_20 
REMARK    4  A    between atoms: O4_20  and  C16_21 
REMARK    5  A    between atoms: C16_21  and  C17_22 
REMARK    6  A    between atoms: C17_22  and  C18_23 
REMARK    7  A    between atoms: C18_23  and  O5_24 
ROOT
HETATM    1  C1  UNL     1      28.145  70.011  51.854  1.00  0.00     0.019 C 
HETATM    2  C2  UNL     1      28.351  71.195  51.313  1.00  0.00    -0.055 C 
HETATM    3  C3  UNL     1      27.454  72.139  50.573  1.00  0.00     0.081 C 
HETATM    4  C4  UNL     1      28.673  72.913  50.121  1.00  0.00     0.093 C 
HETATM    5  C5  UNL     1      29.032  72.552  48.710  1.00  0.00     0.051 C 
HETATM    6  C6  UNL     1      28.679  73.674  47.734  1.00  0.00     0.025 C 
HETATM    7  C7  UNL     1      29.794  74.702  47.871  1.00  0.00     0.130 C 
HETATM    8  C8  UNL     1      29.192  75.838  48.650  1.00  0.00     0.059 C 
HETATM    9  C9  UNL     1      28.154  75.087  49.499  1.00  0.00     0.135 C 
HETATM   10  O2  UNL     1      28.694  74.247  50.399  1.00  0.00    -0.369 OA
HETATM   11  C10 UNL     1      27.485  74.383  48.309  1.00  0.00     0.030 C 
HETATM   12  C11 UNL     1      27.115  75.621  47.504  1.00  0.00    -0.028 C 
HETATM   13  C12 UNL     1      26.988  75.217  46.064  1.00  0.00     0.016 C 
HETATM   14  C13 UNL     1      25.826  76.167  48.014  1.00  0.00     0.016 C 
HETATM   15  C14 UNL     1      28.281  76.593  47.714  1.00  0.00     0.103 C 
HETATM   16  C19 UNL     1      29.431  72.152  51.144  1.00  0.00    -0.022 C 
HETATM   17  C20 UNL     1      30.618  72.269  51.704  1.00  0.00    -0.020 C 
HETATM   18  C21 UNL     1      31.111  71.330  52.726  1.00  0.00     0.036 C 
ENDROOT
BRANCH  15  19
HETATM   19  C15 UNL     1      27.848  77.871  48.272  1.00  0.00     0.264 C 
HETATM   20  O3  UNL     1      28.491  78.390  49.215  1.00  0.00    -0.265 OA
BRANCH  19  21
HETATM   21  O4  UNL     1      26.744  78.566  47.811  1.00  0.00    -0.321 OA
BRANCH  21  22
HETATM   22  C16 UNL     1      26.704  79.198  46.548  1.00  0.00     0.180 C 
BRANCH  22  23
HETATM   23  C17 UNL     1      25.560  80.189  46.538  1.00  0.00     0.053 C 
BRANCH  23  24
HETATM   24  C18 UNL     1      25.424  80.843  45.180  1.00  0.00     0.166 C 
BRANCH  24  25
HETATM   25  O5  UNL     1      24.598  81.986  45.279  1.00  0.00    -0.401 OA
ATOM     26  H5  UNL     1      24.662  82.499  44.483  1.00  0.00     0.209 HD
ENDBRANCH  24  25
ENDBRANCH  23  24
ENDBRANCH  22  23
ENDBRANCH  21  22
ENDBRANCH  19  21
ENDBRANCH  15  19
BRANCH   7  27
HETATM   27  O1  UNL     1      30.936  74.185  48.423  1.00  0.00    -0.395 OA
ATOM     28  H1  UNL     1      31.601  73.977  47.777  1.00  0.00     0.210 HD
ENDBRANCH   7  27
TORSDOF 7
ENDMDL
MODEL 5
REMARK VINA RESULT: -5.043781172      7.755     10.630
REMARK  7 active torsions:
REMARK  status: ('A' for Active; 'I' for Inactive)
REMARK    1  A    between atoms: C7_7  and  O1_8 
REMARK    2  A    between atoms: C14_17  and  C15_18 
REMARK    3  A    between atoms: C15_18  and  O4_20 
REMARK    4  A    between atoms: O4_20  and  C16_21 
REMARK    5  A    between atoms: C16_21  and  C17_22 
REMARK    6  A    between atoms: C17_22  and  C18_23 
REMARK    7  A    between atoms: C18_23  and  O5_24 
ROOT
HETATM    1  C1  UNL     1      18.358  77.589  38.355  1.00  0.00     0.019 C 
HETATM    2  C2  UNL     1      19.482  77.932  38.952  1.00  0.00    -0.055 C 
HETATM    3  C3  UNL     1      20.580  78.877  38.573  1.00  0.00     0.081 C 
HETATM    4  C4  UNL     1      21.449  78.269  39.652  1.00  0.00     0.093 C 
HETATM    5  C5  UNL     1      22.426  77.300  39.058  1.00  0.00     0.051 C 
HETATM    6  C6  UNL     1      23.846  77.865  39.048  1.00  0.00     0.025 C 
HETATM    7  C7  UNL     1      24.367  77.689  40.468  1.00  0.00     0.130 C 
HETATM    8  C8  UNL     1      24.336  79.064  41.075  1.00  0.00     0.059 C 
HETATM    9  C9  UNL     1      23.162  79.691  40.306  1.00  0.00     0.135 C 
HETATM   10  O2  UNL     1      21.973  79.125  40.576  1.00  0.00    -0.369 OA
HETATM   11  C10 UNL     1      23.713  79.356  38.912  1.00  0.00     0.030 C 
HETATM   12  C11 UNL     1      25.057  80.060  39.034  1.00  0.00    -0.028 C 
HETATM   13  C12 UNL     1      26.010  79.412  38.073  1.00  0.00     0.016 C 
HETATM   14  C13 UNL     1      24.882  81.504  38.710  1.00  0.00     0.016 C 
HETATM   15  C14 UNL     1      25.489  79.840  40.488  1.00  0.00     0.103 C 
HETATM   16  C19 UNL     1      20.214  77.632  40.170  1.00  0.00    -0.022 C 
HETATM   17  C20 UNL     1      19.876  77.025  41.290  1.00  0.00    -0.020 C 
HETATM   18  C21 UNL     1      18.528  76.480  41.523  1.00  0.00     0.036 C 
ENDROOT
BRANCH  15  19
HETATM   19  C15 UNL     1      25.729  81.095  41.194  1.00  0.00     0.264 C 
HETATM   20  O3  UNL     1      26.450  81.978  40.670  1.00  0.00    -0.265 OA
BRANCH  19  21
HETATM   21  O4  UNL     1      25.196  81.381  42.439  1.00  0.00    -0.321 OA
BRANCH  21  22
HETATM   22  C16 UNL     1      25.880  81.117  43.648  1.00  0.00     0.180 C 
BRANCH  22  23
HETATM   23  C17 UNL     1      25.446  82.135  44.681  1.00  0.00     0.053 C 
BRANCH  23  24
HETATM   24  C18 UNL     1      24.912  81.452  45.920  1.00  0.00     0.166 C 
BRANCH  24  25
HETATM   25  O5  UNL     1      24.061  82.334  46.625  1.00  0.00    -0.401 OA
ATOM     26  H5  UNL     1      24.434  83.207  46.630  1.00  0.00     0.209 HD
ENDBRANCH  24  25
ENDBRANCH  23  24
ENDBRANCH  22  23
ENDBRANCH  21  22
ENDBRANCH  19  21
ENDBRANCH  15  19
BRANCH   7  27
HETATM   27  O1  UNL     1      23.677  76.744  41.180  1.00  0.00    -0.395 OA
ATOM     28  H1  UNL     1      22.951  76.369  40.696  1.00  0.00     0.210 HD
ENDBRANCH   7  27
TORSDOF 7
ENDMDL
