MODEL 1
REMARK VINA RESULT: -8.989320478      0.000      0.000
REMARK  7 active torsions:
REMARK  status: ('A' for Active; 'I' for Inactive)
REMARK    1  A    between atoms: C3_4  and  C4_5 
REMARK    2  A    between atoms: C10_13  and  S1_14 
REMARK    3  A    between atoms: S1_14  and  C11_15 
REMARK    4  A    between atoms: C11_15  and  C12_16 
REMARK    5  A    between atoms: C12_16  and  O1_17 
REMARK    6  A    between atoms: C12_16  and  N3_19 
REMARK    7  A    between atoms: N3_19  and  C13_21 
ROOT
HETATM    1  N1  UNL     1      25.007  82.162  44.568  1.00  0.00    -0.191 NA
HETATM    2  C1  UNL     1      25.331  81.318  45.240  1.00  0.00     0.107 C 
HETATM    3  C2  UNL     1      25.731  80.216  46.052  1.00  0.00     0.139 A 
HETATM    4  C3  UNL     1      25.384  80.099  47.359  1.00  0.00     0.063 A 
HETATM    5  N2  UNL     1      25.772  78.929  48.007  1.00  0.00    -0.335 N 
ATOM      6  H2  UNL     1      25.511  78.831  48.988  1.00  0.00     0.168 HD
HETATM    7  C10 UNL     1      26.451  77.930  47.457  1.00  0.00     0.148 A 
HETATM    8  N4  UNL     1      26.783  78.069  46.165  1.00  0.00    -0.302 N 
ATOM      9  H4  UNL     1      27.305  77.324  45.704  1.00  0.00     0.171 HD
HETATM   10  C18 UNL     1      26.449  79.159  45.466  1.00  0.00     0.270 A 
HETATM   11  O2  UNL     1      26.760  79.289  44.256  1.00  0.00    -0.266 OA
ENDROOT
BRANCH   4  12
HETATM   12  C4  UNL     1      24.782  81.117  48.218  1.00  0.00    -0.051 C 
HETATM   13  C5  UNL     1      25.119  82.549  47.825  1.00  0.00     0.036 C 
HETATM   14  C6  UNL     1      24.644  83.468  48.930  1.00  0.00     0.004 C 
HETATM   15  C7  UNL     1      25.203  83.167  50.280  1.00  0.00     0.001 C 
HETATM   16  C8  UNL     1      25.396  81.706  50.491  1.00  0.00     0.004 C 
HETATM   17  C9  UNL     1      24.391  80.954  49.601  1.00  0.00     0.036 C 
ENDBRANCH   4  12
BRANCH   7  18
HETATM   18  S1  UNL     1      26.960  76.531  48.457  1.00  0.00    -0.086 SA
BRANCH  18  19
HETATM   19  C11 UNL     1      28.318  76.860  49.551  1.00  0.00     0.165 C 
BRANCH  19  20
HETATM   20  C12 UNL     1      29.235  77.900  49.068  1.00  0.00     0.121 C 
BRANCH  20  21
HETATM   21  O1  UNL     1      28.884  79.148  49.334  1.00  0.00    -0.349 OA
ATOM     22  H1  UNL     1      28.184  79.504  48.801  1.00  0.00     0.219 HD
ENDBRANCH  20  21
BRANCH  20  23
HETATM   23  N3  UNL     1      30.414  77.773  48.362  1.00  0.00    -0.369 N 
ATOM     24  H3  UNL     1      30.663  78.512  47.705  1.00  0.00     0.161 HD
BRANCH  23  25
HETATM   25  C13 UNL     1      31.323  76.644  48.504  1.00  0.00     0.083 C 
HETATM   26  C14 UNL     1      32.704  77.056  48.097  1.00  0.00     0.025 C 
HETATM   27  C15 UNL     1      33.399  75.765  47.781  1.00  0.00     0.002 C 
HETATM   28  C16 UNL     1      32.305  74.880  47.208  1.00  0.00     0.002 C 
HETATM   29  C17 UNL     1      30.990  75.625  47.416  1.00  0.00     0.025 C 
ENDBRANCH  23  25
ENDBRANCH  20  23
ENDBRANCH  19  20
ENDBRANCH  18  19
ENDBRANCH   7  18
TORSDOF 7
ENDMDL
MODEL 2
REMARK VINA RESULT: -8.577674439      0.962      1.251
REMARK  7 active torsions:
REMARK  status: ('A' for Active; 'I' for Inactive)
REMARK    1  A    between atoms: C3_4  and  C4_5 
REMARK    2  A    between atoms: C10_13  and  S1_14 
REMARK    3  A    between atoms: S1_14  and  C11_15 
REMARK    4  A    between atoms: C11_15  and  C12_16 
REMARK    5  A    between atoms: C12_16  and  O1_17 
REMARK    6  A    between atoms: C12_16  and  N3_19 
REMARK    7  A    between atoms: N3_19  and  C13_21 
ROOT
HETATM    1  N1  UNL     1      25.031  82.094  44.658  1.00  0.00    -0.191 NA
HETATM    2  C1  UNL     1      25.351  81.266  45.353  1.00  0.00     0.107 C 
HETATM    3  C2  UNL     1      25.744  80.183  46.193  1.00  0.00     0.139 A 
HETATM    4  C3  UNL     1      25.389  80.097  47.500  1.00  0.00     0.063 A 
HETATM    5  N2  UNL     1      25.772  78.943  48.177  1.00  0.00    -0.335 N 
ATOM      6  H2  UNL     1      25.505  78.868  49.159  1.00  0.00     0.168 HD
HETATM    7  C10 UNL     1      26.454  77.931  47.656  1.00  0.00     0.148 A 
HETATM    8  N4  UNL     1      26.795  78.039  46.363  1.00  0.00    -0.302 N 
ATOM      9  H4  UNL     1      27.319  77.284  45.923  1.00  0.00     0.171 HD
HETATM   10  C18 UNL     1      26.466  79.113  45.637  1.00  0.00     0.270 A 
HETATM   11  O2  UNL     1      26.784  79.214  44.426  1.00  0.00    -0.266 OA
ENDROOT
BRANCH   4  12
HETATM   12  C4  UNL     1      24.782  81.136  48.331  1.00  0.00    -0.051 C 
HETATM   13  C5  UNL     1      25.120  82.557  47.905  1.00  0.00     0.036 C 
HETATM   14  C6  UNL     1      24.639  83.503  48.985  1.00  0.00     0.004 C 
HETATM   15  C7  UNL     1      25.191  83.235  50.345  1.00  0.00     0.001 C 
HETATM   16  C8  UNL     1      25.383  81.780  50.592  1.00  0.00     0.004 C 
HETATM   17  C9  UNL     1      24.383  81.006  49.715  1.00  0.00     0.036 C 
ENDBRANCH   4  12
BRANCH   7  18
HETATM   18  S1  UNL     1      26.955  76.555  48.692  1.00  0.00    -0.086 SA
BRANCH  18  19
HETATM   19  C11 UNL     1      28.593  76.695  49.362  1.00  0.00     0.165 C 
BRANCH  19  20
HETATM   20  C12 UNL     1      29.656  76.668  48.350  1.00  0.00     0.121 C 
BRANCH  20  21
HETATM   21  O1  UNL     1      29.360  76.051  47.218  1.00  0.00    -0.349 OA
ATOM     22  H1  UNL     1      30.087  75.899  46.626  1.00  0.00     0.219 HD
ENDBRANCH  20  21
BRANCH  20  23
HETATM   23  N3  UNL     1      30.934  77.184  48.405  1.00  0.00    -0.369 N 
ATOM     24  H3  UNL     1      31.090  78.026  48.960  1.00  0.00     0.161 HD
BRANCH  23  25
HETATM   25  C13 UNL     1      32.074  76.596  47.715  1.00  0.00     0.083 C 
HETATM   26  C14 UNL     1      32.262  75.182  48.170  1.00  0.00     0.025 C 
HETATM   27  C15 UNL     1      33.689  74.868  47.831  1.00  0.00     0.002 C 
HETATM   28  C16 UNL     1      34.419  76.188  48.022  1.00  0.00     0.002 C 
HETATM   29  C17 UNL     1      33.346  77.247  48.255  1.00  0.00     0.025 C 
ENDBRANCH  23  25
ENDBRANCH  20  23
ENDBRANCH  19  20
ENDBRANCH  18  19
ENDBRANCH   7  18
TORSDOF 7
ENDMDL
MODEL 3
REMARK VINA RESULT: -8.494944811      0.973      1.320
REMARK  7 active torsions:
REMARK  status: ('A' for Active; 'I' for Inactive)
REMARK    1  A    between atoms: C3_4  and  C4_5 
REMARK    2  A    between atoms: C10_13  and  S1_14 
REMARK    3  A    between atoms: S1_14  and  C11_15 
REMARK    4  A    between atoms: C11_15  and  C12_16 
REMARK    5  A    between atoms: C12_16  and  O1_17 
REMARK    6  A    between atoms: C12_16  and  N3_19 
REMARK    7  A    between atoms: N3_19  and  C13_21 
ROOT
HETATM    1  N1  UNL     1      24.768  81.935  44.522  1.00  0.00    -0.191 NA
HETATM    2  C1  UNL     1      25.192  81.171  45.233  1.00  0.00     0.107 C 
HETATM    3  C2  UNL     1      25.719  80.165  46.096  1.00  0.00     0.139 A 
HETATM    4  C3  UNL     1      25.445  80.117  47.425  1.00  0.00     0.063 A 
HETATM    5  N2  UNL     1      25.958  79.031  48.129  1.00  0.00    -0.335 N 
ATOM      6  H2  UNL     1      25.752  78.984  49.127  1.00  0.00     0.168 HD
HETATM    7  C10 UNL     1      26.690  78.051  47.614  1.00  0.00     0.148 A 
HETATM    8  N4  UNL     1      26.949  78.122  46.300  1.00  0.00    -0.302 N 
ATOM      9  H4  UNL     1      27.507  77.389  45.863  1.00  0.00     0.171 HD
HETATM   10  C18 UNL     1      26.493  79.129  45.546  1.00  0.00     0.270 A 
HETATM   11  O2  UNL     1      26.734  79.195  44.315  1.00  0.00    -0.266 OA
ENDROOT
BRANCH   4  12
HETATM   12  C4  UNL     1      24.802  81.144  48.242  1.00  0.00    -0.051 C 
HETATM   13  C5  UNL     1      25.163  82.571  47.855  1.00  0.00     0.036 C 
HETATM   14  C6  UNL     1      24.634  83.501  48.926  1.00  0.00     0.004 C 
HETATM   15  C7  UNL     1      25.123  83.211  50.305  1.00  0.00     0.001 C 
HETATM   16  C8  UNL     1      25.301  81.752  50.538  1.00  0.00     0.004 C 
HETATM   17  C9  UNL     1      24.340  80.994  49.604  1.00  0.00     0.036 C 
ENDBRANCH   4  12
BRANCH   7  18
HETATM   18  S1  UNL     1      27.359  76.773  48.679  1.00  0.00    -0.086 SA
BRANCH  18  19
HETATM   19  C11 UNL     1      28.782  75.938  48.026  1.00  0.00     0.165 C 
BRANCH  19  20
HETATM   20  C12 UNL     1      30.051  76.626  48.292  1.00  0.00     0.121 C 
BRANCH  20  21
HETATM   21  O1  UNL     1      29.958  77.905  48.617  1.00  0.00    -0.349 OA
ATOM     22  H1  UNL     1      30.020  78.521  47.896  1.00  0.00     0.219 HD
ENDBRANCH  20  21
BRANCH  20  23
HETATM   23  N3  UNL     1      31.342  76.138  48.246  1.00  0.00    -0.369 N 
ATOM     24  H3  UNL     1      31.672  75.576  49.030  1.00  0.00     0.161 HD
BRANCH  23  25
HETATM   25  C13 UNL     1      32.258  76.382  47.141  1.00  0.00     0.083 C 
HETATM   26  C14 UNL     1      32.114  75.298  46.119  1.00  0.00     0.025 C 
HETATM   27  C15 UNL     1      33.397  75.344  45.343  1.00  0.00     0.002 C 
HETATM   28  C16 UNL     1      34.441  75.751  46.369  1.00  0.00     0.002 C 
HETATM   29  C17 UNL     1      33.681  76.127  47.637  1.00  0.00     0.025 C 
ENDBRANCH  23  25
ENDBRANCH  20  23
ENDBRANCH  19  20
ENDBRANCH  18  19
ENDBRANCH   7  18
TORSDOF 7
ENDMDL
MODEL 4
REMARK VINA RESULT: -8.426150307      2.696      3.536
REMARK  7 active torsions:
REMARK  status: ('A' for Active; 'I' for Inactive)
REMARK    1  A    between atoms: C3_4  and  C4_5 
REMARK    2  A    between atoms: C10_13  and  S1_14 
REMARK    3  A    between atoms: S1_14  and  C11_15 
REMARK    4  A    between atoms: C11_15  and  C12_16 
REMARK    5  A    between atoms: C12_16  and  O1_17 
REMARK    6  A    between atoms: C12_16  and  N3_19 
REMARK    7  A    between atoms: N3_19  and  C13_21 
ROOT
HETATM    1  N1  UNL     1      25.080  82.201  44.671  1.00  0.00    -0.191 NA
HETATM    2  C1  UNL     1      25.360  81.329  45.326  1.00  0.00     0.107 C 
HETATM    3  C2  UNL     1      25.703  80.192  46.116  1.00  0.00     0.139 A 
HETATM    4  C3  UNL     1      25.329  80.055  47.413  1.00  0.00     0.063 A 
HETATM    5  N2  UNL     1      25.660  78.855  48.036  1.00  0.00    -0.335 N 
ATOM      6  H2  UNL     1      25.378  78.741  49.009  1.00  0.00     0.168 HD
HETATM    7  C10 UNL     1      26.312  77.845  47.472  1.00  0.00     0.148 A 
HETATM    8  N4  UNL     1      26.673  78.005  46.191  1.00  0.00    -0.302 N 
ATOM      9  H4  UNL     1      27.175  77.253  45.719  1.00  0.00     0.171 HD
HETATM   10  C18 UNL     1      26.393  79.124  45.515  1.00  0.00     0.270 A 
HETATM   11  O2  UNL     1      26.730  79.274  44.314  1.00  0.00    -0.266 OA
ENDROOT
BRANCH   4  12
HETATM   12  C4  UNL     1      24.749  81.072  48.288  1.00  0.00    -0.051 C 
HETATM   13  C5  UNL     1      25.101  82.503  47.906  1.00  0.00     0.036 C 
HETATM   14  C6  UNL     1      24.650  83.417  49.024  1.00  0.00     0.004 C 
HETATM   15  C7  UNL     1      25.219  83.096  50.366  1.00  0.00     0.001 C 
HETATM   16  C8  UNL     1      25.393  81.630  50.560  1.00  0.00     0.004 C 
HETATM   17  C9  UNL     1      24.369  80.901  49.672  1.00  0.00     0.036 C 
ENDBRANCH   4  12
BRANCH   7  18
HETATM   18  S1  UNL     1      26.749  76.403  48.443  1.00  0.00    -0.086 SA
BRANCH  18  19
HETATM   19  C11 UNL     1      28.097  76.653  49.570  1.00  0.00     0.165 C 
BRANCH  19  20
HETATM   20  C12 UNL     1      28.087  75.745  50.724  1.00  0.00     0.121 C 
BRANCH  20  21
HETATM   21  O1  UNL     1      27.766  76.292  51.885  1.00  0.00    -0.349 OA
ATOM     22  H1  UNL     1      26.840  76.445  52.030  1.00  0.00     0.219 HD
ENDBRANCH  20  21
BRANCH  20  23
HETATM   23  N3  UNL     1      28.373  74.397  50.785  1.00  0.00    -0.369 N 
ATOM     24  H3  UNL     1      29.329  74.099  50.592  1.00  0.00     0.161 HD
BRANCH  23  25
HETATM   25  C13 UNL     1      27.388  73.375  51.109  1.00  0.00     0.083 C 
HETATM   26  C14 UNL     1      27.626  72.869  52.498  1.00  0.00     0.025 C 
HETATM   27  C15 UNL     1      26.948  71.531  52.528  1.00  0.00     0.002 C 
HETATM   28  C16 UNL     1      27.123  70.990  51.118  1.00  0.00     0.002 C 
HETATM   29  C17 UNL     1      27.705  72.128  50.286  1.00  0.00     0.025 C 
ENDBRANCH  23  25
ENDBRANCH  20  23
ENDBRANCH  19  20
ENDBRANCH  18  19
ENDBRANCH   7  18
TORSDOF 7
ENDMDL
MODEL 5
REMARK VINA RESULT: -8.412185648      0.867      1.018
REMARK  7 active torsions:
REMARK  status: ('A' for Active; 'I' for Inactive)
REMARK    1  A    between atoms: C3_4  and  C4_5 
REMARK    2  A    between atoms: C10_13  and  S1_14 
REMARK    3  A    between atoms: S1_14  and  C11_15 
REMARK    4  A    between atoms: C11_15  and  C12_16 
REMARK    5  A    between atoms: C12_16  and  O1_17 
REMARK    6  A    between atoms: C12_16  and  N3_19 
REMARK    7  A    between atoms: N3_19  and  C13_21 
ROOT
HETATM    1  N1  UNL     1      24.936  82.158  44.652  1.00  0.00    -0.191 NA
HETATM    2  C1  UNL     1      25.265  81.311  45.317  1.00  0.00     0.107 C 
HETATM    3  C2  UNL     1      25.671  80.203  46.119  1.00  0.00     0.139 A 
HETATM    4  C3  UNL     1      25.339  80.082  47.430  1.00  0.00     0.063 A 
HETATM    5  N2  UNL     1      25.730  78.908  48.067  1.00  0.00    -0.335 N 
ATOM      6  H2  UNL     1      25.481  78.805  49.050  1.00  0.00     0.168 HD
HETATM    7  C10 UNL     1      26.400  77.909  47.504  1.00  0.00     0.148 A 
HETATM    8  N4  UNL     1      26.717  78.053  46.210  1.00  0.00    -0.302 N 
ATOM      9  H4  UNL     1      27.231  77.308  45.739  1.00  0.00     0.171 HD
HETATM   10  C18 UNL     1      26.378  79.147  45.520  1.00  0.00     0.270 A 
HETATM   11  O2  UNL     1      26.675  79.282  44.307  1.00  0.00    -0.266 OA
ENDROOT
BRANCH   4  12
HETATM   12  C4  UNL     1      24.751  81.098  48.301  1.00  0.00    -0.051 C 
HETATM   13  C5  UNL     1      25.088  82.530  47.910  1.00  0.00     0.036 C 
HETATM   14  C6  UNL     1      24.629  83.445  49.025  1.00  0.00     0.004 C 
HETATM   15  C7  UNL     1      25.203  83.136  50.367  1.00  0.00     0.001 C 
HETATM   16  C8  UNL     1      25.393  81.674  50.568  1.00  0.00     0.004 C 
HETATM   17  C9  UNL     1      24.375  80.930  49.686  1.00  0.00     0.036 C 
ENDBRANCH   4  12
BRANCH   7  18
HETATM   18  S1  UNL     1      26.915  76.503  48.492  1.00  0.00    -0.086 SA
BRANCH  18  19
HETATM   19  C11 UNL     1      28.445  76.734  49.362  1.00  0.00     0.165 C 
BRANCH  19  20
HETATM   20  C12 UNL     1      29.601  76.960  48.487  1.00  0.00     0.121 C 
BRANCH  20  21
HETATM   21  O1  UNL     1      30.258  78.093  48.679  1.00  0.00    -0.349 OA
ATOM     22  H1  UNL     1      30.298  78.680  47.933  1.00  0.00     0.219 HD
ENDBRANCH  20  21
BRANCH  20  23
HETATM   23  N3  UNL     1      30.108  76.168  47.477  1.00  0.00    -0.369 N 
ATOM     24  H3  UNL     1      29.999  76.487  46.515  1.00  0.00     0.161 HD
BRANCH  23  25
HETATM   25  C13 UNL     1      30.791  74.903  47.708  1.00  0.00     0.083 C 
HETATM   26  C14 UNL     1      32.209  75.162  48.114  1.00  0.00     0.025 C 
HETATM   27  C15 UNL     1      32.922  73.877  47.815  1.00  0.00     0.002 C 
HETATM   28  C16 UNL     1      32.216  73.332  46.585  1.00  0.00     0.002 C 
HETATM   29  C17 UNL     1      30.995  74.218  46.358  1.00  0.00     0.025 C 
ENDBRANCH  23  25
ENDBRANCH  20  23
ENDBRANCH  19  20
ENDBRANCH  18  19
ENDBRANCH   7  18
TORSDOF 7
ENDMDL
