MODEL 1
REMARK VINA RESULT: -6.255004643      0.000      0.000
REMARK  4 active torsions:
REMARK  status: ('A' for Active; 'I' for Inactive)
REMARK    1  A    between atoms: C6_6  and  O1_7 
REMARK    2  A    between atoms: N1_10  and  O2_12 
REMARK    3  A    between atoms: O2_12  and  C8_13 
REMARK    4  A    between atoms: C8_13  and  C9_14 
ROOT
HETATM    1  C1  UNL     1      50.663  46.380  86.701  1.00  0.00     0.040 C 
HETATM    2  C2  UNL     1      50.427  45.429  87.882  1.00  0.00     0.126 C 
HETATM    3  C3  UNL     1      49.890  44.157  87.328  1.00  0.00     0.039 C 
HETATM    4  C4  UNL     1      49.914  43.002  88.298  1.00  0.00     0.021 C 
HETATM    5  C5  UNL     1      48.777  43.094  89.293  1.00  0.00     0.013 C 
HETATM    6  C6  UNL     1      51.241  42.794  88.949  1.00  0.00     0.198 C 
HETATM    7  C7  UNL     1      52.103  43.984  88.945  1.00  0.00     0.168 C 
HETATM    8  N1  UNL     1      53.305  43.894  89.401  1.00  0.00    -0.246 N 
ATOM      9  H1  UNL     1      53.875  44.739  89.385  1.00  0.00     0.196 HD
HETATM   10  O3  UNL     1      51.693  45.222  88.472  1.00  0.00    -0.331 OA
ENDROOT
BRANCH   6  11
HETATM   11  O1  UNL     1      51.022  42.314  90.254  1.00  0.00    -0.387 OA
ATOM     12  H1  UNL     1      50.995  41.365  90.223  1.00  0.00     0.210 HD
ENDBRANCH   6  11
BRANCH   8  13
HETATM   13  O2  UNL     1      53.873  42.775  89.899  1.00  0.00    -0.278 OA
BRANCH  13  14
HETATM   14  C8  UNL     1      55.122  42.261  89.552  1.00  0.00     0.207 C 
BRANCH  14  15
HETATM   15  C9  UNL     1      56.241  43.260  89.767  1.00  0.00     0.042 C 
HETATM   16  C10 UNL     1      57.595  42.609  89.450  1.00  0.00     0.038 C 
HETATM   17  C11 UNL     1      57.565  42.633  87.936  1.00  0.00     0.272 C 
HETATM   18  N2  UNL     1      57.054  43.937  87.645  1.00  0.00     0.084 N 
HETATM   19  C12 UNL     1      56.444  44.061  86.352  1.00  0.00     0.309 C 
HETATM   20  C13 UNL     1      56.212  44.356  88.723  1.00  0.00     0.278 C 
ENDBRANCH  14  15
ENDBRANCH  13  14
ENDBRANCH   8  13
TORSDOF 4
ENDMDL
MODEL 2
REMARK VINA RESULT: -6.249823633      2.049      5.520
REMARK  4 active torsions:
REMARK  status: ('A' for Active; 'I' for Inactive)
REMARK    1  A    between atoms: C6_6  and  O1_7 
REMARK    2  A    between atoms: N1_10  and  O2_12 
REMARK    3  A    between atoms: O2_12  and  C8_13 
REMARK    4  A    between atoms: C8_13  and  C9_14 
ROOT
HETATM    1  C1  UNL     1      57.103  42.821  89.524  1.00  0.00     0.040 C 
HETATM    2  C2  UNL     1      55.923  41.860  89.723  1.00  0.00     0.126 C 
HETATM    3  C3  UNL     1      55.308  42.179  91.040  1.00  0.00     0.039 C 
HETATM    4  C4  UNL     1      53.946  41.565  91.249  1.00  0.00     0.021 C 
HETATM    5  C5  UNL     1      54.052  40.099  91.610  1.00  0.00     0.013 C 
HETATM    6  C6  UNL     1      52.995  41.821  90.128  1.00  0.00     0.198 C 
HETATM    7  C7  UNL     1      53.647  42.150  88.854  1.00  0.00     0.168 C 
HETATM    8  N1  UNL     1      52.921  42.477  87.840  1.00  0.00    -0.246 N 
ATOM      9  H1  UNL     1      53.406  42.698  86.970  1.00  0.00     0.196 HD
HETATM   10  O3  UNL     1      55.022  42.130  88.671  1.00  0.00    -0.331 OA
ENDROOT
BRANCH   6  11
HETATM   11  O1  UNL     1      52.146  40.703  90.006  1.00  0.00    -0.387 OA
ATOM     12  H1  UNL     1      51.783  40.700  89.128  1.00  0.00     0.210 HD
ENDBRANCH   6  11
BRANCH   8  13
HETATM   13  O2  UNL     1      51.573  42.550  87.831  1.00  0.00    -0.278 OA
BRANCH  13  14
HETATM   14  C8  UNL     1      50.799  43.400  87.041  1.00  0.00     0.207 C 
BRANCH  14  15
HETATM   15  C9  UNL     1      50.062  44.441  87.860  1.00  0.00     0.042 C 
HETATM   16  C10 UNL     1      50.872  44.792  89.117  1.00  0.00     0.038 C 
HETATM   17  C11 UNL     1      51.934  45.690  88.519  1.00  0.00     0.272 C 
HETATM   18  N2  UNL     1      51.187  46.513  87.617  1.00  0.00     0.084 N 
HETATM   19  C12 UNL     1      51.966  47.093  86.559  1.00  0.00     0.309 C 
HETATM   20  C13 UNL     1      50.045  45.783  87.161  1.00  0.00     0.278 C 
ENDBRANCH  14  15
ENDBRANCH  13  14
ENDBRANCH   8  13
TORSDOF 4
ENDMDL
MODEL 3
REMARK VINA RESULT: -6.176064754      1.549      2.547
REMARK  4 active torsions:
REMARK  status: ('A' for Active; 'I' for Inactive)
REMARK    1  A    between atoms: C6_6  and  O1_7 
REMARK    2  A    between atoms: N1_10  and  O2_12 
REMARK    3  A    between atoms: O2_12  and  C8_13 
REMARK    4  A    between atoms: C8_13  and  C9_14 
ROOT
HETATM    1  C1  UNL     1      48.886  42.643  88.543  1.00  0.00     0.040 C 
HETATM    2  C2  UNL     1      49.840  43.699  87.967  1.00  0.00     0.126 C 
HETATM    3  C3  UNL     1      50.192  44.629  89.074  1.00  0.00     0.039 C 
HETATM    4  C4  UNL     1      51.370  45.523  88.777  1.00  0.00     0.021 C 
HETATM    5  C5  UNL     1      50.974  46.677  87.881  1.00  0.00     0.013 C 
HETATM    6  C6  UNL     1      52.570  44.788  88.282  1.00  0.00     0.198 C 
HETATM    7  C7  UNL     1      52.269  43.474  87.698  1.00  0.00     0.168 C 
HETATM    8  N1  UNL     1      53.239  42.714  87.319  1.00  0.00    -0.246 N 
ATOM      9  H1  UNL     1      52.994  41.809  86.918  1.00  0.00     0.196 HD
HETATM   10  O3  UNL     1      50.979  42.992  87.526  1.00  0.00    -0.331 OA
ENDROOT
BRANCH   6  11
HETATM   11  O1  UNL     1      53.252  45.618  87.371  1.00  0.00    -0.387 OA
ATOM     12  H1  UNL     1      53.750  46.259  87.866  1.00  0.00     0.210 HD
ENDBRANCH   6  11
BRANCH   8  13
HETATM   13  O2  UNL     1      54.551  43.015  87.409  1.00  0.00    -0.278 OA
BRANCH  13  14
HETATM   14  C8  UNL     1      55.520  42.279  88.091  1.00  0.00     0.207 C 
BRANCH  14  15
HETATM   15  C9  UNL     1      56.071  43.018  89.294  1.00  0.00     0.042 C 
HETATM   16  C10 UNL     1      57.564  42.704  89.467  1.00  0.00     0.038 C 
HETATM   17  C11 UNL     1      58.157  43.577  88.381  1.00  0.00     0.272 C 
HETATM   18  N2  UNL     1      57.428  44.800  88.519  1.00  0.00     0.084 N 
HETATM   19  C12 UNL     1      57.403  45.613  87.336  1.00  0.00     0.309 C 
HETATM   20  C13 UNL     1      56.132  44.510  89.047  1.00  0.00     0.278 C 
ENDBRANCH  14  15
ENDBRANCH  13  14
ENDBRANCH   8  13
TORSDOF 4
ENDMDL
MODEL 4
REMARK VINA RESULT: -6.158570765      1.949      6.391
REMARK  4 active torsions:
REMARK  status: ('A' for Active; 'I' for Inactive)
REMARK    1  A    between atoms: C6_6  and  O1_7 
REMARK    2  A    between atoms: N1_10  and  O2_12 
REMARK    3  A    between atoms: O2_12  and  C8_13 
REMARK    4  A    between atoms: C8_13  and  C9_14 
ROOT
HETATM    1  C1  UNL     1      58.272  46.739  89.138  1.00  0.00     0.040 C 
HETATM    2  C2  UNL     1      57.701  45.535  88.376  1.00  0.00     0.126 C 
HETATM    3  C3  UNL     1      58.419  44.324  88.857  1.00  0.00     0.039 C 
HETATM    4  C4  UNL     1      57.765  43.023  88.465  1.00  0.00     0.021 C 
HETATM    5  C5  UNL     1      58.057  42.672  87.022  1.00  0.00     0.013 C 
HETATM    6  C6  UNL     1      56.311  42.960  88.797  1.00  0.00     0.198 C 
HETATM    7  C7  UNL     1      55.676  44.275  88.953  1.00  0.00     0.168 C 
HETATM    8  N1  UNL     1      54.443  44.340  89.326  1.00  0.00    -0.246 N 
ATOM      9  H1  UNL     1      54.033  45.269  89.424  1.00  0.00     0.196 HD
HETATM   10  O3  UNL     1      56.333  45.474  88.718  1.00  0.00    -0.331 OA
ENDROOT
BRANCH   6  11
HETATM   11  O1  UNL     1      55.667  42.184  87.813  1.00  0.00    -0.387 OA
ATOM     12  H1  UNL     1      55.228  42.772  87.210  1.00  0.00     0.210 HD
ENDBRANCH   6  11
BRANCH   8  13
HETATM   13  O2  UNL     1      53.650  43.283  89.599  1.00  0.00    -0.278 OA
BRANCH  13  14
HETATM   14  C8  UNL     1      52.396  43.028  89.043  1.00  0.00     0.207 C 
BRANCH  14  15
HETATM   15  C9  UNL     1      51.757  44.273  88.460  1.00  0.00     0.042 C 
HETATM   16  C10 UNL     1      51.298  44.003  87.019  1.00  0.00     0.038 C 
HETATM   17  C11 UNL     1      50.037  43.206  87.277  1.00  0.00     0.272 C 
HETATM   18  N2  UNL     1      49.416  43.925  88.346  1.00  0.00     0.084 N 
HETATM   19  C12 UNL     1      48.496  43.149  89.129  1.00  0.00     0.309 C 
HETATM   20  C13 UNL     1      50.429  44.574  89.119  1.00  0.00     0.278 C 
ENDBRANCH  14  15
ENDBRANCH  13  14
ENDBRANCH   8  13
TORSDOF 4
ENDMDL
MODEL 5
REMARK VINA RESULT: -6.110741498      0.970      1.331
REMARK  4 active torsions:
REMARK  status: ('A' for Active; 'I' for Inactive)
REMARK    1  A    between atoms: C6_6  and  O1_7 
REMARK    2  A    between atoms: N1_10  and  O2_12 
REMARK    3  A    between atoms: O2_12  and  C8_13 
REMARK    4  A    between atoms: C8_13  and  C9_14 
ROOT
HETATM    1  C1  UNL     1      50.757  46.427  86.177  1.00  0.00     0.040 C 
HETATM    2  C2  UNL     1      50.556  45.526  87.403  1.00  0.00     0.126 C 
HETATM    3  C3  UNL     1      50.160  44.181  86.905  1.00  0.00     0.039 C 
HETATM    4  C4  UNL     1      50.245  43.089  87.942  1.00  0.00     0.021 C 
HETATM    5  C5  UNL     1      49.062  43.131  88.885  1.00  0.00     0.013 C 
HETATM    6  C6  UNL     1      51.556  43.041  88.654  1.00  0.00     0.198 C 
HETATM    7  C7  UNL     1      52.306  44.303  88.613  1.00  0.00     0.168 C 
HETATM    8  N1  UNL     1      53.491  44.350  89.120  1.00  0.00    -0.246 N 
ATOM      9  H1  UNL     1      53.983  45.242  89.074  1.00  0.00     0.196 HD
HETATM   10  O3  UNL     1      51.808  45.470  88.052  1.00  0.00    -0.331 OA
ENDROOT
BRANCH   6  11
HETATM   11  O1  UNL     1      51.324  42.616  89.977  1.00  0.00    -0.387 OA
ATOM     12  H1  UNL     1      51.725  41.762  90.090  1.00  0.00     0.210 HD
ENDBRANCH   6  11
BRANCH   8  13
HETATM   13  O2  UNL     1      54.134  43.318  89.704  1.00  0.00    -0.278 OA
BRANCH  13  14
HETATM   14  C8  UNL     1      55.486  43.278  90.046  1.00  0.00     0.207 C 
BRANCH  14  15
HETATM   15  C9  UNL     1      56.298  42.413  89.102  1.00  0.00     0.042 C 
HETATM   16  C10 UNL     1      55.980  42.784  87.645  1.00  0.00     0.038 C 
HETATM   17  C11 UNL     1      56.773  44.066  87.509  1.00  0.00     0.272 C 
HETATM   18  N2  UNL     1      58.010  43.749  88.153  1.00  0.00     0.084 N 
HETATM   19  C12 UNL     1      58.744  44.890  88.625  1.00  0.00     0.309 C 
HETATM   20  C13 UNL     1      57.769  42.762  89.159  1.00  0.00     0.278 C 
ENDBRANCH  14  15
ENDBRANCH  13  14
ENDBRANCH   8  13
TORSDOF 4
ENDMDL
