MODEL 1
REMARK VINA RESULT: -7.368318761      0.000      0.000
REMARK  3 active torsions:
REMARK  status: ('A' for Active; 'I' for Inactive)
REMARK    1  A    between atoms: C2_3  and  C3_4 
REMARK    2  A    between atoms: C3_4  and  S1_5 
REMARK    3  A    between atoms: S1_5  and  C4_6 
ROOT
HETATM    1  C1  UNL     1      50.323  43.666  89.245  1.00  0.00     0.173 C 
HETATM    2  O1  UNL     1      51.177  42.673  88.898  1.00  0.00    -0.379 OA
HETATM    3  C2  UNL     1      52.040  43.007  87.805  1.00  0.00     0.073 C 
HETATM    4  C5  UNL     1      52.616  44.379  88.100  1.00  0.00     0.044 C 
HETATM    5  C6  UNL     1      51.840  45.317  87.228  1.00  0.00    -0.011 C 
HETATM    6  C7  UNL     1      50.430  45.573  87.643  1.00  0.00     0.011 C 
HETATM    7  C8  UNL     1      49.712  44.274  88.004  1.00  0.00     0.010 C 
HETATM    8  C9  UNL     1      49.812  43.311  86.849  1.00  0.00     0.014 C 
HETATM    9  C10 UNL     1      51.292  43.145  86.526  1.00  0.00     0.022 C 
HETATM   10  C11 UNL     1      51.745  44.492  85.935  1.00  0.00     0.012 C 
ENDROOT
BRANCH   3  11
HETATM   11  C3  UNL     1      53.049  41.929  87.767  1.00  0.00     0.120 C 
BRANCH  11  12
HETATM   12  S1  UNL     1      54.241  41.697  89.012  1.00  0.00    -0.088 SA
BRANCH  12  13
HETATM   13  C4  UNL     1      53.763  41.325  90.643  1.00  0.00     0.173 A 
HETATM   14  N1  UNL     1      54.387  41.465  91.796  1.00  0.00    -0.266 N 
HETATM   15  N2  UNL     1      53.666  41.056  92.817  1.00  0.00    -0.224 N 
ATOM     16  H1  UNL     1      55.328  41.849  91.887  1.00  0.00     0.190 HD
HETATM   17  N3  UNL     1      52.526  40.633  92.291  1.00  0.00    -0.005 NA
ATOM     18  H2  UNL     1      53.928  41.062  93.802  1.00  0.00     0.205 HD
HETATM   19  N4  UNL     1      52.548  40.781  90.976  1.00  0.00    -0.261 N 
ATOM     20  H4  UNL     1      51.799  40.535  90.327  1.00  0.00     0.186 HD
ENDBRANCH  12  13
ENDBRANCH  11  12
ENDBRANCH   3  11
TORSDOF 3
ENDMDL
MODEL 2
REMARK VINA RESULT: -7.309063263      0.897      1.480
REMARK  3 active torsions:
REMARK  status: ('A' for Active; 'I' for Inactive)
REMARK    1  A    between atoms: C2_3  and  C3_4 
REMARK    2  A    between atoms: C3_4  and  S1_5 
REMARK    3  A    between atoms: S1_5  and  C4_6 
ROOT
HETATM    1  C1  UNL     1      52.613  45.415  88.886  1.00  0.00     0.173 C 
HETATM    2  O1  UNL     1      52.995  44.116  88.849  1.00  0.00    -0.379 OA
HETATM    3  C2  UNL     1      52.303  43.336  87.868  1.00  0.00     0.073 C 
HETATM    4  C5  UNL     1      52.331  44.128  86.574  1.00  0.00     0.044 C 
HETATM    5  C6  UNL     1      50.961  44.723  86.459  1.00  0.00    -0.011 C 
HETATM    6  C7  UNL     1      50.657  45.841  87.399  1.00  0.00     0.011 C 
HETATM    7  C8  UNL     1      51.106  45.509  88.822  1.00  0.00     0.010 C 
HETATM    8  C9  UNL     1      50.485  44.204  89.249  1.00  0.00     0.014 C 
HETATM    9  C10 UNL     1      50.865  43.159  88.208  1.00  0.00     0.022 C 
HETATM   10  C11 UNL     1      50.096  43.543  86.929  1.00  0.00     0.012 C 
ENDROOT
BRANCH   3  11
HETATM   11  C3  UNL     1      53.039  42.057  87.802  1.00  0.00     0.120 C 
BRANCH  11  12
HETATM   12  S1  UNL     1      54.211  41.570  88.992  1.00  0.00    -0.088 SA
BRANCH  12  13
HETATM   13  C4  UNL     1      53.729  41.237  90.630  1.00  0.00     0.173 A 
HETATM   14  N1  UNL     1      54.362  41.378  91.778  1.00  0.00    -0.266 N 
HETATM   15  N2  UNL     1      53.634  41.005  92.808  1.00  0.00    -0.224 N 
ATOM     16  H1  UNL     1      55.313  41.739  91.860  1.00  0.00     0.190 HD
HETATM   17  N3  UNL     1      52.481  40.605  92.292  1.00  0.00    -0.005 NA
ATOM     18  H2  UNL     1      53.901  41.019  93.792  1.00  0.00     0.205 HD
HETATM   19  N4  UNL     1      52.502  40.732  90.975  1.00  0.00    -0.261 N 
ATOM     20  H4  UNL     1      51.744  40.496  90.334  1.00  0.00     0.186 HD
ENDBRANCH  12  13
ENDBRANCH  11  12
ENDBRANCH   3  11
TORSDOF 3
ENDMDL
MODEL 3
REMARK VINA RESULT: -7.264065837      3.344      4.930
REMARK  3 active torsions:
REMARK  status: ('A' for Active; 'I' for Inactive)
REMARK    1  A    between atoms: C2_3  and  C3_4 
REMARK    2  A    between atoms: C3_4  and  S1_5 
REMARK    3  A    between atoms: S1_5  and  C4_6 
ROOT
HETATM    1  C1  UNL     1      51.834  41.069  90.001  1.00  0.00     0.173 C 
HETATM    2  O1  UNL     1      51.787  42.423  89.993  1.00  0.00    -0.379 OA
HETATM    3  C2  UNL     1      52.743  43.031  89.118  1.00  0.00     0.073 C 
HETATM    4  C5  UNL     1      52.652  42.303  87.790  1.00  0.00     0.044 C 
HETATM    5  C6  UNL     1      53.839  41.390  87.770  1.00  0.00    -0.011 C 
HETATM    6  C7  UNL     1      53.764  40.208  88.678  1.00  0.00     0.011 C 
HETATM    7  C8  UNL     1      53.271  40.606  90.069  1.00  0.00     0.010 C 
HETATM    8  C9  UNL     1      54.147  41.704  90.614  1.00  0.00     0.014 C 
HETATM    9  C10 UNL     1      54.139  42.837  89.594  1.00  0.00     0.022 C 
HETATM   10  C11 UNL     1      54.914  42.306  88.374  1.00  0.00     0.012 C 
ENDROOT
BRANCH   3  11
HETATM   11  C3  UNL     1      52.353  44.454  89.048  1.00  0.00     0.120 C 
BRANCH  11  12
HETATM   12  S1  UNL     1      50.735  44.980  88.689  1.00  0.00    -0.088 SA
BRANCH  12  13
HETATM   13  C4  UNL     1      49.431  43.834  88.571  1.00  0.00     0.173 A 
HETATM   14  N1  UNL     1      48.931  43.173  87.546  1.00  0.00    -0.266 N 
HETATM   15  N2  UNL     1      47.930  42.391  87.886  1.00  0.00    -0.224 N 
ATOM     16  H1  UNL     1      49.282  43.260  86.592  1.00  0.00     0.190 HD
HETATM   17  N3  UNL     1      47.784  42.560  89.191  1.00  0.00    -0.005 NA
ATOM     18  H2  UNL     1      47.384  41.783  87.275  1.00  0.00     0.205 HD
HETATM   19  N4  UNL     1      48.676  43.428  89.642  1.00  0.00    -0.261 N 
ATOM     20  H4  UNL     1      48.782  43.738  90.608  1.00  0.00     0.186 HD
ENDBRANCH  12  13
ENDBRANCH  11  12
ENDBRANCH   3  11
TORSDOF 3
ENDMDL
MODEL 4
REMARK VINA RESULT: -7.211753758      1.113      2.115
REMARK  3 active torsions:
REMARK  status: ('A' for Active; 'I' for Inactive)
REMARK    1  A    between atoms: C2_3  and  C3_4 
REMARK    2  A    between atoms: C3_4  and  S1_5 
REMARK    3  A    between atoms: S1_5  and  C4_6 
ROOT
HETATM    1  C1  UNL     1      51.908  45.642  86.665  1.00  0.00     0.173 C 
HETATM    2  O1  UNL     1      52.905  44.849  87.125  1.00  0.00    -0.379 OA
HETATM    3  C2  UNL     1      52.445  43.674  87.802  1.00  0.00     0.073 C 
HETATM    4  C5  UNL     1      51.378  43.047  86.924  1.00  0.00     0.044 C 
HETATM    5  C6  UNL     1      50.080  43.420  87.571  1.00  0.00    -0.011 C 
HETATM    6  C7  UNL     1      49.672  44.849  87.434  1.00  0.00     0.011 C 
HETATM    7  C8  UNL     1      50.840  45.791  87.724  1.00  0.00     0.010 C 
HETATM    8  C9  UNL     1      51.409  45.477  89.084  1.00  0.00     0.014 C 
HETATM    9  C10 UNL     1      51.775  43.998  89.090  1.00  0.00     0.022 C 
HETATM   10  C11 UNL     1      50.437  43.235  89.055  1.00  0.00     0.012 C 
ENDROOT
BRANCH   3  11
HETATM   11  C3  UNL     1      53.647  42.833  87.975  1.00  0.00     0.120 C 
BRANCH  11  12
HETATM   12  S1  UNL     1      53.613  41.270  88.736  1.00  0.00    -0.088 SA
BRANCH  12  13
HETATM   13  C4  UNL     1      53.462  41.124  90.463  1.00  0.00     0.173 A 
HETATM   14  N1  UNL     1      54.227  41.543  91.452  1.00  0.00    -0.266 N 
HETATM   15  N2  UNL     1      53.749  41.223  92.634  1.00  0.00    -0.224 N 
ATOM     16  H1  UNL     1      55.096  42.060  91.314  1.00  0.00     0.190 HD
HETATM   17  N3  UNL     1      52.625  40.568  92.389  1.00  0.00    -0.005 NA
ATOM     18  H2  UNL     1      54.158  41.434  93.544  1.00  0.00     0.205 HD
HETATM   19  N4  UNL     1      52.417  40.488  91.085  1.00  0.00    -0.261 N 
ATOM     20  H4  UNL     1      51.626  40.036  90.625  1.00  0.00     0.186 HD
ENDBRANCH  12  13
ENDBRANCH  11  12
ENDBRANCH   3  11
TORSDOF 3
ENDMDL
MODEL 5
REMARK VINA RESULT: -7.068099252      0.971      1.268
REMARK  3 active torsions:
REMARK  status: ('A' for Active; 'I' for Inactive)
REMARK    1  A    between atoms: C2_3  and  C3_4 
REMARK    2  A    between atoms: C3_4  and  S1_5 
REMARK    3  A    between atoms: S1_5  and  C4_6 
ROOT
HETATM    1  C1  UNL     1      50.317  43.903  89.142  1.00  0.00     0.173 C 
HETATM    2  O1  UNL     1      51.621  43.653  89.413  1.00  0.00    -0.379 OA
HETATM    3  C2  UNL     1      52.534  44.487  88.690  1.00  0.00     0.073 C 
HETATM    4  C5  UNL     1      52.033  45.913  88.828  1.00  0.00     0.044 C 
HETATM    5  C6  UNL     1      51.372  46.217  87.519  1.00  0.00    -0.011 C 
HETATM    6  C7  UNL     1      50.063  45.542  87.280  1.00  0.00     0.011 C 
HETATM    7  C8  UNL     1      50.124  44.061  87.651  1.00  0.00     0.010 C 
HETATM    8  C9  UNL     1      51.259  43.407  86.907  1.00  0.00     0.014 C 
HETATM    9  C10 UNL     1      52.525  44.191  87.232  1.00  0.00     0.022 C 
HETATM   10  C11 UNL     1      52.358  45.558  86.541  1.00  0.00     0.012 C 
ENDROOT
BRANCH   3  11
HETATM   11  C3  UNL     1      53.850  44.252  89.316  1.00  0.00     0.120 C 
BRANCH  11  12
HETATM   12  S1  UNL     1      54.479  42.664  89.644  1.00  0.00    -0.088 SA
BRANCH  12  13
HETATM   13  C4  UNL     1      53.882  41.730  90.984  1.00  0.00     0.173 A 
HETATM   14  N1  UNL     1      54.414  41.428  92.153  1.00  0.00    -0.266 N 
HETATM   15  N2  UNL     1      53.622  40.686  92.895  1.00  0.00    -0.224 N 
ATOM     16  H1  UNL     1      55.341  41.738  92.449  1.00  0.00     0.190 HD
HETATM   17  N3  UNL     1      52.531  40.505  92.166  1.00  0.00    -0.005 NA
ATOM     18  H2  UNL     1      53.808  40.328  93.831  1.00  0.00     0.205 HD
HETATM   19  N4  UNL     1      52.652  41.122  91.002  1.00  0.00    -0.261 N 
ATOM     20  H4  UNL     1      51.959  41.143  90.254  1.00  0.00     0.186 HD
ENDBRANCH  12  13
ENDBRANCH  11  12
ENDBRANCH   3  11
TORSDOF 3
ENDMDL
