MODEL 1
REMARK VINA RESULT: -5.698863919      0.000      0.000
REMARK  5 active torsions:
REMARK  status: ('A' for Active; 'I' for Inactive)
REMARK    1  A    between atoms: C2_2  and  C3_3 
REMARK    2  A    between atoms: C6_8  and  C7_9 
REMARK    3  A    between atoms: C7_9  and  N1_10 
REMARK    4  A    between atoms: N1_10  and  C8_12 
REMARK    5  A    between atoms: C8_12  and  S2_14 
ROOT
HETATM    1  C3  UNL     1      52.540  41.394  90.460  1.00  0.00     0.260 C 
HETATM    2  O1  UNL     1      51.180  41.429  90.745  1.00  0.00    -0.351 OA
HETATM    3  C4  UNL     1      50.660  41.817  89.487  1.00  0.00     0.180 C 
HETATM    4  C5  UNL     1      49.652  42.912  89.620  1.00  0.00     0.203 C 
HETATM    5  O2  UNL     1      49.838  43.692  88.480  1.00  0.00    -0.379 OA
HETATM    6  C6  UNL     1      51.221  43.817  88.376  1.00  0.00     0.170 C 
HETATM    7  C10 UNL     1      51.815  42.529  88.792  1.00  0.00     0.186 C 
HETATM    8  O3  UNL     1      52.725  42.635  89.852  1.00  0.00    -0.351 OA
ENDROOT
BRANCH   6   9
HETATM    9  C7  UNL     1      51.661  45.006  89.164  1.00  0.00     0.155 C 
BRANCH   9  10
HETATM   10  N1  UNL     1      52.982  45.438  88.764  1.00  0.00    -0.373 N 
ATOM     11  H1  UNL     1      53.696  45.570  89.481  1.00  0.00     0.161 HD
BRANCH  10  12
HETATM   12  C8  UNL     1      53.322  45.685  87.396  1.00  0.00     0.134 C 
HETATM   13  S1  UNL     1      54.484  44.795  86.697  1.00  0.00    -0.053 SA
BRANCH  12  14
HETATM   14  S2  UNL     1      52.497  46.947  86.442  1.00  0.00    -0.105 SA
HETATM   15  C9  UNL     1      50.970  46.364  85.712  1.00  0.00     0.098 C 
ENDBRANCH  12  14
ENDBRANCH  10  12
ENDBRANCH   9  10
ENDBRANCH   6   9
BRANCH   1  16
HETATM   16  C2  UNL     1      53.393  41.209  91.678  1.00  0.00     0.056 C 
HETATM   17  C1  UNL     1      53.935  39.830  91.833  1.00  0.00     0.010 C 
ENDBRANCH   1  16
TORSDOF 5
ENDMDL
MODEL 2
REMARK VINA RESULT: -5.608111883      1.309      2.149
REMARK  5 active torsions:
REMARK  status: ('A' for Active; 'I' for Inactive)
REMARK    1  A    between atoms: C2_2  and  C3_3 
REMARK    2  A    between atoms: C6_8  and  C7_9 
REMARK    3  A    between atoms: C7_9  and  N1_10 
REMARK    4  A    between atoms: N1_10  and  C8_12 
REMARK    5  A    between atoms: C8_12  and  S2_14 
ROOT
HETATM    1  C3  UNL     1      52.636  41.070  90.761  1.00  0.00     0.260 C 
HETATM    2  O1  UNL     1      51.264  41.243  90.897  1.00  0.00    -0.351 OA
HETATM    3  C4  UNL     1      50.907  41.549  89.561  1.00  0.00     0.180 C 
HETATM    4  C5  UNL     1      49.995  42.731  89.490  1.00  0.00     0.203 C 
HETATM    5  O2  UNL     1      50.362  43.378  88.312  1.00  0.00    -0.379 OA
HETATM    6  C6  UNL     1      51.754  43.379  88.344  1.00  0.00     0.170 C 
HETATM    7  C10 UNL     1      52.185  42.094  88.932  1.00  0.00     0.186 C 
HETATM    8  O3  UNL     1      52.992  42.227  90.069  1.00  0.00    -0.351 OA
ENDROOT
BRANCH   6   9
HETATM    9  C7  UNL     1      52.222  44.599  89.066  1.00  0.00     0.155 C 
BRANCH   9  10
HETATM   10  N1  UNL     1      53.634  44.824  88.851  1.00  0.00    -0.373 N 
ATOM     11  H1  UNL     1      54.238  44.976  89.658  1.00  0.00     0.161 HD
BRANCH  10  12
HETATM   12  C8  UNL     1      54.212  44.840  87.542  1.00  0.00     0.134 C 
HETATM   13  S1  UNL     1      53.850  46.058  86.533  1.00  0.00    -0.053 SA
BRANCH  12  14
HETATM   14  S2  UNL     1      55.322  43.555  86.994  1.00  0.00    -0.105 SA
HETATM   15  C9  UNL     1      56.050  42.653  88.359  1.00  0.00     0.098 C 
ENDBRANCH  12  14
ENDBRANCH  10  12
ENDBRANCH   9  10
ENDBRANCH   6   9
BRANCH   1  16
HETATM   16  C2  UNL     1      53.346  40.935  92.074  1.00  0.00     0.056 C 
HETATM   17  C1  UNL     1      54.460  39.946  92.061  1.00  0.00     0.010 C 
ENDBRANCH   1  16
TORSDOF 5
ENDMDL
MODEL 3
REMARK VINA RESULT: -5.597179106      0.789      1.410
REMARK  5 active torsions:
REMARK  status: ('A' for Active; 'I' for Inactive)
REMARK    1  A    between atoms: C2_2  and  C3_3 
REMARK    2  A    between atoms: C6_8  and  C7_9 
REMARK    3  A    between atoms: C7_9  and  N1_10 
REMARK    4  A    between atoms: N1_10  and  C8_12 
REMARK    5  A    between atoms: C8_12  and  S2_14 
ROOT
HETATM    1  C3  UNL     1      52.530  41.557  90.321  1.00  0.00     0.260 C 
HETATM    2  O1  UNL     1      51.183  41.579  90.665  1.00  0.00    -0.351 OA
HETATM    3  C4  UNL     1      50.608  41.982  89.436  1.00  0.00     0.180 C 
HETATM    4  C5  UNL     1      49.601  43.070  89.628  1.00  0.00     0.203 C 
HETATM    5  O2  UNL     1      49.734  43.866  88.492  1.00  0.00    -0.379 OA
HETATM    6  C6  UNL     1      51.110  44.001  88.330  1.00  0.00     0.170 C 
HETATM    7  C10 UNL     1      51.729  42.711  88.702  1.00  0.00     0.186 C 
HETATM    8  O3  UNL     1      52.682  42.807  89.724  1.00  0.00    -0.351 OA
ENDROOT
BRANCH   6   9
HETATM    9  C7  UNL     1      51.578  45.181  89.116  1.00  0.00     0.155 C 
BRANCH   9  10
HETATM   10  N1  UNL     1      52.803  45.720  88.569  1.00  0.00    -0.373 N 
ATOM     11  H1  UNL     1      53.555  45.981  89.208  1.00  0.00     0.161 HD
BRANCH  10  12
HETATM   12  C8  UNL     1      52.997  45.899  87.163  1.00  0.00     0.134 C 
HETATM   13  S1  UNL     1      52.143  47.039  86.387  1.00  0.00    -0.053 SA
BRANCH  12  14
HETATM   14  S2  UNL     1      54.154  44.899  86.244  1.00  0.00    -0.105 SA
HETATM   15  C9  UNL     1      53.346  43.611  85.300  1.00  0.00     0.098 C 
ENDBRANCH  12  14
ENDBRANCH  10  12
ENDBRANCH   9  10
ENDBRANCH   6   9
BRANCH   1  16
HETATM   16  C2  UNL     1      53.436  41.360  91.499  1.00  0.00     0.056 C 
HETATM   17  C1  UNL     1      53.807  39.938  91.746  1.00  0.00     0.010 C 
ENDBRANCH   1  16
TORSDOF 5
ENDMDL
MODEL 4
REMARK VINA RESULT: -5.439762829      1.103      1.245
REMARK  5 active torsions:
REMARK  status: ('A' for Active; 'I' for Inactive)
REMARK    1  A    between atoms: C2_2  and  C3_3 
REMARK    2  A    between atoms: C6_8  and  C7_9 
REMARK    3  A    between atoms: C7_9  and  N1_10 
REMARK    4  A    between atoms: N1_10  and  C8_12 
REMARK    5  A    between atoms: C8_12  and  S2_14 
ROOT
HETATM    1  C3  UNL     1      52.592  41.374  90.496  1.00  0.00     0.260 C 
HETATM    2  O1  UNL     1      51.224  41.409  90.741  1.00  0.00    -0.351 OA
HETATM    3  C4  UNL     1      50.742  41.795  89.467  1.00  0.00     0.180 C 
HETATM    4  C5  UNL     1      49.730  42.891  89.569  1.00  0.00     0.203 C 
HETATM    5  O2  UNL     1      49.951  43.669  88.433  1.00  0.00    -0.379 OA
HETATM    6  C6  UNL     1      51.336  43.793  88.369  1.00  0.00     0.170 C 
HETATM    7  C10 UNL     1      51.917  42.506  88.805  1.00  0.00     0.186 C 
HETATM    8  O3  UNL     1      52.795  42.613  89.891  1.00  0.00    -0.351 OA
ENDROOT
BRANCH   6   9
HETATM    9  C7  UNL     1      51.753  44.983  89.168  1.00  0.00     0.155 C 
BRANCH   9  10
HETATM   10  N1  UNL     1      52.481  45.930  88.352  1.00  0.00    -0.373 N 
ATOM     11  H1  UNL     1      52.069  46.846  88.174  1.00  0.00     0.161 HD
BRANCH  10  12
HETATM   12  C8  UNL     1      53.759  45.625  87.788  1.00  0.00     0.134 C 
HETATM   13  S1  UNL     1      55.026  45.396  88.775  1.00  0.00    -0.053 SA
BRANCH  12  14
HETATM   14  S2  UNL     1      53.994  45.490  86.024  1.00  0.00    -0.105 SA
HETATM   15  C9  UNL     1      53.734  43.823  85.425  1.00  0.00     0.098 C 
ENDBRANCH  12  14
ENDBRANCH  10  12
ENDBRANCH   9  10
ENDBRANCH   6   9
BRANCH   1  16
HETATM   16  C2  UNL     1      53.408  41.190  91.739  1.00  0.00     0.056 C 
HETATM   17  C1  UNL     1      54.004  39.832  91.877  1.00  0.00     0.010 C 
ENDBRANCH   1  16
TORSDOF 5
ENDMDL
MODEL 5
REMARK VINA RESULT: -5.410891199      2.832      4.786
REMARK  5 active torsions:
REMARK  status: ('A' for Active; 'I' for Inactive)
REMARK    1  A    between atoms: C2_2  and  C3_3 
REMARK    2  A    between atoms: C6_8  and  C7_9 
REMARK    3  A    between atoms: C7_9  and  N1_10 
REMARK    4  A    between atoms: N1_10  and  C8_12 
REMARK    5  A    between atoms: C8_12  and  S2_14 
ROOT
HETATM    1  C3  UNL     1      51.261  43.433  86.381  1.00  0.00     0.260 C 
HETATM    2  O1  UNL     1      49.985  43.144  86.852  1.00  0.00    -0.351 OA
HETATM    3  C4  UNL     1      50.131  43.482  88.219  1.00  0.00     0.180 C 
HETATM    4  C5  UNL     1      49.565  42.426  89.113  1.00  0.00     0.203 C 
HETATM    5  O2  UNL     1      50.408  42.427  90.223  1.00  0.00    -0.379 OA
HETATM    6  C6  UNL     1      51.688  42.485  89.678  1.00  0.00     0.170 C 
HETATM    7  C10 UNL     1      51.626  43.364  88.492  1.00  0.00     0.186 C 
HETATM    8  O3  UNL     1      52.055  42.756  87.306  1.00  0.00    -0.351 OA
ENDROOT
BRANCH   6   9
HETATM    9  C7  UNL     1      52.166  41.095  89.416  1.00  0.00     0.155 C 
BRANCH   9  10
HETATM   10  N1  UNL     1      53.609  41.048  89.325  1.00  0.00    -0.373 N 
ATOM     11  H1  UNL     1      54.038  40.553  88.543  1.00  0.00     0.161 HD
BRANCH  10  12
HETATM   12  C8  UNL     1      54.455  41.674  90.294  1.00  0.00     0.134 C 
HETATM   13  S1  UNL     1      54.309  41.259  91.856  1.00  0.00    -0.053 SA
BRANCH  12  14
HETATM   14  S2  UNL     1      55.666  42.898  89.827  1.00  0.00    -0.105 SA
HETATM   15  C9  UNL     1      54.937  44.508  89.546  1.00  0.00     0.098 C 
ENDBRANCH  12  14
ENDBRANCH  10  12
ENDBRANCH   9  10
ENDBRANCH   6   9
BRANCH   1  16
HETATM   16  C2  UNL     1      51.486  42.973  84.973  1.00  0.00     0.056 C 
HETATM   17  C1  UNL     1      52.250  43.940  84.135  1.00  0.00     0.010 C 
ENDBRANCH   1  16
TORSDOF 5
ENDMDL
