MODEL 1
REMARK VINA RESULT: -4.622570277      0.000      0.000
REMARK  6 active torsions:
REMARK  status: ('A' for Active; 'I' for Inactive)
REMARK    1  A    between atoms: S1_3  and  C3_4 
REMARK    2  A    between atoms: C3_4  and  O1_5 
REMARK    3  A    between atoms: C3_4  and  C5_7 
REMARK    4  A    between atoms: C8_12  and  N1_13 
REMARK       I    between atoms: N1_13  and  C9_15 
REMARK    5  A    between atoms: C9_15  and  C10_17 
REMARK    6  A    between atoms: C13_22  and  C14_23 
ROOT
HETATM    1  C1  UNL     1     -30.112 -19.788   5.911  1.00  0.00     0.025 C 
HETATM    2  C2  UNL     1     -29.620 -18.774   6.301  1.00  0.00    -0.042 C 
HETATM    3  S1  UNL     1     -28.920 -17.280   6.869  1.00  0.00    -0.046 SA
ENDROOT
BRANCH   3   4
HETATM    4  C3  UNL     1     -27.798 -17.613   8.275  1.00  0.00     0.207 C 
BRANCH   4   5
HETATM    5  O1  UNL     1     -28.474 -17.534   9.473  1.00  0.00    -0.379 OA
HETATM    6  C4  UNL     1     -27.698 -17.495  10.599  1.00  0.00     0.203 C 
ENDBRANCH   4   5
BRANCH   4   7
HETATM    7  C5  UNL     1     -26.567 -16.746   8.192  1.00  0.00     0.110 C 
HETATM    8  C6  UNL     1     -25.383 -17.512   7.821  1.00  0.00     0.057 C 
HETATM    9  S2  UNL     1     -25.421 -18.928   7.797  1.00  0.00    -0.077 SA
HETATM   10  S3  UNL     1     -23.839 -16.717   7.378  1.00  0.00    -0.094 SA
HETATM   11  C7  UNL     1     -24.327 -14.952   7.190  1.00  0.00     0.187 C 
HETATM   12  C8  UNL     1     -23.791 -14.274   5.992  1.00  0.00     0.210 C 
HETATM   13  N2  UNL     1     -25.673 -15.026   6.650  1.00  0.00    -0.318 N 
HETATM   14  C12 UNL     1     -25.145 -14.487   5.429  1.00  0.00     0.247 C 
HETATM   15  O3  UNL     1     -25.632 -14.268   4.290  1.00  0.00    -0.271 OA
HETATM   16  C13 UNL     1     -26.808 -15.513   7.390  1.00  0.00     0.202 C 
BRANCH  12  17
HETATM   17  N1  UNL     1     -22.750 -14.923   5.260  1.00  0.00    -0.345 N 
HETATM   18  C9  UNL     1     -21.980 -14.178   4.333  1.00  0.00     0.217 C 
HETATM   19  O2  UNL     1     -22.228 -12.949   4.172  1.00  0.00    -0.274 OA
ATOM     20  H1  UNL     1     -22.563 -15.916   5.403  1.00  0.00     0.163 HD
BRANCH  18  21
HETATM   21  C10 UNL     1     -20.884 -14.799   3.542  1.00  0.00     0.098 C 
HETATM   22  C11 UNL     1     -20.702 -14.151   2.211  1.00  0.00     0.014 C 
ENDBRANCH  18  21
ENDBRANCH  12  17
BRANCH  16  23
HETATM   23  C14 UNL     1     -27.279 -14.398   8.272  1.00  0.00     0.197 C 
HETATM   24  O4  UNL     1     -28.135 -13.570   7.898  1.00  0.00    -0.646 OA
HETATM   25  O5  UNL     1     -26.773 -14.237   9.562  1.00  0.00    -0.646 OA
ENDBRANCH  16  23
ENDBRANCH   4   7
ENDBRANCH   3   4
TORSDOF 6
ENDMDL
MODEL 2
REMARK VINA RESULT: -4.585098265      2.917      4.008
REMARK  6 active torsions:
REMARK  status: ('A' for Active; 'I' for Inactive)
REMARK    1  A    between atoms: S1_3  and  C3_4 
REMARK    2  A    between atoms: C3_4  and  O1_5 
REMARK    3  A    between atoms: C3_4  and  C5_7 
REMARK    4  A    between atoms: C8_12  and  N1_13 
REMARK       I    between atoms: N1_13  and  C9_15 
REMARK    5  A    between atoms: C9_15  and  C10_17 
REMARK    6  A    between atoms: C13_22  and  C14_23 
ROOT
HETATM    1  C1  UNL     1     -29.080 -13.070  10.345  1.00  0.00     0.025 C 
HETATM    2  C2  UNL     1     -28.264 -13.889  10.051  1.00  0.00    -0.042 C 
HETATM    3  S1  UNL     1     -27.070 -15.093   9.641  1.00  0.00    -0.046 SA
ENDROOT
BRANCH   3   4
HETATM    4  C3  UNL     1     -27.576 -15.981   8.124  1.00  0.00     0.207 C 
BRANCH   4   5
HETATM    5  O1  UNL     1     -27.711 -17.330   8.366  1.00  0.00    -0.379 OA
HETATM    6  C4  UNL     1     -27.383 -17.751   9.627  1.00  0.00     0.203 C 
ENDBRANCH   4   5
BRANCH   4   7
HETATM    7  C5  UNL     1     -26.660 -15.640   6.976  1.00  0.00     0.110 C 
HETATM    8  C6  UNL     1     -27.253 -14.656   6.077  1.00  0.00     0.057 C 
HETATM    9  S2  UNL     1     -28.618 -14.298   6.204  1.00  0.00    -0.077 SA
HETATM   10  S3  UNL     1     -26.302 -13.855   4.787  1.00  0.00    -0.094 SA
HETATM   11  C7  UNL     1     -24.571 -14.320   5.206  1.00  0.00     0.187 C 
HETATM   12  C8  UNL     1     -23.589 -13.217   5.143  1.00  0.00     0.210 C 
HETATM   13  N2  UNL     1     -24.568 -14.352   6.658  1.00  0.00    -0.318 N 
HETATM   14  C12 UNL     1     -23.716 -13.198   6.619  1.00  0.00     0.247 C 
HETATM   15  O3  UNL     1     -23.240 -12.435   7.498  1.00  0.00    -0.271 OA
HETATM   16  C13 UNL     1     -25.277 -15.331   7.439  1.00  0.00     0.202 C 
BRANCH  12  17
HETATM   17  N1  UNL     1     -23.985 -11.999   4.511  1.00  0.00    -0.345 N 
HETATM   18  C9  UNL     1     -23.001 -11.039   4.170  1.00  0.00     0.217 C 
HETATM   19  O2  UNL     1     -21.788 -11.278   4.431  1.00  0.00    -0.274 OA
ATOM     20  H1  UNL     1     -24.969 -11.822   4.306  1.00  0.00     0.163 HD
BRANCH  18  21
HETATM   21  C10 UNL     1     -23.352  -9.751   3.510  1.00  0.00     0.098 C 
HETATM   22  C11 UNL     1     -22.179  -8.841   3.372  1.00  0.00     0.014 C 
ENDBRANCH  18  21
ENDBRANCH  12  17
BRANCH  16  23
HETATM   23  C14 UNL     1     -24.443 -16.574   7.463  1.00  0.00     0.197 C 
HETATM   24  O4  UNL     1     -24.895 -17.686   7.122  1.00  0.00    -0.646 OA
HETATM   25  O5  UNL     1     -23.110 -16.538   7.873  1.00  0.00    -0.646 OA
ENDBRANCH  16  23
ENDBRANCH   4   7
ENDBRANCH   3   4
TORSDOF 6
ENDMDL
MODEL 3
REMARK VINA RESULT: -4.541479928      4.733      7.110
REMARK  6 active torsions:
REMARK  status: ('A' for Active; 'I' for Inactive)
REMARK    1  A    between atoms: S1_3  and  C3_4 
REMARK    2  A    between atoms: C3_4  and  O1_5 
REMARK    3  A    between atoms: C3_4  and  C5_7 
REMARK    4  A    between atoms: C8_12  and  N1_13 
REMARK       I    between atoms: N1_13  and  C9_15 
REMARK    5  A    between atoms: C9_15  and  C10_17 
REMARK    6  A    between atoms: C13_22  and  C14_23 
ROOT
HETATM    1  C1  UNL     1     -20.970 -13.619   2.056  1.00  0.00     0.025 C 
HETATM    2  C2  UNL     1     -21.579 -13.883   3.047  1.00  0.00    -0.042 C 
HETATM    3  S1  UNL     1     -22.455 -14.282   4.502  1.00  0.00    -0.046 SA
ENDROOT
BRANCH   3   4
HETATM    4  C3  UNL     1     -23.090 -12.755   5.285  1.00  0.00     0.207 C 
BRANCH   4   5
HETATM    5  O1  UNL     1     -23.078 -12.865   6.657  1.00  0.00    -0.379 OA
HETATM    6  C4  UNL     1     -22.895 -14.125   7.159  1.00  0.00     0.203 C 
ENDBRANCH   4   5
BRANCH   4   7
HETATM    7  C5  UNL     1     -24.426 -12.372   4.700  1.00  0.00     0.110 C 
HETATM    8  C6  UNL     1     -24.308 -11.287   3.732  1.00  0.00     0.057 C 
HETATM    9  S2  UNL     1     -23.091 -10.574   3.597  1.00  0.00    -0.077 SA
HETATM   10  S3  UNL     1     -25.673 -10.805   2.676  1.00  0.00    -0.094 SA
HETATM   11  C7  UNL     1     -26.879 -12.176   2.915  1.00  0.00     0.187 C 
HETATM   12  C8  UNL     1     -27.494 -12.697   1.676  1.00  0.00     0.210 C 
HETATM   13  N2  UNL     1     -26.035 -13.346   3.088  1.00  0.00    -0.318 N 
HETATM   14  C12 UNL     1     -26.525 -13.809   1.821  1.00  0.00     0.247 C 
HETATM   15  O3  UNL     1     -26.249 -14.791   1.085  1.00  0.00    -0.271 OA
HETATM   16  C13 UNL     1     -25.192 -13.563   4.234  1.00  0.00     0.202 C 
BRANCH  12  17
HETATM   17  N1  UNL     1     -27.334 -11.941   0.475  1.00  0.00    -0.345 N 
HETATM   18  C9  UNL     1     -28.135 -12.246  -0.653  1.00  0.00     0.217 C 
HETATM   19  O2  UNL     1     -28.979 -13.185  -0.576  1.00  0.00    -0.274 OA
ATOM     20  H1  UNL     1     -26.648 -11.186   0.430  1.00  0.00     0.163 HD
BRANCH  18  21
HETATM   21  C10 UNL     1     -28.013 -11.494  -1.932  1.00  0.00     0.098 C 
HETATM   22  C11 UNL     1     -27.293 -10.199  -1.767  1.00  0.00     0.014 C 
ENDBRANCH  18  21
ENDBRANCH  12  17
BRANCH  16  23
HETATM   23  C14 UNL     1     -26.060 -14.091   5.334  1.00  0.00     0.197 C 
HETATM   24  O4  UNL     1     -26.292 -13.436   6.371  1.00  0.00    -0.646 OA
HETATM   25  O5  UNL     1     -26.650 -15.352   5.243  1.00  0.00    -0.646 OA
ENDBRANCH  16  23
ENDBRANCH   4   7
ENDBRANCH   3   4
TORSDOF 6
ENDMDL
MODEL 4
REMARK VINA RESULT: -4.321442902      2.675      3.948
REMARK  6 active torsions:
REMARK  status: ('A' for Active; 'I' for Inactive)
REMARK    1  A    between atoms: S1_3  and  C3_4 
REMARK    2  A    between atoms: C3_4  and  O1_5 
REMARK    3  A    between atoms: C3_4  and  C5_7 
REMARK    4  A    between atoms: C8_12  and  N1_13 
REMARK       I    between atoms: N1_13  and  C9_15 
REMARK    5  A    between atoms: C9_15  and  C10_17 
REMARK    6  A    between atoms: C13_22  and  C14_23 
ROOT
HETATM    1  C1  UNL     1     -28.914 -14.189  12.796  1.00  0.00     0.025 C 
HETATM    2  C2  UNL     1     -28.299 -14.076  11.780  1.00  0.00    -0.042 C 
HETATM    3  S1  UNL     1     -27.380 -13.917  10.306  1.00  0.00    -0.046 SA
ENDROOT
BRANCH   3   4
HETATM    4  C3  UNL     1     -28.363 -14.535   8.891  1.00  0.00     0.207 C 
BRANCH   4   5
HETATM    5  O1  UNL     1     -29.197 -15.558   9.281  1.00  0.00    -0.379 OA
HETATM    6  C4  UNL     1     -29.774 -16.281   8.272  1.00  0.00     0.203 C 
ENDBRANCH   4   5
BRANCH   4   7
HETATM    7  C5  UNL     1     -27.467 -14.867   7.724  1.00  0.00     0.110 C 
HETATM    8  C6  UNL     1     -27.512 -13.840   6.690  1.00  0.00     0.057 C 
HETATM    9  S2  UNL     1     -28.484 -12.810   6.741  1.00  0.00    -0.077 SA
HETATM   10  S3  UNL     1     -26.355 -13.820   5.321  1.00  0.00    -0.094 SA
HETATM   11  C7  UNL     1     -25.095 -15.063   5.832  1.00  0.00     0.187 C 
HETATM   12  C8  UNL     1     -23.689 -14.650   5.639  1.00  0.00     0.210 C 
HETATM   13  N2  UNL     1     -25.031 -14.909   7.275  1.00  0.00    -0.318 N 
HETATM   14  C12 UNL     1     -23.707 -14.383   7.097  1.00  0.00     0.247 C 
HETATM   15  O3  UNL     1     -22.858 -13.877   7.874  1.00  0.00    -0.271 OA
HETATM   16  C13 UNL     1     -26.101 -15.269   8.168  1.00  0.00     0.202 C 
BRANCH  12  17
HETATM   17  N1  UNL     1     -23.430 -13.494   4.841  1.00  0.00    -0.345 N 
HETATM   18  C9  UNL     1     -22.206 -13.395   4.136  1.00  0.00     0.217 C 
HETATM   19  O2  UNL     1     -21.363 -14.333   4.226  1.00  0.00    -0.274 OA
ATOM     20  H1  UNL     1     -24.122 -12.747   4.779  1.00  0.00     0.163 HD
BRANCH  18  21
HETATM   21  C10 UNL     1     -21.879 -12.215   3.289  1.00  0.00     0.098 C 
HETATM   22  C11 UNL     1     -22.157 -10.922   3.978  1.00  0.00     0.014 C 
ENDBRANCH  18  21
ENDBRANCH  12  17
BRANCH  16  23
HETATM   23  C14 UNL     1     -26.032 -16.750   8.375  1.00  0.00     0.197 C 
HETATM   24  O4  UNL     1     -25.784 -17.541   7.442  1.00  0.00    -0.646 OA
HETATM   25  O5  UNL     1     -26.246 -17.312   9.634  1.00  0.00    -0.646 OA
ENDBRANCH  16  23
ENDBRANCH   4   7
ENDBRANCH   3   4
TORSDOF 6
ENDMDL
MODEL 5
REMARK VINA RESULT: -4.242349917      2.795      7.348
REMARK  6 active torsions:
REMARK  status: ('A' for Active; 'I' for Inactive)
REMARK    1  A    between atoms: S1_3  and  C3_4 
REMARK    2  A    between atoms: C3_4  and  O1_5 
REMARK    3  A    between atoms: C3_4  and  C5_7 
REMARK    4  A    between atoms: C8_12  and  N1_13 
REMARK       I    between atoms: N1_13  and  C9_15 
REMARK    5  A    between atoms: C9_15  and  C10_17 
REMARK    6  A    between atoms: C13_22  and  C14_23 
ROOT
HETATM    1  C1  UNL     1     -20.317 -13.560   0.455  1.00  0.00     0.025 C 
HETATM    2  C2  UNL     1     -20.990 -13.711   1.429  1.00  0.00    -0.042 C 
HETATM    3  S1  UNL     1     -21.956 -13.932   2.864  1.00  0.00    -0.046 SA
ENDROOT
BRANCH   3   4
HETATM    4  C3  UNL     1     -23.386 -12.791   2.835  1.00  0.00     0.207 C 
BRANCH   4   5
HETATM    5  O1  UNL     1     -22.976 -11.494   2.624  1.00  0.00    -0.379 OA
HETATM    6  C4  UNL     1     -23.893 -10.519   2.911  1.00  0.00     0.203 C 
ENDBRANCH   4   5
BRANCH   4   7
HETATM    7  C5  UNL     1     -24.248 -12.985   4.057  1.00  0.00     0.110 C 
HETATM    8  C6  UNL     1     -25.530 -13.599   3.731  1.00  0.00     0.057 C 
HETATM    9  S2  UNL     1     -25.936 -13.741   2.381  1.00  0.00    -0.077 SA
HETATM   10  S3  UNL     1     -26.644 -14.201   4.999  1.00  0.00    -0.094 SA
HETATM   11  C7  UNL     1     -25.600 -14.155   6.516  1.00  0.00     0.187 C 
HETATM   12  C8  UNL     1     -25.680 -15.357   7.372  1.00  0.00     0.210 C 
HETATM   13  N2  UNL     1     -24.273 -14.487   6.027  1.00  0.00    -0.318 N 
HETATM   14  C12 UNL     1     -24.385 -15.722   6.749  1.00  0.00     0.247 C 
HETATM   15  O3  UNL     1     -23.665 -16.749   6.838  1.00  0.00    -0.271 OA
HETATM   16  C13 UNL     1     -23.496 -13.628   5.172  1.00  0.00     0.202 C 
BRANCH  12  17
HETATM   17  N1  UNL     1     -26.728 -16.294   7.121  1.00  0.00    -0.345 N 
HETATM   18  C9  UNL     1     -26.994 -17.312   8.070  1.00  0.00     0.217 C 
HETATM   19  O2  UNL     1     -26.297 -17.373   9.123  1.00  0.00    -0.274 OA
ATOM     20  H1  UNL     1     -27.281 -16.230   6.266  1.00  0.00     0.163 HD
BRANCH  18  21
HETATM   21  C10 UNL     1     -28.072 -18.317   7.864  1.00  0.00     0.098 C 
HETATM   22  C11 UNL     1     -27.737 -19.645   8.455  1.00  0.00     0.014 C 
ENDBRANCH  18  21
ENDBRANCH  12  17
BRANCH  16  23
HETATM   23  C14 UNL     1     -22.858 -12.590   6.042  1.00  0.00     0.197 C 
HETATM   24  O4  UNL     1     -21.966 -11.826   5.622  1.00  0.00    -0.646 OA
HETATM   25  O5  UNL     1     -23.240 -12.434   7.375  1.00  0.00    -0.646 OA
ENDBRANCH  16  23
ENDBRANCH   4   7
ENDBRANCH   3   4
TORSDOF 6
ENDMDL
