MODEL 1
REMARK VINA RESULT: -7.514350494      0.000      0.000
REMARK  7 active torsions:
REMARK  status: ('A' for Active; 'I' for Inactive)
REMARK    1  A    between atoms: C5_6  and  O1_7 
REMARK    2  A    between atoms: O1_7  and  C6_8 
REMARK    3  A    between atoms: C10_15  and  N2_16 
REMARK       I    between atoms: N2_16  and  C11_18 
REMARK    4  A    between atoms: C11_18  and  C12_20 
REMARK    5  A    between atoms: C12_20  and  C13_21 
REMARK    6  A    between atoms: C13_21  and  S2_22 
REMARK    7  A    between atoms: S2_22  and  C14_23 
ROOT
HETATM    1  N1  UNL     1     -17.994 -17.530  -0.002  1.00  0.00    -0.191 NA
HETATM    2  C1  UNL     1     -18.642 -16.683   0.446  1.00  0.00     0.099 C 
HETATM    3  C2  UNL     1     -19.459 -15.650   1.001  1.00  0.00     0.044 A 
HETATM    4  C3  UNL     1     -19.848 -14.574   0.254  1.00  0.00     0.025 A 
HETATM    5  C4  UNL     1     -20.643 -13.571   0.791  1.00  0.00     0.038 A 
HETATM    6  C5  UNL     1     -21.084 -13.594   2.092  1.00  0.00     0.069 A 
HETATM    7  C15 UNL     1     -20.677 -14.709   2.854  1.00  0.00     0.038 A 
HETATM    8  C16 UNL     1     -19.893 -15.688   2.308  1.00  0.00     0.025 A 
ENDROOT
BRANCH   6   9
HETATM    9  O1  UNL     1     -21.871 -12.637   2.685  1.00  0.00    -0.340 OA
BRANCH   9  10
HETATM   10  C6  UNL     1     -22.767 -12.865   3.708  1.00  0.00     0.176 C 
HETATM   11  C7  UNL     1     -24.175 -12.941   3.202  1.00  0.00     0.019 C 
HETATM   12  C8  UNL     1     -24.893 -11.863   2.926  1.00  0.00     0.107 C 
HETATM   13  S1  UNL     1     -24.167 -10.302   3.164  1.00  0.00     0.167 S 
HETATM   14  O2  UNL     1     -25.221  -9.297   3.569  1.00  0.00    -0.223 OA
HETATM   15  O3  UNL     1     -23.510  -9.800   1.892  1.00  0.00    -0.223 OA
HETATM   16  C9  UNL     1     -22.937 -10.446   4.425  1.00  0.00     0.172 C 
HETATM   17  C10 UNL     1     -22.662 -11.849   4.834  1.00  0.00     0.132 C 
BRANCH  17  18
HETATM   18  N2  UNL     1     -23.605 -12.293   5.871  1.00  0.00    -0.353 N 
HETATM   19  C11 UNL     1     -23.310 -13.393   6.710  1.00  0.00     0.218 C 
HETATM   20  O4  UNL     1     -22.212 -13.983   6.543  1.00  0.00    -0.274 OA
ATOM     21  H2  UNL     1     -24.489 -11.798   5.988  1.00  0.00     0.163 HD
BRANCH  19  22
HETATM   22  C12 UNL     1     -24.265 -13.823   7.742  1.00  0.00     0.113 C 
BRANCH  22  23
HETATM   23  C13 UNL     1     -25.473 -14.525   7.134  1.00  0.00     0.093 C 
BRANCH  23  24
HETATM   24  S2  UNL     1     -25.883 -16.031   8.010  1.00  0.00    -0.072 SA
BRANCH  24  25
HETATM   25  C14 UNL     1     -24.877 -17.406   7.494  1.00  0.00     0.292 C 
HETATM   26  N3  UNL     1     -25.365 -18.741   7.487  1.00  0.00    -0.051 NA
HETATM   27  O5  UNL     1     -23.672 -17.246   7.109  1.00  0.00    -0.264 OA
ENDBRANCH  24  25
ENDBRANCH  23  24
ENDBRANCH  22  23
ENDBRANCH  19  22
ENDBRANCH  17  18
ENDBRANCH   9  10
ENDBRANCH   6   9
TORSDOF 7
ENDMDL
MODEL 2
REMARK VINA RESULT: -7.253547673      1.421      1.711
REMARK  7 active torsions:
REMARK  status: ('A' for Active; 'I' for Inactive)
REMARK    1  A    between atoms: C5_6  and  O1_7 
REMARK    2  A    between atoms: O1_7  and  C6_8 
REMARK    3  A    between atoms: C10_15  and  N2_16 
REMARK       I    between atoms: N2_16  and  C11_18 
REMARK    4  A    between atoms: C11_18  and  C12_20 
REMARK    5  A    between atoms: C12_20  and  C13_21 
REMARK    6  A    between atoms: C13_21  and  S2_22 
REMARK    7  A    between atoms: S2_22  and  C14_23 
ROOT
HETATM    1  N1  UNL     1     -18.026 -17.630   0.020  1.00  0.00    -0.191 NA
HETATM    2  C1  UNL     1     -18.675 -16.785   0.472  1.00  0.00     0.099 C 
HETATM    3  C2  UNL     1     -19.494 -15.757   1.031  1.00  0.00     0.044 A 
HETATM    4  C3  UNL     1     -19.903 -14.689   0.283  1.00  0.00     0.025 A 
HETATM    5  C4  UNL     1     -20.700 -13.689   0.824  1.00  0.00     0.038 A 
HETATM    6  C5  UNL     1     -21.123 -13.708   2.132  1.00  0.00     0.069 A 
HETATM    7  C15 UNL     1     -20.696 -14.814   2.895  1.00  0.00     0.038 A 
HETATM    8  C16 UNL     1     -19.911 -15.790   2.344  1.00  0.00     0.025 A 
ENDROOT
BRANCH   6   9
HETATM    9  O1  UNL     1     -21.910 -12.754   2.729  1.00  0.00    -0.340 OA
BRANCH   9  10
HETATM   10  C6  UNL     1     -22.832 -12.993   3.725  1.00  0.00     0.176 C 
HETATM   11  C7  UNL     1     -24.228 -13.049   3.183  1.00  0.00     0.019 C 
HETATM   12  C8  UNL     1     -24.931 -11.960   2.910  1.00  0.00     0.107 C 
HETATM   13  S1  UNL     1     -24.200 -10.410   3.195  1.00  0.00     0.167 S 
HETATM   14  O2  UNL     1     -25.255  -9.404   3.592  1.00  0.00    -0.223 OA
HETATM   15  O3  UNL     1     -23.508  -9.890   1.948  1.00  0.00    -0.223 OA
HETATM   16  C9  UNL     1     -23.002 -10.586   4.482  1.00  0.00     0.172 C 
HETATM   17  C10 UNL     1     -22.748 -11.999   4.872  1.00  0.00     0.132 C 
BRANCH  17  18
HETATM   18  N2  UNL     1     -23.719 -12.455   5.877  1.00  0.00    -0.353 N 
HETATM   19  C11 UNL     1     -23.416 -13.511   6.767  1.00  0.00     0.218 C 
HETATM   20  O4  UNL     1     -22.284 -14.053   6.672  1.00  0.00    -0.274 OA
ATOM     21  H2  UNL     1     -24.630 -11.999   5.935  1.00  0.00     0.163 HD
BRANCH  19  22
HETATM   22  C12 UNL     1     -24.400 -13.953   7.765  1.00  0.00     0.113 C 
BRANCH  22  23
HETATM   23  C13 UNL     1     -24.855 -15.385   7.513  1.00  0.00     0.093 C 
BRANCH  23  24
HETATM   24  S2  UNL     1     -26.563 -15.462   6.985  1.00  0.00    -0.072 SA
BRANCH  24  25
HETATM   25  C14 UNL     1     -26.870 -14.458   5.547  1.00  0.00     0.292 C 
HETATM   26  N3  UNL     1     -27.151 -15.025   4.274  1.00  0.00    -0.051 NA
HETATM   27  O5  UNL     1     -26.850 -13.185   5.603  1.00  0.00    -0.264 OA
ENDBRANCH  24  25
ENDBRANCH  23  24
ENDBRANCH  22  23
ENDBRANCH  19  22
ENDBRANCH  17  18
ENDBRANCH   9  10
ENDBRANCH   6   9
TORSDOF 7
ENDMDL
MODEL 3
REMARK VINA RESULT: -6.825107284      1.442      1.442
REMARK  7 active torsions:
REMARK  status: ('A' for Active; 'I' for Inactive)
REMARK    1  A    between atoms: C5_6  and  O1_7 
REMARK    2  A    between atoms: O1_7  and  C6_8 
REMARK    3  A    between atoms: C10_15  and  N2_16 
REMARK       I    between atoms: N2_16  and  C11_18 
REMARK    4  A    between atoms: C11_18  and  C12_20 
REMARK    5  A    between atoms: C12_20  and  C13_21 
REMARK    6  A    between atoms: C13_21  and  S2_22 
REMARK    7  A    between atoms: S2_22  and  C14_23 
ROOT
HETATM    1  N1  UNL     1     -17.990 -17.620  -0.028  1.00  0.00    -0.191 NA
HETATM    2  C1  UNL     1     -18.632 -16.773   0.428  1.00  0.00     0.099 C 
HETATM    3  C2  UNL     1     -19.443 -15.742   0.995  1.00  0.00     0.044 A 
HETATM    4  C3  UNL     1     -19.831 -14.659   0.257  1.00  0.00     0.025 A 
HETATM    5  C4  UNL     1     -20.620 -13.656   0.805  1.00  0.00     0.038 A 
HETATM    6  C5  UNL     1     -21.055 -13.687   2.108  1.00  0.00     0.069 A 
HETATM    7  C15 UNL     1     -20.649 -14.809   2.860  1.00  0.00     0.038 A 
HETATM    8  C16 UNL     1     -19.872 -15.787   2.303  1.00  0.00     0.025 A 
ENDROOT
BRANCH   6   9
HETATM    9  O1  UNL     1     -21.835 -12.731   2.711  1.00  0.00    -0.340 OA
BRANCH   9  10
HETATM   10  C6  UNL     1     -22.730 -12.963   3.734  1.00  0.00     0.176 C 
HETATM   11  C7  UNL     1     -24.137 -13.052   3.226  1.00  0.00     0.019 C 
HETATM   12  C8  UNL     1     -24.863 -11.980   2.947  1.00  0.00     0.107 C 
HETATM   13  S1  UNL     1     -24.151 -10.414   3.182  1.00  0.00     0.167 S 
HETATM   14  O2  UNL     1     -25.213  -9.416   3.582  1.00  0.00    -0.223 OA
HETATM   15  O3  UNL     1     -23.496  -9.910   1.909  1.00  0.00    -0.223 OA
HETATM   16  C9  UNL     1     -22.920 -10.544   4.444  1.00  0.00     0.172 C 
HETATM   17  C10 UNL     1     -22.635 -11.944   4.857  1.00  0.00     0.132 C 
BRANCH  17  18
HETATM   18  N2  UNL     1     -23.575 -12.393   5.894  1.00  0.00    -0.353 N 
HETATM   19  C11 UNL     1     -23.306 -13.532   6.688  1.00  0.00     0.218 C 
HETATM   20  O4  UNL     1     -22.231 -14.152   6.480  1.00  0.00    -0.274 OA
ATOM     21  H2  UNL     1     -24.440 -11.872   6.044  1.00  0.00     0.163 HD
BRANCH  19  22
HETATM   22  C12 UNL     1     -24.258 -13.966   7.721  1.00  0.00     0.113 C 
BRANCH  22  23
HETATM   23  C13 UNL     1     -24.303 -15.484   7.842  1.00  0.00     0.093 C 
BRANCH  23  24
HETATM   24  S2  UNL     1     -25.977 -16.111   7.766  1.00  0.00    -0.072 SA
BRANCH  24  25
HETATM   25  C14 UNL     1     -26.750 -16.167   9.369  1.00  0.00     0.292 C 
HETATM   26  N3  UNL     1     -27.330 -15.017   9.970  1.00  0.00    -0.051 NA
HETATM   27  O5  UNL     1     -26.814 -17.247  10.043  1.00  0.00    -0.264 OA
ENDBRANCH  24  25
ENDBRANCH  23  24
ENDBRANCH  22  23
ENDBRANCH  19  22
ENDBRANCH  17  18
ENDBRANCH   9  10
ENDBRANCH   6   9
TORSDOF 7
ENDMDL
MODEL 4
REMARK VINA RESULT: -6.579836235      2.338      2.676
REMARK  7 active torsions:
REMARK  status: ('A' for Active; 'I' for Inactive)
REMARK    1  A    between atoms: C5_6  and  O1_7 
REMARK    2  A    between atoms: O1_7  and  C6_8 
REMARK    3  A    between atoms: C10_15  and  N2_16 
REMARK       I    between atoms: N2_16  and  C11_18 
REMARK    4  A    between atoms: C11_18  and  C12_20 
REMARK    5  A    between atoms: C12_20  and  C13_21 
REMARK    6  A    between atoms: C13_21  and  S2_22 
REMARK    7  A    between atoms: S2_22  and  C14_23 
ROOT
HETATM    1  N1  UNL     1     -18.117 -17.680   0.052  1.00  0.00    -0.191 NA
HETATM    2  C1  UNL     1     -18.729 -16.808   0.504  1.00  0.00     0.099 C 
HETATM    3  C2  UNL     1     -19.502 -15.746   1.065  1.00  0.00     0.044 A 
HETATM    4  C3  UNL     1     -19.846 -14.651   0.323  1.00  0.00     0.025 A 
HETATM    5  C4  UNL     1     -20.598 -13.618   0.866  1.00  0.00     0.038 A 
HETATM    6  C5  UNL     1     -21.039 -13.629   2.168  1.00  0.00     0.069 A 
HETATM    7  C15 UNL     1     -20.679 -14.763   2.924  1.00  0.00     0.038 A 
HETATM    8  C16 UNL     1     -19.937 -15.772   2.372  1.00  0.00     0.025 A 
ENDROOT
BRANCH   6   9
HETATM    9  O1  UNL     1     -21.785 -12.642   2.766  1.00  0.00    -0.340 OA
BRANCH   9  10
HETATM   10  C6  UNL     1     -23.074 -12.792   3.232  1.00  0.00     0.176 C 
HETATM   11  C7  UNL     1     -24.042 -11.954   2.454  1.00  0.00     0.019 C 
HETATM   12  C8  UNL     1     -24.202 -10.658   2.676  1.00  0.00     0.107 C 
HETATM   13  S1  UNL     1     -23.248  -9.907   3.919  1.00  0.00     0.167 S 
HETATM   14  O2  UNL     1     -24.024  -8.777   4.557  1.00  0.00    -0.223 OA
HETATM   15  O3  UNL     1     -21.964  -9.328   3.354  1.00  0.00    -0.223 OA
HETATM   16  C9  UNL     1     -22.841 -11.132   5.126  1.00  0.00     0.172 C 
HETATM   17  C10 UNL     1     -23.209 -12.515   4.720  1.00  0.00     0.132 C 
BRANCH  17  18
HETATM   18  N2  UNL     1     -24.607 -12.814   5.064  1.00  0.00    -0.353 N 
HETATM   19  C11 UNL     1     -25.013 -14.121   5.421  1.00  0.00     0.218 C 
HETATM   20  O4  UNL     1     -24.139 -15.025   5.436  1.00  0.00    -0.274 OA
ATOM     21  H2  UNL     1     -25.298 -12.063   5.045  1.00  0.00     0.163 HD
BRANCH  19  22
HETATM   22  C12 UNL     1     -26.416 -14.400   5.761  1.00  0.00     0.113 C 
BRANCH  22  23
HETATM   23  C13 UNL     1     -27.324 -13.226   5.418  1.00  0.00     0.093 C 
BRANCH  23  24
HETATM   24  S2  UNL     1     -28.334 -13.559   3.979  1.00  0.00    -0.072 SA
BRANCH  24  25
HETATM   25  C14 UNL     1     -27.578 -14.742   2.884  1.00  0.00     0.292 C 
HETATM   26  N3  UNL     1     -28.103 -16.050   2.703  1.00  0.00    -0.051 NA
HETATM   27  O5  UNL     1     -26.530 -14.460   2.215  1.00  0.00    -0.264 OA
ENDBRANCH  24  25
ENDBRANCH  23  24
ENDBRANCH  22  23
ENDBRANCH  19  22
ENDBRANCH  17  18
ENDBRANCH   9  10
ENDBRANCH   6   9
TORSDOF 7
ENDMDL
MODEL 5
REMARK VINA RESULT: -6.498625227      2.512      6.507
REMARK  7 active torsions:
REMARK  status: ('A' for Active; 'I' for Inactive)
REMARK    1  A    between atoms: C5_6  and  O1_7 
REMARK    2  A    between atoms: O1_7  and  C6_8 
REMARK    3  A    between atoms: C10_15  and  N2_16 
REMARK       I    between atoms: N2_16  and  C11_18 
REMARK    4  A    between atoms: C11_18  and  C12_20 
REMARK    5  A    between atoms: C12_20  and  C13_21 
REMARK    6  A    between atoms: C13_21  and  S2_22 
REMARK    7  A    between atoms: S2_22  and  C14_23 
ROOT
HETATM    1  N1  UNL     1     -25.913 -18.729   8.230  1.00  0.00    -0.191 NA
HETATM    2  C1  UNL     1     -25.515 -17.707   7.860  1.00  0.00     0.099 C 
HETATM    3  C2  UNL     1     -25.032 -16.450   7.384  1.00  0.00     0.044 A 
HETATM    4  C3  UNL     1     -23.693 -16.208   7.251  1.00  0.00     0.025 A 
HETATM    5  C4  UNL     1     -23.222 -14.987   6.787  1.00  0.00     0.038 A 
HETATM    6  C5  UNL     1     -24.061 -13.956   6.437  1.00  0.00     0.069 A 
HETATM    7  C15 UNL     1     -25.439 -14.216   6.578  1.00  0.00     0.038 A 
HETATM    8  C16 UNL     1     -25.885 -15.425   7.037  1.00  0.00     0.025 A 
ENDROOT
BRANCH   6   9
HETATM    9  O1  UNL     1     -23.661 -12.726   5.972  1.00  0.00    -0.340 OA
BRANCH   9  10
HETATM   10  C6  UNL     1     -22.818 -12.516   4.902  1.00  0.00     0.176 C 
HETATM   11  C7  UNL     1     -22.772 -11.070   4.512  1.00  0.00     0.019 C 
HETATM   12  C8  UNL     1     -23.713 -10.501   3.774  1.00  0.00     0.107 C 
HETATM   13  S1  UNL     1     -25.049 -11.474   3.241  1.00  0.00     0.167 S 
HETATM   14  O2  UNL     1     -25.539 -10.990   1.896  1.00  0.00    -0.223 OA
HETATM   15  O3  UNL     1     -26.211 -11.395   4.215  1.00  0.00    -0.223 OA
HETATM   16  C9  UNL     1     -24.508 -13.153   3.132  1.00  0.00     0.172 C 
HETATM   17  C10 UNL     1     -23.151 -13.380   3.697  1.00  0.00     0.132 C 
BRANCH  17  18
HETATM   18  N2  UNL     1     -22.108 -13.105   2.698  1.00  0.00    -0.353 N 
HETATM   19  C11 UNL     1     -20.988 -13.956   2.550  1.00  0.00     0.218 C 
HETATM   20  O4  UNL     1     -20.910 -14.962   3.302  1.00  0.00    -0.274 OA
ATOM     21  H2  UNL     1     -22.194 -12.284   2.099  1.00  0.00     0.163 HD
BRANCH  19  22
HETATM   22  C12 UNL     1     -19.955 -13.664   1.546  1.00  0.00     0.113 C 
BRANCH  22  23
HETATM   23  C13 UNL     1     -20.039 -14.615   0.359  1.00  0.00     0.093 C 
BRANCH  23  24
HETATM   24  S2  UNL     1     -18.730 -15.835   0.385  1.00  0.00    -0.072 SA
BRANCH  24  25
HETATM   25  C14 UNL     1     -19.286 -17.407   1.009  1.00  0.00     0.292 C 
HETATM   26  N3  UNL     1     -18.772 -17.970   2.209  1.00  0.00    -0.051 NA
HETATM   27  O5  UNL     1     -20.171 -18.093   0.401  1.00  0.00    -0.264 OA
ENDBRANCH  24  25
ENDBRANCH  23  24
ENDBRANCH  22  23
ENDBRANCH  19  22
ENDBRANCH  17  18
ENDBRANCH   9  10
ENDBRANCH   6   9
TORSDOF 7
ENDMDL
