MODEL 1
REMARK VINA RESULT: -6.707738063      0.000      0.000
REMARK  10 active torsions:
REMARK  status: ('A' for Active; 'I' for Inactive)
REMARK    1  A    between atoms: C2_2  and  N1_3 
REMARK    2  A    between atoms: N1_3  and  C3_5 
REMARK    3  A    between atoms: C4_8  and  N3_9 
REMARK    4  A    between atoms: C6_13  and  N5_14 
REMARK    5  A    between atoms: N5_14  and  C7_15 
REMARK    6  A    between atoms: N5_14  and  C10_21 
REMARK    7  A    between atoms: C7_15  and  O1_16 
REMARK    8  A    between atoms: C7_15  and  N6_18 
REMARK    9  A    between atoms: N8_24  and  N9_25 
REMARK   10  A    between atoms: C11_28  and  N10_29 
ROOT
HETATM    1  N3  UNL     1      -2.889   6.488 -31.267  1.00  0.00    -0.277 N 
ATOM      2  H3  UNL     1      -2.992   7.481 -31.475  1.00  0.00     0.179 HD
HETATM    3  C5  UNL     1      -4.011   5.793 -30.858  1.00  0.00     0.183 C 
HETATM    4  N4  UNL     1      -4.949   5.217 -30.538  1.00  0.00    -0.172 NA
ENDROOT
BRANCH   1   5
HETATM    5  C4  UNL     1      -1.577   5.896 -31.420  1.00  0.00     0.152 A 
HETATM    6  N2  UNL     1      -0.931   5.411 -30.386  1.00  0.00    -0.320 N 
HETATM    7  C3  UNL     1       0.289   4.913 -30.568  1.00  0.00     0.148 A 
ATOM      8  H2  UNL     1      -1.356   5.416 -29.459  1.00  0.00     0.169 HD
HETATM    9  S1  UNL     1       0.555   5.121 -32.230  1.00  0.00    -0.031 SA
HETATM   10  C6  UNL     1      -0.949   5.856 -32.632  1.00  0.00     0.150 A 
BRANCH   7  11
HETATM   11  N1  UNL     1       1.119   4.396 -29.728  1.00  0.00    -0.371 N 
ATOM     12  H1  UNL     1       2.090   4.695 -29.806  1.00  0.00     0.161 HD
BRANCH  11  13
HETATM   13  C2  UNL     1       0.826   3.452 -28.705  1.00  0.00     0.117 C 
HETATM   14  C1  UNL     1       1.968   3.486 -27.710  1.00  0.00     0.026 C 
ENDBRANCH  11  13
ENDBRANCH   7  11
BRANCH  10  15
HETATM   15  N5  UNL     1      -1.407   6.296 -33.938  1.00  0.00    -0.098 N 
BRANCH  15  16
HETATM   16  C7  UNL     1      -2.437   5.603 -34.545  1.00  0.00     0.241 C 
BRANCH  16  17
HETATM   17  O1  UNL     1      -2.031   4.637 -35.350  1.00  0.00    -0.332 OA
ATOM     18  H1  UNL     1      -2.726   4.251 -35.869  1.00  0.00     0.221 HD
ENDBRANCH  16  17
BRANCH  16  19
HETATM   19  N6  UNL     1      -3.821   5.714 -34.487  1.00  0.00    -0.355 N 
HETATM   20  C8  UNL     1      -4.528   6.952 -34.560  1.00  0.00     0.152 C 
HETATM   21  C9  UNL     1      -4.622   4.495 -34.341  1.00  0.00     0.152 C 
ENDBRANCH  16  19
ENDBRANCH  15  16
BRANCH  15  22
HETATM   22  C10 UNL     1      -0.759   7.428 -34.437  1.00  0.00     0.724 A 
HETATM   23  N7  UNL     1      -1.117   8.740 -34.248  1.00  0.00    -0.095 N 
HETATM   24  N8  UNL     1      -0.276   9.554 -34.824  1.00  0.00    -0.012 N 
ATOM     25  H7  UNL     1      -1.939   9.040 -33.724  1.00  0.00     0.208 HD
HETATM   26  C11 UNL     1       0.659   8.783 -35.408  1.00  0.00     0.727 A 
HETATM   27  N11 UNL     1       0.360   7.500 -35.170  1.00  0.00    -0.018 N 
ATOM     28  H11 UNL     1       0.901   6.699 -35.496  1.00  0.00     0.203 HD
BRANCH  24  29
HETATM   29  N9  UNL     1      -0.245  10.942 -34.894  1.00  0.00    -0.309 N 
ATOM     30  H92 UNL     1      -0.532  11.534 -34.115  1.00  0.00     0.179 HD
ATOM     31  H91 UNL     1       0.038  11.572 -35.644  1.00  0.00     0.179 HD
ENDBRANCH  24  29
BRANCH  26  32
HETATM   32  N10 UNL     1       1.691   9.200 -36.083  1.00  0.00    -0.231 N 
ATOM     33 2H10 UNL     1       1.650   9.775 -36.925  1.00  0.00     0.174 HD
ATOM     34 1H10 UNL     1       2.669   9.005 -35.873  1.00  0.00     0.174 HD
ENDBRANCH  26  32
ENDBRANCH  15  22
ENDBRANCH  10  15
ENDBRANCH   1   5
TORSDOF 10
ENDMDL
MODEL 2
REMARK VINA RESULT: -6.491508123      0.670      1.451
REMARK  10 active torsions:
REMARK  status: ('A' for Active; 'I' for Inactive)
REMARK    1  A    between atoms: C2_2  and  N1_3 
REMARK    2  A    between atoms: N1_3  and  C3_5 
REMARK    3  A    between atoms: C4_8  and  N3_9 
REMARK    4  A    between atoms: C6_13  and  N5_14 
REMARK    5  A    between atoms: N5_14  and  C7_15 
REMARK    6  A    between atoms: N5_14  and  C10_21 
REMARK    7  A    between atoms: C7_15  and  O1_16 
REMARK    8  A    between atoms: C7_15  and  N6_18 
REMARK    9  A    between atoms: N8_24  and  N9_25 
REMARK   10  A    between atoms: C11_28  and  N10_29 
ROOT
HETATM    1  N3  UNL     1      -2.857   6.273 -31.113  1.00  0.00    -0.277 N 
ATOM      2  H3  UNL     1      -3.031   7.276 -31.187  1.00  0.00     0.179 HD
HETATM    3  C5  UNL     1      -3.926   5.452 -30.813  1.00  0.00     0.183 C 
HETATM    4  N4  UNL     1      -4.820   4.772 -30.583  1.00  0.00    -0.172 NA
ENDROOT
BRANCH   1   5
HETATM    5  C4  UNL     1      -1.505   5.802 -31.330  1.00  0.00     0.152 A 
HETATM    6  N2  UNL     1      -0.778   5.355 -30.332  1.00  0.00    -0.320 N 
HETATM    7  C3  UNL     1       0.472   4.970 -30.573  1.00  0.00     0.148 A 
ATOM      8  H2  UNL     1      -1.165   5.304 -29.390  1.00  0.00     0.169 HD
HETATM    9  S1  UNL     1       0.653   5.234 -32.238  1.00  0.00    -0.031 SA
HETATM   10  C6  UNL     1      -0.924   5.842 -32.565  1.00  0.00     0.150 A 
BRANCH   7  11
HETATM   11  N1  UNL     1       1.377   4.511 -29.777  1.00  0.00    -0.371 N 
ATOM     12  H1  UNL     1       2.321   4.873 -29.907  1.00  0.00     0.161 HD
BRANCH  11  13
HETATM   13  C2  UNL     1       1.200   3.555 -28.739  1.00  0.00     0.117 C 
HETATM   14  C1  UNL     1       1.177   2.182 -29.380  1.00  0.00     0.026 C 
ENDBRANCH  11  13
ENDBRANCH   7  11
BRANCH  10  15
HETATM   15  N5  UNL     1      -1.471   6.266 -33.842  1.00  0.00    -0.098 N 
BRANCH  15  16
HETATM   16  C7  UNL     1      -2.364   5.433 -34.488  1.00  0.00     0.241 C 
BRANCH  16  17
HETATM   17  O1  UNL     1      -1.813   4.675 -35.419  1.00  0.00    -0.332 OA
ATOM     18  H1  UNL     1      -2.430   4.344 -36.061  1.00  0.00     0.221 HD
ENDBRANCH  16  17
BRANCH  16  19
HETATM   19  N6  UNL     1      -3.734   5.228 -34.363  1.00  0.00    -0.355 N 
HETATM   20  C8  UNL     1      -4.342   3.942 -34.246  1.00  0.00     0.152 C 
HETATM   21  C9  UNL     1      -4.624   6.392 -34.349  1.00  0.00     0.152 C 
ENDBRANCH  16  19
ENDBRANCH  15  16
BRANCH  15  22
HETATM   22  C10 UNL     1      -1.046   7.525 -34.274  1.00  0.00     0.724 A 
HETATM   23  N7  UNL     1       0.083   7.816 -34.999  1.00  0.00    -0.095 N 
HETATM   24  N8  UNL     1       0.165   9.090 -35.267  1.00  0.00    -0.012 N 
ATOM     25  H7  UNL     1       0.771   7.122 -35.291  1.00  0.00     0.208 HD
HETATM   26  C11 UNL     1      -0.920   9.665 -34.716  1.00  0.00     0.727 A 
HETATM   27  N11 UNL     1      -1.646   8.712 -34.118  1.00  0.00    -0.018 N 
ATOM     28  H11 UNL     1      -2.523   8.866 -33.619  1.00  0.00     0.203 HD
BRANCH  24  29
HETATM   29  N9  UNL     1       1.121   9.821 -35.962  1.00  0.00    -0.309 N 
ATOM     30  H92 UNL     1       2.113   9.587 -35.935  1.00  0.00     0.179 HD
ATOM     31  H91 UNL     1       1.035  10.638 -36.567  1.00  0.00     0.179 HD
ENDBRANCH  24  29
BRANCH  26  32
HETATM   32  N10 UNL     1      -1.229  10.928 -34.759  1.00  0.00    -0.231 N 
ATOM     33 2H10 UNL     1      -2.148  11.317 -34.545  1.00  0.00     0.174 HD
ATOM     34 1H10 UNL     1      -0.607  11.694 -35.016  1.00  0.00     0.174 HD
ENDBRANCH  26  32
ENDBRANCH  15  22
ENDBRANCH  10  15
ENDBRANCH   1   5
TORSDOF 10
ENDMDL
MODEL 3
REMARK VINA RESULT: -6.490931242      2.196      5.585
REMARK  10 active torsions:
REMARK  status: ('A' for Active; 'I' for Inactive)
REMARK    1  A    between atoms: C2_2  and  N1_3 
REMARK    2  A    between atoms: N1_3  and  C3_5 
REMARK    3  A    between atoms: C4_8  and  N3_9 
REMARK    4  A    between atoms: C6_13  and  N5_14 
REMARK    5  A    between atoms: N5_14  and  C7_15 
REMARK    6  A    between atoms: N5_14  and  C10_21 
REMARK    7  A    between atoms: C7_15  and  O1_16 
REMARK    8  A    between atoms: C7_15  and  N6_18 
REMARK    9  A    between atoms: N8_24  and  N9_25 
REMARK   10  A    between atoms: C11_28  and  N10_29 
ROOT
HETATM    1  N3  UNL     1      -3.723   7.264 -31.866  1.00  0.00    -0.277 N 
ATOM      2  H3  UNL     1      -4.023   6.348 -31.532  1.00  0.00     0.179 HD
HETATM    3  C5  UNL     1      -4.146   8.378 -31.166  1.00  0.00     0.183 C 
HETATM    4  N4  UNL     1      -4.483   9.298 -30.571  1.00  0.00    -0.172 NA
ENDROOT
BRANCH   1   5
HETATM    5  C4  UNL     1      -2.882   7.314 -33.043  1.00  0.00     0.152 A 
HETATM    6  N2  UNL     1      -2.704   8.437 -33.698  1.00  0.00    -0.320 N 
HETATM    7  C3  UNL     1      -1.954   8.427 -34.796  1.00  0.00     0.148 A 
ATOM      8  H2  UNL     1      -3.132   9.303 -33.371  1.00  0.00     0.169 HD
HETATM    9  S1  UNL     1      -1.475   6.805 -34.931  1.00  0.00    -0.031 SA
HETATM   10  C6  UNL     1      -2.277   6.193 -33.536  1.00  0.00     0.150 A 
BRANCH   7  11
HETATM   11  N1  UNL     1      -1.640   9.377 -35.608  1.00  0.00    -0.371 N 
ATOM     12  H1  UNL     1      -1.622  10.319 -35.219  1.00  0.00     0.161 HD
BRANCH  11  13
HETATM   13  C2  UNL     1      -1.316   9.255 -36.987  1.00  0.00     0.117 C 
HETATM   14  C1  UNL     1       0.151   9.594 -37.146  1.00  0.00     0.026 C 
ENDBRANCH  11  13
ENDBRANCH   7  11
BRANCH  10  15
HETATM   15  N5  UNL     1      -2.278   4.832 -33.032  1.00  0.00    -0.098 N 
BRANCH  15  16
HETATM   16  C7  UNL     1      -3.269   3.968 -33.459  1.00  0.00     0.241 C 
BRANCH  16  17
HETATM   17  O1  UNL     1      -2.823   2.778 -33.821  1.00  0.00    -0.332 OA
ATOM     18  H1  UNL     1      -2.238   2.797 -34.568  1.00  0.00     0.221 HD
ENDBRANCH  16  17
BRANCH  16  19
HETATM   19  N6  UNL     1      -4.647   4.094 -33.591  1.00  0.00    -0.355 N 
HETATM   20  C8  UNL     1      -5.549   4.207 -32.490  1.00  0.00     0.152 C 
HETATM   21  C9  UNL     1      -5.229   4.114 -34.936  1.00  0.00     0.152 C 
ENDBRANCH  16  19
ENDBRANCH  15  16
BRANCH  15  22
HETATM   22  C10 UNL     1      -1.223   4.525 -32.169  1.00  0.00     0.724 A 
HETATM   23  N7  UNL     1      -0.938   3.304 -31.609  1.00  0.00    -0.095 N 
HETATM   24  N8  UNL     1       0.141   3.353 -30.876  1.00  0.00    -0.012 N 
ATOM     25  H7  UNL     1      -1.499   2.464 -31.749  1.00  0.00     0.208 HD
HETATM   26  C11 UNL     1       0.587   4.621 -30.941  1.00  0.00     0.727 A 
HETATM   27  N11 UNL     1      -0.243   5.322 -31.725  1.00  0.00    -0.018 N 
ATOM     28  H11 UNL     1      -0.145   6.313 -31.949  1.00  0.00     0.203 HD
BRANCH  24  29
HETATM   29  N9  UNL     1       0.790   2.375 -30.134  1.00  0.00    -0.309 N 
ATOM     30  H92 UNL     1       1.508   1.772 -30.535  1.00  0.00     0.179 HD
ATOM     31  H91 UNL     1       0.694   2.096 -29.157  1.00  0.00     0.179 HD
ENDBRANCH  24  29
BRANCH  26  32
HETATM   32  N10 UNL     1       1.648   5.096 -30.358  1.00  0.00    -0.231 N 
ATOM     33 2H10 UNL     1       1.864   5.006 -29.365  1.00  0.00     0.174 HD
ATOM     34 1H10 UNL     1       2.397   5.625 -30.804  1.00  0.00     0.174 HD
ENDBRANCH  26  32
ENDBRANCH  15  22
ENDBRANCH  10  15
ENDBRANCH   1   5
TORSDOF 10
ENDMDL
MODEL 4
REMARK VINA RESULT: -6.423480181      2.127      4.495
REMARK  10 active torsions:
REMARK  status: ('A' for Active; 'I' for Inactive)
REMARK    1  A    between atoms: C2_2  and  N1_3 
REMARK    2  A    between atoms: N1_3  and  C3_5 
REMARK    3  A    between atoms: C4_8  and  N3_9 
REMARK    4  A    between atoms: C6_13  and  N5_14 
REMARK    5  A    between atoms: N5_14  and  C7_15 
REMARK    6  A    between atoms: N5_14  and  C10_21 
REMARK    7  A    between atoms: C7_15  and  O1_16 
REMARK    8  A    between atoms: C7_15  and  N6_18 
REMARK    9  A    between atoms: N8_24  and  N9_25 
REMARK   10  A    between atoms: C11_28  and  N10_29 
ROOT
HETATM    1  N3  UNL     1      -3.126   3.848 -34.223  1.00  0.00    -0.277 N 
ATOM      2  H3  UNL     1      -2.224   3.920 -34.695  1.00  0.00     0.179 HD
HETATM    3  C5  UNL     1      -4.189   3.330 -34.937  1.00  0.00     0.183 C 
HETATM    4  N4  UNL     1      -5.063   2.882 -35.527  1.00  0.00    -0.172 NA
ENDROOT
BRANCH   1   5
HETATM    5  C4  UNL     1      -3.210   4.297 -32.849  1.00  0.00     0.152 A 
HETATM    6  N2  UNL     1      -4.322   4.169 -32.164  1.00  0.00    -0.320 N 
HETATM    7  C3  UNL     1      -4.364   4.632 -30.918  1.00  0.00     0.148 A 
ATOM      8  H2  UNL     1      -5.140   3.724 -32.580  1.00  0.00     0.169 HD
HETATM    9  S1  UNL     1      -2.809   5.266 -30.681  1.00  0.00    -0.031 SA
HETATM   10  C6  UNL     1      -2.154   4.902 -32.230  1.00  0.00     0.150 A 
BRANCH   7  11
HETATM   11  N1  UNL     1      -5.322   4.636 -30.056  1.00  0.00    -0.371 N 
ATOM     12  H1  UNL     1      -5.952   5.438 -30.081  1.00  0.00     0.161 HD
BRANCH  11  13
HETATM   13  C2  UNL     1      -5.596   3.645 -29.074  1.00  0.00     0.117 C 
HETATM   14  C1  UNL     1      -6.984   3.912 -28.527  1.00  0.00     0.026 C 
ENDBRANCH  11  13
ENDBRANCH   7  11
BRANCH  10  15
HETATM   15  N5  UNL     1      -0.812   5.168 -32.717  1.00  0.00    -0.098 N 
BRANCH  15  16
HETATM   16  C7  UNL     1       0.197   4.281 -32.394  1.00  0.00     0.241 C 
BRANCH  16  17
HETATM   17  O1  UNL     1       0.916   3.886 -33.430  1.00  0.00    -0.332 OA
ATOM     18  H1  UNL     1       0.723   4.354 -34.233  1.00  0.00     0.221 HD
ENDBRANCH  16  17
BRANCH  16  19
HETATM   19  N6  UNL     1       0.615   3.711 -31.197  1.00  0.00    -0.355 N 
HETATM   20  C8  UNL     1       0.265   2.393 -30.773  1.00  0.00     0.152 C 
HETATM   21  C9  UNL     1       1.468   4.497 -30.300  1.00  0.00     0.152 C 
ENDBRANCH  16  19
ENDBRANCH  15  16
BRANCH  15  22
HETATM   22  C10 UNL     1      -0.692   6.310 -33.513  1.00  0.00     0.724 A 
HETATM   23  N7  UNL     1      -1.456   7.448 -33.450  1.00  0.00    -0.095 N 
HETATM   24  N8  UNL     1      -1.058   8.342 -34.314  1.00  0.00    -0.012 N 
ATOM     25  H7  UNL     1      -2.239   7.579 -32.809  1.00  0.00     0.208 HD
HETATM   26  C11 UNL     1      -0.013   7.800 -34.966  1.00  0.00     0.727 A 
HETATM   27  N11 UNL     1       0.201   6.572 -34.475  1.00  0.00    -0.018 N 
ATOM     28  H11 UNL     1       0.933   5.933 -34.788  1.00  0.00     0.203 HD
BRANCH  24  29
HETATM   29  N9  UNL     1      -1.530   9.617 -34.598  1.00  0.00    -0.309 N 
ATOM     30  H92 UNL     1      -1.671   9.947 -35.552  1.00  0.00     0.179 HD
ATOM     31  H91 UNL     1      -1.800  10.387 -33.985  1.00  0.00     0.179 HD
ENDBRANCH  24  29
BRANCH  26  32
HETATM   32  N10 UNL     1       0.686   8.364 -35.906  1.00  0.00    -0.231 N 
ATOM     33 2H10 UNL     1       0.300   8.855 -36.713  1.00  0.00     0.174 HD
ATOM     34 1H10 UNL     1       1.704   8.388 -35.972  1.00  0.00     0.174 HD
ENDBRANCH  26  32
ENDBRANCH  15  22
ENDBRANCH  10  15
ENDBRANCH   1   5
TORSDOF 10
ENDMDL
MODEL 5
REMARK VINA RESULT: -6.376168358      1.758      3.073
REMARK  10 active torsions:
REMARK  status: ('A' for Active; 'I' for Inactive)
REMARK    1  A    between atoms: C2_2  and  N1_3 
REMARK    2  A    between atoms: N1_3  and  C3_5 
REMARK    3  A    between atoms: C4_8  and  N3_9 
REMARK    4  A    between atoms: C6_13  and  N5_14 
REMARK    5  A    between atoms: N5_14  and  C7_15 
REMARK    6  A    between atoms: N5_14  and  C10_21 
REMARK    7  A    between atoms: C7_15  and  O1_16 
REMARK    8  A    between atoms: C7_15  and  N6_18 
REMARK    9  A    between atoms: N8_24  and  N9_25 
REMARK   10  A    between atoms: C11_28  and  N10_29 
ROOT
HETATM    1  N3  UNL     1       0.490   5.400 -34.475  1.00  0.00    -0.277 N 
ATOM      2  H3  UNL     1       0.564   4.551 -35.036  1.00  0.00     0.179 HD
HETATM    3  C5  UNL     1       0.811   6.602 -35.076  1.00  0.00     0.183 C 
HETATM    4  N4  UNL     1       1.061   7.598 -35.584  1.00  0.00    -0.172 NA
ENDROOT
BRANCH   1   5
HETATM    5  C4  UNL     1       0.057   5.268 -33.100  1.00  0.00     0.152 A 
HETATM    6  N2  UNL     1       0.918   5.024 -32.141  1.00  0.00    -0.320 N 
HETATM    7  C3  UNL     1       0.468   4.872 -30.899  1.00  0.00     0.148 A 
ATOM      8  H2  UNL     1       1.915   4.952 -32.344  1.00  0.00     0.169 HD
HETATM    9  S1  UNL     1      -1.208   5.073 -31.059  1.00  0.00    -0.031 SA
HETATM   10  C6  UNL     1      -1.262   5.353 -32.757  1.00  0.00     0.150 A 
BRANCH   7  11
HETATM   11  N1  UNL     1       1.098   4.620 -29.803  1.00  0.00    -0.371 N 
ATOM     12  H1  UNL     1       2.014   5.054 -29.695  1.00  0.00     0.161 HD
BRANCH  11  13
HETATM   13  C2  UNL     1       0.653   3.803 -28.727  1.00  0.00     0.117 C 
HETATM   14  C1  UNL     1       1.858   3.481 -27.867  1.00  0.00     0.026 C 
ENDBRANCH  11  13
ENDBRANCH   7  11
BRANCH  10  15
HETATM   15  N5  UNL     1      -2.428   5.622 -33.580  1.00  0.00    -0.098 N 
BRANCH  15  16
HETATM   16  C7  UNL     1      -3.380   4.631 -33.723  1.00  0.00     0.241 C 
BRANCH  16  17
HETATM   17  O1  UNL     1      -2.878   3.438 -33.987  1.00  0.00    -0.332 OA
ATOM     18  H1  UNL     1      -2.981   3.168 -34.891  1.00  0.00     0.221 HD
ENDBRANCH  16  17
BRANCH  16  19
HETATM   19  N6  UNL     1      -4.769   4.629 -33.649  1.00  0.00    -0.355 N 
HETATM   20  C8  UNL     1      -5.629   4.910 -34.754  1.00  0.00     0.152 C 
HETATM   21  C9  UNL     1      -5.407   4.322 -32.366  1.00  0.00     0.152 C 
ENDBRANCH  16  19
ENDBRANCH  15  16
BRANCH  15  22
HETATM   22  C10 UNL     1      -2.476   6.907 -34.128  1.00  0.00     0.724 A 
HETATM   23  N7  UNL     1      -2.223   8.092 -33.484  1.00  0.00    -0.095 N 
HETATM   24  N8  UNL     1      -2.323   9.109 -34.296  1.00  0.00    -0.012 N 
ATOM     25  H7  UNL     1      -1.986   8.168 -32.495  1.00  0.00     0.208 HD
HETATM   26  C11 UNL     1      -2.648   8.603 -35.500  1.00  0.00     0.727 A 
HETATM   27  N11 UNL     1      -2.739   7.271 -35.389  1.00  0.00    -0.018 N 
ATOM     28  H11 UNL     1      -2.973   6.633 -36.149  1.00  0.00     0.203 HD
BRANCH  24  29
HETATM   29  N9  UNL     1      -2.156  10.472 -34.083  1.00  0.00    -0.309 N 
ATOM     30  H92 UNL     1      -1.729  10.843 -33.234  1.00  0.00     0.179 HD
ATOM     31  H91 UNL     1      -2.394  11.277 -34.661  1.00  0.00     0.179 HD
ENDBRANCH  24  29
BRANCH  26  32
HETATM   32  N10 UNL     1      -2.834   9.280 -36.595  1.00  0.00    -0.231 N 
ATOM     33 2H10 UNL     1      -2.147   9.394 -37.340  1.00  0.00     0.174 HD
ATOM     34 1H10 UNL     1      -3.679   9.789 -36.854  1.00  0.00     0.174 HD
ENDBRANCH  26  32
ENDBRANCH  15  22
ENDBRANCH  10  15
ENDBRANCH   1   5
TORSDOF 10
ENDMDL
