MODEL 1
REMARK VINA RESULT: -9.636193811      0.000      0.000
REMARK  7 active torsions:
REMARK  status: ('A' for Active; 'I' for Inactive)
REMARK    1  A    between atoms: C2_3  and  C9_17 
REMARK    2  A    between atoms: N2_4  and  N3_6 
REMARK    3  A    between atoms: N3_6  and  C3_8 
REMARK    4  A    between atoms: C8_13  and  N4_14 
REMARK       I    between atoms: C9_17  and  N5_19 
REMARK    5  A    between atoms: N5_19  and  N6_20 
REMARK    6  A    between atoms: N6_20  and  C10_22 
REMARK    7  A    between atoms: C12_26  and  O4_27 
ROOT
HETATM    1  N1  UNL     1      -5.050   9.004 -37.938  1.00  0.00    -0.190 NA
HETATM    2  C1  UNL     1      -5.319  10.096 -37.681  1.00  0.00     0.126 C 
HETATM    3  C2  UNL     1      -5.687  11.475 -37.331  1.00  0.00     0.213 C 
HETATM    4  N2  UNL     1      -6.439  12.064 -38.084  1.00  0.00    -0.285 N 
ATOM      5  H2  UNL     1      -6.663  11.422 -38.844  1.00  0.00     0.188 HD
ENDROOT
BRANCH   3   6
HETATM    6  C9  UNL     1      -5.073  11.957 -36.062  1.00  0.00     0.374 C 
HETATM    7  O3  UNL     1      -5.450  13.080 -35.621  1.00  0.00    -0.247 OA
HETATM    8  N5  UNL     1      -4.129  11.149 -35.450  1.00  0.00    -0.264 NA
BRANCH   8   9
HETATM    9  N6  UNL     1      -3.243  10.395 -34.874  1.00  0.00    -0.062 N 
ATOM     10  H6  UNL     1      -3.538   9.872 -34.050  1.00  0.00     0.221 HD
BRANCH   9  11
HETATM   11  C10 UNL     1      -1.885  10.236 -35.301  1.00  0.00     0.699 C 
HETATM   12  N7  UNL     1      -0.929  10.865 -34.720  1.00  0.00    -0.222 N 
HETATM   13  C11 UNL     1       0.458  10.793 -35.049  1.00  0.00     0.171 C 
ATOM     14  H7  UNL     1      -1.186  11.477 -33.946  1.00  0.00     0.177 HD
HETATM   15  C12 UNL     1       0.755   9.536 -35.858  1.00  0.00     0.154 C 
HETATM   16  C13 UNL     1      -0.266   9.513 -36.998  1.00  0.00     0.171 C 
HETATM   17  N8  UNL     1      -1.550   9.363 -36.356  1.00  0.00    -0.222 N 
ATOM     18  H8  UNL     1      -2.202   8.639 -36.659  1.00  0.00     0.177 HD
BRANCH  15  19
HETATM   19  O4  UNL     1       2.046   9.505 -36.364  1.00  0.00    -0.392 OA
ATOM     20  H4  UNL     1       2.268   8.675 -36.767  1.00  0.00     0.210 HD
ENDBRANCH  15  19
ENDBRANCH   9  11
ENDBRANCH   8   9
ENDBRANCH   3   6
BRANCH   4  21
HETATM   21  N3  UNL     1      -7.088  13.194 -38.327  1.00  0.00    -0.297 N 
ATOM     22  H3  UNL     1      -6.757  14.085 -37.959  1.00  0.00     0.187 HD
BRANCH  21  23
HETATM   23  C3  UNL     1      -8.298  13.111 -39.143  1.00  0.00     0.081 A 
HETATM   24  C4  UNL     1      -8.390  13.831 -40.318  1.00  0.00     0.033 A 
HETATM   25  C5  UNL     1      -9.534  13.753 -41.103  1.00  0.00     0.002 A 
HETATM   26  C6  UNL     1     -10.537  12.950 -40.660  1.00  0.00     0.003 A 
HETATM   27  C7  UNL     1     -10.460  12.224 -39.485  1.00  0.00     0.038 A 
HETATM   28  C8  UNL     1      -9.302  12.298 -38.682  1.00  0.00     0.130 A 
BRANCH  28  29
HETATM   29  N4  UNL     1      -9.274  11.548 -37.480  1.00  0.00    -0.113 N 
HETATM   30  O1  UNL     1      -9.546  12.116 -36.414  1.00  0.00    -0.532 OA
HETATM   31  O2  UNL     1      -8.967  10.230 -37.494  1.00  0.00    -0.532 OA
ENDBRANCH  28  29
ENDBRANCH  21  23
ENDBRANCH   4  21
TORSDOF 7
ENDMDL
MODEL 2
REMARK VINA RESULT: -9.357923701      3.765      6.229
REMARK  7 active torsions:
REMARK  status: ('A' for Active; 'I' for Inactive)
REMARK    1  A    between atoms: C2_3  and  C9_17 
REMARK    2  A    between atoms: N2_4  and  N3_6 
REMARK    3  A    between atoms: N3_6  and  C3_8 
REMARK    4  A    between atoms: C8_13  and  N4_14 
REMARK       I    between atoms: C9_17  and  N5_19 
REMARK    5  A    between atoms: N5_19  and  N6_20 
REMARK    6  A    between atoms: N6_20  and  C10_22 
REMARK    7  A    between atoms: C12_26  and  O4_27 
ROOT
HETATM    1  N1  UNL     1      -5.531   9.314 -38.241  1.00  0.00    -0.190 NA
HETATM    2  C1  UNL     1      -6.087  10.264 -37.894  1.00  0.00     0.126 C 
HETATM    3  C2  UNL     1      -6.826  11.457 -37.458  1.00  0.00     0.213 C 
HETATM    4  N2  UNL     1      -7.016  12.333 -38.281  1.00  0.00    -0.285 N 
ATOM      5  H2  UNL     1      -6.590  12.020 -39.153  1.00  0.00     0.188 HD
ENDROOT
BRANCH   3   6
HETATM    6  C9  UNL     1      -7.254  11.410 -36.031  1.00  0.00     0.374 C 
HETATM    7  O3  UNL     1      -6.392  11.700 -35.154  1.00  0.00    -0.247 OA
HETATM    8  N5  UNL     1      -8.563  11.049 -35.759  1.00  0.00    -0.264 NA
BRANCH   8   9
HETATM    9  N6  UNL     1      -9.789  10.710 -35.499  1.00  0.00    -0.062 N 
ATOM     10  H6  UNL     1     -10.502  11.435 -35.579  1.00  0.00     0.221 HD
BRANCH   9  11
HETATM   11  C10 UNL     1     -10.223   9.402 -35.111  1.00  0.00     0.699 C 
HETATM   12  N7  UNL     1      -9.765   8.837 -34.053  1.00  0.00    -0.222 N 
HETATM   13  C11 UNL     1     -10.116   7.544 -33.562  1.00  0.00     0.171 C 
ATOM     14  H7  UNL     1      -9.083   9.365 -33.510  1.00  0.00     0.177 HD
HETATM   15  C12 UNL     1     -11.440   7.081 -34.158  1.00  0.00     0.154 C 
HETATM   16  C13 UNL     1     -11.316   7.276 -35.671  1.00  0.00     0.171 C 
HETATM   17  N8  UNL     1     -11.189   8.701 -35.862  1.00  0.00    -0.222 N 
ATOM     18  H8  UNL     1     -11.787   9.192 -36.528  1.00  0.00     0.177 HD
BRANCH  15  19
HETATM   19  O4  UNL     1     -11.739   5.760 -33.863  1.00  0.00    -0.392 OA
ATOM     20  H4  UNL     1     -12.672   5.582 -33.851  1.00  0.00     0.210 HD
ENDBRANCH  15  19
ENDBRANCH   9  11
ENDBRANCH   8   9
ENDBRANCH   3   6
BRANCH   4  21
HETATM   21  N3  UNL     1      -7.546  13.525 -38.515  1.00  0.00    -0.297 N 
ATOM     22  H3  UNL     1      -7.308  14.333 -37.940  1.00  0.00     0.187 HD
BRANCH  21  23
HETATM   23  C3  UNL     1      -8.486  13.634 -39.627  1.00  0.00     0.081 A 
HETATM   24  C4  UNL     1      -8.058  14.111 -40.851  1.00  0.00     0.033 A 
HETATM   25  C5  UNL     1      -8.943  14.213 -41.917  1.00  0.00     0.002 A 
HETATM   26  C6  UNL     1     -10.228  13.829 -41.694  1.00  0.00     0.003 A 
HETATM   27  C7  UNL     1     -10.673  13.352 -40.475  1.00  0.00     0.038 A 
HETATM   28  C8  UNL     1      -9.779  13.246 -39.388  1.00  0.00     0.130 A 
BRANCH  28  29
HETATM   29  N4  UNL     1     -10.284  12.765 -38.153  1.00  0.00    -0.113 N 
HETATM   30  O1  UNL     1     -10.979  11.741 -38.149  1.00  0.00    -0.532 OA
HETATM   31  O2  UNL     1     -10.001  13.406 -36.995  1.00  0.00    -0.532 OA
ENDBRANCH  28  29
ENDBRANCH  21  23
ENDBRANCH   4  21
TORSDOF 7
ENDMDL
MODEL 3
REMARK VINA RESULT: -9.150758491      1.948      2.891
REMARK  7 active torsions:
REMARK  status: ('A' for Active; 'I' for Inactive)
REMARK    1  A    between atoms: C2_3  and  C9_17 
REMARK    2  A    between atoms: N2_4  and  N3_6 
REMARK    3  A    between atoms: N3_6  and  C3_8 
REMARK    4  A    between atoms: C8_13  and  N4_14 
REMARK       I    between atoms: C9_17  and  N5_19 
REMARK    5  A    between atoms: N5_19  and  N6_20 
REMARK    6  A    between atoms: N6_20  and  C10_22 
REMARK    7  A    between atoms: C12_26  and  O4_27 
ROOT
HETATM    1  N1  UNL     1      -4.737  12.961 -36.632  1.00  0.00    -0.190 NA
HETATM    2  C1  UNL     1      -5.763  12.631 -37.045  1.00  0.00     0.126 C 
HETATM    3  C2  UNL     1      -7.055  12.210 -37.603  1.00  0.00     0.213 C 
HETATM    4  N2  UNL     1      -7.878  13.076 -37.831  1.00  0.00    -0.285 N 
ATOM      5  H2  UNL     1      -7.455  13.965 -37.565  1.00  0.00     0.188 HD
ENDROOT
BRANCH   3   6
HETATM    6  C9  UNL     1      -7.164  10.740 -37.824  1.00  0.00     0.374 C 
HETATM    7  O3  UNL     1      -8.325  10.248 -37.911  1.00  0.00    -0.247 OA
HETATM    8  N5  UNL     1      -5.991  10.010 -37.915  1.00  0.00    -0.264 NA
BRANCH   8   9
HETATM    9  N6  UNL     1      -4.894   9.320 -37.999  1.00  0.00    -0.062 N 
ATOM     10  H6  UNL     1      -4.821   8.648 -38.763  1.00  0.00     0.221 HD
BRANCH   9  11
HETATM   11  C10 UNL     1      -3.777   9.426 -37.109  1.00  0.00     0.699 C 
HETATM   12  N7  UNL     1      -3.904   9.950 -35.944  1.00  0.00    -0.222 N 
HETATM   13  C11 UNL     1      -2.873  10.113 -34.970  1.00  0.00     0.171 C 
ATOM     14  H7  UNL     1      -4.833  10.283 -35.690  1.00  0.00     0.177 HD
HETATM   15  C12 UNL     1      -1.704   9.180 -35.261  1.00  0.00     0.154 C 
HETATM   16  C13 UNL     1      -1.351   9.388 -36.737  1.00  0.00     0.171 C 
HETATM   17  N8  UNL     1      -2.506   8.933 -37.472  1.00  0.00    -0.222 N 
ATOM     18  H8  UNL     1      -2.406   8.268 -38.239  1.00  0.00     0.177 HD
BRANCH  15  19
HETATM   19  O4  UNL     1      -0.599   9.424 -34.460  1.00  0.00    -0.392 OA
ATOM     20  H4  UNL     1       0.214   9.475 -34.951  1.00  0.00     0.210 HD
ENDBRANCH  15  19
ENDBRANCH   9  11
ENDBRANCH   8   9
ENDBRANCH   3   6
BRANCH   4  21
HETATM   21  N3  UNL     1      -9.096  13.345 -38.280  1.00  0.00    -0.297 N 
ATOM     22  H3  UNL     1      -9.912  13.279 -37.672  1.00  0.00     0.187 HD
BRANCH  21  23
HETATM   23  C3  UNL     1      -9.222  13.738 -39.682  1.00  0.00     0.081 A 
HETATM   24  C4  UNL     1      -8.327  14.636 -40.231  1.00  0.00     0.033 A 
HETATM   25  C5  UNL     1      -8.436  15.011 -41.565  1.00  0.00     0.002 A 
HETATM   26  C6  UNL     1      -9.450  14.461 -42.283  1.00  0.00     0.003 A 
HETATM   27  C7  UNL     1     -10.355  13.564 -41.747  1.00  0.00     0.038 A 
HETATM   28  C8  UNL     1     -10.251  13.178 -40.393  1.00  0.00     0.130 A 
BRANCH  28  29
HETATM   29  N4  UNL     1     -11.209  12.266 -39.883  1.00  0.00    -0.113 N 
HETATM   30  O1  UNL     1     -11.526  11.285 -40.569  1.00  0.00    -0.532 OA
HETATM   31  O2  UNL     1     -11.761  12.454 -38.662  1.00  0.00    -0.532 OA
ENDBRANCH  28  29
ENDBRANCH  21  23
ENDBRANCH   4  21
TORSDOF 7
ENDMDL
MODEL 4
REMARK VINA RESULT: -9.146744831      1.929      2.542
REMARK  7 active torsions:
REMARK  status: ('A' for Active; 'I' for Inactive)
REMARK    1  A    between atoms: C2_3  and  C9_17 
REMARK    2  A    between atoms: N2_4  and  N3_6 
REMARK    3  A    between atoms: N3_6  and  C3_8 
REMARK    4  A    between atoms: C8_13  and  N4_14 
REMARK       I    between atoms: C9_17  and  N5_19 
REMARK    5  A    between atoms: N5_19  and  N6_20 
REMARK    6  A    between atoms: N6_20  and  C10_22 
REMARK    7  A    between atoms: C12_26  and  O4_27 
ROOT
HETATM    1  N1  UNL     1      -5.199   9.161 -37.761  1.00  0.00    -0.190 NA
HETATM    2  C1  UNL     1      -5.481  10.274 -37.651  1.00  0.00     0.126 C 
HETATM    3  C2  UNL     1      -5.866  11.683 -37.487  1.00  0.00     0.213 C 
HETATM    4  N2  UNL     1      -6.616  12.161 -38.318  1.00  0.00    -0.285 N 
ATOM      5  H2  UNL     1      -6.824  11.423 -38.990  1.00  0.00     0.188 HD
ENDROOT
BRANCH   3   6
HETATM    6  C9  UNL     1      -5.272  12.333 -36.285  1.00  0.00     0.374 C 
HETATM    7  O3  UNL     1      -5.657  13.504 -36.005  1.00  0.00    -0.247 OA
HETATM    8  N5  UNL     1      -4.335  11.617 -35.558  1.00  0.00    -0.264 NA
BRANCH   8   9
HETATM    9  N6  UNL     1      -3.456  10.951 -34.874  1.00  0.00    -0.062 N 
ATOM     10  H6  UNL     1      -3.652  10.797 -33.885  1.00  0.00     0.221 HD
BRANCH   9  11
HETATM   11  C10 UNL     1      -2.234  10.414 -35.393  1.00  0.00     0.699 C 
HETATM   12  N7  UNL     1      -2.235   9.609 -36.392  1.00  0.00    -0.222 N 
HETATM   13  C11 UNL     1      -1.091   9.008 -36.999  1.00  0.00     0.171 C 
ATOM     14  H7  UNL     1      -3.143   9.376 -36.793  1.00  0.00     0.177 HD
HETATM   15  C12 UNL     1       0.175   9.778 -36.643  1.00  0.00     0.154 C 
HETATM   16  C13 UNL     1       0.160   9.942 -35.121  1.00  0.00     0.171 C 
HETATM   17  N8  UNL     1      -0.987  10.772 -34.839  1.00  0.00    -0.222 N 
ATOM     18  H8  UNL     1      -0.898  11.601 -34.252  1.00  0.00     0.177 HD
BRANCH  15  19
HETATM   19  O4  UNL     1       1.335   9.138 -37.049  1.00  0.00    -0.392 OA
ATOM     20  H4  UNL     1       2.109   9.440 -36.588  1.00  0.00     0.210 HD
ENDBRANCH  15  19
ENDBRANCH   9  11
ENDBRANCH   8   9
ENDBRANCH   3   6
BRANCH   4  21
HETATM   21  N3  UNL     1      -7.273  13.242 -38.713  1.00  0.00    -0.297 N 
ATOM     22  H3  UNL     1      -6.860  14.171 -38.634  1.00  0.00     0.187 HD
BRANCH  21  23
HETATM   23  C3  UNL     1      -8.611  13.049 -39.266  1.00  0.00     0.081 A 
HETATM   24  C4  UNL     1      -9.531  12.267 -38.595  1.00  0.00     0.033 A 
HETATM   25  C5  UNL     1     -10.808  12.082 -39.110  1.00  0.00     0.002 A 
HETATM   26  C6  UNL     1     -11.096  12.698 -40.287  1.00  0.00     0.003 A 
HETATM   27  C7  UNL     1     -10.187  13.482 -40.972  1.00  0.00     0.038 A 
HETATM   28  C8  UNL     1      -8.887  13.674 -40.455  1.00  0.00     0.130 A 
BRANCH  28  29
HETATM   29  N4  UNL     1      -7.984  14.474 -41.198  1.00  0.00    -0.113 N 
HETATM   30  O1  UNL     1      -7.119  13.918 -41.887  1.00  0.00    -0.532 OA
HETATM   31  O2  UNL     1      -8.071  15.825 -41.168  1.00  0.00    -0.532 OA
ENDBRANCH  28  29
ENDBRANCH  21  23
ENDBRANCH   4  21
TORSDOF 7
ENDMDL
MODEL 5
REMARK VINA RESULT: -9.124110615      1.746      2.220
REMARK  7 active torsions:
REMARK  status: ('A' for Active; 'I' for Inactive)
REMARK    1  A    between atoms: C2_3  and  C9_17 
REMARK    2  A    between atoms: N2_4  and  N3_6 
REMARK    3  A    between atoms: N3_6  and  C3_8 
REMARK    4  A    between atoms: C8_13  and  N4_14 
REMARK       I    between atoms: C9_17  and  N5_19 
REMARK    5  A    between atoms: N5_19  and  N6_20 
REMARK    6  A    between atoms: N6_20  and  C10_22 
REMARK    7  A    between atoms: C12_26  and  O4_27 
ROOT
HETATM    1  N1  UNL     1      -4.482   9.193 -37.820  1.00  0.00    -0.190 NA
HETATM    2  C1  UNL     1      -4.892  10.245 -37.584  1.00  0.00     0.126 C 
HETATM    3  C2  UNL     1      -5.439  11.571 -37.263  1.00  0.00     0.213 C 
HETATM    4  N2  UNL     1      -6.215  12.066 -38.059  1.00  0.00    -0.285 N 
ATOM      5  H2  UNL     1      -6.321  11.402 -38.825  1.00  0.00     0.188 HD
ENDROOT
BRANCH   3   6
HETATM    6  C9  UNL     1      -4.955  12.123 -35.967  1.00  0.00     0.374 C 
HETATM    7  O3  UNL     1      -5.462  13.210 -35.570  1.00  0.00    -0.247 OA
HETATM    8  N5  UNL     1      -3.981  11.414 -35.284  1.00  0.00    -0.264 NA
BRANCH   8   9
HETATM    9  N6  UNL     1      -3.066  10.753 -34.641  1.00  0.00    -0.062 N 
ATOM     10  H6  UNL     1      -3.300  10.423 -33.705  1.00  0.00     0.221 HD
BRANCH   9  11
HETATM   11  C10 UNL     1      -1.758  10.450 -35.137  1.00  0.00     0.699 C 
HETATM   12  N7  UNL     1      -0.716  11.021 -34.653  1.00  0.00    -0.222 N 
HETATM   13  C11 UNL     1       0.636  10.807 -35.059  1.00  0.00     0.171 C 
ATOM     14  H7  UNL     1      -0.868  11.695 -33.903  1.00  0.00     0.177 HD
HETATM   15  C12 UNL     1       0.771   9.487 -35.808  1.00  0.00     0.154 C 
HETATM   16  C13 UNL     1      -0.320   9.494 -36.882  1.00  0.00     0.171 C 
HETATM   17  N8  UNL     1      -1.568   9.494 -36.157  1.00  0.00    -0.222 N 
ATOM     18  H8  UNL     1      -2.298   8.817 -36.377  1.00  0.00     0.177 HD
BRANCH  15  19
HETATM   19  O4  UNL     1       2.018   9.313 -36.387  1.00  0.00    -0.392 OA
ATOM     20  H4  UNL     1       2.086   9.700 -37.252  1.00  0.00     0.210 HD
ENDBRANCH  15  19
ENDBRANCH   9  11
ENDBRANCH   8   9
ENDBRANCH   3   6
BRANCH   4  21
HETATM   21  N3  UNL     1      -6.980  13.111 -38.343  1.00  0.00    -0.297 N 
ATOM     22  H3  UNL     1      -6.601  14.057 -38.355  1.00  0.00     0.187 HD
BRANCH  21  23
HETATM   23  C3  UNL     1      -8.387  12.851 -38.638  1.00  0.00     0.081 A 
HETATM   24  C4  UNL     1      -9.135  12.051 -37.796  1.00  0.00     0.033 A 
HETATM   25  C5  UNL     1     -10.475  11.804 -38.066  1.00  0.00     0.002 A 
HETATM   26  C6  UNL     1     -10.999  12.378 -39.180  1.00  0.00     0.003 A 
HETATM   27  C7  UNL     1     -10.264  13.179 -40.035  1.00  0.00     0.038 A 
HETATM   28  C8  UNL     1      -8.902  13.435 -39.768  1.00  0.00     0.130 A 
BRANCH  28  29
HETATM   29  N4  UNL     1      -8.185  14.250 -40.678  1.00  0.00    -0.113 N 
HETATM   30  O1  UNL     1      -7.672  13.725 -41.675  1.00  0.00    -0.532 OA
HETATM   31  O2  UNL     1      -8.071  15.583 -40.472  1.00  0.00    -0.532 OA
ENDBRANCH  28  29
ENDBRANCH  21  23
ENDBRANCH   4  21
TORSDOF 7
ENDMDL
