MODEL 1
REMARK VINA RESULT: -8.809105931      0.000      0.000
REMARK  6 active torsions:
REMARK  status: ('A' for Active; 'I' for Inactive)
REMARK    1  A    between atoms: N1_4  and  C4_5 
REMARK    2  A    between atoms: C4_5  and  C5_6 
REMARK    3  A    between atoms: C8_19  and  N7_20 
REMARK    4  A    between atoms: N7_20  and  C9_22 
REMARK    5  A    between atoms: C9_22  and  C10_23 
REMARK    6  A    between atoms: C11_24  and  O1_25 
ROOT
HETATM    1  C1  UNL     1      -7.404  10.484 -34.745  1.00  0.00     0.054 C 
HETATM    2  C2  UNL     1      -8.749  10.013 -35.115  1.00  0.00     0.001 A 
HETATM    3  C3  UNL     1      -9.549   9.138 -34.416  1.00  0.00     0.121 A 
HETATM    4  N1  UNL     1     -10.703   8.964 -35.090  1.00  0.00    -0.294 N 
HETATM    5  N6  UNL     1     -10.643   9.698 -36.180  1.00  0.00    -0.283 N 
ATOM      6  H6  UNL     1     -11.383   9.759 -36.880  1.00  0.00     0.189 HD
HETATM    7  C8  UNL     1      -9.473  10.359 -36.246  1.00  0.00     0.127 A 
ENDROOT
BRANCH   7   8
HETATM    8  N7  UNL     1      -9.011  11.253 -37.255  1.00  0.00    -0.350 N 
ATOM      9  H7  UNL     1      -8.205  10.983 -37.818  1.00  0.00     0.166 HD
BRANCH   8  10
HETATM   10  C9  UNL     1      -9.570  12.381 -37.481  1.00  0.00     0.111 C 
BRANCH  10  11
HETATM   11  C10 UNL     1      -9.623  12.876 -38.850  1.00  0.00     0.098 A 
HETATM   12  C11 UNL     1     -10.805  12.888 -39.559  1.00  0.00     0.161 A 
HETATM   13  N8  UNL     1     -10.817  13.357 -40.832  1.00  0.00    -0.288 N 
HETATM   14  C12 UNL     1      -9.709  13.816 -41.440  1.00  0.00     0.329 A 
ATOM     15  H8  UNL     1     -11.698  13.361 -41.347  1.00  0.00     0.172 HD
HETATM   16  O2  UNL     1      -9.796  14.238 -42.629  1.00  0.00    -0.247 OA
HETATM   17  N9  UNL     1      -8.564  13.806 -40.755  1.00  0.00    -0.275 N 
HETATM   18  C13 UNL     1      -8.497  13.352 -39.491  1.00  0.00     0.265 A 
ATOM     19  H9  UNL     1      -7.715  14.153 -41.204  1.00  0.00     0.173 HD
HETATM   20  O3  UNL     1      -7.425  13.338 -38.836  1.00  0.00    -0.267 OA
BRANCH  12  21
HETATM   21  O1  UNL     1     -11.994  12.428 -38.999  1.00  0.00    -0.345 OA
ATOM     22  H1  UNL     1     -12.090  11.529 -38.706  1.00  0.00     0.219 HD
ENDBRANCH  12  21
ENDBRANCH  10  11
ENDBRANCH   8  10
ENDBRANCH   7   8
BRANCH   4  23
HETATM   23  C4  UNL     1     -11.835   8.143 -34.743  1.00  0.00     0.226 C 
BRANCH  23  24
HETATM   24  C5  UNL     1     -11.499   6.701 -34.663  1.00  0.00     0.134 A 
HETATM   25  N2  UNL     1     -10.824   5.917 -35.496  1.00  0.00    -0.273 N 
HETATM   26  N3  UNL     1     -10.762   4.696 -35.031  1.00  0.00    -0.131 N 
ATOM     27  H2  UNL     1     -10.412   6.224 -36.377  1.00  0.00     0.189 HD
HETATM   28  C6  UNL     1     -11.412   4.681 -33.864  1.00  0.00     0.693 A 
ATOM     29  H3  UNL     1     -10.302   3.902 -35.476  1.00  0.00     0.205 HD
HETATM   30  N4  UNL     1     -11.572   3.639 -33.087  1.00  0.00    -0.233 N 
HETATM   31  N5  UNL     1     -11.872   5.924 -33.631  1.00  0.00    -0.172 N 
ATOM     32  H42 UNL     1     -11.223   2.697 -33.264  1.00  0.00     0.174 HD
ATOM     33  H41 UNL     1     -12.068   3.628 -32.195  1.00  0.00     0.174 HD
HETATM   34  C7  UNL     1     -12.627   6.261 -32.440  1.00  0.00     0.177 C 
ENDBRANCH  23  24
ENDBRANCH   4  23
TORSDOF 6
ENDMDL
MODEL 2
REMARK VINA RESULT: -8.422017903      6.097      9.165
REMARK  6 active torsions:
REMARK  status: ('A' for Active; 'I' for Inactive)
REMARK    1  A    between atoms: N1_4  and  C4_5 
REMARK    2  A    between atoms: C4_5  and  C5_6 
REMARK    3  A    between atoms: C8_19  and  N7_20 
REMARK    4  A    between atoms: N7_20  and  C9_22 
REMARK    5  A    between atoms: C9_22  and  C10_23 
REMARK    6  A    between atoms: C11_24  and  O1_25 
ROOT
HETATM    1  C1  UNL     1      -4.519  13.113 -36.037  1.00  0.00     0.054 C 
HETATM    2  C2  UNL     1      -5.536  12.385 -36.815  1.00  0.00     0.001 A 
HETATM    3  C3  UNL     1      -6.774  12.843 -37.206  1.00  0.00     0.121 A 
HETATM    4  N1  UNL     1      -7.401  11.873 -37.902  1.00  0.00    -0.294 N 
HETATM    5  N6  UNL     1      -6.595  10.834 -37.953  1.00  0.00    -0.283 N 
ATOM      6  H6  UNL     1      -6.813   9.954 -38.420  1.00  0.00     0.189 HD
HETATM    7  C8  UNL     1      -5.444  11.092 -37.306  1.00  0.00     0.127 A 
ENDROOT
BRANCH   7   8
HETATM    8  N7  UNL     1      -4.314  10.242 -37.128  1.00  0.00    -0.350 N 
ATOM      9  H7  UNL     1      -3.861   9.849 -37.953  1.00  0.00     0.166 HD
BRANCH   8  10
HETATM   10  C9  UNL     1      -3.846   9.954 -35.973  1.00  0.00     0.111 C 
BRANCH  10  11
HETATM   11  C10 UNL     1      -2.402   9.958 -35.779  1.00  0.00     0.098 A 
HETATM   12  C11 UNL     1      -1.559   9.348 -36.684  1.00  0.00     0.161 A 
HETATM   13  N8  UNL     1      -0.219   9.373 -36.471  1.00  0.00    -0.288 N 
HETATM   14  C12 UNL     1       0.328   9.975 -35.401  1.00  0.00     0.329 A 
ATOM     15  H8  UNL     1       0.395   8.919 -37.148  1.00  0.00     0.172 HD
HETATM   16  O2  UNL     1       1.586   9.958 -35.268  1.00  0.00    -0.247 OA
HETATM   17  N9  UNL     1      -0.486  10.567 -34.524  1.00  0.00    -0.275 N 
HETATM   18  C13 UNL     1      -1.821  10.571 -34.688  1.00  0.00     0.265 A 
ATOM     19  H9  UNL     1      -0.084  11.028 -33.708  1.00  0.00     0.173 HD
HETATM   20  O3  UNL     1      -2.598  11.124 -33.870  1.00  0.00    -0.267 OA
BRANCH  12  21
HETATM   21  O1  UNL     1      -2.050   8.704 -37.816  1.00  0.00    -0.345 OA
ATOM     22  H1  UNL     1      -2.451   9.189 -38.529  1.00  0.00     0.219 HD
ENDBRANCH  12  21
ENDBRANCH  10  11
ENDBRANCH   8  10
ENDBRANCH   7   8
BRANCH   4  23
HETATM   23  C4  UNL     1      -8.709  11.898 -38.505  1.00  0.00     0.226 C 
BRANCH  23  24
HETATM   24  C5  UNL     1      -8.769  12.749 -39.717  1.00  0.00     0.134 A 
HETATM   25  N2  UNL     1      -7.878  13.584 -40.239  1.00  0.00    -0.273 N 
HETATM   26  N3  UNL     1      -8.348  14.137 -41.328  1.00  0.00    -0.131 N 
ATOM     27  H2  UNL     1      -6.955  13.768 -39.846  1.00  0.00     0.189 HD
HETATM   28  C6  UNL     1      -9.577  13.651 -41.523  1.00  0.00     0.693 A 
ATOM     29  H3  UNL     1      -7.865  14.813 -41.919  1.00  0.00     0.205 HD
HETATM   30  N4  UNL     1     -10.378  13.962 -42.511  1.00  0.00    -0.233 N 
HETATM   31  N5  UNL     1      -9.844  12.789 -40.525  1.00  0.00    -0.172 N 
ATOM     32  H42 UNL     1     -10.176  14.616 -43.267  1.00  0.00     0.174 HD
ATOM     33  H41 UNL     1     -11.317  13.591 -42.659  1.00  0.00     0.174 HD
HETATM   34  C7  UNL     1     -11.104  12.077 -40.431  1.00  0.00     0.177 C 
ENDBRANCH  23  24
ENDBRANCH   4  23
TORSDOF 6
ENDMDL
MODEL 3
REMARK VINA RESULT: -8.328700604     10.309     11.944
REMARK  6 active torsions:
REMARK  status: ('A' for Active; 'I' for Inactive)
REMARK    1  A    between atoms: N1_4  and  C4_5 
REMARK    2  A    between atoms: C4_5  and  C5_6 
REMARK    3  A    between atoms: C8_19  and  N7_20 
REMARK    4  A    between atoms: N7_20  and  C9_22 
REMARK    5  A    between atoms: C9_22  and  C10_23 
REMARK    6  A    between atoms: C11_24  and  O1_25 
ROOT
HETATM    1  C1  UNL     1      -3.806   4.666 -32.636  1.00  0.00     0.054 C 
HETATM    2  C2  UNL     1      -2.349   4.796 -32.463  1.00  0.00     0.001 A 
HETATM    3  C3  UNL     1      -1.456   3.804 -32.127  1.00  0.00     0.121 A 
HETATM    4  N1  UNL     1      -0.216   4.330 -32.070  1.00  0.00    -0.294 N 
HETATM    5  N6  UNL     1      -0.313   5.611 -32.357  1.00  0.00    -0.283 N 
ATOM      6  H6  UNL     1       0.474   6.259 -32.388  1.00  0.00     0.189 HD
HETATM    7  C8  UNL     1      -1.591   5.948 -32.605  1.00  0.00     0.127 A 
ENDROOT
BRANCH   7   8
HETATM    8  N7  UNL     1      -2.123   7.224 -32.952  1.00  0.00    -0.350 N 
ATOM      9  H7  UNL     1      -2.441   7.842 -32.205  1.00  0.00     0.166 HD
BRANCH   8  10
HETATM   10  C9  UNL     1      -2.218   7.623 -34.163  1.00  0.00     0.111 C 
BRANCH  10  11
HETATM   11  C10 UNL     1      -1.204   8.531 -34.684  1.00  0.00     0.098 A 
HETATM   12  C11 UNL     1      -1.377   9.898 -34.633  1.00  0.00     0.161 A 
HETATM   13  N8  UNL     1      -0.411  10.713 -35.127  1.00  0.00    -0.288 N 
HETATM   14  C12 UNL     1       0.723  10.237 -35.671  1.00  0.00     0.329 A 
ATOM     15  H8  UNL     1      -0.550  11.723 -35.083  1.00  0.00     0.172 HD
HETATM   16  O2  UNL     1       1.579  11.057 -36.111  1.00  0.00    -0.247 OA
HETATM   17  N9  UNL     1       0.892   8.915 -35.720  1.00  0.00    -0.275 N 
HETATM   18  C13 UNL     1      -0.033   8.062 -35.245  1.00  0.00     0.265 A 
ATOM     19  H9  UNL     1       1.749   8.540 -36.129  1.00  0.00     0.173 HD
HETATM   20  O3  UNL     1       0.115   6.815 -35.286  1.00  0.00    -0.267 OA
BRANCH  12  21
HETATM   21  O1  UNL     1      -2.524  10.466 -34.085  1.00  0.00    -0.345 OA
ATOM     22  H1  UNL     1      -2.517  11.343 -33.718  1.00  0.00     0.219 HD
ENDBRANCH  12  21
ENDBRANCH  10  11
ENDBRANCH   8  10
ENDBRANCH   7   8
BRANCH   4  23
HETATM   23  C4  UNL     1       1.029   3.674 -31.758  1.00  0.00     0.226 C 
BRANCH  23  24
HETATM   24  C5  UNL     1       1.239   3.499 -30.301  1.00  0.00     0.134 A 
HETATM   25  N2  UNL     1       1.515   4.383 -29.349  1.00  0.00    -0.273 N 
HETATM   26  N3  UNL     1       1.620   3.791 -28.187  1.00  0.00    -0.131 N 
ATOM     27  H2  UNL     1       1.629   5.385 -29.503  1.00  0.00     0.189 HD
HETATM   28  C6  UNL     1       1.407   2.487 -28.385  1.00  0.00     0.693 A 
ATOM     29  H3  UNL     1       1.825   4.242 -27.296  1.00  0.00     0.205 HD
HETATM   30  N4  UNL     1       1.427   1.558 -27.462  1.00  0.00    -0.233 N 
HETATM   31  N5  UNL     1       1.171   2.300 -29.696  1.00  0.00    -0.172 N 
ATOM     32  H42 UNL     1       1.607   1.699 -26.469  1.00  0.00     0.174 HD
ATOM     33  H41 UNL     1       1.265   0.561 -27.613  1.00  0.00     0.174 HD
HETATM   34  C7  UNL     1       0.898   0.991 -30.256  1.00  0.00     0.177 C 
ENDBRANCH  23  24
ENDBRANCH   4  23
TORSDOF 6
ENDMDL
MODEL 4
REMARK VINA RESULT: -8.303992349      8.180      9.794
REMARK  6 active torsions:
REMARK  status: ('A' for Active; 'I' for Inactive)
REMARK    1  A    between atoms: N1_4  and  C4_5 
REMARK    2  A    between atoms: C4_5  and  C5_6 
REMARK    3  A    between atoms: C8_19  and  N7_20 
REMARK    4  A    between atoms: N7_20  and  C9_22 
REMARK    5  A    between atoms: C9_22  and  C10_23 
REMARK    6  A    between atoms: C11_24  and  O1_25 
ROOT
HETATM    1  C1  UNL     1       0.553   9.211 -36.064  1.00  0.00     0.054 C 
HETATM    2  C2  UNL     1       0.007   7.952 -35.528  1.00  0.00     0.001 A 
HETATM    3  C3  UNL     1       0.705   6.925 -34.935  1.00  0.00     0.121 A 
HETATM    4  N1  UNL     1      -0.160   5.953 -34.582  1.00  0.00    -0.294 N 
HETATM    5  N6  UNL     1      -1.366   6.343 -34.937  1.00  0.00    -0.283 N 
ATOM      6  H6  UNL     1      -2.217   5.801 -34.791  1.00  0.00     0.189 HD
HETATM    7  C8  UNL     1      -1.321   7.556 -35.519  1.00  0.00     0.127 A 
ENDROOT
BRANCH   7   8
HETATM    8  N7  UNL     1      -2.396   8.331 -36.042  1.00  0.00    -0.350 N 
ATOM      9  H7  UNL     1      -2.383   8.586 -37.029  1.00  0.00     0.166 HD
BRANCH   8  10
HETATM   10  C9  UNL     1      -3.378   8.720 -35.320  1.00  0.00     0.111 C 
BRANCH  10  11
HETATM   11  C10 UNL     1      -3.846  10.094 -35.452  1.00  0.00     0.098 A 
HETATM   12  C11 UNL     1      -3.216  11.128 -34.793  1.00  0.00     0.161 A 
HETATM   13  N8  UNL     1      -3.679  12.395 -34.940  1.00  0.00    -0.288 N 
HETATM   14  C12 UNL     1      -4.741  12.688 -35.711  1.00  0.00     0.329 A 
ATOM     15  H8  UNL     1      -3.205  13.152 -34.448  1.00  0.00     0.172 HD
HETATM   16  O2  UNL     1      -5.116  13.892 -35.801  1.00  0.00    -0.247 OA
HETATM   17  N9  UNL     1      -5.351  11.688 -36.351  1.00  0.00    -0.275 N 
HETATM   18  C13 UNL     1      -4.933  10.414 -36.240  1.00  0.00     0.265 A 
ATOM     19  H9  UNL     1      -6.157  11.896 -36.941  1.00  0.00     0.173 HD
HETATM   20  O3  UNL     1      -5.499   9.464 -36.836  1.00  0.00    -0.267 OA
BRANCH  12  21
HETATM   21  O1  UNL     1      -2.111  10.904 -33.975  1.00  0.00    -0.345 OA
ATOM     22  H1  UNL     1      -1.913  11.475 -33.242  1.00  0.00     0.219 HD
ENDBRANCH  12  21
ENDBRANCH  10  11
ENDBRANCH   8  10
ENDBRANCH   7   8
BRANCH   4  23
HETATM   23  C4  UNL     1       0.112   4.694 -33.935  1.00  0.00     0.226 C 
BRANCH  23  24
HETATM   24  C5  UNL     1       0.408   4.841 -32.490  1.00  0.00     0.134 A 
HETATM   25  N2  UNL     1       1.565   4.931 -31.844  1.00  0.00    -0.273 N 
HETATM   26  N3  UNL     1       1.365   5.050 -30.556  1.00  0.00    -0.131 N 
ATOM     27  H2  UNL     1       2.482   4.910 -32.289  1.00  0.00     0.189 HD
HETATM   28  C6  UNL     1       0.044   5.038 -30.356  1.00  0.00     0.693 A 
ATOM     29  H3  UNL     1       2.084   5.137 -29.838  1.00  0.00     0.205 HD
HETATM   30  N4  UNL     1      -0.558   5.135 -29.197  1.00  0.00    -0.233 N 
HETATM   31  N5  UNL     1      -0.554   4.908 -31.554  1.00  0.00    -0.172 N 
ATOM     32  H42 UNL     1      -0.104   5.234 -28.289  1.00  0.00     0.174 HD
ATOM     33  H41 UNL     1      -1.567   5.126 -29.045  1.00  0.00     0.174 HD
HETATM   34  C7  UNL     1      -1.997   4.861 -31.700  1.00  0.00     0.177 C 
ENDBRANCH  23  24
ENDBRANCH   4  23
TORSDOF 6
ENDMDL
MODEL 5
REMARK VINA RESULT: -8.291272134      7.953      9.355
REMARK  6 active torsions:
REMARK  status: ('A' for Active; 'I' for Inactive)
REMARK    1  A    between atoms: N1_4  and  C4_5 
REMARK    2  A    between atoms: C4_5  and  C5_6 
REMARK    3  A    between atoms: C8_19  and  N7_20 
REMARK    4  A    between atoms: N7_20  and  C9_22 
REMARK    5  A    between atoms: C9_22  and  C10_23 
REMARK    6  A    between atoms: C11_24  and  O1_25 
ROOT
HETATM    1  C1  UNL     1       0.983   9.248 -36.206  1.00  0.00     0.054 C 
HETATM    2  C2  UNL     1       0.234   8.096 -35.677  1.00  0.00     0.001 A 
HETATM    3  C3  UNL     1       0.746   6.984 -35.048  1.00  0.00     0.121 A 
HETATM    4  N1  UNL     1      -0.269   6.161 -34.716  1.00  0.00    -0.294 N 
HETATM    5  N6  UNL     1      -1.388   6.725 -35.117  1.00  0.00    -0.283 N 
ATOM      6  H6  UNL     1      -2.317   6.322 -34.996  1.00  0.00     0.189 HD
HETATM    7  C8  UNL     1      -1.139   7.907 -35.710  1.00  0.00     0.127 A 
ENDROOT
BRANCH   7   8
HETATM    8  N7  UNL     1      -2.065   8.829 -36.280  1.00  0.00    -0.350 N 
ATOM      9  H7  UNL     1      -1.707   9.594 -36.851  1.00  0.00     0.166 HD
BRANCH   8  10
HETATM   10  C9  UNL     1      -3.328   8.733 -36.102  1.00  0.00     0.111 C 
BRANCH  10  11
HETATM   11  C10 UNL     1      -4.159   9.910 -36.318  1.00  0.00     0.098 A 
HETATM   12  C11 UNL     1      -5.085   9.952 -37.338  1.00  0.00     0.161 A 
HETATM   13  N8  UNL     1      -5.842  11.065 -37.508  1.00  0.00    -0.288 N 
HETATM   14  C12 UNL     1      -5.725  12.144 -36.714  1.00  0.00     0.329 A 
ATOM     15  H8  UNL     1      -6.525  11.085 -38.266  1.00  0.00     0.172 HD
HETATM   16  O2  UNL     1      -6.464  13.146 -36.932  1.00  0.00    -0.247 OA
HETATM   17  N9  UNL     1      -4.829  12.104 -35.725  1.00  0.00    -0.275 N 
HETATM   18  C13 UNL     1      -4.054  11.026 -35.512  1.00  0.00     0.265 A 
ATOM     19  H9  UNL     1      -4.730  12.915 -35.113  1.00  0.00     0.173 HD
HETATM   20  O3  UNL     1      -3.207  10.977 -34.585  1.00  0.00    -0.267 OA
BRANCH  12  21
HETATM   21  O1  UNL     1      -5.265   8.876 -38.203  1.00  0.00    -0.345 OA
ATOM     22  H1  UNL     1      -5.024   7.992 -37.951  1.00  0.00     0.219 HD
ENDBRANCH  12  21
ENDBRANCH  10  11
ENDBRANCH   8  10
ENDBRANCH   7   8
BRANCH   4  23
HETATM   23  C4  UNL     1      -0.214   4.887 -34.046  1.00  0.00     0.226 C 
BRANCH  23  24
HETATM   24  C5  UNL     1       0.130   5.005 -32.609  1.00  0.00     0.134 A 
HETATM   25  N2  UNL     1       1.308   5.046 -31.997  1.00  0.00    -0.273 N 
HETATM   26  N3  UNL     1       1.151   5.157 -30.702  1.00  0.00    -0.131 N 
ATOM     27  H2  UNL     1       2.210   4.999 -32.470  1.00  0.00     0.189 HD
HETATM   28  C6  UNL     1      -0.162   5.188 -30.462  1.00  0.00     0.693 A 
ATOM     29  H3  UNL     1       1.894   5.209 -30.006  1.00  0.00     0.205 HD
HETATM   30  N4  UNL     1      -0.726   5.292 -29.285  1.00  0.00    -0.233 N 
HETATM   31  N5  UNL     1      -0.801   5.094 -31.643  1.00  0.00    -0.172 N 
ATOM     32  H42 UNL     1      -0.241   5.363 -28.390  1.00  0.00     0.174 HD
ATOM     33  H41 UNL     1      -1.729   5.316 -29.101  1.00  0.00     0.174 HD
HETATM   34  C7  UNL     1      -2.248   5.099 -31.745  1.00  0.00     0.177 C 
ENDBRANCH  23  24
ENDBRANCH   4  23
TORSDOF 6
ENDMDL
