MODEL 1
REMARK VINA RESULT: -8.095409598      0.000      0.000
REMARK  6 active torsions:
REMARK  status: ('A' for Active; 'I' for Inactive)
REMARK    1  A    between atoms: C2_2  and  N1_3 
REMARK    2  A    between atoms: C2_2  and  C12_26 
REMARK    3  A    between atoms: N1_3  and  C3_5 
REMARK    4  A    between atoms: N2_8  and  N3_10 
REMARK    5  A    between atoms: C7_17  and  N5_18 
REMARK    6  A    between atoms: C13_32  and  N9_33 
ROOT
HETATM    1  C3  UNL     1      -0.826   5.947 -33.887  1.00  0.00     0.123 C 
HETATM    2  C4  UNL     1      -0.080   5.742 -32.765  1.00  0.00     0.085 C 
HETATM    3  C5  UNL     1      -0.476   5.489 -31.438  1.00  0.00     0.119 C 
HETATM    4  N2  UNL     1       0.330   5.193 -30.556  1.00  0.00    -0.302 N 
ATOM      5  H2  UNL     1      -0.154   5.058 -29.668  1.00  0.00     0.186 HD
HETATM    6  C6  UNL     1      -1.849   5.483 -30.990  1.00  0.00     0.287 C 
HETATM    7  O1  UNL     1      -1.931   5.648 -29.765  1.00  0.00    -0.265 OA
HETATM    8  N4  UNL     1      -2.871   5.309 -31.803  1.00  0.00    -0.154 N 
ATOM      9  H4  UNL     1      -3.773   5.302 -31.325  1.00  0.00     0.187 HD
HETATM   10  C7  UNL     1      -2.972   5.137 -33.135  1.00  0.00     0.684 C 
HETATM   11  N6  UNL     1      -2.070   5.435 -34.114  1.00  0.00    -0.176 N 
ATOM     12  H6  UNL     1      -2.343   5.263 -35.082  1.00  0.00     0.186 HD
ENDROOT
BRANCH   1  13
HETATM   13  N1  UNL     1      -0.316   6.797 -34.927  1.00  0.00    -0.344 N 
ATOM     14  H1  UNL     1       0.469   6.469 -35.490  1.00  0.00     0.167 HD
BRANCH  13  15
HETATM   15  C2  UNL     1      -0.866   8.074 -35.196  1.00  0.00     0.039 C 
HETATM   16  C1  UNL     1      -2.041   8.149 -36.154  1.00  0.00     0.071 C 
BRANCH  15  17
HETATM   17  C12 UNL     1       0.023   9.241 -35.275  1.00  0.00     0.124 A 
HETATM   18  N7  UNL     1       1.248   9.249 -35.935  1.00  0.00    -0.236 N 
HETATM   19  O3  UNL     1       1.654  10.459 -35.976  1.00  0.00    -0.155 OA
ATOM     20  H7  UNL     1       1.733   8.437 -36.317  1.00  0.00     0.197 HD
HETATM   21  N8  UNL     1       0.901  11.291 -35.434  1.00  0.00    -0.224 N 
HETATM   22  C13 UNL     1      -0.167  10.572 -34.960  1.00  0.00     0.152 A 
ATOM     23  H8  UNL     1       1.049  12.298 -35.357  1.00  0.00     0.198 HD
BRANCH  22  24
HETATM   24  N9  UNL     1      -1.171  10.973 -34.216  1.00  0.00    -0.382 N 
ATOM     25  H92 UNL     1      -2.169  10.801 -34.335  1.00  0.00     0.157 HD
ATOM     26  H91 UNL     1      -1.042  11.626 -33.443  1.00  0.00     0.157 HD
ENDBRANCH  22  24
ENDBRANCH  15  17
ENDBRANCH  13  15
ENDBRANCH   1  13
BRANCH  10  27
HETATM   27  N5  UNL     1      -4.210   4.534 -33.515  1.00  0.00    -0.213 N 
HETATM   28  C8  UNL     1      -5.320   4.504 -32.587  1.00  0.00     0.167 C 
HETATM   29  C9  UNL     1      -6.459   3.818 -33.287  1.00  0.00     0.188 C 
HETATM   30  O2  UNL     1      -6.756   4.486 -34.446  1.00  0.00    -0.388 OA
HETATM   31  C10 UNL     1      -5.755   4.380 -35.399  1.00  0.00     0.188 C 
HETATM   32  C11 UNL     1      -4.417   3.948 -34.823  1.00  0.00     0.167 C 
ENDBRANCH  10  27
BRANCH   4  33
HETATM   33  N3  UNL     1       1.630   4.995 -30.401  1.00  0.00    -0.345 N 
ATOM     34  H32 UNL     1       2.132   5.631 -31.020  1.00  0.00     0.176 HD
ATOM     35  H31 UNL     1       2.269   4.411 -29.861  1.00  0.00     0.176 HD
ENDBRANCH   4  33
TORSDOF 6
ENDMDL
MODEL 2
REMARK VINA RESULT: -8.038411011      1.599      1.768
REMARK  6 active torsions:
REMARK  status: ('A' for Active; 'I' for Inactive)
REMARK    1  A    between atoms: C2_2  and  N1_3 
REMARK    2  A    between atoms: C2_2  and  C12_26 
REMARK    3  A    between atoms: N1_3  and  C3_5 
REMARK    4  A    between atoms: N2_8  and  N3_10 
REMARK    5  A    between atoms: C7_17  and  N5_18 
REMARK    6  A    between atoms: C13_32  and  N9_33 
ROOT
HETATM    1  C3  UNL     1      -1.708   6.417 -33.638  1.00  0.00     0.123 C 
HETATM    2  C4  UNL     1      -0.697   5.647 -33.146  1.00  0.00     0.085 C 
HETATM    3  C5  UNL     1      -0.738   4.447 -32.411  1.00  0.00     0.119 C 
HETATM    4  N2  UNL     1       0.276   3.798 -32.153  1.00  0.00    -0.302 N 
ATOM      5  H2  UNL     1       0.035   2.971 -31.607  1.00  0.00     0.186 HD
HETATM    6  C6  UNL     1      -1.955   3.823 -31.946  1.00  0.00     0.287 C 
HETATM    7  O1  UNL     1      -1.741   3.044 -31.008  1.00  0.00    -0.265 OA
HETATM    8  N4  UNL     1      -3.135   4.061 -32.482  1.00  0.00    -0.154 N 
ATOM      9  H4  UNL     1      -3.889   3.519 -32.058  1.00  0.00     0.187 HD
HETATM   10  C7  UNL     1      -3.553   4.871 -33.473  1.00  0.00     0.684 C 
HETATM   11  N6  UNL     1      -2.939   5.964 -34.011  1.00  0.00    -0.176 N 
ATOM     12  H6  UNL     1      -3.434   6.478 -34.740  1.00  0.00     0.186 HD
ENDROOT
BRANCH   1  13
HETATM   13  N1  UNL     1      -1.517   7.837 -33.757  1.00  0.00    -0.344 N 
ATOM     14  H1  UNL     1      -1.657   8.423 -32.934  1.00  0.00     0.167 HD
BRANCH  13  15
HETATM   15  C2  UNL     1      -1.142   8.449 -34.978  1.00  0.00     0.039 C 
HETATM   16  C1  UNL     1      -2.149   8.436 -36.112  1.00  0.00     0.071 C 
BRANCH  15  17
HETATM   17  C12 UNL     1       0.250   8.352 -35.437  1.00  0.00     0.124 A 
HETATM   18  N7  UNL     1       0.946   7.155 -35.580  1.00  0.00    -0.236 N 
HETATM   19  O3  UNL     1       2.043   7.417 -36.178  1.00  0.00    -0.155 OA
ATOM     20  H7  UNL     1       0.636   6.235 -35.265  1.00  0.00     0.197 HD
HETATM   21  N8  UNL     1       2.219   8.619 -36.461  1.00  0.00    -0.224 N 
HETATM   22  C13 UNL     1       1.102   9.274 -36.009  1.00  0.00     0.152 A 
ATOM     23  H8  UNL     1       3.027   9.029 -36.932  1.00  0.00     0.198 HD
BRANCH  22  24
HETATM   24  N9  UNL     1       0.859  10.564 -35.968  1.00  0.00    -0.382 N 
ATOM     25  H92 UNL     1      -0.035  11.047 -35.880  1.00  0.00     0.157 HD
ATOM     26  H91 UNL     1       1.590  11.256 -36.131  1.00  0.00     0.157 HD
ENDBRANCH  22  24
ENDBRANCH  15  17
ENDBRANCH  13  15
ENDBRANCH   1  13
BRANCH  10  27
HETATM   27  N5  UNL     1      -4.812   4.467 -34.014  1.00  0.00    -0.213 N 
HETATM   28  C8  UNL     1      -6.018   5.189 -33.667  1.00  0.00     0.167 C 
HETATM   29  C9  UNL     1      -7.152   4.525 -34.396  1.00  0.00     0.188 C 
HETATM   30  O2  UNL     1      -6.899   4.533 -35.744  1.00  0.00    -0.388 OA
HETATM   31  C10 UNL     1      -5.839   3.712 -36.096  1.00  0.00     0.188 C 
HETATM   32  C11 UNL     1      -4.942   3.349 -34.925  1.00  0.00     0.167 C 
ENDBRANCH  10  27
BRANCH   4  33
HETATM   33  N3  UNL     1       1.583   3.841 -32.362  1.00  0.00    -0.345 N 
ATOM     34  H32 UNL     1       1.808   3.218 -33.138  1.00  0.00     0.176 HD
ATOM     35  H31 UNL     1       2.415   4.299 -31.991  1.00  0.00     0.176 HD
ENDBRANCH   4  33
TORSDOF 6
ENDMDL
MODEL 3
REMARK VINA RESULT: -7.988781887      1.819      6.448
REMARK  6 active torsions:
REMARK  status: ('A' for Active; 'I' for Inactive)
REMARK    1  A    between atoms: C2_2  and  N1_3 
REMARK    2  A    between atoms: C2_2  and  C12_26 
REMARK    3  A    between atoms: N1_3  and  C3_5 
REMARK    4  A    between atoms: N2_8  and  N3_10 
REMARK    5  A    between atoms: C7_17  and  N5_18 
REMARK    6  A    between atoms: C13_32  and  N9_33 
ROOT
HETATM    1  C3  UNL     1      -2.665   6.235 -32.648  1.00  0.00     0.123 C 
HETATM    2  C4  UNL     1      -1.942   5.812 -31.573  1.00  0.00     0.085 C 
HETATM    3  C5  UNL     1      -0.579   5.482 -31.461  1.00  0.00     0.119 C 
HETATM    4  N2  UNL     1      -0.046   5.242 -30.378  1.00  0.00    -0.302 N 
ATOM      5  H2  UNL     1       0.940   5.019 -30.513  1.00  0.00     0.186 HD
HETATM    6  C6  UNL     1       0.342   5.456 -32.575  1.00  0.00     0.287 C 
HETATM    7  O1  UNL     1       1.339   4.766 -32.327  1.00  0.00    -0.265 OA
HETATM    8  N4  UNL     1       0.129   6.108 -33.700  1.00  0.00    -0.154 N 
ATOM      9  H4  UNL     1       0.888   6.010 -34.374  1.00  0.00     0.187 HD
HETATM   10  C7  UNL     1      -0.883   6.878 -34.144  1.00  0.00     0.684 C 
HETATM   11  N6  UNL     1      -2.172   6.946 -33.703  1.00  0.00    -0.176 N 
ATOM     12  H6  UNL     1      -2.811   7.571 -34.194  1.00  0.00     0.186 HD
ENDROOT
BRANCH   1  13
HETATM   13  N1  UNL     1      -4.058   5.894 -32.739  1.00  0.00    -0.344 N 
ATOM     14  H1  UNL     1      -4.753   6.575 -32.436  1.00  0.00     0.167 HD
BRANCH  13  15
HETATM   15  C2  UNL     1      -4.498   4.641 -33.235  1.00  0.00     0.039 C 
HETATM   16  C1  UNL     1      -3.442   3.666 -33.722  1.00  0.00     0.071 C 
BRANCH  15  17
HETATM   17  C12 UNL     1      -5.752   4.565 -33.994  1.00  0.00     0.124 A 
HETATM   18  N7  UNL     1      -5.867   4.856 -35.350  1.00  0.00    -0.236 N 
HETATM   19  O3  UNL     1      -7.034   4.499 -35.723  1.00  0.00    -0.155 OA
ATOM     20  H7  UNL     1      -5.148   5.278 -35.939  1.00  0.00     0.197 HD
HETATM   21  N8  UNL     1      -7.753   4.015 -34.827  1.00  0.00    -0.224 N 
HETATM   22  C13 UNL     1      -6.988   4.030 -33.688  1.00  0.00     0.152 A 
ATOM     23  H8  UNL     1      -8.711   3.677 -34.921  1.00  0.00     0.198 HD
BRANCH  22  24
HETATM   24  N9  UNL     1      -7.330   3.732 -32.457  1.00  0.00    -0.382 N 
ATOM     25  H92 UNL     1      -6.784   3.816 -31.599  1.00  0.00     0.157 HD
ATOM     26  H91 UNL     1      -8.209   3.261 -32.239  1.00  0.00     0.157 HD
ENDBRANCH  22  24
ENDBRANCH  15  17
ENDBRANCH  13  15
ENDBRANCH   1  13
BRANCH  10  27
HETATM   27  N5  UNL     1      -0.487   7.737 -35.214  1.00  0.00    -0.213 N 
HETATM   28  C8  UNL     1      -1.480   8.490 -35.949  1.00  0.00     0.167 C 
HETATM   29  C9  UNL     1      -0.745   9.288 -36.988  1.00  0.00     0.188 C 
HETATM   30  O2  UNL     1       0.184  10.091 -36.379  1.00  0.00    -0.388 OA
HETATM   31  C10 UNL     1       1.224   9.373 -35.810  1.00  0.00     0.188 C 
HETATM   32  C11 UNL     1       0.899   7.904 -35.600  1.00  0.00     0.167 C 
ENDBRANCH  10  27
BRANCH   4  33
HETATM   33  N3  UNL     1      -0.355   5.183 -29.092  1.00  0.00    -0.345 N 
ATOM     34  H32 UNL     1      -1.146   5.803 -28.919  1.00  0.00     0.176 HD
ATOM     35  H31 UNL     1      -0.049   4.715 -28.239  1.00  0.00     0.176 HD
ENDBRANCH   4  33
TORSDOF 6
ENDMDL
MODEL 4
REMARK VINA RESULT: -7.971172301      2.352      4.342
REMARK  6 active torsions:
REMARK  status: ('A' for Active; 'I' for Inactive)
REMARK    1  A    between atoms: C2_2  and  N1_3 
REMARK    2  A    between atoms: C2_2  and  C12_26 
REMARK    3  A    between atoms: N1_3  and  C3_5 
REMARK    4  A    between atoms: N2_8  and  N3_10 
REMARK    5  A    between atoms: C7_17  and  N5_18 
REMARK    6  A    between atoms: C13_32  and  N9_33 
ROOT
HETATM    1  C3  UNL     1      -2.016   7.397 -33.940  1.00  0.00     0.123 C 
HETATM    2  C4  UNL     1      -3.081   8.000 -33.342  1.00  0.00     0.085 C 
HETATM    3  C5  UNL     1      -3.802   7.644 -32.186  1.00  0.00     0.119 C 
HETATM    4  N2  UNL     1      -4.664   8.374 -31.697  1.00  0.00    -0.302 N 
ATOM      5  H2  UNL     1      -5.072   7.933 -30.872  1.00  0.00     0.186 HD
HETATM    6  C6  UNL     1      -3.567   6.439 -31.424  1.00  0.00     0.287 C 
HETATM    7  O1  UNL     1      -4.548   6.138 -30.730  1.00  0.00    -0.265 OA
HETATM    8  N4  UNL     1      -2.434   5.768 -31.470  1.00  0.00    -0.154 N 
ATOM      9  H4  UNL     1      -2.419   4.956 -30.852  1.00  0.00     0.187 HD
HETATM   10  C7  UNL     1      -1.292   5.931 -32.165  1.00  0.00     0.684 C 
HETATM   11  N6  UNL     1      -1.070   6.648 -33.304  1.00  0.00    -0.176 N 
ATOM     12  H6  UNL     1      -0.134   6.623 -33.707  1.00  0.00     0.186 HD
ENDROOT
BRANCH   1  13
HETATM   13  N1  UNL     1      -1.857   7.500 -35.365  1.00  0.00    -0.344 N 
ATOM     14  H1  UNL     1      -1.813   6.646 -35.919  1.00  0.00     0.167 HD
BRANCH  13  15
HETATM   15  C2  UNL     1      -1.759   8.750 -36.025  1.00  0.00     0.039 C 
HETATM   16  C1  UNL     1      -2.341   8.857 -37.422  1.00  0.00     0.071 C 
BRANCH  15  17
HETATM   17  C12 UNL     1      -0.562   9.579 -35.830  1.00  0.00     0.124 A 
HETATM   18  N7  UNL     1       0.526   9.600 -36.698  1.00  0.00    -0.236 N 
HETATM   19  O3  UNL     1       1.285  10.560 -36.338  1.00  0.00    -0.155 OA
ATOM     20  H7  UNL     1       0.687   8.964 -37.479  1.00  0.00     0.197 HD
HETATM   21  N8  UNL     1       0.895  11.203 -35.343  1.00  0.00    -0.224 N 
HETATM   22  C13 UNL     1      -0.288  10.621 -34.966  1.00  0.00     0.152 A 
ATOM     23  H8  UNL     1       1.360  11.997 -34.901  1.00  0.00     0.198 HD
BRANCH  22  24
HETATM   24  N9  UNL     1      -1.029  10.860 -33.909  1.00  0.00    -0.382 N 
ATOM     25  H92 UNL     1      -1.227  10.255 -33.112  1.00  0.00     0.157 HD
ATOM     26  H91 UNL     1      -1.598  11.703 -33.829  1.00  0.00     0.157 HD
ENDBRANCH  22  24
ENDBRANCH  15  17
ENDBRANCH  13  15
ENDBRANCH   1  13
BRANCH  10  27
HETATM   27  N5  UNL     1      -0.187   5.252 -31.565  1.00  0.00    -0.213 N 
HETATM   28  C8  UNL     1      -0.222   4.904 -30.161  1.00  0.00     0.167 C 
HETATM   29  C9  UNL     1       1.070   4.204 -29.851  1.00  0.00     0.188 C 
HETATM   30  O2  UNL     1       1.208   3.109 -30.665  1.00  0.00    -0.388 OA
HETATM   31  C10 UNL     1       1.402   3.449 -31.994  1.00  0.00     0.188 C 
HETATM   32  C11 UNL     1       0.992   4.876 -32.318  1.00  0.00     0.167 C 
ENDBRANCH  10  27
BRANCH   4  33
HETATM   33  N3  UNL     1      -5.227   9.553 -31.909  1.00  0.00    -0.345 N 
ATOM     34  H32 UNL     1      -5.571   9.582 -32.868  1.00  0.00     0.176 HD
ATOM     35  H31 UNL     1      -5.417  10.424 -31.413  1.00  0.00     0.176 HD
ENDBRANCH   4  33
TORSDOF 6
ENDMDL
MODEL 5
REMARK VINA RESULT: -7.880949483      1.229      1.374
REMARK  6 active torsions:
REMARK  status: ('A' for Active; 'I' for Inactive)
REMARK    1  A    between atoms: C2_2  and  N1_3 
REMARK    2  A    between atoms: C2_2  and  C12_26 
REMARK    3  A    between atoms: N1_3  and  C3_5 
REMARK    4  A    between atoms: N2_8  and  N3_10 
REMARK    5  A    between atoms: C7_17  and  N5_18 
REMARK    6  A    between atoms: C13_32  and  N9_33 
ROOT
HETATM    1  C3  UNL     1      -1.265   6.362 -33.084  1.00  0.00     0.123 C 
HETATM    2  C4  UNL     1      -0.411   5.969 -32.097  1.00  0.00     0.085 C 
HETATM    3  C5  UNL     1      -0.667   5.336 -30.866  1.00  0.00     0.119 C 
HETATM    4  N2  UNL     1       0.236   4.923 -30.138  1.00  0.00    -0.302 N 
ATOM      5  H2  UNL     1      -0.157   4.506 -29.294  1.00  0.00     0.186 HD
HETATM    6  C6  UNL     1      -1.990   5.046 -30.365  1.00  0.00     0.287 C 
HETATM    7  O1  UNL     1      -1.988   4.878 -29.138  1.00  0.00    -0.265 OA
HETATM    8  N4  UNL     1      -3.052   4.962 -31.141  1.00  0.00    -0.154 N 
ATOM      9  H4  UNL     1      -3.905   4.722 -30.636  1.00  0.00     0.187 HD
HETATM   10  C7  UNL     1      -3.244   5.128 -32.463  1.00  0.00     0.684 C 
HETATM   11  N6  UNL     1      -2.462   5.777 -33.374  1.00  0.00    -0.176 N 
ATOM     12  H6  UNL     1      -2.795   5.828 -34.337  1.00  0.00     0.186 HD
ENDROOT
BRANCH   1  13
HETATM   13  N1  UNL     1      -0.934   7.507 -33.886  1.00  0.00    -0.344 N 
ATOM     14  H1  UNL     1      -1.239   8.430 -33.578  1.00  0.00     0.167 HD
BRANCH  13  15
HETATM   15  C2  UNL     1      -0.198   7.397 -35.092  1.00  0.00     0.039 C 
HETATM   16  C1  UNL     1       0.792   6.253 -35.212  1.00  0.00     0.071 C 
BRANCH  15  17
HETATM   17  C12 UNL     1       0.238   8.616 -35.786  1.00  0.00     0.124 A 
HETATM   18  N7  UNL     1       1.471   9.232 -35.588  1.00  0.00    -0.236 N 
HETATM   19  O3  UNL     1       1.597  10.135 -36.481  1.00  0.00    -0.155 OA
ATOM     20  H7  UNL     1       2.149   9.004 -34.861  1.00  0.00     0.197 HD
HETATM   21  N8  UNL     1       0.632  10.247 -37.264  1.00  0.00    -0.224 N 
HETATM   22  C13 UNL     1      -0.277   9.299 -36.869  1.00  0.00     0.152 A 
ATOM     23  H8  UNL     1       0.539  10.906 -38.037  1.00  0.00     0.198 HD
BRANCH  22  24
HETATM   24  N9  UNL     1      -1.499   9.093 -37.302  1.00  0.00    -0.382 N 
ATOM     25  H92 UNL     1      -2.261   8.580 -36.858  1.00  0.00     0.157 HD
ATOM     26  H91 UNL     1      -1.793   9.367 -38.240  1.00  0.00     0.157 HD
ENDBRANCH  22  24
ENDBRANCH  15  17
ENDBRANCH  13  15
ENDBRANCH   1  13
BRANCH  10  27
HETATM   27  N5  UNL     1      -4.439   4.496 -32.925  1.00  0.00    -0.213 N 
HETATM   28  C8  UNL     1      -5.636   4.520 -32.110  1.00  0.00     0.167 C 
HETATM   29  C9  UNL     1      -6.700   3.784 -32.874  1.00  0.00     0.188 C 
HETATM   30  O2  UNL     1      -6.880   4.375 -34.098  1.00  0.00    -0.388 OA
HETATM   31  C10 UNL     1      -5.790   4.213 -34.938  1.00  0.00     0.188 C 
HETATM   32  C11 UNL     1      -4.517   3.826 -34.207  1.00  0.00     0.167 C 
ENDBRANCH  10  27
BRANCH   4  33
HETATM   33  N3  UNL     1       1.557   4.854 -30.109  1.00  0.00    -0.345 N 
ATOM     34  H32 UNL     1       1.838   3.900 -30.339  1.00  0.00     0.176 HD
ATOM     35  H31 UNL     1       2.364   5.452 -29.930  1.00  0.00     0.176 HD
ENDBRANCH   4  33
TORSDOF 6
ENDMDL
