MODEL 1
REMARK VINA RESULT: -5.944145277      0.000      0.000
REMARK  1 active torsions:
REMARK  status: ('A' for Active; 'I' for Inactive)
REMARK    1  A    between atoms: N1_4  and  C4_5 
ROOT
HETATM    1  C4  UNL     1      17.104   1.854  13.255  1.00  0.00     0.671 C 
HETATM    2  N2  UNL     1      16.947   0.727  12.654  1.00  0.00    -0.226 N 
ATOM      3  H2  UNL     1      16.258   0.083  13.043  1.00  0.00     0.177 HD
HETATM    4  C5  UNL     1      17.663   0.295  11.475  1.00  0.00     0.139 C 
HETATM    5  C6  UNL     1      18.963   1.057  11.353  1.00  0.00     0.040 C 
HETATM    6  C7  UNL     1      18.563   2.535  11.398  1.00  0.00     0.139 C 
HETATM    7  N3  UNL     1      18.056   2.759  12.727  1.00  0.00    -0.226 N 
ATOM      8  H3  UNL     1      18.378   3.555  13.278  1.00  0.00     0.177 HD
ENDROOT
BRANCH   1   9
HETATM    9  N1  UNL     1      16.338   2.194  14.429  1.00  0.00    -0.218 N 
HETATM   10  C3  UNL     1      15.560   3.390  14.375  1.00  0.00     0.141 C 
HETATM   11  C2  UNL     1      15.082   3.882  15.697  1.00  0.00     0.020 C 
HETATM   12  C1  UNL     1      14.638   2.660  16.504  1.00  0.00     0.003 C 
HETATM   13  C9  UNL     1      15.937   1.918  16.835  1.00  0.00     0.020 C 
HETATM   14  C8  UNL     1      16.424   1.301  15.553  1.00  0.00     0.141 C 
ENDBRANCH   1   9
TORSDOF 1
ENDMDL
MODEL 2
REMARK VINA RESULT: -5.893636253      0.667      1.553
REMARK  1 active torsions:
REMARK  status: ('A' for Active; 'I' for Inactive)
REMARK    1  A    between atoms: N1_4  and  C4_5 
ROOT
HETATM    1  C4  UNL     1      17.236   1.420  13.005  1.00  0.00     0.671 C 
HETATM    2  N2  UNL     1      18.228   1.991  12.416  1.00  0.00    -0.226 N 
ATOM      3  H2  UNL     1      18.543   2.885  12.792  1.00  0.00     0.177 HD
HETATM    4  C5  UNL     1      18.933   1.474  11.265  1.00  0.00     0.139 C 
HETATM    5  C6  UNL     1      18.058   0.493  10.520  1.00  0.00     0.040 C 
HETATM    6  C7  UNL     1      17.629  -0.537  11.571  1.00  0.00     0.139 C 
HETATM    7  N3  UNL     1      16.788   0.179  12.494  1.00  0.00    -0.226 N 
ATOM      8  H3  UNL     1      15.884  -0.202  12.773  1.00  0.00     0.177 HD
ENDROOT
BRANCH   1   9
HETATM    9  N1  UNL     1      16.596   2.019  14.151  1.00  0.00    -0.218 N 
HETATM   10  C3  UNL     1      15.949   3.276  13.952  1.00  0.00     0.141 C 
HETATM   11  C2  UNL     1      15.622   4.012  15.205  1.00  0.00     0.020 C 
HETATM   12  C1  UNL     1      15.108   2.985  16.215  1.00  0.00     0.003 C 
HETATM   13  C9  UNL     1      16.340   2.154  16.588  1.00  0.00     0.020 C 
HETATM   14  C8  UNL     1      16.666   1.300  15.394  1.00  0.00     0.141 C 
ENDBRANCH   1   9
TORSDOF 1
ENDMDL
MODEL 3
REMARK VINA RESULT: -5.732623540      0.806      2.167
REMARK  1 active torsions:
REMARK  status: ('A' for Active; 'I' for Inactive)
REMARK    1  A    between atoms: N1_4  and  C4_5 
ROOT
HETATM    1  C4  UNL     1      17.242   1.248  12.965  1.00  0.00     0.671 C 
HETATM    2  N2  UNL     1      18.190   1.876  12.363  1.00  0.00    -0.226 N 
ATOM      3  H2  UNL     1      18.484   2.769  12.761  1.00  0.00     0.177 HD
HETATM    4  C5  UNL     1      18.874   1.426  11.172  1.00  0.00     0.139 C 
HETATM    5  C6  UNL     1      18.010   0.437  10.423  1.00  0.00     0.040 C 
HETATM    6  C7  UNL     1      17.658  -0.643  11.452  1.00  0.00     0.139 C 
HETATM    7  N3  UNL     1      16.823   0.008  12.427  1.00  0.00    -0.226 N 
ATOM      8  H3  UNL     1      15.944  -0.417  12.723  1.00  0.00     0.177 HD
ENDROOT
BRANCH   1   9
HETATM    9  N1  UNL     1      16.620   1.782  14.152  1.00  0.00    -0.218 N 
HETATM   10  C3  UNL     1      16.571   0.933  15.300  1.00  0.00     0.141 C 
HETATM   11  C2  UNL     1      15.626   1.378  16.363  1.00  0.00     0.020 C 
HETATM   12  C1  UNL     1      15.758   2.898  16.481  1.00  0.00     0.003 C 
HETATM   13  C9  UNL     1      15.142   3.445  15.189  1.00  0.00     0.020 C 
HETATM   14  C8  UNL     1      16.103   3.122  14.079  1.00  0.00     0.141 C 
ENDBRANCH   1   9
TORSDOF 1
ENDMDL
MODEL 4
REMARK VINA RESULT: -5.725465213      0.435      1.485
REMARK  1 active torsions:
REMARK  status: ('A' for Active; 'I' for Inactive)
REMARK    1  A    between atoms: N1_4  and  C4_5 
ROOT
HETATM    1  C4  UNL     1      17.169   1.790  13.321  1.00  0.00     0.671 C 
HETATM    2  N2  UNL     1      16.977   0.693  12.675  1.00  0.00    -0.226 N 
ATOM      3  H2  UNL     1      16.305   0.033  13.067  1.00  0.00     0.177 HD
HETATM    4  C5  UNL     1      17.632   0.317  11.443  1.00  0.00     0.139 C 
HETATM    5  C6  UNL     1      18.928   1.081  11.293  1.00  0.00     0.040 C 
HETATM    6  C7  UNL     1      18.537   2.557  11.429  1.00  0.00     0.139 C 
HETATM    7  N3  UNL     1      18.097   2.717  12.790  1.00  0.00    -0.226 N 
ATOM      8  H3  UNL     1      18.449   3.485  13.362  1.00  0.00     0.177 HD
ENDROOT
BRANCH   1   9
HETATM    9  N1  UNL     1      16.463   2.075  14.546  1.00  0.00    -0.218 N 
HETATM   10  C3  UNL     1      16.403   1.032  15.520  1.00  0.00     0.141 C 
HETATM   11  C2  UNL     1      15.386   1.237  16.589  1.00  0.00     0.020 C 
HETATM   12  C1  UNL     1      15.431   2.715  16.983  1.00  0.00     0.003 C 
HETATM   13  C9  UNL     1      14.850   3.459  15.775  1.00  0.00     0.020 C 
HETATM   14  C8  UNL     1      15.879   3.383  14.682  1.00  0.00     0.141 C 
ENDBRANCH   1   9
TORSDOF 1
ENDMDL
MODEL 5
REMARK VINA RESULT: -5.585672693      0.987      4.895
REMARK  1 active torsions:
REMARK  status: ('A' for Active; 'I' for Inactive)
REMARK    1  A    between atoms: N1_4  and  C4_5 
ROOT
HETATM    1  C4  UNL     1      16.823   2.067  13.956  1.00  0.00     0.671 C 
HETATM    2  N2  UNL     1      17.240   1.695  15.116  1.00  0.00    -0.226 N 
ATOM      3  H2  UNL     1      17.929   0.944  15.145  1.00  0.00     0.177 HD
HETATM    4  C5  UNL     1      16.815   2.251  16.381  1.00  0.00     0.139 C 
HETATM    5  C6  UNL     1      15.467   2.917  16.226  1.00  0.00     0.040 C 
HETATM    6  C7  UNL     1      15.645   3.912  15.074  1.00  0.00     0.139 C 
HETATM    7  N3  UNL     1      15.867   3.109  13.900  1.00  0.00    -0.226 N 
ATOM      8  H3  UNL     1      15.345   3.289  13.042  1.00  0.00     0.177 HD
ENDROOT
BRANCH   1   9
HETATM    9  N1  UNL     1      17.310   1.448  12.748  1.00  0.00    -0.218 N 
HETATM   10  C3  UNL     1      16.920   0.096  12.507  1.00  0.00     0.141 C 
HETATM   11  C2  UNL     1      17.716  -0.604  11.459  1.00  0.00     0.020 C 
HETATM   12  C1  UNL     1      17.943   0.392  10.320  1.00  0.00     0.003 C 
HETATM   13  C9  UNL     1      18.917   1.426  10.893  1.00  0.00     0.020 C 
HETATM   14  C8  UNL     1      18.146   2.245  11.890  1.00  0.00     0.141 C 
ENDBRANCH   1   9
TORSDOF 1
ENDMDL
