MODEL 1
REMARK VINA RESULT: -5.100381350      0.000      0.000
REMARK  2 active torsions:
REMARK  status: ('A' for Active; 'I' for Inactive)
REMARK    1  A    between atoms: N1_1  and  C1_5 
REMARK    2  A    between atoms: C4_8  and  N2_9 
ROOT
HETATM    1  C1  UNL     1      14.778   1.530  16.582  1.00  0.00     0.185 C 
HETATM    2  C2  UNL     1      14.274   2.838  17.145  1.00  0.00     0.035 C 
HETATM    3  C3  UNL     1      14.704   3.915  16.181  1.00  0.00     0.038 C 
HETATM    4  C4  UNL     1      15.303   3.172  15.022  1.00  0.00     0.225 C 
HETATM    5  C9  UNL     1      15.938   1.992  15.688  1.00  0.00     0.068 C 
ENDROOT
BRANCH   4   6
HETATM    6  N2  UNL     1      16.243   3.990  14.265  1.00  0.00     0.094 N 
HETATM    7  C5  UNL     1      16.391   3.356  12.985  1.00  0.00     0.283 C 
HETATM    8  C6  UNL     1      17.166   4.225  11.989  1.00  0.00     0.104 C 
HETATM    9  S1  UNL     1      18.851   4.351  12.703  1.00  0.00    -0.166 SA
HETATM   10  C7  UNL     1      18.591   4.772  14.448  1.00  0.00     0.104 C 
HETATM   11  C8  UNL     1      17.440   4.053  15.049  1.00  0.00     0.283 C 
ENDBRANCH   4   6
BRANCH   1  12
HETATM   12  N1  UNL     1      15.367   0.694  17.608  1.00  0.00    -0.075 N 
ATOM     13  H13 UNL     1      16.273   1.056  17.907  1.00  0.00     0.274 HD
ATOM     14  H12 UNL     1      14.861   0.776  18.489  1.00  0.00     0.274 HD
ATOM     15  H11 UNL     1      15.437  -0.280  17.311  1.00  0.00     0.274 HD
ENDBRANCH   1  12
TORSDOF 2
ENDMDL
MODEL 2
REMARK VINA RESULT: -5.060039267      2.480      3.155
REMARK  2 active torsions:
REMARK  status: ('A' for Active; 'I' for Inactive)
REMARK    1  A    between atoms: N1_1  and  C1_5 
REMARK    2  A    between atoms: C4_8  and  N2_9 
ROOT
HETATM    1  C1  UNL     1      15.640   3.008  16.460  1.00  0.00     0.185 C 
HETATM    2  C2  UNL     1      15.806   1.530  16.727  1.00  0.00     0.035 C 
HETATM    3  C3  UNL     1      16.575   0.965  15.560  1.00  0.00     0.038 C 
HETATM    4  C4  UNL     1      16.959   2.164  14.741  1.00  0.00     0.225 C 
HETATM    5  C9  UNL     1      15.788   3.075  14.933  1.00  0.00     0.068 C 
ENDROOT
BRANCH   4   6
HETATM    6  N2  UNL     1      17.211   1.824  13.346  1.00  0.00     0.094 N 
HETATM    7  C5  UNL     1      16.320   2.637  12.565  1.00  0.00     0.283 C 
HETATM    8  C6  UNL     1      16.627   2.567  11.066  1.00  0.00     0.104 C 
HETATM    9  S1  UNL     1      16.278   0.826  10.605  1.00  0.00    -0.166 SA
HETATM   10  C7  UNL     1      17.110  -0.171  11.872  1.00  0.00     0.104 C 
HETATM   11  C8  UNL     1      16.994   0.412  13.232  1.00  0.00     0.283 C 
ENDBRANCH   4   6
BRANCH   1  12
HETATM   12  N1  UNL     1      14.298   3.462  16.757  1.00  0.00    -0.075 N 
ATOM     13  H13 UNL     1      13.692   2.684  17.021  1.00  0.00     0.274 HD
ATOM     14  H12 UNL     1      14.270   3.990  17.629  1.00  0.00     0.274 HD
ATOM     15  H11 UNL     1      13.898   3.998  15.986  1.00  0.00     0.274 HD
ENDBRANCH   1  12
TORSDOF 2
ENDMDL
MODEL 3
REMARK VINA RESULT: -5.049155515      1.272      1.714
REMARK  2 active torsions:
REMARK  status: ('A' for Active; 'I' for Inactive)
REMARK    1  A    between atoms: N1_1  and  C1_5 
REMARK    2  A    between atoms: C4_8  and  N2_9 
ROOT
HETATM    1  C1  UNL     1      14.950   1.615  16.490  1.00  0.00     0.185 C 
HETATM    2  C2  UNL     1      14.331   2.915  16.948  1.00  0.00     0.035 C 
HETATM    3  C3  UNL     1      14.803   3.978  15.989  1.00  0.00     0.038 C 
HETATM    4  C4  UNL     1      15.549   3.226  14.924  1.00  0.00     0.225 C 
HETATM    5  C9  UNL     1      16.170   2.105  15.696  1.00  0.00     0.068 C 
ENDROOT
BRANCH   4   6
HETATM    6  N2  UNL     1      16.520   4.065  14.231  1.00  0.00     0.094 N 
HETATM    7  C5  UNL     1      17.683   4.117  15.075  1.00  0.00     0.283 C 
HETATM    8  C6  UNL     1      18.881   4.768  14.377  1.00  0.00     0.104 C 
HETATM    9  S1  UNL     1      18.364   6.506  14.099  1.00  0.00    -0.166 SA
HETATM   10  C7  UNL     1      16.699   6.392  13.388  1.00  0.00     0.104 C 
HETATM   11  C8  UNL     1      15.877   5.326  14.013  1.00  0.00     0.283 C 
ENDBRANCH   4   6
BRANCH   1  12
HETATM   12  N1  UNL     1      15.472   0.846  17.600  1.00  0.00    -0.075 N 
ATOM     13  H13 UNL     1      15.258  -0.146  17.498  1.00  0.00     0.274 HD
ATOM     14  H12 UNL     1      16.490   0.794  17.569  1.00  0.00     0.274 HD
ATOM     15  H11 UNL     1      15.147   1.205  18.498  1.00  0.00     0.274 HD
ENDBRANCH   1  12
TORSDOF 2
ENDMDL
MODEL 4
REMARK VINA RESULT: -5.013213086      2.882      4.534
REMARK  2 active torsions:
REMARK  status: ('A' for Active; 'I' for Inactive)
REMARK    1  A    between atoms: N1_1  and  C1_5 
REMARK    2  A    between atoms: C4_8  and  N2_9 
ROOT
HETATM    1  C1  UNL     1      17.315   0.567  11.798  1.00  0.00     0.185 C 
HETATM    2  C2  UNL     1      16.420   1.614  11.176  1.00  0.00     0.035 C 
HETATM    3  C3  UNL     1      16.191   2.667  12.230  1.00  0.00     0.038 C 
HETATM    4  C4  UNL     1      17.087   2.267  13.368  1.00  0.00     0.225 C 
HETATM    5  C9  UNL     1      17.052   0.773  13.298  1.00  0.00     0.068 C 
ENDROOT
BRANCH   4   6
HETATM    6  N2  UNL     1      16.631   2.801  14.646  1.00  0.00     0.094 N 
HETATM    7  C5  UNL     1      16.305   1.666  15.464  1.00  0.00     0.283 C 
HETATM    8  C6  UNL     1      16.032   2.056  16.921  1.00  0.00     0.104 C 
HETATM    9  S1  UNL     1      14.521   3.093  16.845  1.00  0.00    -0.166 SA
HETATM   10  C7  UNL     1      14.831   4.277  15.507  1.00  0.00     0.104 C 
HETATM   11  C8  UNL     1      15.529   3.667  14.347  1.00  0.00     0.283 C 
ENDBRANCH   4   6
BRANCH   1  12
HETATM   12  N1  UNL     1      16.868  -0.776  11.491  1.00  0.00    -0.075 N 
ATOM     13  H13 UNL     1      16.949  -0.975  10.493  1.00  0.00     0.274 HD
ATOM     14  H12 UNL     1      17.520  -1.474  11.847  1.00  0.00     0.274 HD
ATOM     15  H11 UNL     1      15.920  -0.948  11.827  1.00  0.00     0.274 HD
ENDBRANCH   1  12
TORSDOF 2
ENDMDL
MODEL 5
REMARK VINA RESULT: -4.995759464      1.251      1.615
REMARK  2 active torsions:
REMARK  status: ('A' for Active; 'I' for Inactive)
REMARK    1  A    between atoms: N1_1  and  C1_5 
REMARK    2  A    between atoms: C4_8  and  N2_9 
ROOT
HETATM    1  C1  UNL     1      15.167   1.413  16.534  1.00  0.00     0.185 C 
HETATM    2  C2  UNL     1      14.246   2.601  16.690  1.00  0.00     0.035 C 
HETATM    3  C3  UNL     1      14.862   3.730  15.904  1.00  0.00     0.038 C 
HETATM    4  C4  UNL     1      16.033   3.108  15.197  1.00  0.00     0.225 C 
HETATM    5  C9  UNL     1      16.503   2.088  16.186  1.00  0.00     0.068 C 
ENDROOT
BRANCH   4   6
HETATM    6  N2  UNL     1      17.051   4.089  14.843  1.00  0.00     0.094 N 
HETATM    7  C5  UNL     1      16.384   5.360  14.786  1.00  0.00     0.283 C 
HETATM    8  C6  UNL     1      17.365   6.530  14.656  1.00  0.00     0.104 C 
HETATM    9  S1  UNL     1      18.158   6.286  13.020  1.00  0.00    -0.166 SA
HETATM   10  C7  UNL     1      18.635   4.536  12.986  1.00  0.00     0.104 C 
HETATM   11  C8  UNL     1      17.618   3.649  13.603  1.00  0.00     0.283 C 
ENDBRANCH   4   6
BRANCH   1  12
HETATM   12  N1  UNL     1      15.377   0.724  17.790  1.00  0.00    -0.075 N 
ATOM     13  H13 UNL     1      15.380  -0.288  17.663  1.00  0.00     0.274 HD
ATOM     14  H12 UNL     1      16.332   0.847  18.125  1.00  0.00     0.274 HD
ATOM     15  H11 UNL     1      14.697   1.007  18.497  1.00  0.00     0.274 HD
ENDBRANCH   1  12
TORSDOF 2
ENDMDL
