MODEL 1
REMARK VINA RESULT: -6.406359033      0.000      0.000
REMARK  2 active torsions:
REMARK  status: ('A' for Active; 'I' for Inactive)
REMARK    1  A    between atoms: C2_3  and  C3_4 
REMARK    2  A    between atoms: C3_4  and  O1_5 
ROOT
HETATM    1  N1  UNL     1      15.084   0.218  17.452  1.00  0.00    -0.197 NA
HETATM    2  C1  UNL     1      15.454   1.278  17.136  1.00  0.00     0.062 C 
HETATM    3  C2  UNL     1      15.916   2.599  16.716  1.00  0.00     0.163 C 
ENDROOT
BRANCH   3   4
HETATM    4  C3  UNL     1      16.996   2.508  15.664  1.00  0.00     0.098 C 
HETATM    5  C4  UNL     1      17.289   3.885  15.057  1.00  0.00     0.076 C 
HETATM    6  C5  UNL     1      17.573   3.469  13.628  1.00  0.00     0.226 C 
HETATM    7  C6  UNL     1      17.473   4.601  12.663  1.00  0.00     0.036 C 
HETATM    8  N2  UNL     1      16.421   2.602  13.393  1.00  0.00     0.096 N 
HETATM    9  C7  UNL     1      17.314   4.204  11.257  1.00  0.00     0.004 C 
HETATM   10  C8  UNL     1      16.739   2.875  10.976  1.00  0.00     0.030 C 
HETATM   11  C9  UNL     1      16.547   1.968  12.128  1.00  0.00     0.273 C 
HETATM   12  C10 UNL     1      16.513   1.685  14.486  1.00  0.00     0.311 C 
BRANCH   4  13
HETATM   13  O1  UNL     1      18.152   2.000  16.230  1.00  0.00    -0.387 OA
ATOM     14  H1  UNL     1      18.909   2.370  15.792  1.00  0.00     0.210 HD
ENDBRANCH   4  13
ENDBRANCH   3   4
TORSDOF 2
ENDMDL
MODEL 2
REMARK VINA RESULT: -6.108453207      1.789      4.954
REMARK  2 active torsions:
REMARK  status: ('A' for Active; 'I' for Inactive)
REMARK    1  A    between atoms: C2_3  and  C3_4 
REMARK    2  A    between atoms: C3_4  and  O1_5 
ROOT
HETATM    1  N1  UNL     1      16.995   3.607  10.137  1.00  0.00    -0.197 NA
HETATM    2  C1  UNL     1      16.750   2.840  10.980  1.00  0.00     0.062 C 
HETATM    3  C2  UNL     1      16.431   1.898  12.051  1.00  0.00     0.163 C 
ENDROOT
BRANCH   3   4
HETATM    4  C3  UNL     1      16.868   2.415  13.402  1.00  0.00     0.098 C 
HETATM    5  C4  UNL     1      16.779   1.315  14.466  1.00  0.00     0.076 C 
HETATM    6  C5  UNL     1      16.349   2.154  15.652  1.00  0.00     0.226 C 
HETATM    7  C6  UNL     1      15.752   1.342  16.752  1.00  0.00     0.036 C 
HETATM    8  N2  UNL     1      15.260   2.908  15.036  1.00  0.00     0.096 N 
HETATM    9  C7  UNL     1      14.945   2.103  17.715  1.00  0.00     0.004 C 
HETATM   10  C8  UNL     1      14.355   3.378  17.267  1.00  0.00     0.030 C 
HETATM   11  C9  UNL     1      14.780   3.888  15.944  1.00  0.00     0.273 C 
HETATM   12  C10 UNL     1      15.904   3.477  13.893  1.00  0.00     0.311 C 
BRANCH   4  13
HETATM   13  O1  UNL     1      18.170   2.874  13.322  1.00  0.00    -0.387 OA
ATOM     14  H1  UNL     1      18.768   2.174  13.557  1.00  0.00     0.210 HD
ENDBRANCH   4  13
ENDBRANCH   3   4
TORSDOF 2
ENDMDL
MODEL 3
REMARK VINA RESULT: -5.942291171      2.714      4.603
REMARK  2 active torsions:
REMARK  status: ('A' for Active; 'I' for Inactive)
REMARK    1  A    between atoms: C2_3  and  C3_4 
REMARK    2  A    between atoms: C3_4  and  O1_5 
ROOT
HETATM    1  N1  UNL     1      18.259  -2.183  11.604  1.00  0.00    -0.197 NA
HETATM    2  C1  UNL     1      18.110  -1.104  11.186  1.00  0.00     0.062 C 
HETATM    3  C2  UNL     1      17.926   0.256  10.686  1.00  0.00     0.163 C 
ENDROOT
BRANCH   3   4
HETATM    4  C3  UNL     1      16.913   1.023  11.503  1.00  0.00     0.098 C 
HETATM    5  C4  UNL     1      17.404   2.447  11.790  1.00  0.00     0.076 C 
HETATM    6  C5  UNL     1      16.840   2.625  13.185  1.00  0.00     0.226 C 
HETATM    7  C6  UNL     1      17.494   3.734  13.939  1.00  0.00     0.036 C 
HETATM    8  N2  UNL     1      17.288   1.374  13.791  1.00  0.00     0.096 N 
HETATM    9  C7  UNL     1      17.308   3.687  15.395  1.00  0.00     0.004 C 
HETATM   10  C8  UNL     1      17.017   2.379  16.012  1.00  0.00     0.030 C 
HETATM   11  C9  UNL     1      16.743   1.250  15.097  1.00  0.00     0.273 C 
HETATM   12  C10 UNL     1      16.771   0.402  12.878  1.00  0.00     0.311 C 
BRANCH   4  13
HETATM   13  O1  UNL     1      15.713   1.080  10.818  1.00  0.00    -0.387 OA
ATOM     14  H1  UNL     1      15.190   0.315  11.030  1.00  0.00     0.210 HD
ENDBRANCH   4  13
ENDBRANCH   3   4
TORSDOF 2
ENDMDL
MODEL 4
REMARK VINA RESULT: -5.900707786      2.593      5.162
REMARK  2 active torsions:
REMARK  status: ('A' for Active; 'I' for Inactive)
REMARK    1  A    between atoms: C2_3  and  C3_4 
REMARK    2  A    between atoms: C3_4  and  O1_5 
ROOT
HETATM    1  N1  UNL     1      17.354   7.343  12.476  1.00  0.00    -0.197 NA
HETATM    2  C1  UNL     1      17.326   6.666  13.425  1.00  0.00     0.062 C 
HETATM    3  C2  UNL     1      17.295   5.796  14.599  1.00  0.00     0.163 C 
ENDROOT
BRANCH   3   4
HETATM    4  C3  UNL     1      16.343   4.637  14.414  1.00  0.00     0.098 C 
HETATM    5  C4  UNL     1      15.128   4.772  15.339  1.00  0.00     0.076 C 
HETATM    6  C5  UNL     1      14.904   3.309  15.664  1.00  0.00     0.226 C 
HETATM    7  C6  UNL     1      14.068   3.106  16.882  1.00  0.00     0.036 C 
HETATM    8  N2  UNL     1      16.269   2.924  16.013  1.00  0.00     0.096 N 
HETATM    9  C7  UNL     1      14.166   1.770  17.485  1.00  0.00     0.004 C 
HETATM   10  C8  UNL     1      15.387   0.984  17.228  1.00  0.00     0.030 C 
HETATM   11  C9  UNL     1      16.334   1.522  16.226  1.00  0.00     0.273 C 
HETATM   12  C10 UNL     1      16.999   3.345  14.858  1.00  0.00     0.311 C 
BRANCH   4  13
HETATM   13  O1  UNL     1      15.918   4.594  13.098  1.00  0.00    -0.387 OA
ATOM     14  H1  UNL     1      16.457   5.172  12.571  1.00  0.00     0.210 HD
ENDBRANCH   4  13
ENDBRANCH   3   4
TORSDOF 2
ENDMDL
MODEL 5
REMARK VINA RESULT: -5.873452261      2.170      5.029
REMARK  2 active torsions:
REMARK  status: ('A' for Active; 'I' for Inactive)
REMARK    1  A    between atoms: C2_3  and  C3_4 
REMARK    2  A    between atoms: C3_4  and  O1_5 
ROOT
HETATM    1  N1  UNL     1      17.341   4.175   9.952  1.00  0.00    -0.197 NA
HETATM    2  C1  UNL     1      17.429   4.036  11.107  1.00  0.00     0.062 C 
HETATM    3  C2  UNL     1      17.533   3.837  12.551  1.00  0.00     0.163 C 
ENDROOT
BRANCH   3   4
HETATM    4  C3  UNL     1      16.306   3.159  13.114  1.00  0.00     0.098 C 
HETATM    5  C4  UNL     1      15.558   4.090  14.076  1.00  0.00     0.076 C 
HETATM    6  C5  UNL     1      15.080   3.066  15.086  1.00  0.00     0.226 C 
HETATM    7  C6  UNL     1      14.685   3.676  16.389  1.00  0.00     0.036 C 
HETATM    8  N2  UNL     1      16.330   2.345  15.312  1.00  0.00     0.096 N 
HETATM    9  C7  UNL     1      14.627   2.739  17.518  1.00  0.00     0.004 C 
HETATM   10  C8  UNL     1      15.435   1.508  17.438  1.00  0.00     0.030 C 
HETATM   11  C9  UNL     1      16.091   1.218  16.143  1.00  0.00     0.273 C 
HETATM   12  C10 UNL     1      16.708   1.983  13.981  1.00  0.00     0.311 C 
BRANCH   4  13
HETATM   13  O1  UNL     1      15.463   2.794  12.079  1.00  0.00    -0.387 OA
ATOM     14  H1  UNL     1      14.721   2.315  12.428  1.00  0.00     0.210 HD
ENDBRANCH   4  13
ENDBRANCH   3   4
TORSDOF 2
ENDMDL
