MODEL 1
REMARK VINA RESULT: -7.366994874      0.000      0.000
REMARK  5 active torsions:
REMARK  status: ('A' for Active; 'I' for Inactive)
REMARK    1  A    between atoms: N1_1  and  N2_4 
REMARK       I    between atoms: N3_6  and  C1_8 
REMARK    2  A    between atoms: C1_8  and  C2_10 
REMARK    3  A    between atoms: C3_11  and  O2_12 
REMARK    4  A    between atoms: C6_16  and  C7_17 
REMARK    5  A    between atoms: C7_17  and  N4_18 
ROOT
HETATM    1  C2  UNL     1      -5.085   2.189  16.814  1.00  0.00     0.114 C 
HETATM    2  C3  UNL     1      -6.100   1.206  17.358  1.00  0.00     0.131 C 
HETATM    3  C4  UNL     1      -7.431   1.816  17.012  1.00  0.00     0.033 C 
HETATM    4  C5  UNL     1      -7.141   3.306  17.166  1.00  0.00     0.010 C 
HETATM    5  C6  UNL     1      -5.828   3.425  16.388  1.00  0.00     0.021 C 
ENDROOT
BRANCH   1   6
HETATM    6  C1  UNL     1      -4.291   1.529  15.792  1.00  0.00     0.244 C 
HETATM    7  N3  UNL     1      -4.827   1.170  14.537  1.00  0.00    -0.256 N 
HETATM    8  N2  UNL     1      -4.119   0.875  13.570  1.00  0.00    -0.247 N 
ATOM      9  H3  UNL     1      -5.841   1.155  14.425  1.00  0.00     0.191 HD
ATOM     10  H2  UNL     1      -3.651   1.756  13.359  1.00  0.00     0.207 HD
HETATM   11  O1  UNL     1      -3.088   1.261  16.013  1.00  0.00    -0.271 OA
BRANCH   8  12
HETATM   12  N1  UNL     1      -3.654   0.108  12.706  1.00  0.00    -0.331 N 
ATOM     13  H12 UNL     1      -4.511  -0.346  12.391  1.00  0.00     0.178 HD
ATOM     14  H11 UNL     1      -2.910  -0.312  12.148  1.00  0.00     0.178 HD
ENDBRANCH   8  12
ENDBRANCH   1   6
BRANCH   2  15
HETATM   15  O2  UNL     1      -5.938  -0.059  16.794  1.00  0.00    -0.395 OA
ATOM     16  H2  UNL     1      -6.430  -0.718  17.270  1.00  0.00     0.210 HD
ENDBRANCH   2  15
BRANCH   5  17
HETATM   17  C7  UNL     1      -6.035   3.546  14.929  1.00  0.00     0.155 C 
BRANCH  17  18
HETATM   18  N4  UNL     1      -5.239   4.582  14.305  1.00  0.00    -0.287 N 
HETATM   19  C8  UNL     1      -4.607   4.588  13.115  1.00  0.00     0.130 A 
HETATM   20  C9  UNL     1      -3.960   5.788  12.913  1.00  0.00     0.127 A 
HETATM   21  N5  UNL     1      -4.226   6.505  14.021  1.00  0.00    -0.296 N 
HETATM   22  N6  UNL     1      -4.968   5.796  14.822  1.00  0.00    -0.241 N 
ATOM     23  H5  UNL     1      -3.898   7.452  14.204  1.00  0.00     0.187 HD
ATOM     24  H6  UNL     1      -5.302   6.120  15.729  1.00  0.00     0.208 HD
ENDBRANCH  17  18
ENDBRANCH   5  17
TORSDOF 5
ENDMDL
MODEL 2
REMARK VINA RESULT: -6.843580945      1.356      1.442
REMARK  5 active torsions:
REMARK  status: ('A' for Active; 'I' for Inactive)
REMARK    1  A    between atoms: N1_1  and  N2_4 
REMARK       I    between atoms: N3_6  and  C1_8 
REMARK    2  A    between atoms: C1_8  and  C2_10 
REMARK    3  A    between atoms: C3_11  and  O2_12 
REMARK    4  A    between atoms: C6_16  and  C7_17 
REMARK    5  A    between atoms: C7_17  and  N4_18 
ROOT
HETATM    1  C2  UNL     1      -5.078   2.313  16.797  1.00  0.00     0.114 C 
HETATM    2  C3  UNL     1      -6.455   1.720  17.009  1.00  0.00     0.131 C 
HETATM    3  C4  UNL     1      -7.399   2.794  16.538  1.00  0.00     0.033 C 
HETATM    4  C5  UNL     1      -6.664   4.062  16.958  1.00  0.00     0.010 C 
HETATM    5  C6  UNL     1      -5.255   3.763  16.439  1.00  0.00     0.021 C 
ENDROOT
BRANCH   1   6
HETATM    6  C1  UNL     1      -4.357   1.495  15.836  1.00  0.00     0.244 C 
HETATM    7  N3  UNL     1      -4.894   1.166  14.574  1.00  0.00    -0.256 N 
HETATM    8  N2  UNL     1      -4.204   0.723  13.651  1.00  0.00    -0.247 N 
ATOM      9  H3  UNL     1      -5.893   1.299  14.418  1.00  0.00     0.191 HD
ATOM     10  H2  UNL     1      -3.599   1.513  13.428  1.00  0.00     0.207 HD
HETATM   11  O1  UNL     1      -3.219   1.057  16.121  1.00  0.00    -0.271 OA
BRANCH   8  12
HETATM   12  N1  UNL     1      -3.830  -0.144  12.839  1.00  0.00    -0.331 N 
ATOM     13  H12 UNL     1      -4.688  -0.688  12.752  1.00  0.00     0.178 HD
ATOM     14  H11 UNL     1      -3.158  -0.605  12.224  1.00  0.00     0.178 HD
ENDBRANCH   8  12
ENDBRANCH   1   6
BRANCH   2  15
HETATM   15  O2  UNL     1      -6.614   0.531  16.300  1.00  0.00    -0.395 OA
ATOM     16  H2  UNL     1      -7.155   0.654  15.529  1.00  0.00     0.210 HD
ENDBRANCH   2  15
BRANCH   5  17
HETATM   17  C7  UNL     1      -5.098   4.065  15.000  1.00  0.00     0.155 C 
BRANCH  17  18
HETATM   18  N4  UNL     1      -3.795   4.591  14.647  1.00  0.00    -0.287 N 
HETATM   19  C8  UNL     1      -3.453   5.802  14.165  1.00  0.00     0.130 A 
HETATM   20  C9  UNL     1      -2.091   5.880  13.967  1.00  0.00     0.127 A 
HETATM   21  N5  UNL     1      -1.626   4.677  14.348  1.00  0.00    -0.296 N 
HETATM   22  N6  UNL     1      -2.622   3.936  14.740  1.00  0.00    -0.241 N 
ATOM     23  H5  UNL     1      -0.648   4.390  14.331  1.00  0.00     0.187 HD
ATOM     24  H6  UNL     1      -2.526   2.978  15.076  1.00  0.00     0.208 HD
ENDBRANCH  17  18
ENDBRANCH   5  17
TORSDOF 5
ENDMDL
MODEL 3
REMARK VINA RESULT: -6.552366666      3.030      5.250
REMARK  5 active torsions:
REMARK  status: ('A' for Active; 'I' for Inactive)
REMARK    1  A    between atoms: N1_1  and  N2_4 
REMARK       I    between atoms: N3_6  and  C1_8 
REMARK    2  A    between atoms: C1_8  and  C2_10 
REMARK    3  A    between atoms: C3_11  and  O2_12 
REMARK    4  A    between atoms: C6_16  and  C7_17 
REMARK    5  A    between atoms: C7_17  and  N4_18 
ROOT
HETATM    1  C2  UNL     1      -4.402   2.195  11.408  1.00  0.00     0.114 C 
HETATM    2  C3  UNL     1      -3.187   2.910  10.855  1.00  0.00     0.131 C 
HETATM    3  C4  UNL     1      -2.521   3.502  12.068  1.00  0.00     0.033 C 
HETATM    4  C5  UNL     1      -3.721   3.868  12.936  1.00  0.00     0.010 C 
HETATM    5  C6  UNL     1      -4.538   2.576  12.856  1.00  0.00     0.021 C 
ENDROOT
BRANCH   1   6
HETATM    6  C1  UNL     1      -4.282   0.774  11.123  1.00  0.00     0.244 C 
HETATM    7  N3  UNL     1      -3.266  -0.024  11.690  1.00  0.00    -0.256 N 
HETATM    8  N2  UNL     1      -3.310  -1.257  11.691  1.00  0.00    -0.247 N 
ATOM      9  H3  UNL     1      -2.462   0.438  12.116  1.00  0.00     0.191 HD
ATOM     10  H2  UNL     1      -4.102  -1.450  12.304  1.00  0.00     0.207 HD
HETATM   11  O1  UNL     1      -5.098   0.222  10.351  1.00  0.00    -0.271 OA
BRANCH   8  12
HETATM   12  N1  UNL     1      -2.934  -2.399  11.366  1.00  0.00    -0.331 N 
ATOM     13  H12 UNL     1      -1.994  -2.187  11.030  1.00  0.00     0.178 HD
ATOM     14  H11 UNL     1      -3.037  -3.407  11.251  1.00  0.00     0.178 HD
ENDBRANCH   8  12
ENDBRANCH   1   6
BRANCH   2  15
HETATM   15  O2  UNL     1      -2.348   2.034  10.168  1.00  0.00    -0.395 OA
ATOM     16  H2  UNL     1      -1.440   2.310  10.219  1.00  0.00     0.210 HD
ENDBRANCH   2  15
BRANCH   5  17
HETATM   17  C7  UNL     1      -4.075   1.546  13.810  1.00  0.00     0.155 C 
BRANCH  17  18
HETATM   18  N4  UNL     1      -4.842   1.492  15.037  1.00  0.00    -0.287 N 
HETATM   19  C8  UNL     1      -5.761   2.350  15.521  1.00  0.00     0.130 A 
HETATM   20  C9  UNL     1      -6.247   1.910  16.733  1.00  0.00     0.127 A 
HETATM   21  N5  UNL     1      -5.591   0.758  16.962  1.00  0.00    -0.296 N 
HETATM   22  N6  UNL     1      -4.778   0.525  15.972  1.00  0.00    -0.241 N 
ATOM     23  H5  UNL     1      -5.712   0.162  17.780  1.00  0.00     0.187 HD
ATOM     24  H6  UNL     1      -4.168  -0.291  15.913  1.00  0.00     0.208 HD
ENDBRANCH  17  18
ENDBRANCH   5  17
TORSDOF 5
ENDMDL
MODEL 4
REMARK VINA RESULT: -6.503589735      2.109      2.456
REMARK  5 active torsions:
REMARK  status: ('A' for Active; 'I' for Inactive)
REMARK    1  A    between atoms: N1_1  and  N2_4 
REMARK       I    between atoms: N3_6  and  C1_8 
REMARK    2  A    between atoms: C1_8  and  C2_10 
REMARK    3  A    between atoms: C3_11  and  O2_12 
REMARK    4  A    between atoms: C6_16  and  C7_17 
REMARK    5  A    between atoms: C7_17  and  N4_18 
ROOT
HETATM    1  C2  UNL     1      -4.411   2.953  15.772  1.00  0.00     0.114 C 
HETATM    2  C3  UNL     1      -5.851   2.898  16.235  1.00  0.00     0.131 C 
HETATM    3  C4  UNL     1      -6.531   4.000  15.468  1.00  0.00     0.033 C 
HETATM    4  C5  UNL     1      -5.431   5.055  15.396  1.00  0.00     0.010 C 
HETATM    5  C6  UNL     1      -4.242   4.200  14.949  1.00  0.00     0.021 C 
ENDROOT
BRANCH   1   6
HETATM    6  C1  UNL     1      -4.079   1.699  15.118  1.00  0.00     0.244 C 
HETATM    7  N3  UNL     1      -4.564   1.366  13.836  1.00  0.00    -0.256 N 
HETATM    8  N2  UNL     1      -4.080   0.458  13.155  1.00  0.00    -0.247 N 
ATOM      9  H3  UNL     1      -5.346   1.899  13.456  1.00  0.00     0.191 HD
ATOM     10  H2  UNL     1      -3.145   0.810  12.947  1.00  0.00     0.207 HD
HETATM   11  O1  UNL     1      -3.339   0.871  15.697  1.00  0.00    -0.271 OA
BRANCH   8  12
HETATM   12  N1  UNL     1      -4.088  -0.646  12.579  1.00  0.00    -0.331 N 
ATOM     13  H12 UNL     1      -3.458  -1.169  13.187  1.00  0.00     0.178 HD
ATOM     14  H11 UNL     1      -4.368  -1.307  11.853  1.00  0.00     0.178 HD
ENDBRANCH   8  12
ENDBRANCH   1   6
BRANCH   2  15
HETATM   15  O2  UNL     1      -6.422   1.651  15.982  1.00  0.00    -0.395 OA
ATOM     16  H2  UNL     1      -6.227   1.032  16.677  1.00  0.00     0.210 HD
ENDBRANCH   2  15
BRANCH   5  17
HETATM   17  C7  UNL     1      -4.216   3.974  13.488  1.00  0.00     0.155 C 
BRANCH  17  18
HETATM   18  N4  UNL     1      -2.888   4.000  12.911  1.00  0.00    -0.287 N 
HETATM   19  C8  UNL     1      -2.489   3.758  11.647  1.00  0.00     0.130 A 
HETATM   20  C9  UNL     1      -1.123   3.895  11.534  1.00  0.00     0.127 A 
HETATM   21  N5  UNL     1      -0.713   4.228  12.771  1.00  0.00    -0.296 N 
HETATM   22  N6  UNL     1      -1.744   4.286  13.563  1.00  0.00    -0.241 N 
ATOM     23  H5  UNL     1       0.253   4.407  13.045  1.00  0.00     0.187 HD
ATOM     24  H6  UNL     1      -1.693   4.520  14.554  1.00  0.00     0.208 HD
ENDBRANCH  17  18
ENDBRANCH   5  17
TORSDOF 5
ENDMDL
MODEL 5
REMARK VINA RESULT: -6.480879527      2.801      4.791
REMARK  5 active torsions:
REMARK  status: ('A' for Active; 'I' for Inactive)
REMARK    1  A    between atoms: N1_1  and  N2_4 
REMARK       I    between atoms: N3_6  and  C1_8 
REMARK    2  A    between atoms: C1_8  and  C2_10 
REMARK    3  A    between atoms: C3_11  and  O2_12 
REMARK    4  A    between atoms: C6_16  and  C7_17 
REMARK    5  A    between atoms: C7_17  and  N4_18 
ROOT
HETATM    1  C2  UNL     1      -4.671   3.779  12.982  1.00  0.00     0.114 C 
HETATM    2  C3  UNL     1      -3.405   4.452  12.496  1.00  0.00     0.131 C 
HETATM    3  C4  UNL     1      -2.544   4.559  13.726  1.00  0.00     0.033 C 
HETATM    4  C5  UNL     1      -3.584   4.812  14.813  1.00  0.00     0.010 C 
HETATM    5  C6  UNL     1      -4.613   3.727  14.484  1.00  0.00     0.021 C 
ENDROOT
BRANCH   1   6
HETATM    6  C1  UNL     1      -4.820   2.506  12.298  1.00  0.00     0.244 C 
HETATM    7  N3  UNL     1      -3.984   1.402  12.571  1.00  0.00    -0.256 N 
HETATM    8  N2  UNL     1      -4.263   0.252  12.221  1.00  0.00    -0.247 N 
ATOM      9  H3  UNL     1      -3.114   1.562  13.079  1.00  0.00     0.191 HD
ATOM     10  H2  UNL     1      -5.088   0.042  12.784  1.00  0.00     0.207 HD
HETATM   11  O1  UNL     1      -5.714   2.363  11.434  1.00  0.00    -0.271 OA
BRANCH   8  12
HETATM   12  N1  UNL     1      -4.107  -0.797  11.567  1.00  0.00    -0.331 N 
ATOM     13  H12 UNL     1      -3.561  -0.438  10.784  1.00  0.00     0.178 HD
ATOM     14  H11 UNL     1      -4.217  -1.794  11.381  1.00  0.00     0.178 HD
ENDBRANCH   8  12
ENDBRANCH   1   6
BRANCH   2  15
HETATM   15  O2  UNL     1      -2.790   3.713  11.486  1.00  0.00    -0.395 OA
ATOM     16  H2  UNL     1      -2.221   3.041  11.843  1.00  0.00     0.210 HD
ENDBRANCH   2  15
BRANCH   5  17
HETATM   17  C7  UNL     1      -4.252   2.407  15.041  1.00  0.00     0.155 C 
BRANCH  17  18
HETATM   18  N4  UNL     1      -5.236   1.862  15.953  1.00  0.00    -0.287 N 
HETATM   19  C8  UNL     1      -6.484   2.286  16.232  1.00  0.00     0.130 A 
HETATM   20  C9  UNL     1      -7.078   1.467  17.168  1.00  0.00     0.127 A 
HETATM   21  N5  UNL     1      -6.146   0.537  17.442  1.00  0.00    -0.296 N 
HETATM   22  N6  UNL     1      -5.081   0.775  16.733  1.00  0.00    -0.241 N 
ATOM     23  H5  UNL     1      -6.256  -0.233  18.102  1.00  0.00     0.187 HD
ATOM     24  H6  UNL     1      -4.234   0.208  16.763  1.00  0.00     0.208 HD
ENDBRANCH  17  18
ENDBRANCH   5  17
TORSDOF 5
ENDMDL
