MODEL 1
REMARK VINA RESULT: -6.552546566      0.000      0.000
REMARK  3 active torsions:
REMARK  status: ('A' for Active; 'I' for Inactive)
REMARK    1  A    between atoms: N2_10  and  N3_11 
REMARK    2  A    between atoms: C8_13  and  C9_14 
REMARK    3  A    between atoms: C10_15  and  C11_16 
ROOT
HETATM    1  N1  UNL     1      -5.594   6.506  12.668  1.00  0.00    -0.195 NA
HETATM    2  C1  UNL     1      -4.593   5.933  12.611  1.00  0.00     0.086 C 
HETATM    3  C2  UNL     1      -3.315   5.204  12.536  1.00  0.00     0.211 C 
HETATM    4  C3  UNL     1      -2.769   5.436  11.145  1.00  0.00     0.045 C 
HETATM    5  C4  UNL     1      -3.318   4.236  10.399  1.00  0.00     0.052 C 
HETATM    6  C5  UNL     1      -3.074   3.145  11.418  1.00  0.00     0.119 A 
HETATM    7  C6  UNL     1      -1.663   2.664  11.415  1.00  0.00     0.024 A 
HETATM    8  C7  UNL     1      -1.924   1.391  11.134  1.00  0.00     0.047 A 
HETATM    9  S1  UNL     1      -3.719   1.536  11.041  1.00  0.00    -0.104 SA
HETATM   10  N2  UNL     1      -3.512   3.769  12.639  1.00  0.00    -0.286 N 
ENDROOT
BRANCH  10  11
HETATM   11  N3  UNL     1      -4.033   3.081  13.725  1.00  0.00    -0.311 N 
HETATM   12  C8  UNL     1      -3.621   3.232  14.932  1.00  0.00     0.107 C 
ATOM     13  H3  UNL     1      -4.788   2.417  13.556  1.00  0.00     0.185 HD
BRANCH  12  14
HETATM   14  C9  UNL     1      -4.235   2.463  16.001  1.00  0.00     0.025 C 
HETATM   15  C10 UNL     1      -5.432   1.934  15.853  1.00  0.00     0.086 C 
BRANCH  15  16
HETATM   16  C11 UNL     1      -6.040   1.159  16.940  1.00  0.00     0.198 C 
HETATM   17  O1  UNL     1      -7.215   0.742  16.804  1.00  0.00    -0.645 OA
HETATM   18  O2  UNL     1      -5.303   0.912  18.083  1.00  0.00    -0.645 OA
ENDBRANCH  15  16
ENDBRANCH  12  14
ENDBRANCH  10  11
TORSDOF 3
ENDMDL
MODEL 2
REMARK VINA RESULT: -6.482273230      0.902      1.243
REMARK  3 active torsions:
REMARK  status: ('A' for Active; 'I' for Inactive)
REMARK    1  A    between atoms: N2_10  and  N3_11 
REMARK    2  A    between atoms: C8_13  and  C9_14 
REMARK    3  A    between atoms: C10_15  and  C11_16 
ROOT
HETATM    1  N1  UNL     1      -3.508   6.803  13.398  1.00  0.00    -0.195 NA
HETATM    2  C1  UNL     1      -2.910   5.848  13.142  1.00  0.00     0.086 C 
HETATM    3  C2  UNL     1      -2.146   4.633  12.814  1.00  0.00     0.211 C 
HETATM    4  C3  UNL     1      -1.657   4.805  11.392  1.00  0.00     0.045 C 
HETATM    5  C4  UNL     1      -2.765   4.132  10.608  1.00  0.00     0.052 C 
HETATM    6  C5  UNL     1      -3.000   2.905  11.461  1.00  0.00     0.119 A 
HETATM    7  C6  UNL     1      -1.995   1.832  11.211  1.00  0.00     0.024 A 
HETATM    8  C7  UNL     1      -2.853   0.888  10.836  1.00  0.00     0.047 A 
HETATM    9  S1  UNL     1      -4.361   1.861  11.008  1.00  0.00    -0.104 SA
HETATM   10  N2  UNL     1      -2.996   3.457  12.790  1.00  0.00    -0.286 N 
ENDROOT
BRANCH  10  11
HETATM   11  N3  UNL     1      -3.704   2.926  13.859  1.00  0.00    -0.311 N 
HETATM   12  C8  UNL     1      -3.271   2.915  15.068  1.00  0.00     0.107 C 
ATOM     13  H3  UNL     1      -4.621   2.520  13.674  1.00  0.00     0.185 HD
BRANCH  12  14
HETATM   14  C9  UNL     1      -4.091   2.334  16.118  1.00  0.00     0.025 C 
HETATM   15  C10 UNL     1      -5.159   1.621  15.826  1.00  0.00     0.086 C 
BRANCH  15  16
HETATM   16  C11 UNL     1      -5.977   1.040  16.896  1.00  0.00     0.198 C 
HETATM   17  O1  UNL     1      -5.445   0.798  18.005  1.00  0.00    -0.645 OA
HETATM   18  O2  UNL     1      -7.312   0.773  16.650  1.00  0.00    -0.645 OA
ENDBRANCH  15  16
ENDBRANCH  12  14
ENDBRANCH  10  11
TORSDOF 3
ENDMDL
MODEL 3
REMARK VINA RESULT: -6.346035274      2.287      3.904
REMARK  3 active torsions:
REMARK  status: ('A' for Active; 'I' for Inactive)
REMARK    1  A    between atoms: N2_10  and  N3_11 
REMARK    2  A    between atoms: C8_13  and  C9_14 
REMARK    3  A    between atoms: C10_15  and  C11_16 
ROOT
HETATM    1  N1  UNL     1      -2.675  -2.135  11.688  1.00  0.00    -0.195 NA
HETATM    2  C1  UNL     1      -3.325  -1.194  11.522  1.00  0.00     0.086 C 
HETATM    3  C2  UNL     1      -4.154   0.004  11.308  1.00  0.00     0.211 C 
HETATM    4  C3  UNL     1      -3.819   0.516   9.924  1.00  0.00     0.045 C 
HETATM    5  C4  UNL     1      -2.724   1.518  10.229  1.00  0.00     0.052 C 
HETATM    6  C5  UNL     1      -3.305   2.196  11.450  1.00  0.00     0.119 A 
HETATM    7  C6  UNL     1      -4.329   3.224  11.103  1.00  0.00     0.024 A 
HETATM    8  C7  UNL     1      -3.718   4.260  11.669  1.00  0.00     0.047 A 
HETATM    9  S1  UNL     1      -2.272   3.374  12.282  1.00  0.00    -0.104 SA
HETATM   10  N2  UNL     1      -3.789   1.076  12.215  1.00  0.00    -0.286 N 
ENDROOT
BRANCH  10  11
HETATM   11  N3  UNL     1      -3.880   1.056  13.599  1.00  0.00    -0.311 N 
HETATM   12  C8  UNL     1      -4.792   1.668  14.264  1.00  0.00     0.107 C 
ATOM     13  H3  UNL     1      -3.182   0.525  14.119  1.00  0.00     0.185 HD
BRANCH  12  14
HETATM   14  C9  UNL     1      -4.800   1.584  15.715  1.00  0.00     0.025 C 
HETATM   15  C10 UNL     1      -5.868   1.927  16.406  1.00  0.00     0.086 C 
BRANCH  15  16
HETATM   16  C11 UNL     1      -5.863   1.837  17.871  1.00  0.00     0.198 C 
HETATM   17  O1  UNL     1      -5.350   0.831  18.416  1.00  0.00    -0.645 OA
HETATM   18  O2  UNL     1      -6.426   2.863  18.608  1.00  0.00    -0.645 OA
ENDBRANCH  15  16
ENDBRANCH  12  14
ENDBRANCH  10  11
TORSDOF 3
ENDMDL
MODEL 4
REMARK VINA RESULT: -6.341678733      1.308      1.621
REMARK  3 active torsions:
REMARK  status: ('A' for Active; 'I' for Inactive)
REMARK    1  A    between atoms: N2_10  and  N3_11 
REMARK    2  A    between atoms: C8_13  and  C9_14 
REMARK    3  A    between atoms: C10_15  and  C11_16 
ROOT
HETATM    1  N1  UNL     1      -3.716   7.048  14.829  1.00  0.00    -0.195 NA
HETATM    2  C1  UNL     1      -2.953   6.310  14.373  1.00  0.00     0.086 C 
HETATM    3  C2  UNL     1      -1.979   5.371  13.792  1.00  0.00     0.211 C 
HETATM    4  C3  UNL     1      -1.425   6.041  12.553  1.00  0.00     0.045 C 
HETATM    5  C4  UNL     1      -2.349   5.503  11.479  1.00  0.00     0.052 C 
HETATM    6  C5  UNL     1      -2.441   4.052  11.896  1.00  0.00     0.119 A 
HETATM    7  C6  UNL     1      -1.258   3.255  11.459  1.00  0.00     0.024 A 
HETATM    8  C7  UNL     1      -1.922   2.369  10.722  1.00  0.00     0.047 A 
HETATM    9  S1  UNL     1      -3.577   3.029  10.997  1.00  0.00    -0.104 SA
HETATM   10  N2  UNL     1      -2.622   4.158  13.320  1.00  0.00    -0.286 N 
ENDROOT
BRANCH  10  11
HETATM   11  N3  UNL     1      -3.307   3.231  14.092  1.00  0.00    -0.311 N 
HETATM   12  C8  UNL     1      -3.175   3.124  15.365  1.00  0.00     0.107 C 
ATOM     13  H3  UNL     1      -3.953   2.597  13.622  1.00  0.00     0.185 HD
BRANCH  12  14
HETATM   14  C9  UNL     1      -3.940   2.118  16.083  1.00  0.00     0.025 C 
HETATM   15  C10 UNL     1      -5.240   2.251  16.254  1.00  0.00     0.086 C 
BRANCH  15  16
HETATM   16  C11 UNL     1      -6.001   1.229  16.980  1.00  0.00     0.198 C 
HETATM   17  O1  UNL     1      -5.496   0.710  18.005  1.00  0.00    -0.645 OA
HETATM   18  O2  UNL     1      -7.251   0.865  16.515  1.00  0.00    -0.645 OA
ENDBRANCH  15  16
ENDBRANCH  12  14
ENDBRANCH  10  11
TORSDOF 3
ENDMDL
MODEL 5
REMARK VINA RESULT: -6.231228299      1.843      3.114
REMARK  3 active torsions:
REMARK  status: ('A' for Active; 'I' for Inactive)
REMARK    1  A    between atoms: N2_10  and  N3_11 
REMARK    2  A    between atoms: C8_13  and  C9_14 
REMARK    3  A    between atoms: C10_15  and  C11_16 
ROOT
HETATM    1  N1  UNL     1      -4.027   1.346  10.478  1.00  0.00    -0.195 NA
HETATM    2  C1  UNL     1      -4.230   2.432  10.815  1.00  0.00     0.086 C 
HETATM    3  C2  UNL     1      -4.490   3.817  11.242  1.00  0.00     0.211 C 
HETATM    4  C3  UNL     1      -3.564   4.697  10.430  1.00  0.00     0.045 C 
HETATM    5  C4  UNL     1      -2.364   4.803  11.350  1.00  0.00     0.052 C 
HETATM    6  C5  UNL     1      -3.054   5.008  12.680  1.00  0.00     0.119 A 
HETATM    7  C6  UNL     1      -3.499   6.417  12.884  1.00  0.00     0.024 A 
HETATM    8  C7  UNL     1      -2.801   6.650  13.992  1.00  0.00     0.047 A 
HETATM    9  S1  UNL     1      -2.025   5.027  14.125  1.00  0.00    -0.104 SA
HETATM   10  N2  UNL     1      -4.110   4.030  12.626  1.00  0.00    -0.286 N 
ENDROOT
BRANCH  10  11
HETATM   11  N3  UNL     1      -4.655   3.407  13.740  1.00  0.00    -0.311 N 
HETATM   12  C8  UNL     1      -5.658   3.868  14.396  1.00  0.00     0.107 C 
ATOM     13  H3  UNL     1      -4.236   2.533  14.056  1.00  0.00     0.185 HD
BRANCH  12  14
HETATM   14  C9  UNL     1      -6.156   3.138  15.550  1.00  0.00     0.025 C 
HETATM   15  C10 UNL     1      -5.673   1.954  15.862  1.00  0.00     0.086 C 
BRANCH  15  16
HETATM   16  C11 UNL     1      -6.184   1.228  17.030  1.00  0.00     0.198 C 
HETATM   17  O1  UNL     1      -5.372   0.827  17.898  1.00  0.00    -0.645 OA
HETATM   18  O2  UNL     1      -7.544   1.005  17.140  1.00  0.00    -0.645 OA
ENDBRANCH  15  16
ENDBRANCH  12  14
ENDBRANCH  10  11
TORSDOF 3
ENDMDL
