MODEL 1
REMARK VINA RESULT: -7.081565145      0.000      0.000
REMARK  3 active torsions:
REMARK  status: ('A' for Active; 'I' for Inactive)
REMARK    1  A    between atoms: C2_7  and  S1_8 
REMARK    2  A    between atoms: S1_8  and  C3_9 
REMARK    3  A    between atoms: C3_9  and  C4_10 
REMARK       I    between atoms: C4_10  and  N4_12 
ROOT
HETATM    1  S1  UNL     1      -4.402   3.275  13.362  1.00  0.00    -0.094 SA
ENDROOT
BRANCH   1   2
HETATM    2  C2  UNL     1      -3.673   1.790  12.667  1.00  0.00     0.130 A 
HETATM    3  N3  UNL     1      -2.532   1.644  12.004  1.00  0.00    -0.286 N 
HETATM    4  N2  UNL     1      -2.183   0.505  11.587  1.00  0.00    -0.281 N 
ATOM      5  H3  UNL     1      -1.937   2.454  11.832  1.00  0.00     0.188 HD
HETATM    6  C1  UNL     1      -2.958  -0.549  11.811  1.00  0.00     0.175 A 
ATOM      7  H2  UNL     1      -1.306   0.395  11.077  1.00  0.00     0.188 HD
HETATM    8  N1  UNL     1      -2.708  -1.908  11.406  1.00  0.00    -0.073 NA
HETATM    9  S2  UNL     1      -4.251   0.167  12.670  1.00  0.00    -0.030 SA
ENDBRANCH   1   2
BRANCH   1  10
HETATM   10  C3  UNL     1      -3.653   3.627  14.985  1.00  0.00     0.184 C 
BRANCH  10  11
HETATM   11  C4  UNL     1      -3.918   2.511  15.931  1.00  0.00     0.229 C 
HETATM   12  O1  UNL     1      -3.026   1.648  16.127  1.00  0.00    -0.273 OA
HETATM   13  N4  UNL     1      -5.154   2.395  16.619  1.00  0.00    -0.351 N 
HETATM   14  C5  UNL     1      -5.596   1.405  17.554  1.00  0.00     0.126 C 
HETATM   15  C8  UNL     1      -6.253   3.326  16.483  1.00  0.00     0.126 C 
HETATM   16  C6  UNL     1      -7.032   1.182  17.226  1.00  0.00     0.021 C 
HETATM   17  C7  UNL     1      -7.491   2.452  16.564  1.00  0.00     0.021 C 
ENDBRANCH  10  11
ENDBRANCH   1  10
TORSDOF 3
ENDMDL
MODEL 2
REMARK VINA RESULT: -6.991834882      1.234      1.267
REMARK  3 active torsions:
REMARK  status: ('A' for Active; 'I' for Inactive)
REMARK    1  A    between atoms: C2_7  and  S1_8 
REMARK    2  A    between atoms: S1_8  and  C3_9 
REMARK    3  A    between atoms: C3_9  and  C4_10 
REMARK       I    between atoms: C4_10  and  N4_12 
ROOT
HETATM    1  S1  UNL     1      -4.588   3.792  13.896  1.00  0.00    -0.094 SA
ENDROOT
BRANCH   1   2
HETATM    2  C2  UNL     1      -4.198   2.518  12.693  1.00  0.00     0.130 A 
HETATM    3  N3  UNL     1      -3.294   1.548  12.760  1.00  0.00    -0.286 N 
HETATM    4  N2  UNL     1      -3.164   0.737  11.801  1.00  0.00    -0.281 N 
ATOM      5  H3  UNL     1      -2.705   1.457  13.587  1.00  0.00     0.188 HD
HETATM    6  C1  UNL     1      -3.932   0.855  10.725  1.00  0.00     0.175 A 
ATOM      7  H2  UNL     1      -2.469  -0.009  11.854  1.00  0.00     0.188 HD
HETATM    8  N1  UNL     1      -3.912   0.018   9.552  1.00  0.00    -0.073 NA
HETATM    9  S2  UNL     1      -4.882   2.213  11.143  1.00  0.00    -0.030 SA
ENDBRANCH   1   2
BRANCH   1  10
HETATM   10  C3  UNL     1      -3.583   3.552  15.395  1.00  0.00     0.184 C 
BRANCH  10  11
HETATM   11  C4  UNL     1      -3.983   2.302  16.093  1.00  0.00     0.229 C 
HETATM   12  O1  UNL     1      -3.203   1.317  16.084  1.00  0.00    -0.273 OA
HETATM   13  N4  UNL     1      -5.225   2.193  16.770  1.00  0.00    -0.351 N 
HETATM   14  C5  UNL     1      -5.787   1.088  17.488  1.00  0.00     0.126 C 
HETATM   15  C8  UNL     1      -6.203   3.256  16.857  1.00  0.00     0.126 C 
HETATM   16  C6  UNL     1      -7.239   1.112  17.155  1.00  0.00     0.021 C 
HETATM   17  C7  UNL     1      -7.539   2.538  16.783  1.00  0.00     0.021 C 
ENDBRANCH  10  11
ENDBRANCH   1  10
TORSDOF 3
ENDMDL
MODEL 3
REMARK VINA RESULT: -6.755434748      2.490      5.087
REMARK  3 active torsions:
REMARK  status: ('A' for Active; 'I' for Inactive)
REMARK    1  A    between atoms: C2_7  and  S1_8 
REMARK    2  A    between atoms: S1_8  and  C3_9 
REMARK    3  A    between atoms: C3_9  and  C4_10 
REMARK       I    between atoms: C4_10  and  N4_12 
ROOT
HETATM    1  S1  UNL     1      -3.429   4.751  14.496  1.00  0.00    -0.094 SA
ENDROOT
BRANCH   1   2
HETATM    2  C2  UNL     1      -4.029   3.249  15.271  1.00  0.00     0.130 A 
HETATM    3  N3  UNL     1      -3.373   2.128  15.553  1.00  0.00    -0.286 N 
HETATM    4  N2  UNL     1      -3.973   1.166  16.107  1.00  0.00    -0.281 N 
ATOM      5  H3  UNL     1      -2.383   2.046  15.322  1.00  0.00     0.188 HD
HETATM    6  C1  UNL     1      -5.262   1.274  16.408  1.00  0.00     0.175 A 
ATOM      7  H2  UNL     1      -3.469   0.306  16.324  1.00  0.00     0.188 HD
HETATM    8  N1  UNL     1      -6.089   0.276  17.037  1.00  0.00    -0.073 NA
HETATM    9  S2  UNL     1      -5.601   2.854  15.853  1.00  0.00    -0.030 SA
ENDBRANCH   1   2
BRANCH   1  10
HETATM   10  C3  UNL     1      -3.495   4.578  12.684  1.00  0.00     0.184 C 
BRANCH  10  11
HETATM   11  C4  UNL     1      -2.664   3.429  12.242  1.00  0.00     0.229 C 
HETATM   12  O1  UNL     1      -1.420   3.574  12.139  1.00  0.00    -0.273 OA
HETATM   13  N4  UNL     1      -3.239   2.169  11.933  1.00  0.00    -0.351 N 
HETATM   14  C5  UNL     1      -2.617   0.957  11.492  1.00  0.00     0.126 C 
HETATM   15  C8  UNL     1      -4.654   1.875  12.018  1.00  0.00     0.126 C 
HETATM   16  C6  UNL     1      -3.559   0.383  10.491  1.00  0.00     0.021 C 
HETATM   17  C7  UNL     1      -4.909   0.939  10.851  1.00  0.00     0.021 C 
ENDBRANCH  10  11
ENDBRANCH   1  10
TORSDOF 3
ENDMDL
MODEL 4
REMARK VINA RESULT: -6.683592659      2.685      5.159
REMARK  3 active torsions:
REMARK  status: ('A' for Active; 'I' for Inactive)
REMARK    1  A    between atoms: C2_7  and  S1_8 
REMARK    2  A    between atoms: S1_8  and  C3_9 
REMARK    3  A    between atoms: C3_9  and  C4_10 
REMARK       I    between atoms: C4_10  and  N4_12 
ROOT
HETATM    1  S1  UNL     1      -3.110   4.650  14.587  1.00  0.00    -0.094 SA
ENDROOT
BRANCH   1   2
HETATM    2  C2  UNL     1      -3.830   3.159  15.280  1.00  0.00     0.130 A 
HETATM    3  N3  UNL     1      -3.292   1.953  15.423  1.00  0.00    -0.286 N 
HETATM    4  N2  UNL     1      -3.964   1.018  15.940  1.00  0.00    -0.281 N 
ATOM      5  H3  UNL     1      -2.335   1.783  15.115  1.00  0.00     0.188 HD
HETATM    6  C1  UNL     1      -5.210   1.239  16.340  1.00  0.00     0.175 A 
ATOM      7  H2  UNL     1      -3.550   0.092  16.049  1.00  0.00     0.188 HD
HETATM    8  N1  UNL     1      -6.106   0.287  16.945  1.00  0.00    -0.073 NA
HETATM    9  S2  UNL     1      -5.398   2.890  15.940  1.00  0.00    -0.030 SA
ENDBRANCH   1   2
BRANCH   1  10
HETATM   10  C3  UNL     1      -2.791   4.410  12.810  1.00  0.00     0.184 C 
BRANCH  10  11
HETATM   11  C4  UNL     1      -3.959   3.764  12.157  1.00  0.00     0.229 C 
HETATM   12  O1  UNL     1      -5.070   4.349  12.166  1.00  0.00    -0.273 OA
HETATM   13  N4  UNL     1      -3.850   2.499  11.521  1.00  0.00    -0.351 N 
HETATM   14  C5  UNL     1      -4.845   1.720  10.849  1.00  0.00     0.126 C 
HETATM   15  C8  UNL     1      -2.627   1.731  11.438  1.00  0.00     0.126 C 
HETATM   16  C6  UNL     1      -4.549   0.309  11.226  1.00  0.00     0.021 C 
HETATM   17  C7  UNL     1      -3.085   0.290  11.571  1.00  0.00     0.021 C 
ENDBRANCH  10  11
ENDBRANCH   1  10
TORSDOF 3
ENDMDL
MODEL 5
REMARK VINA RESULT: -6.487869116      2.576      2.956
REMARK  3 active torsions:
REMARK  status: ('A' for Active; 'I' for Inactive)
REMARK    1  A    between atoms: C2_7  and  S1_8 
REMARK    2  A    between atoms: S1_8  and  C3_9 
REMARK    3  A    between atoms: C3_9  and  C4_10 
REMARK       I    between atoms: C4_10  and  N4_12 
ROOT
HETATM    1  S1  UNL     1      -3.724   3.110  13.272  1.00  0.00    -0.094 SA
ENDROOT
BRANCH   1   2
HETATM    2  C2  UNL     1      -2.212   3.514  12.394  1.00  0.00     0.130 A 
HETATM    3  N3  UNL     1      -1.158   4.207  12.809  1.00  0.00    -0.286 N 
HETATM    4  N2  UNL     1      -0.175   4.389  12.038  1.00  0.00    -0.281 N 
ATOM      5  H3  UNL     1      -1.142   4.593  13.753  1.00  0.00     0.188 HD
HETATM    6  C1  UNL     1      -0.196   3.886  10.809  1.00  0.00     0.175 A 
ATOM      7  H2  UNL     1       0.634   4.922  12.358  1.00  0.00     0.188 HD
HETATM    8  N1  UNL     1       0.835   4.001   9.810  1.00  0.00    -0.073 NA
HETATM    9  S2  UNL     1      -1.722   3.116  10.791  1.00  0.00    -0.030 SA
ENDBRANCH   1   2
BRANCH   1  10
HETATM   10  C3  UNL     1      -3.606   3.684  14.996  1.00  0.00     0.184 C 
BRANCH  10  11
HETATM   11  C4  UNL     1      -3.869   2.562  15.935  1.00  0.00     0.229 C 
HETATM   12  O1  UNL     1      -2.968   1.711  16.142  1.00  0.00    -0.273 OA
HETATM   13  N4  UNL     1      -5.113   2.427  16.604  1.00  0.00    -0.351 N 
HETATM   14  C5  UNL     1      -5.555   1.428  17.530  1.00  0.00     0.126 C 
HETATM   15  C8  UNL     1      -6.223   3.343  16.455  1.00  0.00     0.126 C 
HETATM   16  C6  UNL     1      -6.983   1.185  17.181  1.00  0.00     0.021 C 
HETATM   17  C7  UNL     1      -7.450   2.451  16.516  1.00  0.00     0.021 C 
ENDBRANCH  10  11
ENDBRANCH   1  10
TORSDOF 3
ENDMDL
